REMARK SMILES Cc1ccc(C(=O)N[C@@H]2C=C[C@H](C(=O)NCCCCNC(=O)c3ccc(-c4c5nc(c(-c6c(F)cccc6F)c6ccc([nH]6)c(-c6c(F)cccc6F)c6nc(c(-c7c(F)cccc7F)c7ccc4[nH]7)C=C6)C=C5)cc3)C2)c(F)c1
REMARK SMILES IDX 17 1 16 2 15 3 13 4 14 5 12 7 9 8 10 9 77 10 11 11 8 12 6 13
REMARK SMILES IDX 7 14 5 16 1 17 2 18 3 19 80 20 4 21 78 22 79 23 18 24 19 25
REMARK SMILES IDX 20 26 21 27 22 29 23 30 24 31 76 32 25 33 75 34 26 35 27 36
REMARK SMILES IDX 28 37 69 38 29 39 74 40 68 41 70 42 30 43 73 44 67 45 66 46
REMARK SMILES IDX 31 48 57 49 40 50 56 51 41 52 44 53 55 54 71 55 42 56 43 57
REMARK SMILES IDX 54 59 72 60 45 61 32 62 33 63 38 64 34 65 35 66 37 67 39 68
REMARK SMILES IDX 36 69 58 70 59 71 64 72 60 73 61 74 63 75 65 76 62 77 46 78
REMARK SMILES IDX 47 79 52 80 48 81 49 82 51 83 53 84 50 85
REMARK H PARENT 15 6 8 15 20 28 70 47 44 58
REMARK Flexibility Score: inf
ROOT
ATOM      1  C   UNL     1       1.576  -9.213   3.024  1.00  0.00     0.023 C 
ENDROOT
BRANCH   1   2
ATOM      2  C   UNL     1       1.764  -7.703   3.159  1.00  0.00     0.116 C 
BRANCH   2   3
ATOM      3  N   UNL     1       2.343  -7.087   1.979  1.00  0.00    -0.356 N 
ATOM      4  C   UNL     1       2.110  -5.839   1.461  1.00  0.00     0.227 C 
ATOM      5  O   UNL     1       2.839  -5.442   0.554  1.00  0.00    -0.274 OA
ATOM      6  H   UNL     1       2.990  -7.640   1.484  1.00  0.00     0.163 HD
BRANCH   4   7
ATOM      7  C   UNL     1       0.921  -5.039   2.000  1.00  0.00     0.103 C 
ATOM      8  C   UNL     1      -0.816  -4.411   0.344  1.00  0.00     0.106 C 
ATOM      9  C   UNL     1      -0.009  -3.237   0.808  1.00  0.00    -0.006 C 
ATOM     10  C   UNL     1      -0.357  -5.519   1.307  1.00  0.00     0.047 C 
ATOM     11  C   UNL     1       0.946  -3.580   1.679  1.00  0.00    -0.016 C 
BRANCH   8  12
ATOM     12  N   UNL     1      -0.568  -4.565  -1.079  1.00  0.00    -0.346 N 
ATOM     13  C   UNL     1      -0.915  -5.534  -1.990  1.00  0.00     0.254 C 
ATOM     14  O   UNL     1      -0.881  -5.275  -3.189  1.00  0.00    -0.269 OA
ATOM     15  H   UNL     1      -0.045  -3.828  -1.469  1.00  0.00     0.164 HD
BRANCH  13  16
ATOM     16  C   UNL     1      -1.226  -6.902  -1.550  1.00  0.00     0.075 A 
ATOM     17  C   UNL     1      -1.265 -10.760   0.329  1.00  0.00     0.044 C 
ATOM     18  C   UNL     1      -1.327  -9.445  -0.391  1.00  0.00    -0.048 A 
ATOM     19  C   UNL     1      -2.222  -8.445   0.017  1.00  0.00     0.004 A 
ATOM     20  C   UNL     1      -0.487  -9.204  -1.482  1.00  0.00     0.043 A 
ATOM     21  C   UNL     1      -2.190  -7.178  -0.577  1.00  0.00     0.017 A 
ATOM     22  C   UNL     1      -0.432  -7.935  -2.049  1.00  0.00     0.136 A 
ATOM     23  F   UNL     1       0.457  -7.721  -3.030  1.00  0.00    -0.206 F 
ENDBRANCH  13  16
ENDBRANCH   8  12
ENDBRANCH   4   7
ENDBRANCH   2   3
ENDBRANCH   1   2
BRANCH   1  24
ATOM     24  C   UNL     1       2.835 -10.019   2.699  1.00  0.00     0.023 C 
BRANCH  24  25
ATOM     25  C   UNL     1       4.032  -9.779   3.612  1.00  0.00     0.116 C 
BRANCH  25  26
ATOM     26  N   UNL     1       3.761 -10.101   5.002  1.00  0.00    -0.352 N 
ATOM     27  C   UNL     1       4.497 -10.841   5.895  1.00  0.00     0.251 C 
ATOM     28  H   UNL     1       2.920  -9.733   5.359  1.00  0.00     0.163 HD
ATOM     29  O   UNL     1       4.022 -11.104   6.995  1.00  0.00    -0.269 OA
BRANCH  27  30
ATOM     30  C   UNL     1       5.844 -11.347   5.538  1.00  0.00     0.039 A 
ATOM     31  C   UNL     1       6.206 -12.630   5.958  1.00  0.00     0.014 A 
ATOM     32  C   UNL     1       6.762 -10.565   4.831  1.00  0.00     0.014 A 
ATOM     33  C   UNL     1       7.465 -13.141   5.634  1.00  0.00     0.010 A 
ATOM     34  C   UNL     1       7.983 -11.108   4.434  1.00  0.00     0.010 A 
ATOM     35  C   UNL     1       8.358 -12.394   4.848  1.00  0.00    -0.014 A 
BRANCH  35  36
ATOM     36  C   UNL     1       9.688 -12.946   4.478  1.00  0.00     0.031 A 
ATOM     37  C   UNL     1      10.951 -12.282   4.957  1.00  0.00     0.074 A 
ATOM     38  C   UNL     1       9.762 -14.027   3.679  1.00  0.00     0.049 A 
ATOM     39  N   UNL     1      12.197 -12.629   4.752  1.00  0.00    -0.248 NA
ATOM     40  C   UNL     1      10.796 -11.050   5.745  1.00  0.00     0.031 C 
ATOM     41  C   UNL     1       8.617 -14.721   3.087  1.00  0.00     0.029 A 
ATOM     42  N   UNL     1      10.849 -14.730   3.222  1.00  0.00    -0.354 N 
ATOM     43  C   UNL     1      12.970 -11.653   5.369  1.00  0.00     0.074 A 
ATOM     44  C   UNL     1      12.054 -10.668   5.902  1.00  0.00     0.031 C 
ATOM     45  C   UNL     1       9.060 -15.765   2.370  1.00  0.00     0.029 A 
ATOM     46  C   UNL     1      10.518 -15.799   2.426  1.00  0.00     0.049 A 
ATOM     47  H   UNL     1      11.778 -14.490   3.444  1.00  0.00     0.167 HD
ATOM     48  C   UNL     1      14.317 -11.592   5.502  1.00  0.00     0.037 A 
ATOM     49  C   UNL     1      11.300 -16.706   1.811  1.00  0.00     0.037 A 
ATOM     50  C   UNL     1      15.225 -12.584   4.986  1.00  0.00     0.049 A 
ATOM     51  C   UNL     1      12.790 -16.641   1.999  1.00  0.00     0.074 A 
ATOM     52  C   UNL     1      16.599 -12.656   5.135  1.00  0.00     0.029 A 
ATOM     53  N   UNL     1      14.850 -13.672   4.212  1.00  0.00    -0.354 N 
ATOM     54  N   UNL     1      13.502 -15.767   2.669  1.00  0.00    -0.248 NA
ATOM     55  C   UNL     1      13.583 -17.701   1.362  1.00  0.00     0.031 C 
ATOM     56  C   UNL     1      17.061 -13.756   4.403  1.00  0.00     0.029 A 
ATOM     57  C   UNL     1      15.969 -14.406   3.851  1.00  0.00     0.049 A 
ATOM     58  H   UNL     1      13.924 -13.890   3.956  1.00  0.00     0.167 HD
ATOM     59  C   UNL     1      14.822 -16.184   2.556  1.00  0.00     0.074 A 
ATOM     60  C   UNL     1      14.808 -17.400   1.769  1.00  0.00     0.031 C 
ATOM     61  C   UNL     1      15.944 -15.612   3.060  1.00  0.00     0.037 A 
BRANCH  48  62
ATOM     62  C   UNL     1      14.886 -10.403   6.225  1.00  0.00     0.057 A 
ATOM     63  C   UNL     1      14.683 -10.198   7.598  1.00  0.00     0.134 A 
ATOM     64  C   UNL     1      15.654  -9.452   5.542  1.00  0.00     0.134 A 
ATOM     65  F   UNL     1      13.948 -11.062   8.314  1.00  0.00    -0.206 F 
ATOM     66  C   UNL     1      15.187  -9.072   8.253  1.00  0.00     0.040 A 
ATOM     67  C   UNL     1      16.192  -8.340   6.192  1.00  0.00     0.040 A 
ATOM     68  F   UNL     1      15.897  -9.587   4.229  1.00  0.00    -0.206 F 
ATOM     69  C   UNL     1      15.949  -8.141   7.550  1.00  0.00     0.006 A 
ENDBRANCH  48  62
BRANCH  49  70
ATOM     70  C   UNL     1      10.678 -17.775   0.989  1.00  0.00     0.057 A 
ATOM     71  C   UNL     1      10.663 -19.107   1.418  1.00  0.00     0.134 A 
ATOM     72  C   UNL     1      10.066 -17.485  -0.236  1.00  0.00     0.134 A 
ATOM     73  F   UNL     1      11.247 -19.450   2.576  1.00  0.00    -0.206 F 
ATOM     74  C   UNL     1      10.076 -20.116   0.652  1.00  0.00     0.040 A 
ATOM     75  C   UNL     1       9.451 -18.479  -1.000  1.00  0.00     0.040 A 
ATOM     76  F   UNL     1      10.036 -16.226  -0.697  1.00  0.00    -0.206 F 
ATOM     77  C   UNL     1       9.461 -19.800  -0.558  1.00  0.00     0.006 A 
ENDBRANCH  49  70
BRANCH  61  78
ATOM     78  C   UNL     1      17.247 -16.316   2.802  1.00  0.00     0.057 A 
ATOM     79  C   UNL     1      17.820 -16.377   1.525  1.00  0.00     0.134 A 
ATOM     80  C   UNL     1      17.943 -16.929   3.852  1.00  0.00     0.134 A 
ATOM     81  F   UNL     1      17.201 -15.820   0.473  1.00  0.00    -0.206 F 
ATOM     82  C   UNL     1      19.020 -17.055   1.295  1.00  0.00     0.040 A 
ATOM     83  C   UNL     1      19.159 -17.582   3.640  1.00  0.00     0.040 A 
ATOM     84  F   UNL     1      17.458 -16.899   5.102  1.00  0.00    -0.206 F 
ATOM     85  C   UNL     1      19.695 -17.655   2.356  1.00  0.00     0.006 A 
ENDBRANCH  61  78
ENDBRANCH  35  36
ENDBRANCH  27  30
ENDBRANCH  25  26
ENDBRANCH  24  25
ENDBRANCH   1  24
TORSDOF 13
