REMARK SMILES CN(CC(=O)NCCCCNC(=O)c1ccc(-c2c3nc(c(-c4c(F)cccc4F)c4ccc([nH]4)c(-c4c(F)cccc4F)c4nc(c(-c5c(F)cccc5F)c5ccc2[nH]5)C=C4)C=C3)cc1)c1ncc(-c2nnnn2-c2ccccc2)c(-c2ccc(Cl)cc2)n1
REMARK SMILES IDX 7 1 6 2 4 3 5 4 3 6 2 7 1 8 68 9 69 10 91 11 70 12 83 13
REMARK SMILES IDX 71 14 84 15 85 16 90 17 86 18 89 19 87 20 88 21 72 22 73 23
REMARK SMILES IDX 76 24 74 25 75 26 77 27 78 28 82 29 79 30 81 31 80 32 8 33
REMARK SMILES IDX 9 34 10 35 11 36 12 37 13 39 14 40 15 41 67 42 16 43 66 44
REMARK SMILES IDX 17 45 18 46 19 47 60 48 20 49 65 50 59 51 61 52 21 53 64 54
REMARK SMILES IDX 58 55 57 56 22 58 48 59 31 60 47 61 32 62 35 63 46 64 62 65
REMARK SMILES IDX 33 66 34 67 45 69 63 70 36 71 23 72 24 73 29 74 25 75 26 76
REMARK SMILES IDX 28 77 30 78 27 79 49 80 50 81 55 82 51 83 52 84 54 85 56 86
REMARK SMILES IDX 53 87 37 88 38 89 43 90 39 91 40 92 42 93 44 94 41 95
REMARK H PARENT 6 5 11 38 61 57 35 68
REMARK Flexibility Score: inf
ROOT
ATOM      1  C   UNL     1      -2.135   0.046   0.294  1.00  0.00     0.116 C 
ENDROOT
BRANCH   1   2
ATOM      2  N   UNL     1      -2.465   1.262  -0.416  1.00  0.00    -0.355 N 
ATOM      3  C   UNL     1      -1.649   2.036  -1.196  1.00  0.00     0.239 C 
ATOM      4  O   UNL     1      -2.149   3.017  -1.756  1.00  0.00    -0.273 OA
ATOM      5  H   UNL     1      -3.395   1.571  -0.328  1.00  0.00     0.163 HD
BRANCH   3   6
ATOM      6  C   UNL     1      -0.198   1.608  -1.460  1.00  0.00     0.219 C 
BRANCH   6   7
ATOM      7  N   UNL     1       0.632   1.446  -0.265  1.00  0.00    -0.335 N 
ATOM      8  C   UNL     1       1.498   0.299  -0.122  1.00  0.00     0.147 C 
BRANCH   7   9
ATOM      9  C   UNL     1       0.926   2.572   0.471  1.00  0.00     0.226 A 
ATOM     10  N   UNL     1      -0.062   3.439   0.703  1.00  0.00    -0.221 NA
ATOM     11  N   UNL     1       2.160   2.738   0.974  1.00  0.00    -0.212 NA
ATOM     12  C   UNL     1       0.191   4.471   1.522  1.00  0.00     0.129 A 
ATOM     13  C   UNL     1       2.414   3.825   1.751  1.00  0.00     0.087 A 
ATOM     14  C   UNL     1       1.413   4.707   2.116  1.00  0.00     0.066 A 
BRANCH  13  15
ATOM     15  C   UNL     1       3.832   3.978   2.128  1.00  0.00     0.001 A 
ATOM     16  C   UNL     1       4.808   4.136   1.126  1.00  0.00     0.012 A 
ATOM     17  C   UNL     1       4.263   3.980   3.466  1.00  0.00     0.012 A 
ATOM     18  C   UNL     1       6.158   4.312   1.447  1.00  0.00     0.021 A 
ATOM     19  C   UNL     1       5.612   4.153   3.791  1.00  0.00     0.021 A 
ATOM     20  C   UNL     1       6.554   4.322   2.781  1.00  0.00     0.041 A 
ATOM     21  Cl  UNL     1       8.211   4.539   3.184  1.00  0.00    -0.084 Cl
ENDBRANCH  13  15
BRANCH  14  22
ATOM     22  C   UNL     1       1.561   5.832   3.018  1.00  0.00     0.190 A 
ATOM     23  N   UNL     1       2.202   6.955   2.759  1.00  0.00    -0.108 NA
ATOM     24  N   UNL     1       0.861   6.003   4.208  1.00  0.00    -0.193 N 
ATOM     25  N   UNL     1       1.812   7.852   3.716  1.00  0.00    -0.023 NA
ATOM     26  N   UNL     1       0.942   7.308   4.553  1.00  0.00    -0.040 NA
BRANCH  24  27
ATOM     27  C   UNL     1       0.162   5.067   5.012  1.00  0.00     0.069 A 
ATOM     28  C   UNL     1      -0.899   5.509   5.813  1.00  0.00     0.028 A 
ATOM     29  C   UNL     1       0.544   3.718   5.054  1.00  0.00     0.028 A 
ATOM     30  C   UNL     1      -1.583   4.604   6.628  1.00  0.00     0.002 A 
ATOM     31  C   UNL     1      -0.115   2.830   5.906  1.00  0.00     0.002 A 
ATOM     32  C   UNL     1      -1.183   3.270   6.685  1.00  0.00     0.000 A 
ENDBRANCH  24  27
ENDBRANCH  14  22
ENDBRANCH   7   9
ENDBRANCH   6   7
ENDBRANCH   3   6
ENDBRANCH   1   2
BRANCH   1  33
ATOM     33  C   UNL     1      -1.931   0.286   1.789  1.00  0.00     0.023 C 
BRANCH  33  34
ATOM     34  C   UNL     1      -3.186   0.740   2.539  1.00  0.00     0.023 C 
BRANCH  34  35
ATOM     35  C   UNL     1      -4.391  -0.186   2.409  1.00  0.00     0.116 C 
BRANCH  35  36
ATOM     36  N   UNL     1      -4.126  -1.535   2.886  1.00  0.00    -0.352 N 
ATOM     37  C   UNL     1      -4.908  -2.347   3.670  1.00  0.00     0.251 C 
ATOM     38  H   UNL     1      -3.265  -1.921   2.606  1.00  0.00     0.163 HD
ATOM     39  O   UNL     1      -4.463  -3.413   4.088  1.00  0.00    -0.269 OA
BRANCH  37  40
ATOM     40  C   UNL     1      -6.273  -1.920   4.044  1.00  0.00     0.039 A 
ATOM     41  C   UNL     1      -6.678  -2.051   5.375  1.00  0.00     0.014 A 
ATOM     42  C   UNL     1      -7.146  -1.379   3.096  1.00  0.00     0.014 A 
ATOM     43  C   UNL     1      -7.929  -1.574   5.768  1.00  0.00     0.010 A 
ATOM     44  C   UNL     1      -8.363  -0.837   3.503  1.00  0.00     0.010 A 
ATOM     45  C   UNL     1      -8.766  -0.925   4.845  1.00  0.00    -0.014 A 
BRANCH  45  46
ATOM     46  C   UNL     1     -10.053  -0.317   5.272  1.00  0.00     0.031 A 
ATOM     47  C   UNL     1     -11.357  -0.822   4.715  1.00  0.00     0.074 A 
ATOM     48  C   UNL     1     -10.043   0.738   6.112  1.00  0.00     0.049 A 
ATOM     49  N   UNL     1     -12.570  -0.377   4.924  1.00  0.00    -0.248 NA
ATOM     50  C   UNL     1     -11.287  -1.958   3.782  1.00  0.00     0.031 C 
ATOM     51  C   UNL     1      -8.842   1.360   6.676  1.00  0.00     0.029 A 
ATOM     52  N   UNL     1     -11.073   1.485   6.627  1.00  0.00    -0.354 N 
ATOM     53  C   UNL     1     -13.402  -1.163   4.137  1.00  0.00     0.074 A 
ATOM     54  C   UNL     1     -12.554  -2.085   3.413  1.00  0.00     0.031 C 
ATOM     55  C   UNL     1      -9.205   2.382   7.467  1.00  0.00     0.029 A 
ATOM     56  C   UNL     1     -10.658   2.515   7.437  1.00  0.00     0.049 A 
ATOM     57  H   UNL     1     -12.021   1.300   6.434  1.00  0.00     0.167 HD
ATOM     58  C   UNL     1     -14.753  -1.130   4.040  1.00  0.00     0.037 A 
ATOM     59  C   UNL     1     -11.366   3.470   8.072  1.00  0.00     0.037 A 
ATOM     60  C   UNL     1     -15.597  -0.235   4.787  1.00  0.00     0.049 A 
ATOM     61  C   UNL     1     -12.866   3.473   7.953  1.00  0.00     0.074 A 
ATOM     62  C   UNL     1     -16.980  -0.188   4.822  1.00  0.00     0.029 A 
ATOM     63  N   UNL     1     -15.141   0.772   5.622  1.00  0.00    -0.354 N 
ATOM     64  N   UNL     1     -13.644   2.660   7.280  1.00  0.00    -0.248 NA
ATOM     65  C   UNL     1     -13.588   4.521   8.689  1.00  0.00     0.031 C 
ATOM     66  C   UNL     1     -17.361   0.885   5.633  1.00  0.00     0.029 A 
ATOM     67  C   UNL     1     -16.216   1.467   6.152  1.00  0.00     0.049 A 
ATOM     68  H   UNL     1     -14.194   0.965   5.811  1.00  0.00     0.167 HD
ATOM     69  C   UNL     1     -14.944   3.080   7.535  1.00  0.00     0.074 A 
ATOM     70  C   UNL     1     -14.851   4.205   8.440  1.00  0.00     0.031 C 
ATOM     71  C   UNL     1     -16.110   2.580   7.060  1.00  0.00     0.037 A 
BRANCH  58  72
ATOM     72  C   UNL     1     -15.415  -2.090   3.095  1.00  0.00     0.057 A 
ATOM     73  C   UNL     1     -15.484  -3.464   3.361  1.00  0.00     0.134 A 
ATOM     74  C   UNL     1     -16.062  -1.622   1.944  1.00  0.00     0.134 A 
ATOM     75  F   UNL     1     -14.877  -3.979   4.441  1.00  0.00    -0.206 F 
ATOM     76  C   UNL     1     -16.162  -4.338   2.509  1.00  0.00     0.040 A 
ATOM     77  C   UNL     1     -16.766  -2.482   1.100  1.00  0.00     0.040 A 
ATOM     78  F   UNL     1     -16.041  -0.316   1.635  1.00  0.00    -0.206 F 
ATOM     79  C   UNL     1     -16.815  -3.846   1.381  1.00  0.00     0.006 A 
ENDBRANCH  58  72
BRANCH  59  80
ATOM     80  C   UNL     1     -10.673   4.510   8.876  1.00  0.00     0.057 A 
ATOM     81  C   UNL     1     -10.818   4.572  10.267  1.00  0.00     0.134 A 
ATOM     82  C   UNL     1      -9.882   5.493   8.268  1.00  0.00     0.134 A 
ATOM     83  F   UNL     1     -11.577   3.670  10.907  1.00  0.00    -0.206 F 
ATOM     84  C   UNL     1     -10.233   5.592  11.020  1.00  0.00     0.040 A 
ATOM     85  C   UNL     1      -9.266   6.501   9.012  1.00  0.00     0.040 A 
ATOM     86  F   UNL     1      -9.693   5.486   6.940  1.00  0.00    -0.206 F 
ATOM     87  C   UNL     1      -9.452   6.560  10.391  1.00  0.00     0.006 A 
ENDBRANCH  59  80
BRANCH  71  88
ATOM     88  C   UNL     1     -17.381   3.219   7.540  1.00  0.00     0.057 A 
ATOM     89  C   UNL     1     -17.766   4.503   7.135  1.00  0.00     0.134 A 
ATOM     90  C   UNL     1     -18.249   2.523   8.392  1.00  0.00     0.134 A 
ATOM     91  F   UNL     1     -16.975   5.228   6.330  1.00  0.00    -0.206 F 
ATOM     92  C   UNL     1     -18.955   5.082   7.581  1.00  0.00     0.040 A 
ATOM     93  C   UNL     1     -19.455   3.079   8.820  1.00  0.00     0.040 A 
ATOM     94  F   UNL     1     -17.947   1.284   8.811  1.00  0.00    -0.206 F 
ATOM     95  C   UNL     1     -19.807   4.367   8.420  1.00  0.00     0.006 A 
ENDBRANCH  71  88
ENDBRANCH  45  46
ENDBRANCH  37  40
ENDBRANCH  35  36
ENDBRANCH  34  35
ENDBRANCH  33  34
ENDBRANCH   1  33
TORSDOF 16
