REMARK SMILES C[C@@H]1[C@@H](C(=O)NCCCCNC(=O)c2ccc(-c3c4nc(c(-c5c(F)cccc5F)c5ccc([nH]5)c(-c5c(F)cccc5F)c5nc(c(-c6c(F)cccc6F)c6ccc3[nH]6)C=C5)C=C4)cc2)CCN1C(=O)[C@@H]1CCCN(C(N)=O)C1
REMARK SMILES IDX 8 1 7 2 6 3 4 4 5 5 3 7 1 8 2 9 70 10 68 11 69 12 71 13
REMARK SMILES IDX 72 14 73 15 74 16 81 17 75 18 77 19 76 20 78 21 79 22 80 23
REMARK SMILES IDX 9 26 10 27 11 28 12 29 13 31 14 32 15 33 67 34 16 35 66 36
REMARK SMILES IDX 17 37 18 38 19 39 60 40 20 41 65 42 59 43 61 44 21 45 64 46
REMARK SMILES IDX 58 47 57 48 22 50 48 51 31 52 47 53 32 54 35 55 46 56 62 57
REMARK SMILES IDX 33 58 34 59 45 61 63 62 36 63 23 64 24 65 29 66 25 67 26 68
REMARK SMILES IDX 28 69 30 70 27 71 49 72 50 73 55 74 51 75 52 76 54 77 56 78
REMARK SMILES IDX 53 79 37 80 38 81 43 82 39 83 40 84 42 85 44 86 41 87
REMARK H PARENT 6 6 79 24 79 25 11 30 61 49 35 60
REMARK Flexibility Score: inf
ROOT
ATOM      1  C   UNL     1      -3.005   4.558  -0.989  1.00  0.00     0.023 C 
ENDROOT
BRANCH   1   2
ATOM      2  C   UNL     1      -2.781   3.119  -0.541  1.00  0.00     0.116 C 
BRANCH   2   3
ATOM      3  N   UNL     1      -2.144   2.300  -1.555  1.00  0.00    -0.356 N 
ATOM      4  C   UNL     1      -1.254   1.276  -1.388  1.00  0.00     0.225 C 
ATOM      5  O   UNL     1      -0.993   0.573  -2.360  1.00  0.00    -0.275 OA
ATOM      6  H   UNL     1      -2.384   2.509  -2.487  1.00  0.00     0.163 HD
BRANCH   4   7
ATOM      7  C   UNL     1      -0.673   1.044  -0.003  1.00  0.00     0.102 C 
ATOM      8  C   UNL     1       1.343   0.310   1.275  1.00  0.00     0.032 C 
ATOM      9  C   UNL     1       0.486   0.024   0.031  1.00  0.00     0.094 C 
ATOM     10  N   UNL     1      -0.186  -1.277   0.134  1.00  0.00    -0.339 N 
ATOM     11  C   UNL     1      -1.716   0.380   0.900  1.00  0.00     0.037 C 
ATOM     12  C   UNL     1      -1.567  -1.094   0.564  1.00  0.00     0.120 C 
BRANCH  10  13
ATOM     13  C   UNL     1       0.190  -2.538  -0.267  1.00  0.00     0.227 C 
ATOM     14  O   UNL     1      -0.634  -3.462  -0.158  1.00  0.00    -0.275 OA
BRANCH  13  15
ATOM     15  C   UNL     1       1.544  -2.904  -0.895  1.00  0.00     0.098 C 
ATOM     16  C   UNL     1       2.827  -2.652  -0.108  1.00  0.00     0.017 C 
ATOM     17  C   UNL     1       1.649  -2.562  -2.376  1.00  0.00     0.134 C 
ATOM     18  C   UNL     1       3.645  -1.437  -0.535  1.00  0.00     0.022 C 
ATOM     19  N   UNL     1       2.312  -1.288  -2.626  1.00  0.00    -0.324 N 
ATOM     20  C   UNL     1       3.632  -1.139  -2.029  1.00  0.00     0.121 C 
BRANCH  19  21
ATOM     21  C   UNL     1       1.918  -0.373  -3.578  1.00  0.00     0.314 C 
ATOM     22  N   UNL     1       0.723  -0.593  -4.168  1.00  0.00    -0.351 N 
ATOM     23  O   UNL     1       2.581   0.603  -3.916  1.00  0.00    -0.249 OA
ATOM     24  H   UNL     1       0.181  -1.372  -3.906  1.00  0.00     0.161 HD
ATOM     25  H   UNL     1       0.394   0.025  -4.860  1.00  0.00     0.161 HD
ENDBRANCH  19  21
ENDBRANCH  13  15
ENDBRANCH  10  13
ENDBRANCH   4   7
ENDBRANCH   2   3
ENDBRANCH   1   2
BRANCH   1  26
ATOM     26  C   UNL     1      -3.801   4.726  -2.282  1.00  0.00     0.023 C 
BRANCH  26  27
ATOM     27  C   UNL     1      -5.071   3.891  -2.387  1.00  0.00     0.116 C 
BRANCH  27  28
ATOM     28  N   UNL     1      -6.000   4.122  -1.293  1.00  0.00    -0.352 N 
ATOM     29  C   UNL     1      -7.324   4.481  -1.337  1.00  0.00     0.251 C 
ATOM     30  H   UNL     1      -5.626   4.004  -0.390  1.00  0.00     0.163 HD
ATOM     31  O   UNL     1      -7.929   4.745  -0.302  1.00  0.00    -0.269 OA
BRANCH  29  32
ATOM     32  C   UNL     1      -8.007   4.583  -2.641  1.00  0.00     0.039 A 
ATOM     33  C   UNL     1      -8.745   5.734  -2.925  1.00  0.00     0.014 A 
ATOM     34  C   UNL     1      -7.890   3.564  -3.589  1.00  0.00     0.014 A 
ATOM     35  C   UNL     1      -9.313   5.892  -4.189  1.00  0.00     0.010 A 
ATOM     36  C   UNL     1      -8.383   3.761  -4.874  1.00  0.00     0.010 A 
ATOM     37  C   UNL     1      -9.106   4.923  -5.184  1.00  0.00    -0.014 A 
BRANCH  37  38
ATOM     38  C   UNL     1      -9.659   5.093  -6.550  1.00  0.00     0.031 A 
ATOM     39  C   UNL     1     -10.686   4.124  -7.068  1.00  0.00     0.074 A 
ATOM     40  C   UNL     1      -9.197   6.079  -7.343  1.00  0.00     0.049 A 
ATOM     41  N   UNL     1     -11.240   4.059  -8.251  1.00  0.00    -0.248 NA
ATOM     42  C   UNL     1     -11.124   3.069  -6.140  1.00  0.00     0.031 C 
ATOM     43  C   UNL     1      -8.168   7.053  -6.973  1.00  0.00     0.029 A 
ATOM     44  N   UNL     1      -9.528   6.419  -8.630  1.00  0.00    -0.354 N 
ATOM     45  C   UNL     1     -12.074   2.949  -8.214  1.00  0.00     0.074 A 
ATOM     46  C   UNL     1     -11.908   2.336  -6.915  1.00  0.00     0.031 C 
ATOM     47  C   UNL     1      -7.973   7.897  -7.999  1.00  0.00     0.029 A 
ATOM     48  C   UNL     1      -8.833   7.503  -9.110  1.00  0.00     0.049 A 
ATOM     49  H   UNL     1     -10.200   5.933  -9.160  1.00  0.00     0.167 HD
ATOM     50  C   UNL     1     -12.923   2.496  -9.167  1.00  0.00     0.037 A 
ATOM     51  C   UNL     1      -8.884   8.107 -10.312  1.00  0.00     0.037 A 
ATOM     52  C   UNL     1     -13.106   3.125 -10.448  1.00  0.00     0.049 A 
ATOM     53  C   UNL     1      -9.837   7.588 -11.353  1.00  0.00     0.074 A 
ATOM     54  C   UNL     1     -13.979   2.777 -11.463  1.00  0.00     0.029 A 
ATOM     55  N   UNL     1     -12.401   4.236 -10.887  1.00  0.00    -0.354 N 
ATOM     56  N   UNL     1     -10.667   6.575 -11.284  1.00  0.00    -0.248 NA
ATOM     57  C   UNL     1      -9.867   8.301 -12.638  1.00  0.00     0.031 C 
ATOM     58  C   UNL     1     -13.774   3.654 -12.534  1.00  0.00     0.029 A 
ATOM     59  C   UNL     1     -12.809   4.578 -12.166  1.00  0.00     0.049 A 
ATOM     60  H   UNL     1     -11.713   4.711 -10.368  1.00  0.00     0.167 HD
ATOM     61  C   UNL     1     -11.341   6.550 -12.498  1.00  0.00     0.074 A 
ATOM     62  C   UNL     1     -10.829   7.655 -13.281  1.00  0.00     0.031 C 
ATOM     63  C   UNL     1     -12.299   5.691 -12.925  1.00  0.00     0.037 A 
BRANCH  50  64
ATOM     64  C   UNL     1     -13.719   1.263  -8.850  1.00  0.00     0.057 A 
ATOM     65  C   UNL     1     -14.741   1.269  -7.890  1.00  0.00     0.134 A 
ATOM     66  C   UNL     1     -13.471   0.059  -9.520  1.00  0.00     0.134 A 
ATOM     67  F   UNL     1     -15.020   2.386  -7.201  1.00  0.00    -0.206 F 
ATOM     68  C   UNL     1     -15.464   0.115  -7.585  1.00  0.00     0.040 A 
ATOM     69  C   UNL     1     -14.208  -1.095  -9.244  1.00  0.00     0.040 A 
ATOM     70  F   UNL     1     -12.511  -0.017 -10.454  1.00  0.00    -0.206 F 
ATOM     71  C   UNL     1     -15.202  -1.071  -8.268  1.00  0.00     0.006 A 
ENDBRANCH  50  64
BRANCH  51  72
ATOM     72  C   UNL     1      -8.034   9.293 -10.586  1.00  0.00     0.057 A 
ATOM     73  C   UNL     1      -8.597  10.569 -10.711  1.00  0.00     0.134 A 
ATOM     74  C   UNL     1      -6.647   9.183 -10.734  1.00  0.00     0.134 A 
ATOM     75  F   UNL     1      -9.922  10.736 -10.597  1.00  0.00    -0.206 F 
ATOM     76  C   UNL     1      -7.814  11.689 -10.994  1.00  0.00     0.040 A 
ATOM     77  C   UNL     1      -5.848  10.299 -10.992  1.00  0.00     0.040 A 
ATOM     78  F   UNL     1      -6.045   7.990 -10.616  1.00  0.00    -0.206 F 
ATOM     79  C   UNL     1      -6.434  11.556 -11.131  1.00  0.00     0.006 A 
ENDBRANCH  51  72
BRANCH  63  80
ATOM     80  C   UNL     1     -12.891   5.942 -14.280  1.00  0.00     0.057 A 
ATOM     81  C   UNL     1     -12.178   5.695 -15.460  1.00  0.00     0.134 A 
ATOM     82  C   UNL     1     -14.209   6.401 -14.404  1.00  0.00     0.134 A 
ATOM     83  F   UNL     1     -10.908   5.266 -15.410  1.00  0.00    -0.206 F 
ATOM     84  C   UNL     1     -12.748   5.917 -16.715  1.00  0.00     0.040 A 
ATOM     85  C   UNL     1     -14.798   6.601 -15.652  1.00  0.00     0.040 A 
ATOM     86  F   UNL     1     -14.950   6.649 -13.313  1.00  0.00    -0.206 F 
ATOM     87  C   UNL     1     -14.064   6.365 -16.813  1.00  0.00     0.006 A 
ENDBRANCH  63  80
ENDBRANCH  37  38
ENDBRANCH  29  32
ENDBRANCH  27  28
ENDBRANCH  26  27
ENDBRANCH   1  26
TORSDOF 14
