REMARK SMILES [NH3+][C@@H](CC1=C[C@H](S)c2ccccc2C1)C(=O)NCCCCNC(=O)c1ccc(-c2c3nc(c(-c4c(F)cccc4F)c4ccc([nH]4)c(-c4c(F)cccc4F)c4nc(c(-c5c(F)cccc5F)c5ccc2[nH]5)C=C4)C=C3)cc1
REMARK SMILES IDX 19 1 18 2 17 3 15 4 16 5 2 7 1 8 3 12 4 13 5 14 14 15 6 16
REMARK SMILES IDX 13 17 8 18 12 19 9 20 11 21 10 22 7 23 20 25 21 26 22 27
REMARK SMILES IDX 23 28 24 30 25 31 26 32 78 33 27 34 77 35 28 36 29 37 30 38
REMARK SMILES IDX 71 39 31 40 76 41 70 42 72 43 32 44 75 45 69 46 68 47 33 49
REMARK SMILES IDX 59 50 42 51 58 52 43 53 46 54 57 55 73 56 44 57 45 58 56 60
REMARK SMILES IDX 74 61 47 62 34 63 35 64 40 65 36 66 37 67 39 68 41 69 38 70
REMARK SMILES IDX 60 71 61 72 66 73 62 74 63 75 65 76 67 77 64 78 48 79 49 80
REMARK SMILES IDX 54 81 50 82 51 83 53 84 55 85 52 86
REMARK H PARENT 17 6 1 9 1 10 1 11 7 24 22 29 72 48 46 59
REMARK Flexibility Score: inf
ROOT
ATOM      1  C   UNL     1      -1.883   1.954   1.486  1.00  0.00     0.023 C 
ENDROOT
BRANCH   1   2
ATOM      2  C   UNL     1      -1.192   0.607   1.638  1.00  0.00     0.116 C 
BRANCH   2   3
ATOM      3  N   UNL     1      -1.648  -0.412   0.722  1.00  0.00    -0.351 N 
ATOM      4  C   UNL     1      -0.964  -1.442   0.138  1.00  0.00     0.278 C 
ATOM      5  O   UNL     1      -1.650  -2.346  -0.354  1.00  0.00    -0.268 OA
ATOM      6  H   UNL     1      -2.600  -0.356   0.479  1.00  0.00     0.163 HD
BRANCH   4   7
ATOM      7  C   UNL     1       0.581  -1.524   0.089  1.00  0.00     0.275 C 
BRANCH   7   8
ATOM      8  N   UNL     1       1.196  -0.315  -0.499  1.00  0.00    -0.347 N 
ATOM      9  H   UNL     1       2.210  -0.420  -0.508  1.00  0.00     0.345 HD
ATOM     10  H   UNL     1       0.943   0.500   0.059  1.00  0.00     0.345 HD
ATOM     11  H   UNL     1       0.858  -0.192  -1.453  1.00  0.00     0.345 HD
ENDBRANCH   7   8
BRANCH   7  12
ATOM     12  C   UNL     1       1.268  -2.092   1.355  1.00  0.00     0.106 C 
BRANCH  12  13
ATOM     13  C   UNL     1       1.118  -1.374   2.679  1.00  0.00    -0.062 C 
ATOM     14  C   UNL     1       1.704  -0.190   2.941  1.00  0.00    -0.009 C 
ATOM     15  C   UNL     1       0.281  -2.090   3.716  1.00  0.00     0.066 C 
ATOM     16  C   UNL     1       1.490   0.607   4.203  1.00  0.00     0.096 C 
ATOM     17  C   UNL     1      -0.052  -1.282   4.948  1.00  0.00    -0.039 A 
ATOM     18  C   UNL     1       0.489  -0.001   5.168  1.00  0.00    -0.028 A 
ATOM     19  C   UNL     1      -0.943  -1.831   5.887  1.00  0.00     0.004 A 
ATOM     20  C   UNL     1       0.066   0.728   6.294  1.00  0.00     0.005 A 
ATOM     21  C   UNL     1      -1.329  -1.105   7.012  1.00  0.00     0.000 A 
ATOM     22  C   UNL     1      -0.836   0.180   7.207  1.00  0.00     0.000 A 
BRANCH  16  23
ATOM     23  S   UNL     1       3.118   0.871   4.975  1.00  0.00    -0.167 SA
ATOM     24  H   UNL     1       3.664  -0.331   5.301  1.00  0.00     0.103 HD
ENDBRANCH  16  23
ENDBRANCH  12  13
ENDBRANCH   7  12
ENDBRANCH   4   7
ENDBRANCH   2   3
ENDBRANCH   1   2
BRANCH   1  25
ATOM     25  C   UNL     1      -3.353   1.986   1.887  1.00  0.00     0.023 C 
BRANCH  25  26
ATOM     26  C   UNL     1      -3.693   1.380   3.245  1.00  0.00     0.116 C 
BRANCH  26  27
ATOM     27  N   UNL     1      -2.983   1.977   4.369  1.00  0.00    -0.352 N 
ATOM     28  C   UNL     1      -3.477   2.469   5.564  1.00  0.00     0.251 C 
ATOM     29  H   UNL     1      -2.006   2.040   4.262  1.00  0.00     0.163 HD
ATOM     30  O   UNL     1      -2.740   2.997   6.376  1.00  0.00    -0.269 OA
BRANCH  28  31
ATOM     31  C   UNL     1      -4.936   2.408   5.811  1.00  0.00     0.039 A 
ATOM     32  C   UNL     1      -5.645   1.229   5.585  1.00  0.00     0.014 A 
ATOM     33  C   UNL     1      -5.608   3.580   6.165  1.00  0.00     0.014 A 
ATOM     34  C   UNL     1      -7.029   1.281   5.471  1.00  0.00     0.010 A 
ATOM     35  C   UNL     1      -7.005   3.606   6.144  1.00  0.00     0.010 A 
ATOM     36  C   UNL     1      -7.722   2.480   5.709  1.00  0.00    -0.014 A 
BRANCH  36  37
ATOM     37  C   UNL     1      -9.177   2.557   5.410  1.00  0.00     0.031 A 
ATOM     38  C   UNL     1      -9.686   3.464   4.315  1.00  0.00     0.074 A 
ATOM     39  C   UNL     1     -10.037   1.754   6.065  1.00  0.00     0.049 A 
ATOM     40  N   UNL     1     -10.915   3.656   3.906  1.00  0.00    -0.248 NA
ATOM     41  C   UNL     1      -8.687   4.263   3.587  1.00  0.00     0.031 C 
ATOM     42  C   UNL     1      -9.675   0.815   7.128  1.00  0.00     0.029 A 
ATOM     43  N   UNL     1     -11.389   1.578   5.911  1.00  0.00    -0.354 N 
ATOM     44  C   UNL     1     -10.841   4.622   2.909  1.00  0.00     0.074 A 
ATOM     45  C   UNL     1      -9.448   4.987   2.779  1.00  0.00     0.031 C 
ATOM     46  C   UNL     1     -10.765   0.120   7.489  1.00  0.00     0.029 A 
ATOM     47  C   UNL     1     -11.911   0.605   6.728  1.00  0.00     0.049 A 
ATOM     48  H   UNL     1     -11.932   2.099   5.276  1.00  0.00     0.167 HD
ATOM     49  C   UNL     1     -11.839   5.151   2.161  1.00  0.00     0.037 A 
ATOM     50  C   UNL     1     -13.174   0.160   6.856  1.00  0.00     0.037 A 
ATOM     51  C   UNL     1     -13.218   4.747   2.239  1.00  0.00     0.049 A 
ATOM     52  C   UNL     1     -14.261   0.774   6.024  1.00  0.00     0.074 A 
ATOM     53  C   UNL     1     -14.291   5.188   1.482  1.00  0.00     0.029 A 
ATOM     54  N   UNL     1     -13.712   3.799   3.120  1.00  0.00    -0.354 N 
ATOM     55  N   UNL     1     -14.171   1.687   5.089  1.00  0.00    -0.248 NA
ATOM     56  C   UNL     1     -15.631   0.307   6.282  1.00  0.00     0.031 C 
ATOM     57  C   UNL     1     -15.441   4.525   1.925  1.00  0.00     0.029 A 
ATOM     58  C   UNL     1     -15.078   3.654   2.939  1.00  0.00     0.049 A 
ATOM     59  H   UNL     1     -13.173   3.302   3.777  1.00  0.00     0.167 HD
ATOM     60  C   UNL     1     -15.467   1.897   4.640  1.00  0.00     0.074 A 
ATOM     61  C   UNL     1     -16.323   1.002   5.391  1.00  0.00     0.031 C 
ATOM     62  C   UNL     1     -15.912   2.760   3.695  1.00  0.00     0.037 A 
BRANCH  49  63
ATOM     63  C   UNL     1     -11.483   6.240   1.194  1.00  0.00     0.057 A 
ATOM     64  C   UNL     1     -11.824   7.571   1.470  1.00  0.00     0.134 A 
ATOM     65  C   UNL     1     -10.858   5.972  -0.029  1.00  0.00     0.134 A 
ATOM     66  F   UNL     1     -12.429   7.894   2.623  1.00  0.00    -0.206 F 
ATOM     67  C   UNL     1     -11.560   8.596   0.560  1.00  0.00     0.040 A 
ATOM     68  C   UNL     1     -10.573   6.990  -0.940  1.00  0.00     0.040 A 
ATOM     69  F   UNL     1     -10.495   4.720  -0.345  1.00  0.00    -0.206 F 
ATOM     70  C   UNL     1     -10.930   8.306  -0.649  1.00  0.00     0.006 A 
ENDBRANCH  49  63
BRANCH  50  71
ATOM     71  C   UNL     1     -13.486  -0.921   7.821  1.00  0.00     0.057 A 
ATOM     72  C   UNL     1     -13.453  -0.697   9.202  1.00  0.00     0.134 A 
ATOM     73  C   UNL     1     -13.841  -2.200   7.379  1.00  0.00     0.134 A 
ATOM     74  F   UNL     1     -13.118   0.509   9.684  1.00  0.00    -0.206 F 
ATOM     75  C   UNL     1     -13.756  -1.709  10.112  1.00  0.00     0.040 A 
ATOM     76  C   UNL     1     -14.168  -3.216   8.278  1.00  0.00     0.040 A 
ATOM     77  F   UNL     1     -13.909  -2.466   6.067  1.00  0.00    -0.206 F 
ATOM     78  C   UNL     1     -14.121  -2.972   9.649  1.00  0.00     0.006 A 
ENDBRANCH  50  71
BRANCH  62  79
ATOM     79  C   UNL     1     -17.383   2.759   3.419  1.00  0.00     0.057 A 
ATOM     80  C   UNL     1     -17.895   2.150   2.268  1.00  0.00     0.134 A 
ATOM     81  C   UNL     1     -18.290   3.369   4.293  1.00  0.00     0.134 A 
ATOM     82  F   UNL     1     -17.075   1.552   1.391  1.00  0.00    -0.206 F 
ATOM     83  C   UNL     1     -19.264   2.144   1.997  1.00  0.00     0.040 A 
ATOM     84  C   UNL     1     -19.663   3.353   4.043  1.00  0.00     0.040 A 
ATOM     85  F   UNL     1     -17.859   3.954   5.421  1.00  0.00    -0.206 F 
ATOM     86  C   UNL     1     -20.152   2.742   2.889  1.00  0.00     0.006 A 
ENDBRANCH  62  79
ENDBRANCH  36  37
ENDBRANCH  28  31
ENDBRANCH  26  27
ENDBRANCH  25  26
ENDBRANCH   1  25
TORSDOF 15
