REMARK SMILES CC(C)[C@@H]([NH3+])C(=O)N[C@@H](Cc1ccccc1)C(=O)NCCCCNC(=O)c1ccc(-c2c3nc(c(-c4c(F)cccc4F)c4ccc([nH]4)c(-c4c(F)cccc4F)c4nc(c(-c5c(F)cccc5F)c5ccc2[nH]5)C=C4)C=C3)cc1
REMARK SMILES IDX 21 1 20 2 19 3 17 4 18 5 9 7 8 8 6 9 7 10 4 12 2 13 1 14
REMARK SMILES IDX 3 15 5 16 10 20 11 21 12 22 16 23 13 24 15 25 14 26 22 27
REMARK SMILES IDX 23 28 24 29 25 30 26 32 27 33 28 34 80 35 29 36 79 37 30 38
REMARK SMILES IDX 31 39 32 40 73 41 33 42 78 43 72 44 74 45 34 46 77 47 71 48
REMARK SMILES IDX 70 49 35 51 61 52 44 53 60 54 45 55 48 56 59 57 75 58 46 59
REMARK SMILES IDX 47 60 58 62 76 63 49 64 36 65 37 66 42 67 38 68 39 69 41 70
REMARK SMILES IDX 43 71 40 72 62 73 63 74 68 75 64 76 65 77 67 78 69 79 66 80
REMARK SMILES IDX 50 81 51 82 56 83 52 84 53 85 55 86 57 87 54 88
REMARK H PARENT 19 6 8 11 5 17 5 18 5 19 24 31 74 50 48 61
REMARK Flexibility Score: inf
ROOT
ATOM      1  C   UNL     1      -3.351   2.455   6.636  1.00  0.00     0.023 C 
ENDROOT
BRANCH   1   2
ATOM      2  C   UNL     1      -1.955   1.907   6.391  1.00  0.00     0.116 C 
BRANCH   2   3
ATOM      3  N   UNL     1      -1.937   0.540   5.917  1.00  0.00    -0.354 N 
ATOM      4  C   UNL     1      -1.067  -0.073   5.061  1.00  0.00     0.242 C 
ATOM      5  O   UNL     1      -0.935  -1.295   5.204  1.00  0.00    -0.273 OA
ATOM      6  H   UNL     1      -2.659  -0.033   6.263  1.00  0.00     0.163 HD
BRANCH   4   7
ATOM      7  C   UNL     1      -0.173   0.696   4.058  1.00  0.00     0.175 C 
BRANCH   7   8
ATOM      8  N   UNL     1      -0.843   1.812   3.378  1.00  0.00    -0.339 N 
ATOM      9  C   UNL     1      -1.278   1.922   2.094  1.00  0.00     0.279 C 
ATOM     10  O   UNL     1      -2.038   2.861   1.832  1.00  0.00    -0.268 OA
ATOM     11  H   UNL     1      -1.002   2.605   3.940  1.00  0.00     0.164 HD
BRANCH   9  12
ATOM     12  C   UNL     1      -0.816   0.953   0.984  1.00  0.00     0.273 C 
BRANCH  12  13
ATOM     13  C   UNL     1       0.718   0.990   0.776  1.00  0.00     0.051 C 
ATOM     14  C   UNL     1       1.178   0.056  -0.348  1.00  0.00     0.014 C 
ATOM     15  C   UNL     1       1.198   2.417   0.472  1.00  0.00     0.014 C 
ENDBRANCH  12  13
BRANCH  12  16
ATOM     16  N   UNL     1      -1.346  -0.396   1.265  1.00  0.00    -0.347 N 
ATOM     17  H   UNL     1      -0.978  -0.727   2.157  1.00  0.00     0.345 HD
ATOM     18  H   UNL     1      -1.061  -1.035   0.522  1.00  0.00     0.345 HD
ATOM     19  H   UNL     1      -2.364  -0.359   1.310  1.00  0.00     0.345 HD
ENDBRANCH  12  16
ENDBRANCH   9  12
ENDBRANCH   7   8
BRANCH   7  20
ATOM     20  C   UNL     1       1.216   1.065   4.625  1.00  0.00     0.070 C 
BRANCH  20  21
ATOM     21  C   UNL     1       1.254   1.933   5.860  1.00  0.00    -0.045 A 
ATOM     22  C   UNL     1       1.137   3.327   5.767  1.00  0.00     0.004 A 
ATOM     23  C   UNL     1       1.381   1.345   7.128  1.00  0.00     0.004 A 
ATOM     24  C   UNL     1       1.093   4.111   6.923  1.00  0.00     0.000 A 
ATOM     25  C   UNL     1       1.347   2.132   8.281  1.00  0.00     0.000 A 
ATOM     26  C   UNL     1       1.189   3.513   8.179  1.00  0.00     0.000 A 
ENDBRANCH  20  21
ENDBRANCH   7  20
ENDBRANCH   4   7
ENDBRANCH   2   3
ENDBRANCH   1   2
BRANCH   1  27
ATOM     27  C   UNL     1      -4.061   1.857   7.847  1.00  0.00     0.023 C 
BRANCH  27  28
ATOM     28  C   UNL     1      -3.250   1.826   9.139  1.00  0.00     0.116 C 
BRANCH  28  29
ATOM     29  N   UNL     1      -2.713   3.122   9.529  1.00  0.00    -0.352 N 
ATOM     30  C   UNL     1      -2.705   3.709  10.771  1.00  0.00     0.251 C 
ATOM     31  H   UNL     1      -2.300   3.648   8.806  1.00  0.00     0.163 HD
ATOM     32  O   UNL     1      -2.284   4.852  10.921  1.00  0.00    -0.269 OA
BRANCH  30  33
ATOM     33  C   UNL     1      -3.238   2.957  11.924  1.00  0.00     0.039 A 
ATOM     34  C   UNL     1      -4.178   3.566  12.757  1.00  0.00     0.014 A 
ATOM     35  C   UNL     1      -2.834   1.639  12.155  1.00  0.00     0.014 A 
ATOM     36  C   UNL     1      -4.758   2.829  13.791  1.00  0.00     0.010 A 
ATOM     37  C   UNL     1      -3.475   0.883  13.129  1.00  0.00     0.010 A 
ATOM     38  C   UNL     1      -4.432   1.474  13.969  1.00  0.00    -0.014 A 
BRANCH  38  39
ATOM     39  C   UNL     1      -5.051   0.672  15.053  1.00  0.00     0.031 A 
ATOM     40  C   UNL     1      -4.194   0.118  16.159  1.00  0.00     0.074 A 
ATOM     41  C   UNL     1      -6.371   0.402  15.023  1.00  0.00     0.049 A 
ATOM     42  N   UNL     1      -4.537  -0.625  17.180  1.00  0.00    -0.248 NA
ATOM     43  C   UNL     1      -2.753   0.411  16.089  1.00  0.00     0.031 C 
ATOM     44  C   UNL     1      -7.301   0.827  13.975  1.00  0.00     0.029 A 
ATOM     45  N   UNL     1      -7.158  -0.299  15.901  1.00  0.00    -0.354 N 
ATOM     46  C   UNL     1      -3.357  -0.897  17.861  1.00  0.00     0.074 A 
ATOM     47  C   UNL     1      -2.282  -0.299  17.102  1.00  0.00     0.031 C 
ATOM     48  C   UNL     1      -8.537   0.406  14.288  1.00  0.00     0.029 A 
ATOM     49  C   UNL     1      -8.484  -0.340  15.541  1.00  0.00     0.049 A 
ATOM     50  H   UNL     1      -6.807  -0.732  16.712  1.00  0.00     0.167 HD
ATOM     51  C   UNL     1      -3.184  -1.559  19.030  1.00  0.00     0.037 A 
ATOM     52  C   UNL     1      -9.536  -0.907  16.160  1.00  0.00     0.037 A 
ATOM     53  C   UNL     1      -4.258  -2.126  19.801  1.00  0.00     0.049 A 
ATOM     54  C   UNL     1      -9.324  -1.612  17.472  1.00  0.00     0.074 A 
ATOM     55  C   UNL     1      -4.196  -2.771  21.024  1.00  0.00     0.029 A 
ATOM     56  N   UNL     1      -5.592  -2.113  19.423  1.00  0.00    -0.354 N 
ATOM     57  N   UNL     1      -8.213  -1.800  18.141  1.00  0.00    -0.248 NA
ATOM     58  C   UNL     1     -10.519  -2.167  18.124  1.00  0.00     0.031 C 
ATOM     59  C   UNL     1      -5.489  -3.177  21.370  1.00  0.00     0.029 A 
ATOM     60  C   UNL     1      -6.362  -2.744  20.385  1.00  0.00     0.049 A 
ATOM     61  H   UNL     1      -5.940  -1.713  18.593  1.00  0.00     0.167 HD
ATOM     62  C   UNL     1      -8.578  -2.461  19.307  1.00  0.00     0.074 A 
ATOM     63  C   UNL     1     -10.015  -2.630  19.259  1.00  0.00     0.031 C 
ATOM     64  C   UNL     1      -7.794  -2.889  20.328  1.00  0.00     0.037 A 
BRANCH  51  65
ATOM     65  C   UNL     1      -1.780  -1.688  19.546  1.00  0.00     0.057 A 
ATOM     66  C   UNL     1      -1.064  -0.582  20.023  1.00  0.00     0.134 A 
ATOM     67  C   UNL     1      -1.140  -2.933  19.578  1.00  0.00     0.134 A 
ATOM     68  F   UNL     1      -1.613   0.643  20.005  1.00  0.00    -0.206 F 
ATOM     69  C   UNL     1       0.248  -0.703  20.483  1.00  0.00     0.040 A 
ATOM     70  C   UNL     1       0.161  -3.072  20.064  1.00  0.00     0.040 A 
ATOM     71  F   UNL     1      -1.768  -4.035  19.140  1.00  0.00    -0.206 F 
ATOM     72  C   UNL     1       0.862  -1.953  20.510  1.00  0.00     0.006 A 
ENDBRANCH  51  65
BRANCH  52  73
ATOM     73  C   UNL     1     -10.897  -0.790  15.577  1.00  0.00     0.057 A 
ATOM     74  C   UNL     1     -11.873   0.011  16.180  1.00  0.00     0.134 A 
ATOM     75  C   UNL     1     -11.259  -1.487  14.418  1.00  0.00     0.134 A 
ATOM     76  F   UNL     1     -11.591   0.689  17.302  1.00  0.00    -0.206 F 
ATOM     77  C   UNL     1     -13.169   0.097  15.668  1.00  0.00     0.040 A 
ATOM     78  C   UNL     1     -12.544  -1.391  13.880  1.00  0.00     0.040 A 
ATOM     79  F   UNL     1     -10.367  -2.264  13.788  1.00  0.00    -0.206 F 
ATOM     80  C   UNL     1     -13.506  -0.604  14.511  1.00  0.00     0.006 A 
ENDBRANCH  52  73
BRANCH  64  81
ATOM     81  C   UNL     1      -8.483  -3.531  21.497  1.00  0.00     0.057 A 
ATOM     82  C   UNL     1      -9.059  -4.805  21.414  1.00  0.00     0.134 A 
ATOM     83  C   UNL     1      -8.550  -2.869  22.730  1.00  0.00     0.134 A 
ATOM     84  F   UNL     1      -9.038  -5.487  20.258  1.00  0.00    -0.206 F 
ATOM     85  C   UNL     1      -9.707  -5.384  22.506  1.00  0.00     0.040 A 
ATOM     86  C   UNL     1      -9.170  -3.450  23.837  1.00  0.00     0.040 A 
ATOM     87  F   UNL     1      -8.009  -1.651  22.881  1.00  0.00    -0.206 F 
ATOM     88  C   UNL     1      -9.759  -4.708  23.724  1.00  0.00     0.006 A 
ENDBRANCH  64  81
ENDBRANCH  38  39
ENDBRANCH  30  33
ENDBRANCH  28  29
ENDBRANCH  27  28
ENDBRANCH   1  27
TORSDOF 17
