REMARK SMILES O=C(C[C@H]1C(=O)Nc2ccccc21)NCCCCNC(=O)c1ccc(-c2c3nc(c(-c4c(F)cccc4F)c4ccc([nH]4)c(-c4c(F)cccc4F)c4nc(c(-c5c(F)cccc5F)c5ccc2[nH]5)C=C4)C=C3)cc1
REMARK SMILES IDX 17 1 16 2 15 3 14 4 1 5 2 6 3 8 4 9 5 10 13 11 6 12 7 13
REMARK SMILES IDX 8 14 12 15 9 17 11 18 10 19 18 20 19 21 20 22 21 24 22 25
REMARK SMILES IDX 23 26 75 27 24 28 74 29 25 30 26 31 27 32 68 33 28 34 73 35
REMARK SMILES IDX 67 36 69 37 29 38 72 39 66 40 65 41 30 43 56 44 39 45 55 46
REMARK SMILES IDX 40 47 43 48 54 49 70 50 41 51 42 52 53 54 71 55 44 56 31 57
REMARK SMILES IDX 32 58 37 59 33 60 34 61 36 62 38 63 35 64 57 65 58 66 63 67
REMARK SMILES IDX 59 68 60 69 62 70 64 71 61 72 45 73 46 74 51 75 47 76 48 77
REMARK SMILES IDX 50 78 52 79 49 80
REMARK H PARENT 14 7 7 16 19 23 69 42 43 53
REMARK Flexibility Score: inf
ROOT
ATOM      1  C   UNL     1       7.873   5.099   2.714  1.00  0.00     0.023 C 
ENDROOT
BRANCH   1   2
ATOM      2  C   UNL     1       8.315   3.691   3.125  1.00  0.00     0.023 C 
BRANCH   2   3
ATOM      3  C   UNL     1       7.186   2.672   3.260  1.00  0.00     0.116 C 
BRANCH   3   4
ATOM      4  N   UNL     1       6.447   2.508   2.025  1.00  0.00    -0.356 N 
ATOM      5  O   UNL     1       6.717   0.239   1.874  1.00  0.00    -0.275 OA
ATOM      6  C   UNL     1       6.212   1.278   1.459  1.00  0.00     0.221 C 
ATOM      7  H   UNL     1       6.100   3.311   1.572  1.00  0.00     0.163 HD
BRANCH   6   8
ATOM      8  C   UNL     1       5.334   1.294   0.218  1.00  0.00     0.118 C 
BRANCH   8   9
ATOM      9  C   UNL     1       3.934   1.878   0.402  1.00  0.00     0.120 C 
ATOM     10  C   UNL     1       3.339   1.589   1.794  1.00  0.00     0.232 C 
ATOM     11  C   UNL     1       3.880   3.387   0.352  1.00  0.00    -0.011 A 
ATOM     12  O   UNL     1       3.142   0.495   2.294  1.00  0.00    -0.274 OA
ATOM     13  N   UNL     1       3.056   2.812   2.391  1.00  0.00    -0.325 N 
ATOM     14  C   UNL     1       3.365   3.871   1.554  1.00  0.00     0.045 A 
ATOM     15  C   UNL     1       4.251   4.258  -0.657  1.00  0.00     0.007 A 
ATOM     16  H   UNL     1       2.682   2.913   3.296  1.00  0.00     0.169 HD
ATOM     17  C   UNL     1       3.228   5.217   1.814  1.00  0.00     0.026 A 
ATOM     18  C   UNL     1       4.117   5.629  -0.419  1.00  0.00     0.000 A 
ATOM     19  C   UNL     1       3.617   6.105   0.808  1.00  0.00     0.002 A 
ENDBRANCH   8   9
ENDBRANCH   6   8
ENDBRANCH   3   4
ENDBRANCH   2   3
ENDBRANCH   1   2
BRANCH   1  20
ATOM     20  C   UNL     1       6.856   5.763   3.637  1.00  0.00     0.116 C 
BRANCH  20  21
ATOM     21  N   UNL     1       7.384   6.015   4.968  1.00  0.00    -0.352 N 
ATOM     22  C   UNL     1       7.455   7.188   5.680  1.00  0.00     0.251 C 
ATOM     23  H   UNL     1       7.746   5.224   5.430  1.00  0.00     0.163 HD
ATOM     24  O   UNL     1       8.085   7.228   6.733  1.00  0.00    -0.269 OA
BRANCH  22  25
ATOM     25  C   UNL     1       6.800   8.416   5.174  1.00  0.00     0.039 A 
ATOM     26  C   UNL     1       7.492   9.628   5.252  1.00  0.00     0.014 A 
ATOM     27  C   UNL     1       5.510   8.384   4.639  1.00  0.00     0.014 A 
ATOM     28  C   UNL     1       6.920  10.791   4.729  1.00  0.00     0.010 A 
ATOM     29  C   UNL     1       4.973   9.527   4.049  1.00  0.00     0.010 A 
ATOM     30  C   UNL     1       5.673  10.743   4.085  1.00  0.00    -0.014 A 
BRANCH  30  31
ATOM     31  C   UNL     1       5.096  11.948   3.433  1.00  0.00     0.031 A 
ATOM     32  C   UNL     1       3.796  12.530   3.917  1.00  0.00     0.074 A 
ATOM     33  C   UNL     1       5.713  12.486   2.362  1.00  0.00     0.049 A 
ATOM     34  N   UNL     1       3.106  13.531   3.430  1.00  0.00    -0.248 NA
ATOM     35  C   UNL     1       3.176  11.885   5.084  1.00  0.00     0.031 C 
ATOM     36  C   UNL     1       6.957  11.994   1.766  1.00  0.00     0.029 A 
ATOM     37  N   UNL     1       5.372  13.559   1.576  1.00  0.00    -0.354 N 
ATOM     38  C   UNL     1       1.971  13.631   4.226  1.00  0.00     0.074 A 
ATOM     39  C   UNL     1       2.035  12.550   5.187  1.00  0.00     0.031 C 
ATOM     40  C   UNL     1       7.285  12.775   0.725  1.00  0.00     0.029 A 
ATOM     41  C   UNL     1       6.255  13.795   0.550  1.00  0.00     0.049 A 
ATOM     42  H   UNL     1       4.570  14.108   1.733  1.00  0.00     0.167 HD
ATOM     43  C   UNL     1       0.979  14.552   4.178  1.00  0.00     0.037 A 
ATOM     44  C   UNL     1       6.235  14.719  -0.429  1.00  0.00     0.037 A 
ATOM     45  C   UNL     1       0.922  15.634   3.228  1.00  0.00     0.049 A 
ATOM     46  C   UNL     1       5.108  15.714  -0.479  1.00  0.00     0.074 A 
ATOM     47  C   UNL     1      -0.018  16.645   3.129  1.00  0.00     0.029 A 
ATOM     48  N   UNL     1       1.840  15.842   2.209  1.00  0.00    -0.354 N 
ATOM     49  N   UNL     1       4.074  15.834   0.318  1.00  0.00    -0.248 NA
ATOM     50  C   UNL     1       5.148  16.707  -1.562  1.00  0.00     0.031 C 
ATOM     51  C   UNL     1       0.300  17.432   2.017  1.00  0.00     0.029 A 
ATOM     52  C   UNL     1       1.473  16.949   1.460  1.00  0.00     0.049 A 
ATOM     53  H   UNL     1       2.635  15.286   2.043  1.00  0.00     0.167 HD
ATOM     54  C   UNL     1       3.359  16.930  -0.147  1.00  0.00     0.074 A 
ATOM     55  C   UNL     1       4.085  17.449  -1.287  1.00  0.00     0.031 C 
ATOM     56  C   UNL     1       2.205  17.460   0.329  1.00  0.00     0.037 A 
BRANCH  43  57
ATOM     57  C   UNL     1      -0.132  14.426   5.182  1.00  0.00     0.057 A 
ATOM     58  C   UNL     1       0.075  14.660   6.549  1.00  0.00     0.134 A 
ATOM     59  C   UNL     1      -1.432  14.099   4.776  1.00  0.00     0.134 A 
ATOM     60  F   UNL     1       1.298  14.968   7.008  1.00  0.00    -0.206 F 
ATOM     61  C   UNL     1      -0.961  14.541   7.477  1.00  0.00     0.040 A 
ATOM     62  C   UNL     1      -2.483  14.009   5.691  1.00  0.00     0.040 A 
ATOM     63  F   UNL     1      -1.705  13.870   3.483  1.00  0.00    -0.206 F 
ATOM     64  C   UNL     1      -2.247  14.222   7.047  1.00  0.00     0.006 A 
ENDBRANCH  43  57
BRANCH  44  65
ATOM     65  C   UNL     1       7.324  14.755  -1.439  1.00  0.00     0.057 A 
ATOM     66  C   UNL     1       8.239  15.813  -1.480  1.00  0.00     0.134 A 
ATOM     67  C   UNL     1       7.471  13.740  -2.393  1.00  0.00     0.134 A 
ATOM     68  F   UNL     1       8.140  16.826  -0.605  1.00  0.00    -0.206 F 
ATOM     69  C   UNL     1       9.248  15.872  -2.443  1.00  0.00     0.040 A 
ATOM     70  C   UNL     1       8.492  13.771  -3.343  1.00  0.00     0.040 A 
ATOM     71  F   UNL     1       6.632  12.694  -2.403  1.00  0.00    -0.206 F 
ATOM     72  C   UNL     1       9.379  14.845  -3.375  1.00  0.00     0.006 A 
ENDBRANCH  44  65
BRANCH  56  73
ATOM     73  C   UNL     1       1.674  18.686  -0.358  1.00  0.00     0.057 A 
ATOM     74  C   UNL     1       1.124  18.639  -1.645  1.00  0.00     0.134 A 
ATOM     75  C   UNL     1       1.679  19.926   0.296  1.00  0.00     0.134 A 
ATOM     76  F   UNL     1       1.099  17.487  -2.332  1.00  0.00    -0.206 F 
ATOM     77  C   UNL     1       0.623  19.784  -2.267  1.00  0.00     0.040 A 
ATOM     78  C   UNL     1       1.153  21.071  -0.303  1.00  0.00     0.040 A 
ATOM     79  F   UNL     1       2.183  20.041   1.535  1.00  0.00    -0.206 F 
ATOM     80  C   UNL     1       0.629  21.003  -1.591  1.00  0.00     0.006 A 
ENDBRANCH  56  73
ENDBRANCH  30  31
ENDBRANCH  22  25
ENDBRANCH  20  21
ENDBRANCH   1  20
TORSDOF 12
