REMARK SMILES CCC(CC)(CC(=O)Nc1cccc(C#N)c1)C(=O)NCCCCNC(=O)c1ccc(-c2c3nc(c(-c4c(F)cccc4F)c4ccc([nH]4)c(-c4c(F)cccc4F)c4nc(c(-c5c(F)cccc5F)c5ccc2[nH]5)C=C4)C=C3)cc1
REMARK SMILES IDX 21 1 20 2 18 3 19 4 3 6 2 7 1 8 4 9 5 10 6 11 7 12 8 13 9 14
REMARK SMILES IDX 10 16 11 17 17 18 12 19 14 20 13 21 15 22 16 23 22 24 23 25
REMARK SMILES IDX 24 26 25 27 26 28 27 30 28 31 29 32 81 33 30 34 80 35 31 36
REMARK SMILES IDX 32 37 33 38 74 39 34 40 79 41 73 42 75 43 35 44 78 45 72 46
REMARK SMILES IDX 71 47 36 49 62 50 45 51 61 52 46 53 49 54 60 55 76 56 47 57
REMARK SMILES IDX 48 58 59 60 77 61 50 62 37 63 38 64 43 65 39 66 40 67 42 68
REMARK SMILES IDX 44 69 41 70 63 71 64 72 69 73 65 74 66 75 68 76 70 77 67 78
REMARK SMILES IDX 51 79 52 80 57 81 53 82 54 83 56 84 58 85 55 86
REMARK H PARENT 20 5 9 15 25 29 75 48 49 59
REMARK Flexibility Score: inf
ROOT
ATOM      1  C   UNL     1       2.357   2.712   4.466  1.00  0.00     0.116 C 
ENDROOT
BRANCH   1   2
ATOM      2  N   UNL     1       3.006   1.966   3.413  1.00  0.00    -0.356 N 
ATOM      3  C   UNL     1       2.522   1.172   2.434  1.00  0.00     0.226 C 
ATOM      4  O   UNL     1       3.373   0.531   1.808  1.00  0.00    -0.274 OA
ATOM      5  H   UNL     1       3.987   2.054   3.407  1.00  0.00     0.163 HD
BRANCH   3   6
ATOM      6  C   UNL     1       1.016   1.064   2.110  1.00  0.00     0.057 C 
BRANCH   6   7
ATOM      7  C   UNL     1       0.902   0.339   0.753  1.00  0.00     0.014 C 
ATOM      8  C   UNL     1       1.391   0.998  -0.524  1.00  0.00     0.005 C 
ENDBRANCH   6   7
BRANCH   6   9
ATOM      9  C   UNL     1       0.352   2.469   1.949  1.00  0.00     0.014 C 
ATOM     10  C   UNL     1      -1.171   2.473   1.860  1.00  0.00     0.005 C 
ENDBRANCH   6   9
BRANCH   6  11
ATOM     11  C   UNL     1       0.294   0.158   3.162  1.00  0.00     0.117 C 
BRANCH  11  12
ATOM     12  C   UNL     1       0.903  -1.208   3.535  1.00  0.00     0.225 C 
ATOM     13  O   UNL     1       1.800  -1.267   4.383  1.00  0.00    -0.275 OA
ATOM     14  N   UNL     1       0.333  -2.392   3.106  1.00  0.00    -0.326 N 
ATOM     15  H   UNL     1       0.558  -3.185   3.644  1.00  0.00     0.169 HD
BRANCH  14  16
ATOM     16  C   UNL     1      -0.518  -2.632   2.016  1.00  0.00     0.042 A 
ATOM     17  C   UNL     1      -0.064  -2.457   0.713  1.00  0.00     0.026 A 
ATOM     18  C   UNL     1      -1.781  -3.186   2.197  1.00  0.00     0.045 A 
ATOM     19  C   UNL     1      -0.944  -2.456  -0.368  1.00  0.00     0.004 A 
ATOM     20  C   UNL     1      -2.645  -3.310   1.095  1.00  0.00     0.054 A 
ATOM     21  C   UNL     1      -2.258  -2.845  -0.167  1.00  0.00     0.019 A 
BRANCH  20  22
ATOM     22  C   UNL     1      -3.913  -3.967   1.226  1.00  0.00     0.099 C 
ATOM     23  N   UNL     1      -4.918  -4.537   1.289  1.00  0.00    -0.192 NA
ENDBRANCH  20  22
ENDBRANCH  14  16
ENDBRANCH  11  12
ENDBRANCH   6  11
ENDBRANCH   3   6
ENDBRANCH   1   2
BRANCH   1  24
ATOM     24  C   UNL     1       2.887   2.310   5.834  1.00  0.00     0.023 C 
BRANCH  24  25
ATOM     25  C   UNL     1       4.391   2.498   6.012  1.00  0.00     0.023 C 
BRANCH  25  26
ATOM     26  C   UNL     1       4.920   3.858   5.579  1.00  0.00     0.116 C 
BRANCH  26  27
ATOM     27  N   UNL     1       4.244   4.960   6.249  1.00  0.00    -0.352 N 
ATOM     28  C   UNL     1       4.787   5.996   6.965  1.00  0.00     0.251 C 
ATOM     29  H   UNL     1       3.262   4.962   6.178  1.00  0.00     0.163 HD
ATOM     30  O   UNL     1       4.073   6.751   7.614  1.00  0.00    -0.269 OA
BRANCH  28  31
ATOM     31  C   UNL     1       6.252   6.167   6.967  1.00  0.00     0.039 A 
ATOM     32  C   UNL     1       6.912   6.324   8.185  1.00  0.00     0.014 A 
ATOM     33  C   UNL     1       6.968   6.110   5.768  1.00  0.00     0.014 A 
ATOM     34  C   UNL     1       8.305   6.359   8.206  1.00  0.00     0.010 A 
ATOM     35  C   UNL     1       8.355   6.047   5.802  1.00  0.00     0.010 A 
ATOM     36  C   UNL     1       9.038   6.178   7.021  1.00  0.00    -0.014 A 
BRANCH  36  37
ATOM     37  C   UNL     1      10.521   6.126   7.038  1.00  0.00     0.031 A 
ATOM     38  C   UNL     1      11.319   7.155   6.286  1.00  0.00     0.074 A 
ATOM     39  C   UNL     1      11.145   5.125   7.688  1.00  0.00     0.049 A 
ATOM     40  N   UNL     1      12.617   7.255   6.149  1.00  0.00    -0.248 NA
ATOM     41  C   UNL     1      10.560   8.194   5.572  1.00  0.00     0.031 C 
ATOM     42  C   UNL     1      10.479   4.042   8.416  1.00  0.00     0.029 A 
ATOM     43  N   UNL     1      12.481   4.851   7.839  1.00  0.00    -0.354 N 
ATOM     44  C   UNL     1      12.825   8.355   5.329  1.00  0.00     0.074 A 
ATOM     45  C   UNL     1      11.523   8.853   4.947  1.00  0.00     0.031 C 
ATOM     46  C   UNL     1      11.409   3.246   8.967  1.00  0.00     0.029 A 
ATOM     47  C   UNL     1      12.733   3.728   8.589  1.00  0.00     0.049 A 
ATOM     48  H   UNL     1      13.192   5.408   7.447  1.00  0.00     0.167 HD
ATOM     49  C   UNL     1      13.997   8.916   4.948  1.00  0.00     0.037 A 
ATOM     50  C   UNL     1      13.900   3.147   8.925  1.00  0.00     0.037 A 
ATOM     51  C   UNL     1      15.290   8.421   5.341  1.00  0.00     0.049 A 
ATOM     52  C   UNL     1      15.187   3.770   8.457  1.00  0.00     0.074 A 
ATOM     53  C   UNL     1      16.536   8.950   5.054  1.00  0.00     0.029 A 
ATOM     54  N   UNL     1      15.505   7.276   6.093  1.00  0.00    -0.354 N 
ATOM     55  N   UNL     1      15.372   4.856   7.746  1.00  0.00    -0.248 NA
ATOM     56  C   UNL     1      16.430   3.087   8.842  1.00  0.00     0.031 C 
ATOM     57  C   UNL     1      17.506   8.086   5.571  1.00  0.00     0.029 A 
ATOM     58  C   UNL     1      16.865   7.062   6.248  1.00  0.00     0.049 A 
ATOM     59  H   UNL     1      14.796   6.701   6.462  1.00  0.00     0.167 HD
ATOM     60  C   UNL     1      16.748   5.007   7.631  1.00  0.00     0.074 A 
ATOM     61  C   UNL     1      17.350   3.909   8.358  1.00  0.00     0.031 C 
ATOM     62  C   UNL     1      17.451   5.968   6.982  1.00  0.00     0.037 A 
BRANCH  49  63
ATOM     63  C   UNL     1      13.935  10.120   4.052  1.00  0.00     0.057 A 
ATOM     64  C   UNL     1      13.434  11.353   4.494  1.00  0.00     0.134 A 
ATOM     65  C   UNL     1      14.419  10.057   2.739  1.00  0.00     0.134 A 
ATOM     66  F   UNL     1      12.943  11.482   5.737  1.00  0.00    -0.206 F 
ATOM     67  C   UNL     1      13.390  12.468   3.656  1.00  0.00     0.040 A 
ATOM     68  C   UNL     1      14.413  11.175   1.903  1.00  0.00     0.040 A 
ATOM     69  F   UNL     1      14.919   8.912   2.251  1.00  0.00    -0.206 F 
ATOM     70  C   UNL     1      13.889  12.383   2.358  1.00  0.00     0.006 A 
ENDBRANCH  49  63
BRANCH  50  71
ATOM     71  C   UNL     1      13.913   1.915   9.757  1.00  0.00     0.057 A 
ATOM     72  C   UNL     1      14.444   1.921  11.052  1.00  0.00     0.134 A 
ATOM     73  C   UNL     1      13.420   0.698   9.271  1.00  0.00     0.134 A 
ATOM     74  F   UNL     1      14.948   3.052  11.570  1.00  0.00    -0.206 F 
ATOM     75  C   UNL     1      14.514   0.759  11.822  1.00  0.00     0.040 A 
ATOM     76  C   UNL     1      13.452  -0.466  10.042  1.00  0.00     0.040 A 
ATOM     77  F   UNL     1      12.889   0.623   8.042  1.00  0.00    -0.206 F 
ATOM     78  C   UNL     1      14.012  -0.439  11.318  1.00  0.00     0.006 A 
ENDBRANCH  50  71
BRANCH  62  79
ATOM     79  C   UNL     1      18.950   5.907   7.070  1.00  0.00     0.057 A 
ATOM     80  C   UNL     1      19.695   4.904   6.438  1.00  0.00     0.134 A 
ATOM     81  C   UNL     1      19.660   6.894   7.768  1.00  0.00     0.134 A 
ATOM     82  F   UNL     1      19.080   3.922   5.762  1.00  0.00    -0.206 F 
ATOM     83  C   UNL     1      21.089   4.867   6.522  1.00  0.00     0.040 A 
ATOM     84  C   UNL     1      21.053   6.889   7.828  1.00  0.00     0.040 A 
ATOM     85  F   UNL     1      19.011   7.892   8.387  1.00  0.00    -0.206 F 
ATOM     86  C   UNL     1      21.772   5.867   7.212  1.00  0.00     0.006 A 
ENDBRANCH  62  79
ENDBRANCH  36  37
ENDBRANCH  28  31
ENDBRANCH  26  27
ENDBRANCH  25  26
ENDBRANCH  24  25
ENDBRANCH   1  24
TORSDOF 17
