REMARK SMILES Cc1ccc(OCC(=O)NC(=S)Nc2ccc(C(=O)NCCCCNC(=O)c3ccc(-c4c5nc(c(-c6c(F)cccc6F)c6ccc([nH]6)c(-c6c(F)cccc6F)c6nc(c(-c7c(F)cccc7F)c7ccc4[nH]7)C=C6)C=C5)cc3)cc2)cc1
REMARK SMILES IDX 18 1 19 2 20 3 17 5 14 6 15 7 83 8 16 9 82 10 13 11 11 13
REMARK SMILES IDX 12 14 10 15 8 16 9 17 7 19 6 20 5 21 1 22 2 23 3 24 85 25
REMARK SMILES IDX 4 26 84 27 21 28 22 29 23 30 24 31 25 32 26 33 27 35 28 36
REMARK SMILES IDX 29 37 81 38 30 39 80 40 31 41 32 42 33 43 74 44 34 45 79 46
REMARK SMILES IDX 73 47 75 48 35 49 78 50 72 51 71 52 36 54 62 55 45 56 61 57
REMARK SMILES IDX 46 58 49 59 60 60 76 61 47 62 48 63 59 65 77 66 50 67 37 68
REMARK SMILES IDX 38 69 43 70 39 71 40 72 42 73 44 74 41 75 63 76 64 77 69 78
REMARK SMILES IDX 65 79 66 80 68 81 70 82 67 83 51 84 52 85 57 86 53 87 54 88
REMARK SMILES IDX 56 89 58 90 55 91
REMARK H PARENT 20 4 13 12 10 18 25 34 75 53 49 64
REMARK Flexibility Score: inf
ROOT
ATOM      1  C   UNL     1      -4.055   1.651  -3.900  1.00  0.00     0.251 C 
ATOM      2  O   UNL     1      -4.886   1.805  -4.789  1.00  0.00    -0.269 OA
ATOM      3  N   UNL     1      -2.809   2.224  -4.012  1.00  0.00    -0.352 N 
ATOM      4  H   UNL     1      -2.609   2.604  -4.898  1.00  0.00     0.163 HD
ENDROOT
BRANCH   1   5
ATOM      5  C   UNL     1      -4.419   0.892  -2.688  1.00  0.00     0.039 A 
ATOM      6  C   UNL     1      -4.976  -0.334  -0.259  1.00  0.00     0.040 A 
ATOM      7  C   UNL     1      -3.956  -0.833  -1.070  1.00  0.00     0.027 A 
ATOM      8  C   UNL     1      -5.817   0.680  -0.726  1.00  0.00     0.027 A 
ATOM      9  C   UNL     1      -3.651  -0.196  -2.271  1.00  0.00     0.016 A 
ATOM     10  C   UNL     1      -5.554   1.275  -1.962  1.00  0.00     0.016 A 
BRANCH   6  11
ATOM     11  N   UNL     1      -5.095  -0.882   1.020  1.00  0.00    -0.332 N 
ATOM     12  H   UNL     1      -4.923  -1.849   1.078  1.00  0.00     0.169 HD
BRANCH  11  13
ATOM     13  C   UNL     1      -5.409  -0.286   2.187  1.00  0.00     0.177 C 
ATOM     14  S   UNL     1      -6.128  -1.206   3.387  1.00  0.00    -0.040 S 
BRANCH  13  15
ATOM     15  N   UNL     1      -5.111   1.022   2.477  1.00  0.00    -0.300 N 
ATOM     16  C   UNL     1      -4.269   2.048   2.071  1.00  0.00     0.264 C 
ATOM     17  O   UNL     1      -4.469   3.165   2.564  1.00  0.00    -0.271 OA
ATOM     18  H   UNL     1      -5.683   1.336   3.214  1.00  0.00     0.172 HD
BRANCH  16  19
ATOM     19  C   UNL     1      -3.116   1.846   1.094  1.00  0.00     0.329 C 
BRANCH  19  20
ATOM     20  O   UNL     1      -2.396   0.652   1.341  1.00  0.00    -0.484 OA
BRANCH  20  21
ATOM     21  C   UNL     1      -1.119   0.543   0.865  1.00  0.00     0.120 A 
ATOM     22  C   UNL     1       2.968  -0.280  -0.271  1.00  0.00     0.044 C 
ATOM     23  C   UNL     1       1.542   0.011   0.093  1.00  0.00    -0.051 A 
ATOM     24  C   UNL     1       0.676  -1.035   0.417  1.00  0.00     0.007 A 
ATOM     25  C   UNL     1       1.056   1.322   0.130  1.00  0.00     0.007 A 
ATOM     26  C   UNL     1      -0.638  -0.767   0.807  1.00  0.00     0.047 A 
ATOM     27  C   UNL     1      -0.267   1.589   0.512  1.00  0.00     0.047 A 
ENDBRANCH  20  21
ENDBRANCH  19  20
ENDBRANCH  16  19
ENDBRANCH  13  15
ENDBRANCH  11  13
ENDBRANCH   6  11
ENDBRANCH   1   5
BRANCH   3  28
ATOM     28  C   UNL     1      -1.737   2.358  -3.033  1.00  0.00     0.116 C 
BRANCH  28  29
ATOM     29  C   UNL     1      -0.516   1.481  -3.344  1.00  0.00     0.023 C 
BRANCH  29  30
ATOM     30  C   UNL     1       0.125   1.713  -4.714  1.00  0.00     0.023 C 
BRANCH  30  31
ATOM     31  C   UNL     1       0.922   3.009  -4.824  1.00  0.00     0.116 C 
BRANCH  31  32
ATOM     32  N   UNL     1       2.358   2.855  -4.607  1.00  0.00    -0.352 N 
ATOM     33  C   UNL     1       3.364   3.814  -4.596  1.00  0.00     0.251 C 
ATOM     34  H   UNL     1       2.660   1.933  -4.443  1.00  0.00     0.163 HD
ATOM     35  O   UNL     1       4.522   3.486  -4.411  1.00  0.00    -0.269 OA
BRANCH  33  36
ATOM     36  C   UNL     1       3.000   5.255  -4.650  1.00  0.00     0.039 A 
ATOM     37  C   UNL     1       3.595   6.107  -3.712  1.00  0.00     0.014 A 
ATOM     38  C   UNL     1       1.927   5.700  -5.413  1.00  0.00     0.014 A 
ATOM     39  C   UNL     1       2.924   7.263  -3.325  1.00  0.00     0.010 A 
ATOM     40  C   UNL     1       1.202   6.782  -4.958  1.00  0.00     0.010 A 
ATOM     41  C   UNL     1       1.657   7.501  -3.850  1.00  0.00    -0.014 A 
BRANCH  41  42
ATOM     42  C   UNL     1       0.678   8.373  -3.212  1.00  0.00     0.031 A 
ATOM     43  C   UNL     1       0.328   9.669  -3.817  1.00  0.00     0.074 A 
ATOM     44  C   UNL     1       0.020   7.921  -2.122  1.00  0.00     0.049 A 
ATOM     45  N   UNL     1      -0.346  10.595  -3.228  1.00  0.00    -0.248 NA
ATOM     46  C   UNL     1       0.795  10.049  -5.143  1.00  0.00     0.031 C 
ATOM     47  C   UNL     1      -1.185   8.473  -1.509  1.00  0.00     0.029 A 
ATOM     48  N   UNL     1       0.478   6.972  -1.195  1.00  0.00    -0.354 N 
ATOM     49  C   UNL     1      -0.621  11.577  -4.153  1.00  0.00     0.074 A 
ATOM     50  C   UNL     1       0.195  11.233  -5.291  1.00  0.00     0.031 C 
ATOM     51  C   UNL     1      -1.215   8.104  -0.218  1.00  0.00     0.029 A 
ATOM     52  C   UNL     1       0.048   7.445   0.067  1.00  0.00     0.049 A 
ATOM     53  H   UNL     1       0.989   6.151  -1.383  1.00  0.00     0.167 HD
ATOM     54  C   UNL     1      -1.592  12.493  -3.865  1.00  0.00     0.037 A 
ATOM     55  C   UNL     1       0.963   7.881   0.982  1.00  0.00     0.037 A 
ATOM     56  C   UNL     1      -1.950  12.434  -2.441  1.00  0.00     0.049 A 
ATOM     57  C   UNL     1       0.854   9.349   1.348  1.00  0.00     0.074 A 
ATOM     58  C   UNL     1      -2.998  11.902  -1.707  1.00  0.00     0.029 A 
ATOM     59  N   UNL     1      -0.974  12.762  -1.514  1.00  0.00    -0.354 N 
ATOM     60  N   UNL     1       0.022  10.196   0.805  1.00  0.00    -0.248 NA
ATOM     61  C   UNL     1       1.761   9.993   2.300  1.00  0.00     0.031 C 
ATOM     62  C   UNL     1      -2.608  11.870  -0.332  1.00  0.00     0.029 A 
ATOM     63  C   UNL     1      -1.334  12.398  -0.231  1.00  0.00     0.049 A 
ATOM     64  H   UNL     1      -0.124  13.203  -1.742  1.00  0.00     0.167 HD
ATOM     65  C   UNL     1       0.292  11.456   1.270  1.00  0.00     0.074 A 
ATOM     66  C   UNL     1       1.390  11.279   2.203  1.00  0.00     0.031 C 
ATOM     67  C   UNL     1      -0.363  12.572   0.838  1.00  0.00     0.037 A 
BRANCH  54  68
ATOM     68  C   UNL     1      -2.361  13.312  -4.891  1.00  0.00     0.057 A 
ATOM     69  C   UNL     1      -3.585  13.920  -4.539  1.00  0.00     0.134 A 
ATOM     70  C   UNL     1      -2.030  13.475  -6.251  1.00  0.00     0.134 A 
ATOM     71  F   UNL     1      -4.031  13.925  -3.276  1.00  0.00    -0.206 F 
ATOM     72  C   UNL     1      -4.430  14.550  -5.468  1.00  0.00     0.040 A 
ATOM     73  C   UNL     1      -2.872  14.084  -7.194  1.00  0.00     0.040 A 
ATOM     74  F   UNL     1      -0.861  13.091  -6.762  1.00  0.00    -0.206 F 
ATOM     75  C   UNL     1      -4.087  14.613  -6.808  1.00  0.00     0.006 A 
ENDBRANCH  54  68
BRANCH  55  76
ATOM     76  C   UNL     1       2.239   7.118   0.942  1.00  0.00     0.057 A 
ATOM     77  C   UNL     1       2.225   5.745   1.242  1.00  0.00     0.134 A 
ATOM     78  C   UNL     1       3.375   7.617   0.300  1.00  0.00     0.134 A 
ATOM     79  F   UNL     1       1.162   5.195   1.851  1.00  0.00    -0.206 F 
ATOM     80  C   UNL     1       3.250   4.889   0.831  1.00  0.00     0.040 A 
ATOM     81  C   UNL     1       4.410   6.771  -0.112  1.00  0.00     0.040 A 
ATOM     82  F   UNL     1       3.452   8.910  -0.046  1.00  0.00    -0.206 F 
ATOM     83  C   UNL     1       4.331   5.398   0.119  1.00  0.00     0.006 A 
ENDBRANCH  55  76
BRANCH  67  84
ATOM     84  C   UNL     1      -0.086  13.937   1.399  1.00  0.00     0.057 A 
ATOM     85  C   UNL     1       0.007  14.173   2.779  1.00  0.00     0.134 A 
ATOM     86  C   UNL     1      -0.004  15.076   0.578  1.00  0.00     0.134 A 
ATOM     87  F   UNL     1      -0.122  13.170   3.661  1.00  0.00    -0.206 F 
ATOM     88  C   UNL     1       0.223  15.452   3.305  1.00  0.00     0.040 A 
ATOM     89  C   UNL     1       0.163  16.364   1.093  1.00  0.00     0.040 A 
ATOM     90  F   UNL     1      -0.056  14.984  -0.759  1.00  0.00    -0.206 F 
ATOM     91  C   UNL     1       0.292  16.555   2.462  1.00  0.00     0.006 A 
ENDBRANCH  67  84
ENDBRANCH  41  42
ENDBRANCH  33  36
ENDBRANCH  31  32
ENDBRANCH  30  31
ENDBRANCH  29  30
ENDBRANCH  28  29
ENDBRANCH   3  28
TORSDOF 17
