REMARK SMILES O=C(NCCCCNC(=O)[C@@H]1C=C[C@H](NC(=O)c2ccc(CO)cc2)C1)c1ccc(-c2c3nc(c(-c4c(F)cccc4F)c4ccc([nH]4)c(-c4c(F)cccc4F)c4nc(c(-c5c(F)cccc5F)c5ccc2[nH]5)C=C4)C=C3)cc1
REMARK SMILES IDX 6 1 5 2 4 3 3 4 1 5 2 6 27 8 28 9 80 10 29 11 79 12 30 13
REMARK SMILES IDX 31 14 32 15 73 16 33 17 78 18 72 19 74 20 34 21 77 22 71 23
REMARK SMILES IDX 70 24 35 26 61 27 44 28 60 29 45 30 48 31 59 32 75 33 46 34
REMARK SMILES IDX 47 35 58 37 76 38 49 39 36 40 37 41 42 42 38 43 39 44 41 45
REMARK SMILES IDX 43 46 40 47 62 48 63 49 68 50 64 51 65 52 67 53 69 54 66 55
REMARK SMILES IDX 50 56 51 57 56 58 52 59 53 60 55 61 57 62 54 63 7 64 8 65
REMARK SMILES IDX 9 66 10 68 11 69 12 70 26 71 13 72 14 73 15 74 16 75 17 77
REMARK SMILES IDX 18 78 19 79 25 80 20 81 24 82 21 83 22 84 23 85
REMARK H PARENT 3 7 74 25 48 36 8 67 15 76 23 86
REMARK Flexibility Score: inf
ROOT
ATOM      1  C   UNL     1       3.405  -7.125   5.728  1.00  0.00     0.023 C 
ENDROOT
BRANCH   1   2
ATOM      2  C   UNL     1       1.914  -6.872   5.932  1.00  0.00     0.023 C 
BRANCH   2   3
ATOM      3  C   UNL     1       1.002  -7.382   4.825  1.00  0.00     0.116 C 
BRANCH   3   4
ATOM      4  N   UNL     1       1.261  -8.762   4.441  1.00  0.00    -0.352 N 
ATOM      5  O   UNL     1       0.740 -10.883   3.866  1.00  0.00    -0.269 OA
ATOM      6  C   UNL     1       0.361  -9.749   4.122  1.00  0.00     0.251 C 
ATOM      7  H   UNL     1       2.209  -9.023   4.405  1.00  0.00     0.163 HD
BRANCH   6   8
ATOM      8  C   UNL     1      -1.078  -9.428   4.141  1.00  0.00     0.039 A 
ATOM      9  C   UNL     1      -1.566  -8.311   3.458  1.00  0.00     0.014 A 
ATOM     10  C   UNL     1      -1.928 -10.230   4.904  1.00  0.00     0.014 A 
ATOM     11  C   UNL     1      -2.885  -7.918   3.646  1.00  0.00     0.010 A 
ATOM     12  C   UNL     1      -3.268  -9.873   5.034  1.00  0.00     0.010 A 
ATOM     13  C   UNL     1      -3.746  -8.698   4.433  1.00  0.00    -0.014 A 
BRANCH  13  14
ATOM     14  C   UNL     1      -5.164  -8.309   4.590  1.00  0.00     0.031 A 
ATOM     15  C   UNL     1      -5.704  -7.906   5.930  1.00  0.00     0.074 A 
ATOM     16  C   UNL     1      -5.970  -8.358   3.514  1.00  0.00     0.049 A 
ATOM     17  N   UNL     1      -6.938  -7.646   6.277  1.00  0.00    -0.248 NA
ATOM     18  C   UNL     1      -4.732  -7.791   7.028  1.00  0.00     0.031 C 
ATOM     19  C   UNL     1      -5.547  -8.735   2.164  1.00  0.00     0.029 A 
ATOM     20  N   UNL     1      -7.310  -8.105   3.388  1.00  0.00    -0.354 N 
ATOM     21  C   UNL     1      -6.898  -7.367   7.636  1.00  0.00     0.074 A 
ATOM     22  C   UNL     1      -5.519  -7.501   8.055  1.00  0.00     0.031 C 
ATOM     23  C   UNL     1      -6.606  -8.685   1.344  1.00  0.00     0.029 A 
ATOM     24  C   UNL     1      -7.788  -8.335   2.123  1.00  0.00     0.049 A 
ATOM     25  H   UNL     1      -7.873  -7.791   4.132  1.00  0.00     0.167 HD
ATOM     26  C   UNL     1      -7.923  -7.031   8.456  1.00  0.00     0.037 A 
ATOM     27  C   UNL     1      -9.046  -8.307   1.649  1.00  0.00     0.037 A 
ATOM     28  C   UNL     1      -9.289  -6.886   8.021  1.00  0.00     0.049 A 
ATOM     29  C   UNL     1     -10.168  -7.958   2.578  1.00  0.00     0.074 A 
ATOM     30  C   UNL     1     -10.395  -6.506   8.761  1.00  0.00     0.029 A 
ATOM     31  N   UNL     1      -9.734  -7.122   6.728  1.00  0.00    -0.354 N 
ATOM     32  N   UNL     1     -10.117  -7.674   3.857  1.00  0.00    -0.248 NA
ATOM     33  C   UNL     1     -11.519  -7.929   2.005  1.00  0.00     0.031 C 
ATOM     34  C   UNL     1     -11.516  -6.551   7.924  1.00  0.00     0.029 A 
ATOM     35  C   UNL     1     -11.102  -6.918   6.653  1.00  0.00     0.049 A 
ATOM     36  H   UNL     1      -9.162  -7.394   5.974  1.00  0.00     0.167 HD
ATOM     37  C   UNL     1     -11.424  -7.414   4.240  1.00  0.00     0.074 A 
ATOM     38  C   UNL     1     -12.245  -7.570   3.055  1.00  0.00     0.031 C 
ATOM     39  C   UNL     1     -11.899  -7.074   5.463  1.00  0.00     0.037 A 
BRANCH  26  40
ATOM     40  C   UNL     1      -7.610  -6.831   9.909  1.00  0.00     0.057 A 
ATOM     41  C   UNL     1      -6.908  -5.710  10.372  1.00  0.00     0.134 A 
ATOM     42  C   UNL     1      -8.036  -7.764  10.863  1.00  0.00     0.134 A 
ATOM     43  F   UNL     1      -6.461  -4.785   9.509  1.00  0.00    -0.206 F 
ATOM     44  C   UNL     1      -6.617  -5.539  11.727  1.00  0.00     0.040 A 
ATOM     45  C   UNL     1      -7.772  -7.592  12.223  1.00  0.00     0.040 A 
ATOM     46  F   UNL     1      -8.719  -8.857  10.489  1.00  0.00    -0.206 F 
ATOM     47  C   UNL     1      -7.054  -6.480  12.658  1.00  0.00     0.006 A 
ENDBRANCH  26  40
BRANCH  27  48
ATOM     48  C   UNL     1      -9.284  -8.641   0.226  1.00  0.00     0.057 A 
ATOM     49  C   UNL     1      -9.589  -7.647  -0.708  1.00  0.00     0.134 A 
ATOM     50  C   UNL     1      -9.136  -9.952  -0.246  1.00  0.00     0.134 A 
ATOM     51  F   UNL     1      -9.751  -6.376  -0.312  1.00  0.00    -0.206 F 
ATOM     52  C   UNL     1      -9.735  -7.942  -2.064  1.00  0.00     0.040 A 
ATOM     53  C   UNL     1      -9.257 -10.258  -1.601  1.00  0.00     0.040 A 
ATOM     54  F   UNL     1      -8.828 -10.945   0.602  1.00  0.00    -0.206 F 
ATOM     55  C   UNL     1      -9.559  -9.250  -2.515  1.00  0.00     0.006 A 
ENDBRANCH  27  48
BRANCH  39  56
ATOM     56  C   UNL     1     -13.370  -6.816   5.575  1.00  0.00     0.057 A 
ATOM     57  C   UNL     1     -14.301  -7.860   5.606  1.00  0.00     0.134 A 
ATOM     58  C   UNL     1     -13.853  -5.508   5.710  1.00  0.00     0.134 A 
ATOM     59  F   UNL     1     -13.901  -9.133   5.466  1.00  0.00    -0.206 F 
ATOM     60  C   UNL     1     -15.666  -7.612   5.760  1.00  0.00     0.040 A 
ATOM     61  C   UNL     1     -15.212  -5.248   5.885  1.00  0.00     0.040 A 
ATOM     62  F   UNL     1     -13.009  -4.465   5.693  1.00  0.00    -0.206 F 
ATOM     63  C   UNL     1     -16.123  -6.303   5.908  1.00  0.00     0.006 A 
ENDBRANCH  39  56
ENDBRANCH  13  14
ENDBRANCH   6   8
ENDBRANCH   3   4
ENDBRANCH   2   3
ENDBRANCH   1   2
BRANCH   1  64
ATOM     64  C   UNL     1       3.953  -6.764   4.352  1.00  0.00     0.116 C 
BRANCH  64  65
ATOM     65  N   UNL     1       4.112  -5.339   4.167  1.00  0.00    -0.356 N 
ATOM     66  C   UNL     1       5.211  -4.572   3.959  1.00  0.00     0.227 C 
ATOM     67  H   UNL     1       3.268  -4.833   4.198  1.00  0.00     0.163 HD
ATOM     68  O   UNL     1       5.002  -3.382   3.689  1.00  0.00    -0.274 OA
BRANCH  66  69
ATOM     69  C   UNL     1       6.662  -5.042   4.167  1.00  0.00     0.103 C 
ATOM     70  C   UNL     1       7.061  -6.471   4.020  1.00  0.00    -0.016 C 
ATOM     71  C   UNL     1       7.093  -4.709   5.602  1.00  0.00     0.047 C 
ATOM     72  C   UNL     1       7.494  -7.000   5.170  1.00  0.00    -0.006 C 
ATOM     73  C   UNL     1       7.481  -6.020   6.298  1.00  0.00     0.106 C 
BRANCH  73  74
ATOM     74  N   UNL     1       6.512  -6.460   7.280  1.00  0.00    -0.346 N 
ATOM     75  C   UNL     1       6.376  -6.069   8.591  1.00  0.00     0.251 C 
ATOM     76  H   UNL     1       5.862  -7.130   6.966  1.00  0.00     0.164 HD
ATOM     77  O   UNL     1       5.540  -6.596   9.317  1.00  0.00    -0.269 OA
BRANCH  75  78
ATOM     78  C   UNL     1       7.295  -5.055   9.143  1.00  0.00     0.039 A 
ATOM     79  C   UNL     1       8.204  -5.443  10.128  1.00  0.00     0.014 A 
ATOM     80  C   UNL     1       7.266  -3.733   8.698  1.00  0.00     0.014 A 
ATOM     81  C   UNL     1       9.154  -4.529  10.590  1.00  0.00     0.007 A 
ATOM     82  C   UNL     1       8.236  -2.832   9.131  1.00  0.00     0.007 A 
ATOM     83  C   UNL     1       9.207  -3.231  10.059  1.00  0.00    -0.023 A 
BRANCH  83  84
ATOM     84  C   UNL     1      10.271  -2.260  10.497  1.00  0.00     0.191 C 
BRANCH  84  85
ATOM     85  O   UNL     1       9.751  -1.305  11.409  1.00  0.00    -0.392 OA
ATOM     86  H   UNL     1       9.043  -0.800  10.979  1.00  0.00     0.211 HD
ENDBRANCH  84  85
ENDBRANCH  83  84
ENDBRANCH  75  78
ENDBRANCH  73  74
ENDBRANCH  66  69
ENDBRANCH  64  65
ENDBRANCH   1  64
TORSDOF 15
