REMARK SMILES CC[C@H](C(=O)NCCCCNC(=O)c1ccc(-c2c3nc(c(-c4c(F)cccc4F)c4ccc([nH]4)c(-c4c(F)cccc4F)c4nc(c(-c5c(F)cccc5F)c5ccc2[nH]5)C=C4)C=C3)cc1)[N@H+](C)[C@H]1CC[C@H]([NH3+])CC1
REMARK SMILES IDX 8 1 7 2 6 3 4 4 5 5 3 7 2 8 1 9 68 10 69 11 70 13 71 14
REMARK SMILES IDX 76 15 72 16 75 17 73 18 74 19 9 23 10 24 11 25 12 26 13 28
REMARK SMILES IDX 14 29 15 30 67 31 16 32 66 33 17 34 18 35 19 36 60 37 20 38
REMARK SMILES IDX 65 39 59 40 61 41 21 42 64 43 58 44 57 45 22 47 48 48 31 49
REMARK SMILES IDX 47 50 32 51 35 52 46 53 62 54 33 55 34 56 45 58 63 59 36 60
REMARK SMILES IDX 23 61 24 62 29 63 25 64 26 65 28 66 30 67 27 68 49 69 50 70
REMARK SMILES IDX 55 71 51 72 52 73 54 74 56 75 53 76 37 77 38 78 43 79 39 80
REMARK SMILES IDX 40 81 42 82 44 83 41 84
REMARK H PARENT 6 6 68 12 74 20 74 21 74 22 11 27 61 46 35 57
REMARK Flexibility Score: inf
ROOT
ATOM      1  C   UNL     1       1.641  -2.285  -0.655  1.00  0.00     0.023 C 
ENDROOT
BRANCH   1   2
ATOM      2  C   UNL     1       0.743  -1.134  -1.105  1.00  0.00     0.116 C 
BRANCH   2   3
ATOM      3  N   UNL     1       0.612  -0.112  -0.093  1.00  0.00    -0.351 N 
ATOM      4  C   UNL     1       0.774   1.231  -0.062  1.00  0.00     0.278 C 
ATOM      5  O   UNL     1       0.740   1.682   1.096  1.00  0.00    -0.268 OA
ATOM      6  H   UNL     1       0.340  -0.479   0.779  1.00  0.00     0.163 HD
BRANCH   4   7
ATOM      7  C   UNL     1       0.994   2.208  -1.281  1.00  0.00     0.273 C 
BRANCH   7   8
ATOM      8  C   UNL     1       1.663   1.645  -2.559  1.00  0.00     0.072 C 
ATOM      9  C   UNL     1       0.803   0.944  -3.611  1.00  0.00     0.011 C 
ENDBRANCH   7   8
BRANCH   7  10
ATOM     10  N   UNL     1      -0.052   3.272  -1.403  1.00  0.00    -0.325 N 
ATOM     11  C   UNL     1      -0.748   3.654  -0.184  1.00  0.00     0.333 C 
ATOM     12  H   UNL     1       0.639   4.007  -1.551  1.00  0.00     0.348 HD
BRANCH  10  13
ATOM     13  C   UNL     1      -0.698   3.578  -2.672  1.00  0.00     0.184 C 
ATOM     14  C   UNL     1      -1.060   5.075  -2.832  1.00  0.00     0.071 C 
ATOM     15  C   UNL     1      -1.960   2.741  -2.932  1.00  0.00     0.071 C 
ATOM     16  C   UNL     1      -1.587   5.363  -4.241  1.00  0.00     0.071 C 
ATOM     17  C   UNL     1      -2.471   2.984  -4.356  1.00  0.00     0.071 C 
ATOM     18  C   UNL     1      -2.782   4.466  -4.592  1.00  0.00     0.181 C 
BRANCH  18  19
ATOM     19  N   UNL     1      -3.179   4.670  -5.984  1.00  0.00    -0.355 N 
ATOM     20  H   UNL     1      -2.409   4.406  -6.599  1.00  0.00     0.344 HD
ATOM     21  H   UNL     1      -3.410   5.652  -6.131  1.00  0.00     0.344 HD
ATOM     22  H   UNL     1      -3.994   4.094  -6.193  1.00  0.00     0.344 HD
ENDBRANCH  18  19
ENDBRANCH  10  13
ENDBRANCH   7  10
ENDBRANCH   4   7
ENDBRANCH   2   3
ENDBRANCH   1   2
BRANCH   1  23
ATOM     23  C   UNL     1       1.053  -3.205   0.410  1.00  0.00     0.023 C 
BRANCH  23  24
ATOM     24  C   UNL     1      -0.310  -3.803   0.084  1.00  0.00     0.116 C 
BRANCH  24  25
ATOM     25  N   UNL     1      -0.365  -4.487  -1.202  1.00  0.00    -0.352 N 
ATOM     26  C   UNL     1      -0.962  -5.693  -1.508  1.00  0.00     0.251 C 
ATOM     27  H   UNL     1       0.081  -4.029  -1.950  1.00  0.00     0.163 HD
ATOM     28  O   UNL     1      -0.893  -6.170  -2.625  1.00  0.00    -0.269 OA
BRANCH  26  29
ATOM     29  C   UNL     1      -1.645  -6.420  -0.420  1.00  0.00     0.039 A 
ATOM     30  C   UNL     1      -1.183  -7.690  -0.067  1.00  0.00     0.014 A 
ATOM     31  C   UNL     1      -2.638  -5.782   0.326  1.00  0.00     0.014 A 
ATOM     32  C   UNL     1      -1.645  -8.280   1.109  1.00  0.00     0.010 A 
ATOM     33  C   UNL     1      -3.042  -6.340   1.531  1.00  0.00     0.010 A 
ATOM     34  C   UNL     1      -2.531  -7.582   1.945  1.00  0.00    -0.014 A 
BRANCH  34  35
ATOM     35  C   UNL     1      -2.921  -8.102   3.278  1.00  0.00     0.031 A 
ATOM     36  C   UNL     1      -4.362  -8.413   3.559  1.00  0.00     0.074 A 
ATOM     37  C   UNL     1      -2.005  -8.178   4.263  1.00  0.00     0.049 A 
ATOM     38  N   UNL     1      -4.941  -8.696   4.697  1.00  0.00    -0.248 NA
ATOM     39  C   UNL     1      -5.280  -8.359   2.410  1.00  0.00     0.031 C 
ATOM     40  C   UNL     1      -0.582  -7.858   4.130  1.00  0.00     0.029 A 
ATOM     41  N   UNL     1      -2.142  -8.526   5.584  1.00  0.00    -0.354 N 
ATOM     42  C   UNL     1      -6.293  -8.815   4.409  1.00  0.00     0.074 A 
ATOM     43  C   UNL     1      -6.453  -8.540   2.997  1.00  0.00     0.031 C 
ATOM     44  C   UNL     1       0.023  -8.037   5.315  1.00  0.00     0.029 A 
ATOM     45  C   UNL     1      -0.973  -8.443   6.301  1.00  0.00     0.049 A 
ATOM     46  H   UNL     1      -2.998  -8.808   5.981  1.00  0.00     0.167 HD
ATOM     47  C   UNL     1      -7.308  -9.138   5.244  1.00  0.00     0.037 A 
ATOM     48  C   UNL     1      -0.736  -8.656   7.609  1.00  0.00     0.037 A 
ATOM     49  C   UNL     1      -7.139  -9.457   6.635  1.00  0.00     0.049 A 
ATOM     50  C   UNL     1      -1.875  -9.045   8.509  1.00  0.00     0.074 A 
ATOM     51  C   UNL     1      -8.095  -9.864   7.549  1.00  0.00     0.029 A 
ATOM     52  N   UNL     1      -5.929  -9.416   7.310  1.00  0.00    -0.354 N 
ATOM     53  N   UNL     1      -3.143  -9.199   8.215  1.00  0.00    -0.248 NA
ATOM     54  C   UNL     1      -1.551  -9.289   9.922  1.00  0.00     0.031 C 
ATOM     55  C   UNL     1      -7.466 -10.047   8.785  1.00  0.00     0.029 A 
ATOM     56  C   UNL     1      -6.114  -9.784   8.632  1.00  0.00     0.049 A 
ATOM     57  H   UNL     1      -5.066  -9.162   6.910  1.00  0.00     0.167 HD
ATOM     58  C   UNL     1      -3.763  -9.582   9.396  1.00  0.00     0.074 A 
ATOM     59  C   UNL     1      -2.732  -9.644  10.411  1.00  0.00     0.031 C 
ATOM     60  C   UNL     1      -5.070  -9.859   9.620  1.00  0.00     0.037 A 
BRANCH  47  61
ATOM     61  C   UNL     1      -8.690  -9.165   4.664  1.00  0.00     0.057 A 
ATOM     62  C   UNL     1      -9.101 -10.177   3.788  1.00  0.00     0.134 A 
ATOM     63  C   UNL     1      -9.623  -8.174   4.994  1.00  0.00     0.134 A 
ATOM     64  F   UNL     1      -8.249 -11.146   3.421  1.00  0.00    -0.206 F 
ATOM     65  C   UNL     1     -10.384 -10.188   3.238  1.00  0.00     0.040 A 
ATOM     66  C   UNL     1     -10.916  -8.188   4.470  1.00  0.00     0.040 A 
ATOM     67  F   UNL     1      -9.292  -7.178   5.830  1.00  0.00    -0.206 F 
ATOM     68  C   UNL     1     -11.297  -9.194   3.583  1.00  0.00     0.006 A 
ENDBRANCH  47  61
BRANCH  48  69
ATOM     69  C   UNL     1       0.641  -8.526   8.147  1.00  0.00     0.057 A 
ATOM     70  C   UNL     1       1.376  -9.660   8.513  1.00  0.00     0.134 A 
ATOM     71  C   UNL     1       1.251  -7.278   8.315  1.00  0.00     0.134 A 
ATOM     72  F   UNL     1       0.836 -10.881   8.392  1.00  0.00    -0.206 F 
ATOM     73  C   UNL     1       2.663  -9.557   9.043  1.00  0.00     0.040 A 
ATOM     74  C   UNL     1       2.545  -7.162   8.826  1.00  0.00     0.040 A 
ATOM     75  F   UNL     1       0.600  -6.156   7.976  1.00  0.00    -0.206 F 
ATOM     76  C   UNL     1       3.252  -8.304   9.197  1.00  0.00     0.006 A 
ENDBRANCH  48  69
BRANCH  60  77
ATOM     77  C   UNL     1      -5.454 -10.294  11.000  1.00  0.00     0.057 A 
ATOM     78  C   UNL     1      -5.574  -9.380  12.053  1.00  0.00     0.134 A 
ATOM     79  C   UNL     1      -5.767 -11.634  11.261  1.00  0.00     0.134 A 
ATOM     80  F   UNL     1      -5.275  -8.085  11.867  1.00  0.00    -0.206 F 
ATOM     81  C   UNL     1      -5.984  -9.786  13.323  1.00  0.00     0.040 A 
ATOM     82  C   UNL     1      -6.197 -12.048  12.521  1.00  0.00     0.040 A 
ATOM     83  F   UNL     1      -5.676 -12.555  10.290  1.00  0.00    -0.206 F 
ATOM     84  C   UNL     1      -6.305 -11.123  13.557  1.00  0.00     0.006 A 
ENDBRANCH  60  77
ENDBRANCH  34  35
ENDBRANCH  26  29
ENDBRANCH  24  25
ENDBRANCH  23  24
ENDBRANCH   1  23
TORSDOF 15
