REMARK SMILES O=C(NCCCCNC(=O)c1ccccc1C(=O)Nc1ccc(N2C(=O)[C@H]3[C@@H]4CC[C@@H](C4)[C@@H]3C2=O)cc1)c1ccc(-c2c3nc(c(-c4c(F)cccc4F)c4ccc([nH]4)c(-c4c(F)cccc4F)c4nc(c(-c5c(F)cccc5F)c5ccc2[nH]5)C=C4)C=C3)cc1
REMARK SMILES IDX 6 1 5 2 4 3 3 4 1 5 2 6 38 8 39 9 91 10 40 11 90 12 41 13
REMARK SMILES IDX 42 14 43 15 84 16 44 17 89 18 83 19 85 20 45 21 88 22 82 23
REMARK SMILES IDX 81 24 46 26 72 27 55 28 71 29 56 30 59 31 70 32 86 33 57 34
REMARK SMILES IDX 58 35 69 37 87 38 60 39 47 40 48 41 53 42 49 43 50 44 52 45
REMARK SMILES IDX 54 46 51 47 73 48 74 49 79 50 75 51 76 52 78 53 80 54 77 55
REMARK SMILES IDX 61 56 62 57 67 58 63 59 64 60 66 61 68 62 65 63 7 64 8 65
REMARK SMILES IDX 9 66 10 68 11 69 12 70 16 71 13 72 15 73 14 74 17 75 18 76
REMARK SMILES IDX 19 77 20 79 21 80 37 81 22 82 36 83 23 84 24 85 25 86 34 87
REMARK SMILES IDX 26 88 27 89 33 90 35 91 28 92 31 93 29 94 32 95 30 96
REMARK H PARENT 3 7 85 25 59 36 8 67 19 78
REMARK Flexibility Score: inf
ROOT
ATOM      1  C   UNL     1       3.846   0.786  -3.863  1.00  0.00     0.023 C 
ENDROOT
BRANCH   1   2
ATOM      2  C   UNL     1       4.380  -0.007  -2.669  1.00  0.00     0.023 C 
BRANCH   2   3
ATOM      3  C   UNL     1       4.131   0.651  -1.319  1.00  0.00     0.116 C 
BRANCH   3   4
ATOM      4  N   UNL     1       2.738   0.602  -0.903  1.00  0.00    -0.352 N 
ATOM      5  O   UNL     1       0.909  -0.155   0.181  1.00  0.00    -0.269 OA
ATOM      6  C   UNL     1       2.131  -0.154   0.072  1.00  0.00     0.251 C 
ATOM      7  H   UNL     1       2.136   1.204  -1.397  1.00  0.00     0.163 HD
BRANCH   6   8
ATOM      8  C   UNL     1       2.950  -0.990   0.976  1.00  0.00     0.039 A 
ATOM      9  C   UNL     1       4.114  -0.482   1.551  1.00  0.00     0.014 A 
ATOM     10  C   UNL     1       2.549  -2.300   1.254  1.00  0.00     0.014 A 
ATOM     11  C   UNL     1       4.970  -1.332   2.237  1.00  0.00     0.010 A 
ATOM     12  C   UNL     1       3.352  -3.120   2.056  1.00  0.00     0.010 A 
ATOM     13  C   UNL     1       4.588  -2.653   2.527  1.00  0.00    -0.014 A 
BRANCH  13  14
ATOM     14  C   UNL     1       5.470  -3.472   3.401  1.00  0.00     0.031 A 
ATOM     15  C   UNL     1       6.101  -4.750   2.922  1.00  0.00     0.074 A 
ATOM     16  C   UNL     1       5.741  -3.008   4.638  1.00  0.00     0.049 A 
ATOM     17  N   UNL     1       6.937  -5.538   3.551  1.00  0.00    -0.248 NA
ATOM     18  C   UNL     1       5.747  -5.212   1.571  1.00  0.00     0.031 C 
ATOM     19  C   UNL     1       5.164  -1.795   5.226  1.00  0.00     0.029 A 
ATOM     20  N   UNL     1       6.585  -3.475   5.611  1.00  0.00    -0.354 N 
ATOM     21  C   UNL     1       7.207  -6.587   2.681  1.00  0.00     0.074 A 
ATOM     22  C   UNL     1       6.413  -6.357   1.492  1.00  0.00     0.031 C 
ATOM     23  C   UNL     1       5.716  -1.580   6.426  1.00  0.00     0.029 A 
ATOM     24  C   UNL     1       6.622  -2.679   6.731  1.00  0.00     0.049 A 
ATOM     25  H   UNL     1       7.114  -4.300   5.518  1.00  0.00     0.167 HD
ATOM     26  C   UNL     1       8.050  -7.634   2.853  1.00  0.00     0.037 A 
ATOM     27  C   UNL     1       7.290  -2.825   7.889  1.00  0.00     0.037 A 
ATOM     28  C   UNL     1       8.834  -7.860   4.044  1.00  0.00     0.049 A 
ATOM     29  C   UNL     1       8.189  -4.013   8.060  1.00  0.00     0.074 A 
ATOM     30  C   UNL     1       9.723  -8.888   4.309  1.00  0.00     0.029 A 
ATOM     31  N   UNL     1       8.819  -7.049   5.170  1.00  0.00    -0.354 N 
ATOM     32  N   UNL     1       8.458  -4.976   7.212  1.00  0.00    -0.248 NA
ATOM     33  C   UNL     1       8.879  -4.134   9.350  1.00  0.00     0.031 C 
ATOM     34  C   UNL     1      10.208  -8.727   5.611  1.00  0.00     0.029 A 
ATOM     35  C   UNL     1       9.669  -7.565   6.137  1.00  0.00     0.049 A 
ATOM     36  H   UNL     1       8.284  -6.229   5.267  1.00  0.00     0.167 HD
ATOM     37  C   UNL     1       9.358  -5.809   7.860  1.00  0.00     0.074 A 
ATOM     38  C   UNL     1       9.618  -5.216   9.155  1.00  0.00     0.031 C 
ATOM     39  C   UNL     1       9.913  -6.967   7.426  1.00  0.00     0.037 A 
BRANCH  26  40
ATOM     40  C   UNL     1       8.173  -8.627   1.730  1.00  0.00     0.057 A 
ATOM     41  C   UNL     1       8.817  -8.306   0.528  1.00  0.00     0.134 A 
ATOM     42  C   UNL     1       7.706  -9.940   1.878  1.00  0.00     0.134 A 
ATOM     43  F   UNL     1       9.282  -7.065   0.316  1.00  0.00    -0.206 F 
ATOM     44  C   UNL     1       8.976  -9.247  -0.492  1.00  0.00     0.040 A 
ATOM     45  C   UNL     1       7.884 -10.898   0.877  1.00  0.00     0.040 A 
ATOM     46  F   UNL     1       7.089 -10.322   3.006  1.00  0.00    -0.206 F 
ATOM     47  C   UNL     1       8.518 -10.551  -0.314  1.00  0.00     0.006 A 
ENDBRANCH  26  40
BRANCH  27  48
ATOM     48  C   UNL     1       7.104  -1.838   8.983  1.00  0.00     0.057 A 
ATOM     49  C   UNL     1       8.153  -1.019   9.416  1.00  0.00     0.134 A 
ATOM     50  C   UNL     1       5.870  -1.702   9.633  1.00  0.00     0.134 A 
ATOM     51  F   UNL     1       9.362  -1.110   8.844  1.00  0.00    -0.206 F 
ATOM     52  C   UNL     1       7.991  -0.124  10.475  1.00  0.00     0.040 A 
ATOM     53  C   UNL     1       5.684  -0.786  10.667  1.00  0.00     0.040 A 
ATOM     54  F   UNL     1       4.821  -2.448   9.258  1.00  0.00    -0.206 F 
ATOM     55  C   UNL     1       6.751  -0.002  11.100  1.00  0.00     0.006 A 
ENDBRANCH  27  48
BRANCH  39  56
ATOM     56  C   UNL     1      10.876  -7.645   8.358  1.00  0.00     0.057 A 
ATOM     57  C   UNL     1      10.455  -8.241   9.555  1.00  0.00     0.134 A 
ATOM     58  C   UNL     1      12.244  -7.693   8.060  1.00  0.00     0.134 A 
ATOM     59  F   UNL     1       9.161  -8.216   9.909  1.00  0.00    -0.206 F 
ATOM     60  C   UNL     1      11.364  -8.821  10.441  1.00  0.00     0.040 A 
ATOM     61  C   UNL     1      13.158  -8.301   8.922  1.00  0.00     0.040 A 
ATOM     62  F   UNL     1      12.715  -7.152   6.927  1.00  0.00    -0.206 F 
ATOM     63  C   UNL     1      12.720  -8.855  10.123  1.00  0.00     0.006 A 
ENDBRANCH  39  56
ENDBRANCH  13  14
ENDBRANCH   6   8
ENDBRANCH   3   4
ENDBRANCH   2   3
ENDBRANCH   1   2
BRANCH   1  64
ATOM     64  C   UNL     1       4.501   2.153  -4.054  1.00  0.00     0.116 C 
BRANCH  64  65
ATOM     65  N   UNL     1       5.914   2.049  -4.358  1.00  0.00    -0.352 N 
ATOM     66  C   UNL     1       6.732   2.958  -4.970  1.00  0.00     0.252 C 
ATOM     67  H   UNL     1       6.345   1.207  -4.087  1.00  0.00     0.163 HD
ATOM     68  O   UNL     1       7.867   2.627  -5.310  1.00  0.00    -0.269 OA
BRANCH  66  69
ATOM     69  C   UNL     1       6.239   4.292  -5.362  1.00  0.00     0.052 A 
ATOM     70  C   UNL     1       6.417   4.532  -6.745  1.00  0.00     0.014 A 
ATOM     71  C   UNL     1       5.598   5.247  -4.559  1.00  0.00     0.052 A 
ATOM     72  C   UNL     1       5.870   5.650  -7.365  1.00  0.00     0.001 A 
ATOM     73  C   UNL     1       5.023   6.358  -5.225  1.00  0.00     0.014 A 
ATOM     74  C   UNL     1       5.141   6.550  -6.606  1.00  0.00     0.001 A 
BRANCH  71  75
ATOM     75  C   UNL     1       5.304   5.218  -3.091  1.00  0.00     0.256 C 
ATOM     76  O   UNL     1       4.232   5.718  -2.725  1.00  0.00    -0.269 OA
ATOM     77  N   UNL     1       6.042   4.619  -2.098  1.00  0.00    -0.322 N 
ATOM     78  H   UNL     1       5.615   4.654  -1.211  1.00  0.00     0.170 HD
BRANCH  77  79
ATOM     79  C   UNL     1       7.274   3.972  -2.100  1.00  0.00     0.041 A 
ATOM     80  C   UNL     1       7.324   2.734  -1.452  1.00  0.00     0.028 A 
ATOM     81  C   UNL     1       8.390   4.452  -2.773  1.00  0.00     0.028 A 
ATOM     82  C   UNL     1       8.363   1.852  -1.730  1.00  0.00     0.029 A 
ATOM     83  C   UNL     1       9.498   3.616  -2.933  1.00  0.00     0.029 A 
ATOM     84  C   UNL     1       9.433   2.277  -2.515  1.00  0.00     0.052 A 
BRANCH  84  85
ATOM     85  N   UNL     1      10.335   1.345  -3.056  1.00  0.00    -0.250 N 
ATOM     86  C   UNL     1      11.702   1.599  -3.222  1.00  0.00     0.237 C 
ATOM     87  C   UNL     1       9.916   0.189  -3.751  1.00  0.00     0.237 C 
ATOM     88  O   UNL     1      12.429   2.389  -2.653  1.00  0.00    -0.274 OA
ATOM     89  C   UNL     1      12.042   0.780  -4.417  1.00  0.00     0.095 C 
ATOM     90  C   UNL     1      11.211  -0.461  -4.136  1.00  0.00     0.095 C 
ATOM     91  O   UNL     1       8.799  -0.267  -3.926  1.00  0.00    -0.274 OA
ATOM     92  C   UNL     1      13.329   0.192  -4.994  1.00  0.00     0.002 C 
ATOM     93  C   UNL     1      11.723  -1.392  -5.230  1.00  0.00     0.002 C 
ATOM     94  C   UNL     1      13.084   0.198  -6.519  1.00  0.00     0.005 C 
ATOM     95  C   UNL     1      13.207  -1.336  -4.782  1.00  0.00     0.009 C 
ATOM     96  C   UNL     1      11.851  -0.747  -6.640  1.00  0.00     0.005 C 
ENDBRANCH  84  85
ENDBRANCH  77  79
ENDBRANCH  71  75
ENDBRANCH  66  69
ENDBRANCH  64  65
ENDBRANCH   1  64
TORSDOF 14
