REMARK SMILES Cc1cc(C)c2c(c1)C=C(C(=O)NCCCCNC(=O)c1ccc(-c3c4nc(c(-c5c(F)cccc5F)c5ccc([nH]5)c(-c5c(F)cccc5F)c5nc(c(-c6c(F)cccc6F)c6ccc3[nH]6)C=C5)C=C4)cc1)[C@@H](C(F)(F)F)O2
REMARK SMILES IDX 16 1 15 2 14 3 13 4 11 5 12 6 10 8 1 9 2 10 3 11 8 12 4 13
REMARK SMILES IDX 7 14 5 15 6 16 9 17 80 18 75 19 76 20 77 21 78 22 79 23
REMARK SMILES IDX 17 24 18 25 19 26 20 28 21 29 22 30 74 31 23 32 73 33 24 34
REMARK SMILES IDX 25 35 26 36 67 37 27 38 72 39 66 40 68 41 28 42 71 43 65 44
REMARK SMILES IDX 64 45 29 47 55 48 38 49 54 50 39 51 42 52 53 53 69 54 40 55
REMARK SMILES IDX 41 56 52 58 70 59 43 60 30 61 31 62 36 63 32 64 33 65 35 66
REMARK SMILES IDX 37 67 34 68 56 69 57 70 62 71 58 72 59 73 61 74 63 75 60 76
REMARK SMILES IDX 44 77 45 78 50 79 46 80 47 81 49 82 51 83 48 84
REMARK H PARENT 13 7 18 27 68 46 42 57
REMARK Flexibility Score: inf
ROOT
ATOM      1  C   UNL     1      -2.148   7.856  -7.214  1.00  0.00     0.023 C 
ENDROOT
BRANCH   1   2
ATOM      2  C   UNL     1      -1.902   6.404  -6.796  1.00  0.00     0.023 C 
BRANCH   2   3
ATOM      3  C   UNL     1      -0.429   6.051  -6.614  1.00  0.00     0.116 C 
BRANCH   3   4
ATOM      4  N   UNL     1       0.045   6.375  -5.282  1.00  0.00    -0.352 N 
ATOM      5  C   UNL     1       0.321   5.700  -4.141  1.00  0.00     0.251 C 
ATOM      6  O   UNL     1       0.706   6.402  -3.200  1.00  0.00    -0.270 OA
ATOM      7  H   UNL     1       0.209   7.341  -5.180  1.00  0.00     0.163 HD
BRANCH   5   8
ATOM      8  C   UNL     1       0.194   4.224  -3.959  1.00  0.00     0.067 C 
ATOM      9  C   UNL     1       1.091  -0.156   0.308  1.00  0.00     0.044 C 
ATOM     10  C   UNL     1       0.620   0.418  -0.995  1.00  0.00    -0.050 A 
ATOM     11  C   UNL     1       0.105  -0.415  -1.998  1.00  0.00     0.010 A 
ATOM     12  C   UNL     1       0.729   1.795  -1.235  1.00  0.00     0.015 A 
ATOM     13  C   UNL     1      -0.320   0.114  -3.224  1.00  0.00    -0.008 A 
ATOM     14  C   UNL     1       0.319   2.336  -2.457  1.00  0.00     0.018 A 
ATOM     15  C   UNL     1      -0.875  -0.786  -4.290  1.00  0.00     0.048 C 
ATOM     16  C   UNL     1      -0.199   1.492  -3.442  1.00  0.00     0.130 A 
ATOM     17  C   UNL     1       0.392   3.771  -2.707  1.00  0.00     0.025 C 
ATOM     18  O   UNL     1      -0.648   1.978  -4.640  1.00  0.00    -0.475 OA
ATOM     19  C   UNL     1      -0.089   3.249  -5.066  1.00  0.00     0.314 C 
BRANCH  19  20
ATOM     20  C   UNL     1       1.137   2.992  -5.962  1.00  0.00     0.429 C 
ATOM     21  F   UNL     1       0.761   2.382  -7.115  1.00  0.00    -0.167 F 
ATOM     22  F   UNL     1       1.761   4.139  -6.326  1.00  0.00    -0.167 F 
ATOM     23  F   UNL     1       2.067   2.209  -5.374  1.00  0.00    -0.167 F 
ENDBRANCH  19  20
ENDBRANCH   5   8
ENDBRANCH   3   4
ENDBRANCH   2   3
ENDBRANCH   1   2
BRANCH   1  24
ATOM     24  C   UNL     1      -1.416   8.306  -8.478  1.00  0.00     0.116 C 
BRANCH  24  25
ATOM     25  N   UNL     1      -1.604   7.416  -9.614  1.00  0.00    -0.352 N 
ATOM     26  C   UNL     1      -1.652   7.743 -10.947  1.00  0.00     0.251 C 
ATOM     27  H   UNL     1      -1.708   6.460  -9.401  1.00  0.00     0.163 HD
ATOM     28  O   UNL     1      -1.892   6.893 -11.798  1.00  0.00    -0.269 OA
BRANCH  26  29
ATOM     29  C   UNL     1      -1.453   9.150 -11.336  1.00  0.00     0.039 A 
ATOM     30  C   UNL     1      -2.444   9.787 -12.085  1.00  0.00     0.014 A 
ATOM     31  C   UNL     1      -0.322   9.847 -10.902  1.00  0.00     0.014 A 
ATOM     32  C   UNL     1      -2.335  11.153 -12.341  1.00  0.00     0.010 A 
ATOM     33  C   UNL     1      -0.243  11.219 -11.109  1.00  0.00     0.010 A 
ATOM     34  C   UNL     1      -1.252  11.883 -11.825  1.00  0.00    -0.014 A 
BRANCH  34  35
ATOM     35  C   UNL     1      -1.147  13.345 -12.031  1.00  0.00     0.031 A 
ATOM     36  C   UNL     1      -0.051  13.897 -12.894  1.00  0.00     0.074 A 
ATOM     37  C   UNL     1      -1.999  14.172 -11.398  1.00  0.00     0.049 A 
ATOM     38  N   UNL     1       0.265  15.144 -13.130  1.00  0.00    -0.248 NA
ATOM     39  C   UNL     1       0.822  12.916 -13.559  1.00  0.00     0.031 C 
ATOM     40  C   UNL     1      -3.085  13.754 -10.509  1.00  0.00     0.029 A 
ATOM     41  N   UNL     1      -2.081  15.541 -11.401  1.00  0.00    -0.354 N 
ATOM     42  C   UNL     1       1.377  15.097 -13.960  1.00  0.00     0.074 A 
ATOM     43  C   UNL     1       1.711  13.702 -14.147  1.00  0.00     0.031 C 
ATOM     44  C   UNL     1      -3.740  14.842 -10.075  1.00  0.00     0.029 A 
ATOM     45  C   UNL     1      -3.102  16.034 -10.626  1.00  0.00     0.049 A 
ATOM     46  H   UNL     1      -1.466  16.117 -11.911  1.00  0.00     0.167 HD
ATOM     47  C   UNL     1       2.044  16.125 -14.533  1.00  0.00     0.037 A 
ATOM     48  C   UNL     1      -3.477  17.304 -10.387  1.00  0.00     0.037 A 
ATOM     49  C   UNL     1       1.694  17.510 -14.368  1.00  0.00     0.049 A 
ATOM     50  C   UNL     1      -2.713  18.428 -11.027  1.00  0.00     0.074 A 
ATOM     51  C   UNL     1       2.283  18.623 -14.941  1.00  0.00     0.029 A 
ATOM     52  N   UNL     1       0.654  17.968 -13.573  1.00  0.00    -0.354 N 
ATOM     53  N   UNL     1      -1.681  18.370 -11.834  1.00  0.00    -0.248 NA
ATOM     54  C   UNL     1      -3.162  19.794 -10.721  1.00  0.00     0.031 C 
ATOM     55  C   UNL     1       1.615  19.759 -14.471  1.00  0.00     0.029 A 
ATOM     56  C   UNL     1       0.591  19.350 -13.631  1.00  0.00     0.049 A 
ATOM     57  H   UNL     1       0.051  17.396 -13.046  1.00  0.00     0.167 HD
ATOM     58  C   UNL     1      -1.366  19.686 -12.144  1.00  0.00     0.074 A 
ATOM     59  C   UNL     1      -2.326  20.521 -11.450  1.00  0.00     0.031 C 
ATOM     60  C   UNL     1      -0.370  20.161 -12.930  1.00  0.00     0.037 A 
BRANCH  47  61
ATOM     61  C   UNL     1       3.214  15.781 -15.404  1.00  0.00     0.057 A 
ATOM     62  C   UNL     1       3.040  15.214 -16.673  1.00  0.00     0.134 A 
ATOM     63  C   UNL     1       4.524  16.039 -14.983  1.00  0.00     0.134 A 
ATOM     64  F   UNL     1       1.810  14.927 -17.126  1.00  0.00    -0.206 F 
ATOM     65  C   UNL     1       4.129  14.894 -17.485  1.00  0.00     0.040 A 
ATOM     66  C   UNL     1       5.620  15.745 -15.795  1.00  0.00     0.040 A 
ATOM     67  F   UNL     1       4.758  16.583 -13.779  1.00  0.00    -0.206 F 
ATOM     68  C   UNL     1       5.424  15.166 -17.048  1.00  0.00     0.006 A 
ENDBRANCH  47  61
BRANCH  48  69
ATOM     69  C   UNL     1      -4.653  17.578  -9.527  1.00  0.00     0.057 A 
ATOM     70  C   UNL     1      -5.861  18.014 -10.085  1.00  0.00     0.134 A 
ATOM     71  C   UNL     1      -4.606  17.404  -8.140  1.00  0.00     0.134 A 
ATOM     72  F   UNL     1      -5.958  18.215 -11.408  1.00  0.00    -0.206 F 
ATOM     73  C   UNL     1      -6.979  18.275  -9.293  1.00  0.00     0.040 A 
ATOM     74  C   UNL     1      -5.723  17.645  -7.337  1.00  0.00     0.040 A 
ATOM     75  F   UNL     1      -3.479  16.984  -7.548  1.00  0.00    -0.206 F 
ATOM     76  C   UNL     1      -6.913  18.085  -7.914  1.00  0.00     0.006 A 
ENDBRANCH  48  69
BRANCH  60  77
ATOM     77  C   UNL     1      -0.273  21.647 -13.090  1.00  0.00     0.057 A 
ATOM     78  C   UNL     1       0.250  22.459 -12.077  1.00  0.00     0.134 A 
ATOM     79  C   UNL     1      -0.648  22.264 -14.290  1.00  0.00     0.134 A 
ATOM     80  F   UNL     1       0.616  21.927 -10.901  1.00  0.00    -0.206 F 
ATOM     81  C   UNL     1       0.386  23.837 -12.247  1.00  0.00     0.040 A 
ATOM     82  C   UNL     1      -0.498  23.638 -14.479  1.00  0.00     0.040 A 
ATOM     83  F   UNL     1      -1.149  21.538 -15.301  1.00  0.00    -0.206 F 
ATOM     84  C   UNL     1       0.019  24.428 -13.455  1.00  0.00     0.006 A 
ENDBRANCH  60  77
ENDBRANCH  34  35
ENDBRANCH  26  29
ENDBRANCH  24  25
ENDBRANCH   1  24
TORSDOF 12
