REMARK SMILES O=C(C[N@H+]1CCC[C@@H]1C(=O)NCCCCNC(=O)c1ccc(-c2c3nc(c(-c4c(F)cccc4F)c4ccc([nH]4)c(-c4c(F)cccc4F)c4nc(c(-c5c(F)cccc5F)c5ccc2[nH]5)C=C4)C=C3)cc1)NCc1ccc(Cl)cc1
REMARK SMILES IDX 12 1 11 2 9 3 10 4 8 6 4 7 5 8 6 10 7 11 3 12 2 13 1 14
REMARK SMILES IDX 73 15 74 17 75 18 76 19 81 20 77 21 80 22 78 23 79 24 13 25
REMARK SMILES IDX 14 26 15 27 16 28 17 29 18 31 19 32 20 33 72 34 21 35 71 36
REMARK SMILES IDX 22 37 23 38 24 39 65 40 25 41 70 42 64 43 66 44 26 45 69 46
REMARK SMILES IDX 63 47 62 48 27 50 53 51 36 52 52 53 37 54 40 55 51 56 67 57
REMARK SMILES IDX 38 58 39 59 50 61 68 62 41 63 28 64 29 65 34 66 30 67 31 68
REMARK SMILES IDX 33 69 35 70 32 71 54 72 55 73 60 74 56 75 57 76 59 77 61 78
REMARK SMILES IDX 58 79 42 80 43 81 48 82 44 83 45 84 47 85 49 86 46 87
REMARK H PARENT 11 5 4 9 73 16 16 30 66 49 40 60
REMARK Flexibility Score: inf
ROOT
ATOM      1  C   UNL     1       0.611  -0.997   1.119  1.00  0.00     0.116 C 
ENDROOT
BRANCH   1   2
ATOM      2  N   UNL     1       0.648  -0.325   2.392  1.00  0.00    -0.351 N 
ATOM      3  C   UNL     1       1.747   0.149   3.044  1.00  0.00     0.278 C 
ATOM      4  O   UNL     1       1.554   1.005   3.915  1.00  0.00    -0.268 OA
ATOM      5  H   UNL     1      -0.218  -0.192   2.841  1.00  0.00     0.163 HD
BRANCH   3   6
ATOM      6  C   UNL     1       3.166  -0.381   2.795  1.00  0.00     0.274 C 
ATOM      7  N   UNL     1       3.771  -0.174   1.481  1.00  0.00    -0.317 N 
ATOM      8  C   UNL     1       4.944  -1.013   1.403  1.00  0.00     0.263 C 
ATOM      9  H   UNL     1       3.025  -0.337   0.804  1.00  0.00     0.349 HD
ATOM     10  C   UNL     1       4.274  -2.316   1.801  1.00  0.00     0.068 C 
ATOM     11  C   UNL     1       3.322  -1.907   2.938  1.00  0.00     0.081 C 
BRANCH   7  12
ATOM     12  C   UNL     1       3.568   0.953   0.597  1.00  0.00     0.364 C 
BRANCH  12  13
ATOM     13  C   UNL     1       2.800   0.465  -0.662  1.00  0.00     0.275 C 
ATOM     14  O   UNL     1       1.779   1.019  -1.065  1.00  0.00    -0.268 OA
ATOM     15  N   UNL     1       3.306  -0.670  -1.264  1.00  0.00    -0.347 N 
ATOM     16  H   UNL     1       4.252  -0.894  -1.107  1.00  0.00     0.164 HD
BRANCH  15  17
ATOM     17  C   UNL     1       2.532  -1.547  -2.109  1.00  0.00     0.151 C 
BRANCH  17  18
ATOM     18  C   UNL     1       2.887  -1.425  -3.561  1.00  0.00    -0.029 A 
ATOM     19  C   UNL     1       3.323  -2.540  -4.293  1.00  0.00     0.007 A 
ATOM     20  C   UNL     1       2.719  -0.200  -4.221  1.00  0.00     0.007 A 
ATOM     21  C   UNL     1       3.596  -2.425  -5.658  1.00  0.00     0.021 A 
ATOM     22  C   UNL     1       2.996  -0.084  -5.582  1.00  0.00     0.021 A 
ATOM     23  C   UNL     1       3.434  -1.196  -6.295  1.00  0.00     0.041 A 
ATOM     24  Cl  UNL     1       3.770  -1.054  -7.976  1.00  0.00    -0.084 Cl
ENDBRANCH  17  18
ENDBRANCH  15  17
ENDBRANCH  12  13
ENDBRANCH   7  12
ENDBRANCH   3   6
ENDBRANCH   1   2
BRANCH   1  25
ATOM     25  C   UNL     1      -0.466  -2.061   0.989  1.00  0.00     0.023 C 
BRANCH  25  26
ATOM     26  C   UNL     1      -1.879  -1.527   0.748  1.00  0.00     0.023 C 
BRANCH  26  27
ATOM     27  C   UNL     1      -2.048  -0.530  -0.400  1.00  0.00     0.116 C 
BRANCH  27  28
ATOM     28  N   UNL     1      -1.545  -1.007  -1.680  1.00  0.00    -0.352 N 
ATOM     29  C   UNL     1      -2.111  -0.922  -2.933  1.00  0.00     0.251 C 
ATOM     30  H   UNL     1      -0.670  -1.457  -1.645  1.00  0.00     0.163 HD
ATOM     31  O   UNL     1      -1.569  -1.435  -3.899  1.00  0.00    -0.269 OA
BRANCH  29  32
ATOM     32  C   UNL     1      -3.421  -0.254  -3.081  1.00  0.00     0.039 A 
ATOM     33  C   UNL     1      -4.458  -0.943  -3.715  1.00  0.00     0.014 A 
ATOM     34  C   UNL     1      -3.643   1.007  -2.524  1.00  0.00     0.014 A 
ATOM     35  C   UNL     1      -5.749  -0.412  -3.693  1.00  0.00     0.010 A 
ATOM     36  C   UNL     1      -4.942   1.497  -2.437  1.00  0.00     0.010 A 
ATOM     37  C   UNL     1      -6.010   0.782  -3.002  1.00  0.00    -0.014 A 
BRANCH  37  38
ATOM     38  C   UNL     1      -7.397   1.281  -2.820  1.00  0.00     0.031 A 
ATOM     39  C   UNL     1      -7.806   2.608  -3.395  1.00  0.00     0.074 A 
ATOM     40  C   UNL     1      -8.259   0.582  -2.053  1.00  0.00     0.049 A 
ATOM     41  N   UNL     1      -8.936   3.253  -3.260  1.00  0.00    -0.248 NA
ATOM     42  C   UNL     1      -6.801   3.319  -4.201  1.00  0.00     0.031 C 
ATOM     43  C   UNL     1      -7.962  -0.686  -1.380  1.00  0.00     0.029 A 
ATOM     44  N   UNL     1      -9.556   0.850  -1.691  1.00  0.00    -0.354 N 
ATOM     45  C   UNL     1      -8.767   4.455  -3.935  1.00  0.00     0.074 A 
ATOM     46  C   UNL     1      -7.415   4.467  -4.449  1.00  0.00     0.031 C 
ATOM     47  C   UNL     1      -9.050  -1.092  -0.704  1.00  0.00     0.029 A 
ATOM     48  C   UNL     1     -10.107  -0.100  -0.865  1.00  0.00     0.049 A 
ATOM     49  H   UNL     1     -10.046   1.648  -1.996  1.00  0.00     0.167 HD
ATOM     50  C   UNL     1      -9.665   5.450  -4.124  1.00  0.00     0.037 A 
ATOM     51  C   UNL     1     -11.325  -0.160  -0.294  1.00  0.00     0.037 A 
ATOM     52  C   UNL     1     -11.026   5.412  -3.658  1.00  0.00     0.049 A 
ATOM     53  C   UNL     1     -12.314   0.943  -0.555  1.00  0.00     0.074 A 
ATOM     54  C   UNL     1     -12.040   6.325  -3.890  1.00  0.00     0.029 A 
ATOM     55  N   UNL     1     -11.562   4.408  -2.868  1.00  0.00    -0.354 N 
ATOM     56  N   UNL     1     -12.171   2.027  -1.277  1.00  0.00    -0.248 NA
ATOM     57  C   UNL     1     -13.637   0.811   0.074  1.00  0.00     0.031 C 
ATOM     58  C   UNL     1     -13.182   5.892  -3.209  1.00  0.00     0.029 A 
ATOM     59  C   UNL     1     -12.888   4.690  -2.586  1.00  0.00     0.049 A 
ATOM     60  H   UNL     1     -11.073   3.613  -2.554  1.00  0.00     0.167 HD
ATOM     61  C   UNL     1     -13.390   2.688  -1.215  1.00  0.00     0.074 A 
ATOM     62  C   UNL     1     -14.266   1.878  -0.395  1.00  0.00     0.031 C 
ATOM     63  C   UNL     1     -13.751   3.863  -1.785  1.00  0.00     0.037 A 
BRANCH  50  64
ATOM     64  C   UNL     1      -9.214   6.663  -4.879  1.00  0.00     0.057 A 
ATOM     65  C   UNL     1      -9.005   6.636  -6.263  1.00  0.00     0.134 A 
ATOM     66  C   UNL     1      -9.046   7.889  -4.222  1.00  0.00     0.134 A 
ATOM     67  F   UNL     1      -9.139   5.490  -6.948  1.00  0.00    -0.206 F 
ATOM     68  C   UNL     1      -8.630   7.782  -6.966  1.00  0.00     0.040 A 
ATOM     69  C   UNL     1      -8.693   9.046  -4.918  1.00  0.00     0.040 A 
ATOM     70  F   UNL     1      -9.236   7.984  -2.897  1.00  0.00    -0.206 F 
ATOM     71  C   UNL     1      -8.482   8.994  -6.294  1.00  0.00     0.006 A 
ENDBRANCH  50  64
BRANCH  51  72
ATOM     72  C   UNL     1     -11.696  -1.310   0.569  1.00  0.00     0.057 A 
ATOM     73  C   UNL     1     -12.645  -2.250   0.148  1.00  0.00     0.134 A 
ATOM     74  C   UNL     1     -11.145  -1.477   1.845  1.00  0.00     0.134 A 
ATOM     75  F   UNL     1     -13.223  -2.132  -1.056  1.00  0.00    -0.206 F 
ATOM     76  C   UNL     1     -13.053  -3.298   0.975  1.00  0.00     0.040 A 
ATOM     77  C   UNL     1     -11.526  -2.534   2.673  1.00  0.00     0.040 A 
ATOM     78  F   UNL     1     -10.227  -0.614   2.304  1.00  0.00    -0.206 F 
ATOM     79  C   UNL     1     -12.491  -3.443   2.242  1.00  0.00     0.006 A 
ENDBRANCH  51  72
BRANCH  63  80
ATOM     80  C   UNL     1     -15.164   4.320  -1.578  1.00  0.00     0.057 A 
ATOM     81  C   UNL     1     -15.600   4.837  -0.353  1.00  0.00     0.134 A 
ATOM     82  C   UNL     1     -16.086   4.279  -2.632  1.00  0.00     0.134 A 
ATOM     83  F   UNL     1     -14.768   4.889   0.698  1.00  0.00    -0.206 F 
ATOM     84  C   UNL     1     -16.911   5.280  -0.176  1.00  0.00     0.040 A 
ATOM     85  C   UNL     1     -17.392   4.742  -2.474  1.00  0.00     0.040 A 
ATOM     86  F   UNL     1     -15.727   3.802  -3.833  1.00  0.00    -0.206 F 
ATOM     87  C   UNL     1     -17.809   5.240  -1.242  1.00  0.00     0.006 A 
ENDBRANCH  63  80
ENDBRANCH  37  38
ENDBRANCH  29  32
ENDBRANCH  27  28
ENDBRANCH  26  27
ENDBRANCH  25  26
ENDBRANCH   1  25
TORSDOF 15
