REMARK SMILES O=C(NCCCCNC(=O)c1nnn(-c2cccc(C(F)(F)F)c2)c1[C@@H]1COc2ccccc2O1)c1ccc(-c2c3nc(c(-c4c(F)cccc4F)c4ccc([nH]4)c(-c4c(F)cccc4F)c4nc(c(-c5c(F)cccc5F)c5ccc2[nH]5)C=C4)C=C3)cc1
REMARK SMILES IDX 5 1 4 2 3 3 1 4 2 5 36 7 37 8 89 9 38 10 88 11 39 12 40 13
REMARK SMILES IDX 41 14 82 15 42 16 87 17 81 18 83 19 43 20 86 21 80 22 79 23
REMARK SMILES IDX 44 25 70 26 53 27 69 28 54 29 57 30 68 31 84 32 55 33 56 34
REMARK SMILES IDX 67 36 85 37 58 38 45 39 46 40 51 41 47 42 48 43 50 44 52 45
REMARK SMILES IDX 49 46 71 47 72 48 77 49 73 50 74 51 76 52 78 53 75 54 59 55
REMARK SMILES IDX 60 56 65 57 61 58 62 59 64 60 66 61 63 62 6 63 7 64 8 65
REMARK SMILES IDX 9 66 10 68 11 69 12 70 25 71 13 72 14 73 26 74 27 75 35 76
REMARK SMILES IDX 28 77 34 78 29 79 33 80 30 81 32 82 31 83 15 84 16 85 24 86
REMARK SMILES IDX 17 87 19 88 18 89 20 90 21 91 22 92 23 93
REMARK H PARENT 3 6 83 24 57 35 8 67
REMARK Flexibility Score: inf
ROOT
ATOM      1  C   UNL     1       5.414   1.037   1.640  1.00  0.00     0.023 C 
ENDROOT
BRANCH   1   2
ATOM      2  C   UNL     1       4.880  -0.052   0.703  1.00  0.00     0.116 C 
BRANCH   2   3
ATOM      3  N   UNL     1       3.450  -0.296   0.776  1.00  0.00    -0.352 N 
ATOM      4  O   UNL     1       1.321  -0.494   0.228  1.00  0.00    -0.269 OA
ATOM      5  C   UNL     1       2.356   0.165   0.090  1.00  0.00     0.251 C 
ATOM      6  H   UNL     1       3.212  -0.941   1.480  1.00  0.00     0.163 HD
BRANCH   5   7
ATOM      7  C   UNL     1       2.301   1.404  -0.737  1.00  0.00     0.039 A 
ATOM      8  C   UNL     1       3.381   2.237  -1.015  1.00  0.00     0.014 A 
ATOM      9  C   UNL     1       1.029   1.780  -1.222  1.00  0.00     0.014 A 
ATOM     10  C   UNL     1       3.188   3.438  -1.696  1.00  0.00     0.010 A 
ATOM     11  C   UNL     1       0.830   2.977  -1.910  1.00  0.00     0.010 A 
ATOM     12  C   UNL     1       1.912   3.821  -2.126  1.00  0.00    -0.014 A 
BRANCH  12  13
ATOM     13  C   UNL     1       1.813   5.029  -2.944  1.00  0.00     0.031 A 
ATOM     14  C   UNL     1       2.524   4.944  -4.250  1.00  0.00     0.074 A 
ATOM     15  C   UNL     1       1.090   6.129  -2.656  1.00  0.00     0.049 A 
ATOM     16  N   UNL     1       3.573   5.601  -4.624  1.00  0.00    -0.248 NA
ATOM     17  C   UNL     1       2.067   3.937  -5.218  1.00  0.00     0.031 C 
ATOM     18  C   UNL     1       0.093   6.315  -1.603  1.00  0.00     0.029 A 
ATOM     19  N   UNL     1       1.059   7.320  -3.327  1.00  0.00    -0.354 N 
ATOM     20  C   UNL     1       3.817   5.220  -5.942  1.00  0.00     0.074 A 
ATOM     21  C   UNL     1       2.942   4.108  -6.211  1.00  0.00     0.031 C 
ATOM     22  C   UNL     1      -0.583   7.467  -1.829  1.00  0.00     0.029 A 
ATOM     23  C   UNL     1       0.021   8.164  -2.955  1.00  0.00     0.049 A 
ATOM     24  H   UNL     1       1.719   7.559  -4.018  1.00  0.00     0.167 HD
ATOM     25  C   UNL     1       4.586   5.977  -6.772  1.00  0.00     0.037 A 
ATOM     26  C   UNL     1      -0.337   9.326  -3.557  1.00  0.00     0.037 A 
ATOM     27  C   UNL     1       5.394   6.916  -6.038  1.00  0.00     0.049 A 
ATOM     28  C   UNL     1       0.817   9.810  -4.351  1.00  0.00     0.074 A 
ATOM     29  C   UNL     1       6.365   6.817  -5.060  1.00  0.00     0.029 A 
ATOM     30  N   UNL     1       5.017   8.235  -6.048  1.00  0.00    -0.354 N 
ATOM     31  N   UNL     1       1.905  10.306  -3.838  1.00  0.00    -0.248 NA
ATOM     32  C   UNL     1       0.916   9.390  -5.740  1.00  0.00     0.031 C 
ATOM     33  C   UNL     1       6.153   7.945  -4.214  1.00  0.00     0.029 A 
ATOM     34  C   UNL     1       5.101   8.683  -4.757  1.00  0.00     0.049 A 
ATOM     35  H   UNL     1       4.739   8.759  -6.834  1.00  0.00     0.167 HD
ATOM     36  C   UNL     1       2.918   9.848  -4.663  1.00  0.00     0.074 A 
ATOM     37  C   UNL     1       2.244   9.392  -5.875  1.00  0.00     0.031 C 
ATOM     38  C   UNL     1       4.173   9.622  -4.177  1.00  0.00     0.037 A 
BRANCH  25  39
ATOM     39  C   UNL     1       4.352   6.124  -8.256  1.00  0.00     0.057 A 
ATOM     40  C   UNL     1       5.294   6.822  -9.036  1.00  0.00     0.134 A 
ATOM     41  C   UNL     1       3.112   5.890  -8.882  1.00  0.00     0.134 A 
ATOM     42  F   UNL     1       6.509   7.117  -8.549  1.00  0.00    -0.206 F 
ATOM     43  C   UNL     1       4.992   7.324 -10.308  1.00  0.00     0.040 A 
ATOM     44  C   UNL     1       2.819   6.342 -10.172  1.00  0.00     0.040 A 
ATOM     45  F   UNL     1       2.088   5.308  -8.247  1.00  0.00    -0.206 F 
ATOM     46  C   UNL     1       3.747   7.093 -10.876  1.00  0.00     0.006 A 
ENDBRANCH  25  39
BRANCH  26  47
ATOM     47  C   UNL     1      -1.674   9.947  -3.696  1.00  0.00     0.057 A 
ATOM     48  C   UNL     1      -1.816  11.294  -4.067  1.00  0.00     0.134 A 
ATOM     49  C   UNL     1      -2.836   9.163  -3.764  1.00  0.00     0.134 A 
ATOM     50  F   UNL     1      -0.758  12.117  -4.072  1.00  0.00    -0.206 F 
ATOM     51  C   UNL     1      -3.036  11.820  -4.513  1.00  0.00     0.040 A 
ATOM     52  C   UNL     1      -4.062   9.677  -4.201  1.00  0.00     0.040 A 
ATOM     53  F   UNL     1      -2.800   7.849  -3.500  1.00  0.00    -0.206 F 
ATOM     54  C   UNL     1      -4.161  11.006  -4.594  1.00  0.00     0.006 A 
ENDBRANCH  26  47
BRANCH  38  55
ATOM     55  C   UNL     1       4.518  10.180  -2.825  1.00  0.00     0.057 A 
ATOM     56  C   UNL     1       3.853   9.847  -1.635  1.00  0.00     0.134 A 
ATOM     57  C   UNL     1       5.650  10.995  -2.710  1.00  0.00     0.134 A 
ATOM     58  F   UNL     1       2.824   8.987  -1.627  1.00  0.00    -0.206 F 
ATOM     59  C   UNL     1       4.264  10.351  -0.398  1.00  0.00     0.040 A 
ATOM     60  C   UNL     1       6.095  11.472  -1.476  1.00  0.00     0.040 A 
ATOM     61  F   UNL     1       6.371  11.309  -3.799  1.00  0.00    -0.206 F 
ATOM     62  C   UNL     1       5.392  11.163  -0.316  1.00  0.00     0.006 A 
ENDBRANCH  38  55
ENDBRANCH  12  13
ENDBRANCH   5   7
ENDBRANCH   2   3
ENDBRANCH   1   2
BRANCH   1  63
ATOM     63  C   UNL     1       5.082   0.881   3.120  1.00  0.00     0.023 C 
BRANCH  63  64
ATOM     64  C   UNL     1       5.513  -0.413   3.801  1.00  0.00     0.116 C 
BRANCH  64  65
ATOM     65  N   UNL     1       6.840  -0.439   4.365  1.00  0.00    -0.351 N 
ATOM     66  C   UNL     1       7.407  -0.915   5.533  1.00  0.00     0.273 C 
ATOM     67  H   UNL     1       7.504  -0.013   3.776  1.00  0.00     0.163 HD
ATOM     68  O   UNL     1       8.632  -0.733   5.569  1.00  0.00    -0.267 OA
BRANCH  66  69
ATOM     69  C   UNL     1       6.739  -1.573   6.685  1.00  0.00     0.178 A 
ATOM     70  N   UNL     1       7.495  -1.683   7.847  1.00  0.00    -0.124 NA
ATOM     71  C   UNL     1       5.475  -2.103   6.977  1.00  0.00     0.122 A 
ATOM     72  N   UNL     1       6.761  -2.206   8.813  1.00  0.00    -0.061 NA
ATOM     73  N   UNL     1       5.587  -2.570   8.281  1.00  0.00    -0.213 N 
BRANCH  71  74
ATOM     74  C   UNL     1       4.170  -1.993   6.262  1.00  0.00     0.262 C 
ATOM     75  C   UNL     1       3.544  -0.612   6.564  1.00  0.00     0.281 C 
ATOM     76  O   UNL     1       3.291  -3.103   6.467  1.00  0.00    -0.477 OA
ATOM     77  O   UNL     1       2.811  -0.621   7.787  1.00  0.00    -0.485 OA
ATOM     78  C   UNL     1       2.053  -2.746   6.934  1.00  0.00     0.162 A 
ATOM     79  C   UNL     1       1.834  -1.570   7.656  1.00  0.00     0.161 A 
ATOM     80  C   UNL     1       1.007  -3.637   6.732  1.00  0.00     0.050 A 
ATOM     81  C   UNL     1       0.612  -1.323   8.266  1.00  0.00     0.050 A 
ATOM     82  C   UNL     1      -0.244  -3.363   7.288  1.00  0.00     0.004 A 
ATOM     83  C   UNL     1      -0.433  -2.223   8.075  1.00  0.00     0.004 A 
ENDBRANCH  71  74
BRANCH  73  84
ATOM     84  C   UNL     1       4.672  -3.331   9.032  1.00  0.00     0.067 A 
ATOM     85  C   UNL     1       3.947  -2.724  10.060  1.00  0.00     0.028 A 
ATOM     86  C   UNL     1       4.397  -4.644   8.630  1.00  0.00     0.041 A 
ATOM     87  C   UNL     1       2.863  -3.406  10.614  1.00  0.00     0.003 A 
ATOM     88  C   UNL     1       3.326  -5.341   9.205  1.00  0.00     0.058 A 
ATOM     89  C   UNL     1       2.544  -4.698  10.179  1.00  0.00     0.013 A 
BRANCH  88  90
ATOM     90  C   UNL     1       2.967  -6.725   8.728  1.00  0.00     0.416 C 
ATOM     91  F   UNL     1       2.724  -7.590   9.752  1.00  0.00    -0.166 F 
ATOM     92  F   UNL     1       1.846  -6.737   7.955  1.00  0.00    -0.166 F 
ATOM     93  F   UNL     1       3.942  -7.308   7.974  1.00  0.00    -0.166 F 
ENDBRANCH  88  90
ENDBRANCH  73  84
ENDBRANCH  66  69
ENDBRANCH  64  65
ENDBRANCH  63  64
ENDBRANCH   1  63
TORSDOF 14
