REMARK SMILES Cc1c(Br)c(C)c2c(c1Br)O[C@H](C(F)(F)F)C(C(=O)NCCCCNC(=O)c1ccc(-c3c4nc(c(-c5c(F)cccc5F)c5ccc([nH]5)c(-c5c(F)cccc5F)c5nc(c(-c6c(F)cccc6F)c6ccc3[nH]6)C=C5)C=C4)cc1)=C2
REMARK SMILES IDX 23 1 22 2 21 3 20 4 18 5 19 6 17 8 1 9 2 10 3 11 9 12 4 13
REMARK SMILES IDX 5 14 8 15 10 16 6 17 7 18 11 19 82 20 12 21 13 22 14 23
REMARK SMILES IDX 15 24 16 25 24 26 25 27 26 28 27 30 28 31 29 32 81 33 30 34
REMARK SMILES IDX 80 35 31 36 32 37 33 38 74 39 34 40 79 41 73 42 75 43 35 44
REMARK SMILES IDX 78 45 72 46 71 47 36 49 62 50 45 51 61 52 46 53 49 54 60 55
REMARK SMILES IDX 76 56 47 57 48 58 59 60 77 61 50 62 37 63 38 64 43 65 39 66
REMARK SMILES IDX 40 67 42 68 44 69 41 70 63 71 64 72 69 73 65 74 66 75 68 76
REMARK SMILES IDX 70 77 67 78 51 79 52 80 57 81 53 82 54 83 56 84 58 85 55 86
REMARK H PARENT 20 7 25 29 75 48 49 59
REMARK Flexibility Score: inf
ROOT
ATOM      1  C   UNL     1      -4.887   5.251  -7.858  1.00  0.00     0.023 C 
ENDROOT
BRANCH   1   2
ATOM      2  C   UNL     1      -4.146   4.261  -6.955  1.00  0.00     0.023 C 
BRANCH   2   3
ATOM      3  C   UNL     1      -2.626   4.308  -7.093  1.00  0.00     0.116 C 
BRANCH   3   4
ATOM      4  N   UNL     1      -2.037   5.318  -6.233  1.00  0.00    -0.352 N 
ATOM      5  C   UNL     1      -1.363   5.346  -5.059  1.00  0.00     0.251 C 
ATOM      6  O   UNL     1      -1.049   6.473  -4.663  1.00  0.00    -0.270 OA
ATOM      7  H   UNL     1      -2.161   6.223  -6.600  1.00  0.00     0.163 HD
BRANCH   5   8
ATOM      8  C   UNL     1      -0.986   4.149  -4.249  1.00  0.00     0.067 C 
ATOM      9  C   UNL     1       1.193  -0.122   0.244  1.00  0.00     0.047 C 
ATOM     10  C   UNL     1       0.779   1.051  -0.614  1.00  0.00    -0.019 A 
ATOM     11  C   UNL     1       1.182   2.367  -0.262  1.00  0.00     0.025 A 
ATOM     12  C   UNL     1      -0.015   0.888  -1.763  1.00  0.00     0.064 A 
ATOM     13  Br  UNL     1       2.235   2.606   1.329  1.00  0.00    -0.050 Br
ATOM     14  C   UNL     1       0.818   3.495  -1.043  1.00  0.00    -0.026 A 
ATOM     15  C   UNL     1      -0.378   1.998  -2.544  1.00  0.00     0.142 A 
ATOM     16  Br  UNL     1      -0.630  -0.836  -2.328  1.00  0.00    -0.046 Br
ATOM     17  C   UNL     1       1.240   4.904  -0.684  1.00  0.00     0.046 C 
ATOM     18  C   UNL     1       0.024   3.294  -2.196  1.00  0.00     0.022 A 
ATOM     19  O   UNL     1      -1.191   1.769  -3.626  1.00  0.00    -0.474 OA
ATOM     20  C   UNL     1      -0.437   4.402  -3.046  1.00  0.00     0.026 C 
ATOM     21  C   UNL     1      -1.141   2.733  -4.705  1.00  0.00     0.314 C 
BRANCH  21  22
ATOM     22  C   UNL     1      -0.081   2.312  -5.738  1.00  0.00     0.429 C 
ATOM     23  F   UNL     1      -0.447   1.160  -6.352  1.00  0.00    -0.167 F 
ATOM     24  F   UNL     1       0.077   3.233  -6.719  1.00  0.00    -0.167 F 
ATOM     25  F   UNL     1       1.136   2.112  -5.186  1.00  0.00    -0.167 F 
ENDBRANCH  21  22
ENDBRANCH   5   8
ENDBRANCH   3   4
ENDBRANCH   2   3
ENDBRANCH   1   2
BRANCH   1  26
ATOM     26  C   UNL     1      -4.577   5.136  -9.350  1.00  0.00     0.116 C 
BRANCH  26  27
ATOM     27  N   UNL     1      -4.723   3.787  -9.879  1.00  0.00    -0.352 N 
ATOM     28  C   UNL     1      -5.063   3.412 -11.156  1.00  0.00     0.251 C 
ATOM     29  H   UNL     1      -4.558   3.054  -9.243  1.00  0.00     0.163 HD
ATOM     30  O   UNL     1      -5.227   2.230 -11.442  1.00  0.00    -0.269 OA
BRANCH  28  31
ATOM     31  C   UNL     1      -5.272   4.459 -12.172  1.00  0.00     0.039 A 
ATOM     32  C   UNL     1      -6.489   4.499 -12.857  1.00  0.00     0.014 A 
ATOM     33  C   UNL     1      -4.291   5.428 -12.398  1.00  0.00     0.014 A 
ATOM     34  C   UNL     1      -6.754   5.562 -13.720  1.00  0.00     0.010 A 
ATOM     35  C   UNL     1      -4.579   6.514 -13.216  1.00  0.00     0.010 A 
ATOM     36  C   UNL     1      -5.815   6.594 -13.876  1.00  0.00    -0.014 A 
BRANCH  36  37
ATOM     37  C   UNL     1      -6.100   7.775 -14.723  1.00  0.00     0.031 A 
ATOM     38  C   UNL     1      -5.306   8.003 -15.975  1.00  0.00     0.074 A 
ATOM     39  C   UNL     1      -7.014   8.678 -14.321  1.00  0.00     0.049 A 
ATOM     40  N   UNL     1      -5.311   9.033 -16.780  1.00  0.00    -0.248 NA
ATOM     41  C   UNL     1      -4.362   6.941 -16.357  1.00  0.00     0.031 C 
ATOM     42  C   UNL     1      -7.829   8.579 -13.109  1.00  0.00     0.029 A 
ATOM     43  N   UNL     1      -7.401   9.867 -14.886  1.00  0.00    -0.354 N 
ATOM     44  C   UNL     1      -4.363   8.752 -17.754  1.00  0.00     0.074 A 
ATOM     45  C   UNL     1      -3.772   7.474 -17.416  1.00  0.00     0.031 C 
ATOM     46  C   UNL     1      -8.631   9.653 -13.030  1.00  0.00     0.029 A 
ATOM     47  C   UNL     1      -8.360  10.532 -14.163  1.00  0.00     0.049 A 
ATOM     48  H   UNL     1      -7.026  10.210 -15.729  1.00  0.00     0.167 HD
ATOM     49  C   UNL     1      -4.029   9.484 -18.842  1.00  0.00     0.037 A 
ATOM     50  C   UNL     1      -8.948  11.723 -14.386  1.00  0.00     0.037 A 
ATOM     51  C   UNL     1      -4.634  10.743 -19.186  1.00  0.00     0.049 A 
ATOM     52  C   UNL     1      -8.556  12.521 -15.597  1.00  0.00     0.074 A 
ATOM     53  C   UNL     1      -4.387  11.547 -20.285  1.00  0.00     0.029 A 
ATOM     54  N   UNL     1      -5.613  11.378 -18.436  1.00  0.00    -0.354 N 
ATOM     55  N   UNL     1      -7.672  12.236 -16.521  1.00  0.00    -0.248 NA
ATOM     56  C   UNL     1      -9.241  13.806 -15.794  1.00  0.00     0.031 C 
ATOM     57  C   UNL     1      -5.198  12.683 -20.185  1.00  0.00     0.029 A 
ATOM     58  C   UNL     1      -5.976  12.568 -19.044  1.00  0.00     0.049 A 
ATOM     59  H   UNL     1      -5.994  11.033 -17.596  1.00  0.00     0.167 HD
ATOM     60  C   UNL     1      -7.707  13.292 -17.421  1.00  0.00     0.074 A 
ATOM     61  C   UNL     1      -8.709  14.220 -16.936  1.00  0.00     0.031 C 
ATOM     62  C   UNL     1      -6.976  13.477 -18.547  1.00  0.00     0.037 A 
BRANCH  49  63
ATOM     63  C   UNL     1      -2.962   8.934 -19.739  1.00  0.00     0.057 A 
ATOM     64  C   UNL     1      -3.198   7.829 -20.568  1.00  0.00     0.134 A 
ATOM     65  C   UNL     1      -1.695   9.527 -19.796  1.00  0.00     0.134 A 
ATOM     66  F   UNL     1      -4.386   7.206 -20.548  1.00  0.00    -0.206 F 
ATOM     67  C   UNL     1      -2.204   7.321 -21.406  1.00  0.00     0.040 A 
ATOM     68  C   UNL     1      -0.701   9.043 -20.648  1.00  0.00     0.040 A 
ATOM     69  F   UNL     1      -1.405  10.589 -19.029  1.00  0.00    -0.206 F 
ATOM     70  C   UNL     1      -0.953   7.933 -21.452  1.00  0.00     0.006 A 
ENDBRANCH  49  63
BRANCH  50  71
ATOM     71  C   UNL     1      -9.993  12.212 -13.455  1.00  0.00     0.057 A 
ATOM     72  C   UNL     1     -11.342  12.207 -13.828  1.00  0.00     0.134 A 
ATOM     73  C   UNL     1      -9.678  12.671 -12.171  1.00  0.00     0.134 A 
ATOM     74  F   UNL     1     -11.702  11.795 -15.052  1.00  0.00    -0.206 F 
ATOM     75  C   UNL     1     -12.342  12.647 -12.959  1.00  0.00     0.040 A 
ATOM     76  C   UNL     1     -10.669  13.096 -11.285  1.00  0.00     0.040 A 
ATOM     77  F   UNL     1      -8.404  12.693 -11.754  1.00  0.00    -0.206 F 
ATOM     78  C   UNL     1     -12.006  13.087 -11.680  1.00  0.00     0.006 A 
ENDBRANCH  50  71
BRANCH  62  79
ATOM     79  C   UNL     1      -7.248  14.716 -19.346  1.00  0.00     0.057 A 
ATOM     80  C   UNL     1      -6.799  15.974 -18.927  1.00  0.00     0.134 A 
ATOM     81  C   UNL     1      -7.918  14.641 -20.573  1.00  0.00     0.134 A 
ATOM     82  F   UNL     1      -6.160  16.113 -17.755  1.00  0.00    -0.206 F 
ATOM     83  C   UNL     1      -7.020  17.118 -19.695  1.00  0.00     0.040 A 
ATOM     84  C   UNL     1      -8.127  15.774 -21.359  1.00  0.00     0.040 A 
ATOM     85  F   UNL     1      -8.366  13.463 -21.033  1.00  0.00    -0.206 F 
ATOM     86  C   UNL     1      -7.680  17.018 -20.919  1.00  0.00     0.006 A 
ENDBRANCH  62  79
ENDBRANCH  36  37
ENDBRANCH  28  31
ENDBRANCH  26  27
ENDBRANCH   1  26
TORSDOF 12
