REMARK SMILES O=C(NCCCCNC(=O)c1ccc(S(=O)(=O)Cc2cccs2)c(F)c1)c1ccc(-c2c3nc(c(-c4c(F)cccc4F)c4ccc([nH]4)c(-c4c(F)cccc4F)c4nc(c(-c5c(F)cccc5F)c5ccc2[nH]5)C=C4)C=C3)cc1
REMARK SMILES IDX 6 1 5 2 4 3 3 4 1 5 2 6 27 8 28 9 80 10 29 11 79 12 30 13
REMARK SMILES IDX 31 14 32 15 73 16 33 17 78 18 72 19 74 20 34 21 77 22 71 23
REMARK SMILES IDX 70 24 35 26 61 27 44 28 60 29 45 30 48 31 59 32 75 33 46 34
REMARK SMILES IDX 47 35 58 37 76 38 49 39 36 40 37 41 42 42 38 43 39 44 41 45
REMARK SMILES IDX 43 46 40 47 62 48 63 49 68 50 64 51 65 52 67 53 69 54 66 55
REMARK SMILES IDX 50 56 51 57 56 58 52 59 53 60 55 61 57 62 54 63 7 64 8 65
REMARK SMILES IDX 9 66 10 68 11 69 12 70 26 71 13 72 24 73 14 74 25 75 15 76
REMARK SMILES IDX 16 77 17 78 18 79 19 80 20 81 23 82 21 83 22 84
REMARK H PARENT 3 7 74 25 48 36 8 67
REMARK Flexibility Score: inf
ROOT
ATOM      1  C   UNL     1       4.329  -2.740   2.764  1.00  0.00     0.023 C 
ENDROOT
BRANCH   1   2
ATOM      2  C   UNL     1       4.823  -1.369   2.296  1.00  0.00     0.023 C 
BRANCH   2   3
ATOM      3  C   UNL     1       4.519  -1.025   0.843  1.00  0.00     0.116 C 
BRANCH   3   4
ATOM      4  N   UNL     1       3.096  -1.040   0.543  1.00  0.00    -0.352 N 
ATOM      5  O   UNL     1       1.097  -0.213  -0.087  1.00  0.00    -0.269 OA
ATOM      6  C   UNL     1       2.314  -0.070  -0.033  1.00  0.00     0.251 C 
ATOM      7  H   UNL     1       2.624  -1.868   0.790  1.00  0.00     0.163 HD
BRANCH   6   8
ATOM      8  C   UNL     1       2.935   1.164  -0.559  1.00  0.00     0.039 A 
ATOM      9  C   UNL     1       4.074   1.109  -1.367  1.00  0.00     0.014 A 
ATOM     10  C   UNL     1       2.357   2.396  -0.240  1.00  0.00     0.014 A 
ATOM     11  C   UNL     1       4.709   2.288  -1.746  1.00  0.00     0.010 A 
ATOM     12  C   UNL     1       2.957   3.577  -0.679  1.00  0.00     0.010 A 
ATOM     13  C   UNL     1       4.156   3.533  -1.408  1.00  0.00    -0.014 A 
BRANCH  13  14
ATOM     14  C   UNL     1       4.819   4.783  -1.851  1.00  0.00     0.031 A 
ATOM     15  C   UNL     1       5.434   5.722  -0.855  1.00  0.00     0.074 A 
ATOM     16  C   UNL     1       4.869   5.064  -3.166  1.00  0.00     0.049 A 
ATOM     17  N   UNL     1       6.017   6.876  -1.062  1.00  0.00    -0.248 NA
ATOM     18  C   UNL     1       5.388   5.319   0.559  1.00  0.00     0.031 C 
ATOM     19  C   UNL     1       4.312   4.224  -4.228  1.00  0.00     0.029 A 
ATOM     20  N   UNL     1       5.418   6.128  -3.834  1.00  0.00    -0.354 N 
ATOM     21  C   UNL     1       6.387   7.346   0.191  1.00  0.00     0.074 A 
ATOM     22  C   UNL     1       5.948   6.361   1.157  1.00  0.00     0.031 C 
ATOM     23  C   UNL     1       4.577   4.788  -5.416  1.00  0.00     0.029 A 
ATOM     24  C   UNL     1       5.270   6.053  -5.197  1.00  0.00     0.049 A 
ATOM     25  H   UNL     1       5.875   6.873  -3.381  1.00  0.00     0.167 HD
ATOM     26  C   UNL     1       7.039   8.491   0.504  1.00  0.00     0.037 A 
ATOM     27  C   UNL     1       5.634   6.915  -6.164  1.00  0.00     0.037 A 
ATOM     28  C   UNL     1       7.491   9.457  -0.463  1.00  0.00     0.049 A 
ATOM     29  C   UNL     1       6.325   8.192  -5.791  1.00  0.00     0.074 A 
ATOM     30  C   UNL     1       8.188  10.633  -0.243  1.00  0.00     0.029 A 
ATOM     31  N   UNL     1       7.291   9.361  -1.831  1.00  0.00    -0.354 N 
ATOM     32  N   UNL     1       6.674   8.620  -4.602  1.00  0.00    -0.248 NA
ATOM     33  C   UNL     1       6.663   9.110  -6.887  1.00  0.00     0.031 C 
ATOM     34  C   UNL     1       8.378  11.266  -1.475  1.00  0.00     0.029 A 
ATOM     35  C   UNL     1       7.835  10.465  -2.466  1.00  0.00     0.049 A 
ATOM     36  H   UNL     1       6.831   8.618  -2.284  1.00  0.00     0.167 HD
ATOM     37  C   UNL     1       7.283   9.850  -4.805  1.00  0.00     0.074 A 
ATOM     38  C   UNL     1       7.265  10.096  -6.233  1.00  0.00     0.031 C 
ATOM     39  C   UNL     1       7.809  10.696  -3.888  1.00  0.00     0.037 A 
BRANCH  26  40
ATOM     40  C   UNL     1       7.295   8.774   1.954  1.00  0.00     0.057 A 
ATOM     41  C   UNL     1       6.586   9.782   2.619  1.00  0.00     0.134 A 
ATOM     42  C   UNL     1       8.282   8.092   2.676  1.00  0.00     0.134 A 
ATOM     43  F   UNL     1       5.631  10.476   1.983  1.00  0.00    -0.206 F 
ATOM     44  C   UNL     1       6.855  10.107   3.950  1.00  0.00     0.040 A 
ATOM     45  C   UNL     1       8.547   8.395   4.013  1.00  0.00     0.040 A 
ATOM     46  F   UNL     1       8.989   7.109   2.099  1.00  0.00    -0.206 F 
ATOM     47  C   UNL     1       7.837   9.411   4.651  1.00  0.00     0.006 A 
ENDBRANCH  26  40
BRANCH  27  48
ATOM     48  C   UNL     1       5.346   6.576  -7.578  1.00  0.00     0.057 A 
ATOM     49  C   UNL     1       4.039   6.592  -8.079  1.00  0.00     0.134 A 
ATOM     50  C   UNL     1       6.367   6.163  -8.440  1.00  0.00     0.134 A 
ATOM     51  F   UNL     1       3.019   6.970  -7.295  1.00  0.00    -0.206 F 
ATOM     52  C   UNL     1       3.753   6.184  -9.382  1.00  0.00     0.040 A 
ATOM     53  C   UNL     1       6.097   5.771  -9.752  1.00  0.00     0.040 A 
ATOM     54  F   UNL     1       7.639   6.140  -8.017  1.00  0.00    -0.206 F 
ATOM     55  C   UNL     1       4.785   5.771 -10.222  1.00  0.00     0.006 A 
ENDBRANCH  27  48
BRANCH  39  56
ATOM     56  C   UNL     1       8.426  11.964  -4.393  1.00  0.00     0.057 A 
ATOM     57  C   UNL     1       9.818  12.122  -4.409  1.00  0.00     0.134 A 
ATOM     58  C   UNL     1       7.643  13.053  -4.789  1.00  0.00     0.134 A 
ATOM     59  F   UNL     1      10.622  11.116  -4.034  1.00  0.00    -0.206 F 
ATOM     60  C   UNL     1      10.409  13.328  -4.788  1.00  0.00     0.040 A 
ATOM     61  C   UNL     1       8.223  14.258  -5.188  1.00  0.00     0.040 A 
ATOM     62  F   UNL     1       6.304  12.959  -4.805  1.00  0.00    -0.206 F 
ATOM     63  C   UNL     1       9.610  14.400  -5.179  1.00  0.00     0.006 A 
ENDBRANCH  39  56
ENDBRANCH  13  14
ENDBRANCH   6   8
ENDBRANCH   3   4
ENDBRANCH   2   3
ENDBRANCH   1   2
BRANCH   1  64
ATOM     64  C   UNL     1       4.733  -3.912   1.872  1.00  0.00     0.116 C 
BRANCH  64  65
ATOM     65  N   UNL     1       6.175  -4.054   1.780  1.00  0.00    -0.352 N 
ATOM     66  C   UNL     1       6.956  -5.105   2.190  1.00  0.00     0.251 C 
ATOM     67  H   UNL     1       6.655  -3.299   1.370  1.00  0.00     0.163 HD
ATOM     68  O   UNL     1       8.176  -5.061   2.135  1.00  0.00    -0.269 OA
BRANCH  66  69
ATOM     69  C   UNL     1       6.292  -6.303   2.719  1.00  0.00     0.042 A 
ATOM     70  C   UNL     1       5.671  -7.200   1.843  1.00  0.00     0.015 A 
ATOM     71  C   UNL     1       6.269  -6.505   4.098  1.00  0.00     0.054 A 
ATOM     72  C   UNL     1       5.003  -8.310   2.361  1.00  0.00     0.024 A 
ATOM     73  C   UNL     1       5.581  -7.601   4.605  1.00  0.00     0.142 A 
ATOM     74  C   UNL     1       4.963  -8.505   3.748  1.00  0.00     0.103 A 
ATOM     75  F   UNL     1       5.523  -7.752   5.933  1.00  0.00    -0.206 F 
BRANCH  74  76
ATOM     76  S   UNL     1       4.056  -9.872   4.404  1.00  0.00     0.186 S 
ATOM     77  O   UNL     1       2.826  -9.296   4.920  1.00  0.00    -0.223 OA
ATOM     78  O   UNL     1       3.985 -10.867   3.346  1.00  0.00    -0.223 OA
BRANCH  76  79
ATOM     79  C   UNL     1       4.957 -10.566   5.777  1.00  0.00     0.188 C 
BRANCH  79  80
ATOM     80  C   UNL     1       6.347 -10.980   5.406  1.00  0.00     0.020 A 
ATOM     81  C   UNL     1       7.530 -10.281   5.563  1.00  0.00     0.016 A 
ATOM     82  S   UNL     1       6.638 -12.558   4.796  1.00  0.00    -0.148 S 
ATOM     83  C   UNL     1       8.668 -11.033   5.151  1.00  0.00     0.012 A 
ATOM     84  C   UNL     1       8.323 -12.293   4.721  1.00  0.00     0.065 A 
ENDBRANCH  79  80
ENDBRANCH  76  79
ENDBRANCH  74  76
ENDBRANCH  66  69
ENDBRANCH  64  65
ENDBRANCH   1  64
TORSDOF 14
