REMARK SMILES CCOC(=O)c1cc(C[NH2+]CC(=O)NCCCCNC(=O)c2ccc(-c3c4nc(c(-c5c(F)cccc5F)c5ccc([nH]5)c(-c5c(F)cccc5F)c5nc(c(-c6c(F)cccc6F)c6ccc3[nH]6)C=C5)C=C4)cc2)c(C)o1
REMARK SMILES IDX 12 1 13 2 14 3 11 5 10 6 9 9 8 10 6 11 7 12 78 13 76 14
REMARK SMILES IDX 77 15 4 16 5 17 3 18 2 19 1 20 15 21 16 22 17 23 18 24 19 25
REMARK SMILES IDX 20 26 21 28 22 29 23 30 75 31 24 32 74 33 25 34 26 35 27 36
REMARK SMILES IDX 68 37 28 38 73 39 67 40 69 41 29 42 72 43 66 44 65 45 30 47
REMARK SMILES IDX 56 48 39 49 55 50 40 51 43 52 54 53 70 54 41 55 42 56 53 58
REMARK SMILES IDX 71 59 44 60 31 61 32 62 37 63 33 64 34 65 36 66 38 67 35 68
REMARK SMILES IDX 57 69 58 70 63 71 59 72 60 73 62 74 64 75 61 76 45 77 46 78
REMARK SMILES IDX 51 79 47 80 48 81 50 82 52 83 49 84
REMARK H PARENT 14 4 10 7 10 8 19 27 69 46 43 57
REMARK Flexibility Score: inf
ROOT
ATOM      1  C   UNL     1       4.372  -5.197   0.199  1.00  0.00     0.275 C 
ATOM      2  O   UNL     1       3.856  -6.093  -0.473  1.00  0.00    -0.269 OA
ATOM      3  N   UNL     1       3.669  -4.734   1.281  1.00  0.00    -0.351 N 
ATOM      4  H   UNL     1       2.853  -5.247   1.484  1.00  0.00     0.163 HD
ENDROOT
BRANCH   1   5
ATOM      5  C   UNL     1       5.741  -4.598  -0.200  1.00  0.00     0.362 C 
BRANCH   5   6
ATOM      6  N   UNL     1       5.646  -3.535  -1.247  1.00  0.00    -0.335 N 
ATOM      7  H   UNL     1       6.579  -3.206  -1.494  1.00  0.00     0.347 HD
ATOM      8  H   UNL     1       5.202  -3.902  -2.089  1.00  0.00     0.347 HD
BRANCH   6   9
ATOM      9  C   UNL     1       4.869  -2.446  -0.698  1.00  0.00     0.301 C 
BRANCH   9  10
ATOM     10  C   UNL     1       4.674  -1.237  -1.526  1.00  0.00     0.048 A 
ATOM     11  C   UNL     1       3.517   0.606  -2.093  1.00  0.00     0.212 A 
ATOM     12  C   UNL     1       3.387  -0.754  -1.897  1.00  0.00     0.068 A 
ATOM     13  O   UNL     1       4.847   0.925  -2.136  1.00  0.00    -0.454 OA
ATOM     14  C   UNL     1       5.547  -0.198  -1.784  1.00  0.00     0.110 A 
ATOM     15  C   UNL     1       7.000  -0.018  -1.590  1.00  0.00     0.088 C 
BRANCH  11  16
ATOM     16  C   UNL     1       2.516   1.648  -2.034  1.00  0.00     0.374 C 
ATOM     17  O   UNL     1       2.705   2.857  -2.007  1.00  0.00    -0.242 OA
BRANCH  16  18
ATOM     18  O   UNL     1       1.305   1.055  -1.808  1.00  0.00    -0.460 OA
BRANCH  18  19
ATOM     19  C   UNL     1       0.543   1.596  -0.721  1.00  0.00     0.230 C 
ATOM     20  C   UNL     1       0.473   0.512   0.345  1.00  0.00     0.049 C 
ENDBRANCH  18  19
ENDBRANCH  16  18
ENDBRANCH  11  16
ENDBRANCH   9  10
ENDBRANCH   6   9
ENDBRANCH   5   6
ENDBRANCH   1   5
BRANCH   3  21
ATOM     21  C   UNL     1       3.917  -3.618   2.182  1.00  0.00     0.116 C 
BRANCH  21  22
ATOM     22  C   UNL     1       2.946  -2.451   1.938  1.00  0.00     0.023 C 
BRANCH  22  23
ATOM     23  C   UNL     1       1.559  -2.627   2.537  1.00  0.00     0.023 C 
BRANCH  23  24
ATOM     24  C   UNL     1       1.522  -2.502   4.046  1.00  0.00     0.116 C 
BRANCH  24  25
ATOM     25  N   UNL     1       1.966  -1.199   4.527  1.00  0.00    -0.352 N 
ATOM     26  C   UNL     1       1.384  -0.378   5.463  1.00  0.00     0.251 C 
ATOM     27  H   UNL     1       2.799  -0.861   4.126  1.00  0.00     0.163 HD
ATOM     28  O   UNL     1       1.832   0.744   5.672  1.00  0.00    -0.269 OA
BRANCH  26  29
ATOM     29  C   UNL     1       0.184  -0.849   6.182  1.00  0.00     0.039 A 
ATOM     30  C   UNL     1      -0.912   0.006   6.312  1.00  0.00     0.014 A 
ATOM     31  C   UNL     1       0.120  -2.160   6.657  1.00  0.00     0.014 A 
ATOM     32  C   UNL     1      -2.103  -0.485   6.848  1.00  0.00     0.010 A 
ATOM     33  C   UNL     1      -1.095  -2.678   7.074  1.00  0.00     0.010 A 
ATOM     34  C   UNL     1      -2.216  -1.843   7.190  1.00  0.00    -0.014 A 
BRANCH  34  35
ATOM     35  C   UNL     1      -3.481  -2.415   7.707  1.00  0.00     0.031 A 
ATOM     36  C   UNL     1      -3.505  -3.039   9.076  1.00  0.00     0.074 A 
ATOM     37  C   UNL     1      -4.575  -2.450   6.923  1.00  0.00     0.049 A 
ATOM     38  N   UNL     1      -4.473  -3.684   9.675  1.00  0.00    -0.248 NA
ATOM     39  C   UNL     1      -2.259  -2.969   9.857  1.00  0.00     0.031 C 
ATOM     40  C   UNL     1      -4.658  -1.937   5.554  1.00  0.00     0.029 A 
ATOM     41  N   UNL     1      -5.829  -2.950   7.166  1.00  0.00    -0.354 N 
ATOM     42  C   UNL     1      -3.941  -4.117  10.883  1.00  0.00     0.074 A 
ATOM     43  C   UNL     1      -2.550  -3.727  10.902  1.00  0.00     0.031 C 
ATOM     44  C   UNL     1      -5.907  -2.115   5.092  1.00  0.00     0.029 A 
ATOM     45  C   UNL     1      -6.700  -2.787   6.116  1.00  0.00     0.049 A 
ATOM     46  H   UNL     1      -6.082  -3.384   8.012  1.00  0.00     0.167 HD
ATOM     47  C   UNL     1      -4.564  -4.753  11.903  1.00  0.00     0.037 A 
ATOM     48  C   UNL     1      -7.994  -3.139   5.998  1.00  0.00     0.037 A 
ATOM     49  C   UNL     1      -5.960  -5.095  11.899  1.00  0.00     0.049 A 
ATOM     50  C   UNL     1      -8.674  -3.818   7.154  1.00  0.00     0.074 A 
ATOM     51  C   UNL     1      -6.709  -5.675  12.907  1.00  0.00     0.029 A 
ATOM     52  N   UNL     1      -6.819  -4.877  10.832  1.00  0.00    -0.354 N 
ATOM     53  N   UNL     1      -8.178  -4.163   8.318  1.00  0.00    -0.248 NA
ATOM     54  C   UNL     1     -10.095  -4.150   6.983  1.00  0.00     0.031 C 
ATOM     55  C   UNL     1      -8.016  -5.840  12.436  1.00  0.00     0.029 A 
ATOM     56  C   UNL     1      -8.090  -5.323  11.152  1.00  0.00     0.049 A 
ATOM     57  H   UNL     1      -6.563  -4.466   9.975  1.00  0.00     0.167 HD
ATOM     58  C   UNL     1      -9.231  -4.723   9.029  1.00  0.00     0.074 A 
ATOM     59  C   UNL     1     -10.395  -4.663   8.169  1.00  0.00     0.031 C 
ATOM     60  C   UNL     1      -9.236  -5.241  10.282  1.00  0.00     0.037 A 
BRANCH  47  61
ATOM     61  C   UNL     1      -3.734  -5.101  13.104  1.00  0.00     0.057 A 
ATOM     62  C   UNL     1      -3.228  -4.116  13.965  1.00  0.00     0.134 A 
ATOM     63  C   UNL     1      -3.436  -6.435  13.406  1.00  0.00     0.134 A 
ATOM     64  F   UNL     1      -3.461  -2.817  13.723  1.00  0.00    -0.206 F 
ATOM     65  C   UNL     1      -2.425  -4.443  15.059  1.00  0.00     0.040 A 
ATOM     66  C   UNL     1      -2.660  -6.777  14.515  1.00  0.00     0.040 A 
ATOM     67  F   UNL     1      -3.890  -7.429  12.627  1.00  0.00    -0.206 F 
ATOM     68  C   UNL     1      -2.144  -5.778  15.339  1.00  0.00     0.006 A 
ENDBRANCH  47  61
BRANCH  48  69
ATOM     69  C   UNL     1      -8.742  -2.814   4.758  1.00  0.00     0.057 A 
ATOM     70  C   UNL     1      -9.723  -1.815   4.755  1.00  0.00     0.134 A 
ATOM     71  C   UNL     1      -8.497  -3.481   3.553  1.00  0.00     0.134 A 
ATOM     72  F   UNL     1     -10.014  -1.151   5.883  1.00  0.00    -0.206 F 
ATOM     73  C   UNL     1     -10.447  -1.504   3.603  1.00  0.00     0.040 A 
ATOM     74  C   UNL     1      -9.197  -3.165   2.387  1.00  0.00     0.040 A 
ATOM     75  F   UNL     1      -7.562  -4.441   3.488  1.00  0.00    -0.206 F 
ATOM     76  C   UNL     1     -10.181  -2.178   2.412  1.00  0.00     0.006 A 
ENDBRANCH  48  69
BRANCH  60  77
ATOM     77  C   UNL     1     -10.546  -5.745  10.810  1.00  0.00     0.057 A 
ATOM     78  C   UNL     1     -11.117  -6.938  10.353  1.00  0.00     0.134 A 
ATOM     79  C   UNL     1     -11.220  -5.046  11.820  1.00  0.00     0.134 A 
ATOM     80  F   UNL     1     -10.526  -7.646   9.379  1.00  0.00    -0.206 F 
ATOM     81  C   UNL     1     -12.326  -7.409  10.868  1.00  0.00     0.040 A 
ATOM     82  C   UNL     1     -12.415  -5.521  12.361  1.00  0.00     0.040 A 
ATOM     83  F   UNL     1     -10.719  -3.901  12.307  1.00  0.00    -0.206 F 
ATOM     84  C   UNL     1     -12.974  -6.703  11.880  1.00  0.00     0.006 A 
ENDBRANCH  60  77
ENDBRANCH  34  35
ENDBRANCH  26  29
ENDBRANCH  24  25
ENDBRANCH  23  24
ENDBRANCH  22  23
ENDBRANCH  21  22
ENDBRANCH   3  21
TORSDOF 17
