REMARK SMILES Cc1ccc(C(=O)N2C[C@H](C(=O)NCCCCNC(=O)c3ccc(-c4c5nc(c(-c6c(F)cccc6F)c6ccc([nH]6)c(-c6c(F)cccc6F)c6nc(c(-c7c(F)cccc7F)c7ccc4[nH]7)C=C6)C=C5)cc3)Oc3ccccc32)o1
REMARK SMILES IDX 15 1 14 2 13 3 11 4 12 5 10 7 8 8 9 9 81 10 76 11 80 12
REMARK SMILES IDX 75 13 77 14 79 15 78 16 6 17 7 18 5 19 1 20 2 21 3 22 82 23
REMARK SMILES IDX 4 24 16 25 17 26 18 27 19 28 20 30 21 31 22 32 74 33 23 34
REMARK SMILES IDX 73 35 24 36 25 37 26 38 67 39 27 40 72 41 66 42 68 43 28 44
REMARK SMILES IDX 71 45 65 46 64 47 29 49 55 50 38 51 54 52 39 53 42 54 53 55
REMARK SMILES IDX 69 56 40 57 41 58 52 60 70 61 43 62 30 63 31 64 36 65 32 66
REMARK SMILES IDX 33 67 35 68 37 69 34 70 56 71 57 72 62 73 58 74 59 75 61 76
REMARK SMILES IDX 63 77 60 78 44 79 45 80 50 81 46 82 47 83 49 84 51 85 48 86
REMARK H PARENT 13 6 18 29 68 48 42 59
REMARK Flexibility Score: inf
ROOT
ATOM      1  C   UNL     1      -5.445  -2.818   1.255  1.00  0.00     0.023 C 
ENDROOT
BRANCH   1   2
ATOM      2  C   UNL     1      -6.480  -1.695   1.311  1.00  0.00     0.116 C 
BRANCH   2   3
ATOM      3  N   UNL     1      -6.338  -0.894   2.516  1.00  0.00    -0.353 N 
ATOM      4  C   UNL     1      -5.916   0.398   2.671  1.00  0.00     0.262 C 
ATOM      5  O   UNL     1      -5.864   0.844   3.820  1.00  0.00    -0.271 OA
ATOM      6  H   UNL     1      -6.585  -1.353   3.351  1.00  0.00     0.163 HD
BRANCH   4   7
ATOM      7  C   UNL     1      -5.462   1.246   1.476  1.00  0.00     0.281 C 
ATOM      8  N   UNL     1      -3.670   1.456  -0.217  1.00  0.00    -0.298 N 
ATOM      9  C   UNL     1      -4.117   0.736   0.974  1.00  0.00     0.181 C 
ATOM     10  C   UNL     1      -4.707   1.862  -1.114  1.00  0.00     0.087 A 
ATOM     11  C   UNL     1      -6.055   1.693  -0.748  1.00  0.00     0.144 A 
ATOM     12  C   UNL     1      -4.431   2.328  -2.407  1.00  0.00     0.030 A 
ATOM     13  O   UNL     1      -6.475   1.227   0.472  1.00  0.00    -0.477 OA
ATOM     14  C   UNL     1      -7.085   1.957  -1.655  1.00  0.00     0.049 A 
ATOM     15  C   UNL     1      -5.463   2.599  -3.311  1.00  0.00     0.002 A 
ATOM     16  C   UNL     1      -6.789   2.409  -2.938  1.00  0.00     0.004 A 
BRANCH   8  17
ATOM     17  C   UNL     1      -2.312   1.719  -0.459  1.00  0.00     0.294 C 
ATOM     18  O   UNL     1      -1.945   2.778  -0.971  1.00  0.00    -0.265 OA
BRANCH  17  19
ATOM     19  C   UNL     1      -1.357   0.666  -0.127  1.00  0.00     0.192 A 
ATOM     20  C   UNL     1       2.149   0.042   0.267  1.00  0.00     0.087 C 
ATOM     21  C   UNL     1       0.685  -0.120   0.180  1.00  0.00     0.101 A 
ATOM     22  C   UNL     1      -0.153  -1.210   0.224  1.00  0.00     0.046 A 
ATOM     23  O   UNL     1      -0.035   1.016  -0.018  1.00  0.00    -0.456 OA
ATOM     24  C   UNL     1      -1.460  -0.710   0.012  1.00  0.00     0.056 A 
ENDBRANCH  17  19
ENDBRANCH   8  17
ENDBRANCH   4   7
ENDBRANCH   2   3
ENDBRANCH   1   2
BRANCH   1  25
ATOM     25  C   UNL     1      -5.677  -3.965   2.243  1.00  0.00     0.023 C 
BRANCH  25  26
ATOM     26  C   UNL     1      -7.021  -4.678   2.119  1.00  0.00     0.116 C 
BRANCH  26  27
ATOM     27  N   UNL     1      -7.269  -5.201   0.787  1.00  0.00    -0.352 N 
ATOM     28  C   UNL     1      -7.961  -6.323   0.406  1.00  0.00     0.251 C 
ATOM     29  H   UNL     1      -6.885  -4.674   0.050  1.00  0.00     0.163 HD
ATOM     30  O   UNL     1      -7.972  -6.653  -0.778  1.00  0.00    -0.269 OA
BRANCH  28  31
ATOM     31  C   UNL     1      -8.669  -7.155   1.404  1.00  0.00     0.039 A 
ATOM     32  C   UNL     1      -8.581  -8.546   1.285  1.00  0.00     0.014 A 
ATOM     33  C   UNL     1      -9.451  -6.588   2.415  1.00  0.00     0.014 A 
ATOM     34  C   UNL     1      -9.241  -9.368   2.201  1.00  0.00     0.010 A 
ATOM     35  C   UNL     1     -10.072  -7.408   3.357  1.00  0.00     0.010 A 
ATOM     36  C   UNL     1      -9.978  -8.803   3.252  1.00  0.00    -0.014 A 
BRANCH  36  37
ATOM     37  C   UNL     1     -10.686  -9.664   4.228  1.00  0.00     0.031 A 
ATOM     38  C   UNL     1     -12.186  -9.743   4.212  1.00  0.00     0.074 A 
ATOM     39  C   UNL     1      -9.984 -10.341   5.154  1.00  0.00     0.049 A 
ATOM     40  N   UNL     1     -12.987 -10.396   5.014  1.00  0.00    -0.248 NA
ATOM     41  C   UNL     1     -12.877  -8.967   3.170  1.00  0.00     0.031 C 
ATOM     42  C   UNL     1      -8.528 -10.315   5.300  1.00  0.00     0.029 A 
ATOM     43  N   UNL     1     -10.406 -11.181   6.153  1.00  0.00    -0.354 N 
ATOM     44  C   UNL     1     -14.274 -10.088   4.594  1.00  0.00     0.074 A 
ATOM     45  C   UNL     1     -14.149  -9.176   3.477  1.00  0.00     0.031 C 
ATOM     46  C   UNL     1      -8.176 -11.118   6.319  1.00  0.00     0.029 A 
ATOM     47  C   UNL     1      -9.380 -11.700   6.903  1.00  0.00     0.049 A 
ATOM     48  H   UNL     1     -11.354 -11.391   6.316  1.00  0.00     0.167 HD
ATOM     49  C   UNL     1     -15.454 -10.532   5.088  1.00  0.00     0.037 A 
ATOM     50  C   UNL     1      -9.411 -12.558   7.939  1.00  0.00     0.037 A 
ATOM     51  C   UNL     1     -15.583 -11.469   6.171  1.00  0.00     0.049 A 
ATOM     52  C   UNL     1     -10.727 -13.101   8.414  1.00  0.00     0.074 A 
ATOM     53  C   UNL     1     -16.736 -11.997   6.727  1.00  0.00     0.029 A 
ATOM     54  N   UNL     1     -14.516 -12.032   6.853  1.00  0.00    -0.354 N 
ATOM     55  N   UNL     1     -11.935 -12.822   7.990  1.00  0.00    -0.248 NA
ATOM     56  C   UNL     1     -10.683 -14.090   9.501  1.00  0.00     0.031 C 
ATOM     57  C   UNL     1     -16.365 -12.880   7.749  1.00  0.00     0.029 A 
ATOM     58  C   UNL     1     -14.982 -12.911   7.815  1.00  0.00     0.049 A 
ATOM     59  H   UNL     1     -13.567 -11.836   6.678  1.00  0.00     0.167 HD
ATOM     60  C   UNL     1     -12.792 -13.614   8.740  1.00  0.00     0.074 A 
ATOM     61  C   UNL     1     -11.967 -14.390   9.643  1.00  0.00     0.031 C 
ATOM     62  C   UNL     1     -14.143 -13.691   8.686  1.00  0.00     0.037 A 
BRANCH  49  63
ATOM     63  C   UNL     1     -16.700 -10.002   4.452  1.00  0.00     0.057 A 
ATOM     64  C   UNL     1     -17.149 -10.475   3.213  1.00  0.00     0.134 A 
ATOM     65  C   UNL     1     -17.465  -9.018   5.089  1.00  0.00     0.134 A 
ATOM     66  F   UNL     1     -16.448 -11.405   2.547  1.00  0.00    -0.206 F 
ATOM     67  C   UNL     1     -18.308  -9.973   2.620  1.00  0.00     0.040 A 
ATOM     68  C   UNL     1     -18.635  -8.520   4.513  1.00  0.00     0.040 A 
ATOM     69  F   UNL     1     -17.086  -8.524   6.278  1.00  0.00    -0.206 F 
ATOM     70  C   UNL     1     -19.056  -8.995   3.273  1.00  0.00     0.006 A 
ENDBRANCH  49  63
BRANCH  50  71
ATOM     71  C   UNL     1      -8.144 -12.997   8.567  1.00  0.00     0.057 A 
ATOM     72  C   UNL     1      -7.601 -14.254   8.280  1.00  0.00     0.134 A 
ATOM     73  C   UNL     1      -7.449 -12.175   9.460  1.00  0.00     0.134 A 
ATOM     74  F   UNL     1      -8.236 -15.087   7.443  1.00  0.00    -0.206 F 
ATOM     75  C   UNL     1      -6.413 -14.686   8.870  1.00  0.00     0.040 A 
ATOM     76  C   UNL     1      -6.253 -12.589  10.048  1.00  0.00     0.040 A 
ATOM     77  F   UNL     1      -7.921 -10.958   9.767  1.00  0.00    -0.206 F 
ATOM     78  C   UNL     1      -5.734 -13.850   9.755  1.00  0.00     0.006 A 
ENDBRANCH  50  71
BRANCH  62  79
ATOM     79  C   UNL     1     -14.805 -14.674   9.599  1.00  0.00     0.057 A 
ATOM     80  C   UNL     1     -15.022 -14.387  10.951  1.00  0.00     0.134 A 
ATOM     81  C   UNL     1     -15.254 -15.906   9.111  1.00  0.00     0.134 A 
ATOM     82  F   UNL     1     -14.602 -13.226  11.476  1.00  0.00    -0.206 F 
ATOM     83  C   UNL     1     -15.656 -15.301  11.793  1.00  0.00     0.040 A 
ATOM     84  C   UNL     1     -15.898 -16.824   9.941  1.00  0.00     0.040 A 
ATOM     85  F   UNL     1     -15.073 -16.235   7.823  1.00  0.00    -0.206 F 
ATOM     86  C   UNL     1     -16.099 -16.522  11.287  1.00  0.00     0.006 A 
ENDBRANCH  62  79
ENDBRANCH  36  37
ENDBRANCH  28  31
ENDBRANCH  26  27
ENDBRANCH  25  26
ENDBRANCH   1  25
TORSDOF 13
