REMARK SMILES COc1cc(C(C)C)cc([C@H]([NH3+])C(=O)NCCCCNC(=O)c2ccc(-c3c4nc(c(-c5c(F)cccc5F)c5ccc([nH]5)c(-c5c(F)cccc5F)c5nc(c(-c6c(F)cccc6F)c6ccc3[nH]6)C=C5)C=C4)cc2)c1O
REMARK SMILES IDX 17 1 16 2 15 3 13 4 14 5 11 7 10 8 3 9 4 10 77 11 5 12 9 13
REMARK SMILES IDX 2 14 1 15 78 16 6 18 7 19 8 20 12 21 18 25 19 26 20 27 21 28
REMARK SMILES IDX 22 30 23 31 24 32 76 33 25 34 75 35 26 36 27 37 28 38 69 39
REMARK SMILES IDX 29 40 74 41 68 42 70 43 30 44 73 45 67 46 66 47 31 49 57 50
REMARK SMILES IDX 40 51 56 52 41 53 44 54 55 55 71 56 42 57 43 58 54 60 72 61
REMARK SMILES IDX 45 62 32 63 33 64 38 65 34 66 35 67 37 68 39 69 36 70 58 71
REMARK SMILES IDX 59 72 64 73 60 74 61 75 63 76 65 77 62 78 46 79 47 80 52 81
REMARK SMILES IDX 48 82 49 83 51 84 53 85 50 86
REMARK H PARENT 15 6 78 17 12 22 12 23 12 24 20 29 70 48 44 59
REMARK Flexibility Score: inf
ROOT
ATOM      1  C   UNL     1      -3.110  -2.633   5.173  1.00  0.00     0.023 C 
ENDROOT
BRANCH   1   2
ATOM      2  C   UNL     1      -2.104  -3.655   4.662  1.00  0.00     0.116 C 
BRANCH   2   3
ATOM      3  N   UNL     1      -2.499  -4.317   3.438  1.00  0.00    -0.351 N 
ATOM      4  C   UNL     1      -1.723  -4.687   2.368  1.00  0.00     0.283 C 
ATOM      5  O   UNL     1      -2.279  -5.351   1.485  1.00  0.00    -0.268 OA
ATOM      6  H   UNL     1      -3.457  -4.532   3.362  1.00  0.00     0.163 HD
BRANCH   4   7
ATOM      7  C   UNL     1      -0.216  -4.294   2.250  1.00  0.00     0.306 C 
BRANCH   7   8
ATOM      8  C   UNL     1       0.661  -5.165   3.136  1.00  0.00     0.065 A 
ATOM      9  C   UNL     1       1.776  -7.296   3.544  1.00  0.00     0.161 A 
ATOM     10  C   UNL     1       1.880  -6.996   4.904  1.00  0.00     0.054 A 
ATOM     11  C   UNL     1       1.103  -6.415   2.689  1.00  0.00     0.167 A 
ATOM     12  C   UNL     1       1.400  -5.777   5.396  1.00  0.00    -0.041 A 
ATOM     13  C   UNL     1       0.905  -4.837   4.480  1.00  0.00     0.018 A 
BRANCH   9  14
ATOM     14  O   UNL     1       2.236  -8.526   3.151  1.00  0.00    -0.493 OA
ATOM     15  C   UNL     1       3.112  -8.483   2.022  1.00  0.00     0.278 C 
ENDBRANCH   9  14
BRANCH  11  16
ATOM     16  O   UNL     1       0.800  -6.792   1.409  1.00  0.00    -0.504 OA
ATOM     17  H   UNL     1       1.084  -7.624   1.086  1.00  0.00     0.293 HD
ENDBRANCH  11  16
BRANCH  12  18
ATOM     18  C   UNL     1       1.276  -5.477   6.882  1.00  0.00     0.013 C 
ATOM     19  C   UNL     1       0.532  -6.596   7.622  1.00  0.00     0.012 C 
ATOM     20  C   UNL     1       2.618  -5.174   7.536  1.00  0.00     0.012 C 
ENDBRANCH  12  18
ENDBRANCH   7   8
BRANCH   7  21
ATOM     21  N   UNL     1      -0.029  -2.836   2.450  1.00  0.00    -0.343 N 
ATOM     22  H   UNL     1      -0.327  -2.581   3.392  1.00  0.00     0.345 HD
ATOM     23  H   UNL     1      -0.586  -2.324   1.767  1.00  0.00     0.345 HD
ATOM     24  H   UNL     1       0.957  -2.600   2.331  1.00  0.00     0.345 HD
ENDBRANCH   7  21
ENDBRANCH   4   7
ENDBRANCH   2   3
ENDBRANCH   1   2
BRANCH   1  25
ATOM     25  C   UNL     1      -4.442  -3.199   5.643  1.00  0.00     0.023 C 
BRANCH  25  26
ATOM     26  C   UNL     1      -4.352  -4.325   6.666  1.00  0.00     0.116 C 
BRANCH  26  27
ATOM     27  N   UNL     1      -3.658  -3.949   7.890  1.00  0.00    -0.352 N 
ATOM     28  C   UNL     1      -4.098  -3.961   9.196  1.00  0.00     0.251 C 
ATOM     29  H   UNL     1      -2.732  -3.639   7.766  1.00  0.00     0.163 HD
ATOM     30  O   UNL     1      -3.398  -3.508  10.089  1.00  0.00    -0.269 OA
BRANCH  28  31
ATOM     31  C   UNL     1      -5.445  -4.489   9.507  1.00  0.00     0.039 A 
ATOM     32  C   UNL     1      -6.293  -3.739  10.325  1.00  0.00     0.014 A 
ATOM     33  C   UNL     1      -5.883  -5.695   8.959  1.00  0.00     0.014 A 
ATOM     34  C   UNL     1      -7.614  -4.152  10.513  1.00  0.00     0.010 A 
ATOM     35  C   UNL     1      -7.221  -6.055   9.069  1.00  0.00     0.010 A 
ATOM     36  C   UNL     1      -8.103  -5.286   9.844  1.00  0.00    -0.014 A 
BRANCH  36  37
ATOM     37  C   UNL     1      -9.531  -5.686   9.932  1.00  0.00     0.031 A 
ATOM     38  C   UNL     1      -9.906  -7.017  10.521  1.00  0.00     0.074 A 
ATOM     39  C   UNL     1     -10.483  -4.888   9.411  1.00  0.00     0.049 A 
ATOM     40  N   UNL     1     -11.085  -7.578  10.616  1.00  0.00    -0.248 NA
ATOM     41  C   UNL     1      -8.805  -7.841  11.042  1.00  0.00     0.031 C 
ATOM     42  C   UNL     1     -10.249  -3.593   8.768  1.00  0.00     0.029 A 
ATOM     43  N   UNL     1     -11.844  -5.054   9.334  1.00  0.00    -0.354 N 
ATOM     44  C   UNL     1     -10.864  -8.824  11.188  1.00  0.00     0.074 A 
ATOM     45  C   UNL     1      -9.434  -8.962  11.360  1.00  0.00     0.031 C 
ATOM     46  C   UNL     1     -11.427  -3.065   8.399  1.00  0.00     0.029 A 
ATOM     47  C   UNL     1     -12.495  -4.000   8.739  1.00  0.00     0.049 A 
ATOM     48  H   UNL     1     -12.309  -5.852   9.673  1.00  0.00     0.167 HD
ATOM     49  C   UNL     1     -11.770  -9.759  11.562  1.00  0.00     0.037 A 
ATOM     50  C   UNL     1     -13.805  -3.810   8.497  1.00  0.00     0.037 A 
ATOM     51  C   UNL     1     -13.193  -9.611  11.413  1.00  0.00     0.049 A 
ATOM     52  C   UNL     1     -14.791  -4.870   8.901  1.00  0.00     0.074 A 
ATOM     53  C   UNL     1     -14.198 -10.470  11.820  1.00  0.00     0.029 A 
ATOM     54  N   UNL     1     -13.813  -8.530  10.803  1.00  0.00    -0.354 N 
ATOM     55  N   UNL     1     -14.575  -6.013   9.505  1.00  0.00    -0.248 NA
ATOM     56  C   UNL     1     -16.203  -4.612   8.589  1.00  0.00     0.031 C 
ATOM     57  C   UNL     1     -15.425  -9.930  11.417  1.00  0.00     0.029 A 
ATOM     58  C   UNL     1     -15.187  -8.712  10.800  1.00  0.00     0.049 A 
ATOM     59  H   UNL     1     -13.346  -7.748  10.428  1.00  0.00     0.167 HD
ATOM     60  C   UNL     1     -15.824  -6.596   9.675  1.00  0.00     0.074 A 
ATOM     61  C   UNL     1     -16.794  -5.676   9.116  1.00  0.00     0.031 C 
ATOM     62  C   UNL     1     -16.140  -7.784  10.246  1.00  0.00     0.037 A 
BRANCH  49  63
ATOM     63  C   UNL     1     -11.234 -11.025  12.167  1.00  0.00     0.057 A 
ATOM     64  C   UNL     1     -10.623 -11.042  13.429  1.00  0.00     0.134 A 
ATOM     65  C   UNL     1     -11.324 -12.242  11.479  1.00  0.00     0.134 A 
ATOM     66  F   UNL     1     -10.492  -9.909  14.135  1.00  0.00    -0.206 F 
ATOM     67  C   UNL     1     -10.085 -12.213  13.965  1.00  0.00     0.040 A 
ATOM     68  C   UNL     1     -10.817 -13.425  12.018  1.00  0.00     0.040 A 
ATOM     69  F   UNL     1     -11.903 -12.300  10.270  1.00  0.00    -0.206 F 
ATOM     70  C   UNL     1     -10.184 -13.410  13.260  1.00  0.00     0.006 A 
ENDBRANCH  49  63
BRANCH  50  71
ATOM     71  C   UNL     1     -14.270  -2.542   7.880  1.00  0.00     0.057 A 
ATOM     72  C   UNL     1     -14.975  -1.598   8.635  1.00  0.00     0.134 A 
ATOM     73  C   UNL     1     -14.024  -2.241   6.535  1.00  0.00     0.134 A 
ATOM     74  F   UNL     1     -15.257  -1.840   9.924  1.00  0.00    -0.206 F 
ATOM     75  C   UNL     1     -15.431  -0.405   8.074  1.00  0.00     0.040 A 
ATOM     76  C   UNL     1     -14.456  -1.041   5.966  1.00  0.00     0.040 A 
ATOM     77  F   UNL     1     -13.349  -3.102   5.760  1.00  0.00    -0.206 F 
ATOM     78  C   UNL     1     -15.167  -0.121   6.736  1.00  0.00     0.006 A 
ENDBRANCH  50  71
BRANCH  62  79
ATOM     79  C   UNL     1     -17.595  -8.139  10.329  1.00  0.00     0.057 A 
ATOM     80  C   UNL     1     -18.331  -8.519   9.200  1.00  0.00     0.134 A 
ATOM     81  C   UNL     1     -18.259  -8.134  11.563  1.00  0.00     0.134 A 
ATOM     82  F   UNL     1     -17.758  -8.530   7.987  1.00  0.00    -0.206 F 
ATOM     83  C   UNL     1     -19.681  -8.861   9.291  1.00  0.00     0.040 A 
ATOM     84  C   UNL     1     -19.601  -8.499  11.671  1.00  0.00     0.040 A 
ATOM     85  F   UNL     1     -17.610  -7.787  12.684  1.00  0.00    -0.206 F 
ATOM     86  C   UNL     1     -20.318  -8.858  10.531  1.00  0.00     0.006 A 
ENDBRANCH  62  79
ENDBRANCH  36  37
ENDBRANCH  28  31
ENDBRANCH  26  27
ENDBRANCH  25  26
ENDBRANCH   1  25
TORSDOF 16
