REMARK SMILES C[C@@H](C(=O)NCCCCNC(=O)c1ccc(-c2c3nc(c(-c4c(F)cccc4F)c4ccc([nH]4)c(-c4c(F)cccc4F)c4nc(c(-c5c(F)cccc5F)c5ccc2[nH]5)C=C4)C=C3)cc1)c1ccc(-c2ccccc2)cc1
REMARK SMILES IDX 7 1 6 2 5 3 3 4 4 5 2 7 1 8 67 9 68 10 78 11 69 12 77 13
REMARK SMILES IDX 70 14 71 15 72 16 76 17 73 18 75 19 74 20 8 21 9 22 10 23
REMARK SMILES IDX 11 24 12 26 13 27 14 28 66 29 15 30 65 31 16 32 17 33 18 34
REMARK SMILES IDX 59 35 19 36 64 37 58 38 60 39 20 40 63 41 57 42 56 43 21 45
REMARK SMILES IDX 47 46 30 47 46 48 31 49 34 50 45 51 61 52 32 53 33 54 44 56
REMARK SMILES IDX 62 57 35 58 22 59 23 60 28 61 24 62 25 63 27 64 29 65 26 66
REMARK SMILES IDX 48 67 49 68 54 69 50 70 51 71 53 72 55 73 52 74 36 75 37 76
REMARK SMILES IDX 42 77 38 78 39 79 41 80 43 81 40 82
REMARK H PARENT 5 6 10 25 60 44 34 55
REMARK Flexibility Score: inf
ROOT
ATOM      1  C   UNL     1       4.144   0.799   0.674  1.00  0.00     0.023 C 
ENDROOT
BRANCH   1   2
ATOM      2  C   UNL     1       3.394  -0.087   1.670  1.00  0.00     0.116 C 
BRANCH   2   3
ATOM      3  N   UNL     1       2.387   0.663   2.389  1.00  0.00    -0.356 N 
ATOM      4  C   UNL     1       1.034   0.717   2.224  1.00  0.00     0.227 C 
ATOM      5  O   UNL     1       0.438   1.515   2.951  1.00  0.00    -0.274 OA
ATOM      6  H   UNL     1       2.736   1.227   3.116  1.00  0.00     0.163 HD
BRANCH   4   7
ATOM      7  C   UNL     1       0.334  -0.207   1.207  1.00  0.00     0.105 C 
ATOM      8  C   UNL     1       0.657   0.160  -0.244  1.00  0.00     0.023 C 
BRANCH   7   9
ATOM      9  C   UNL     1      -1.185  -0.237   1.358  1.00  0.00    -0.036 A 
ATOM     10  C   UNL     1      -1.940   0.943   1.307  1.00  0.00     0.005 A 
ATOM     11  C   UNL     1      -1.863  -1.457   1.475  1.00  0.00     0.005 A 
ATOM     12  C   UNL     1      -3.333   0.906   1.387  1.00  0.00     0.009 A 
ATOM     13  C   UNL     1      -3.261  -1.492   1.546  1.00  0.00     0.009 A 
ATOM     14  C   UNL     1      -4.019  -0.311   1.502  1.00  0.00    -0.018 A 
BRANCH  14  15
ATOM     15  C   UNL     1      -5.488  -0.332   1.572  1.00  0.00    -0.018 A 
ATOM     16  C   UNL     1      -6.263   0.335   0.607  1.00  0.00     0.009 A 
ATOM     17  C   UNL     1      -6.158  -0.988   2.616  1.00  0.00     0.009 A 
ATOM     18  C   UNL     1      -7.657   0.355   0.689  1.00  0.00     0.001 A 
ATOM     19  C   UNL     1      -7.553  -0.969   2.700  1.00  0.00     0.001 A 
ATOM     20  C   UNL     1      -8.301  -0.294   1.738  1.00  0.00     0.000 A 
ENDBRANCH  14  15
ENDBRANCH   7   9
ENDBRANCH   4   7
ENDBRANCH   2   3
ENDBRANCH   1   2
BRANCH   1  21
ATOM     21  C   UNL     1       4.910   1.972   1.295  1.00  0.00     0.023 C 
BRANCH  21  22
ATOM     22  C   UNL     1       5.908   1.598   2.384  1.00  0.00     0.116 C 
BRANCH  22  23
ATOM     23  N   UNL     1       6.908   0.647   1.931  1.00  0.00    -0.352 N 
ATOM     24  C   UNL     1       8.245   0.585   2.226  1.00  0.00     0.251 C 
ATOM     25  H   UNL     1       6.578  -0.055   1.325  1.00  0.00     0.163 HD
ATOM     26  O   UNL     1       8.957  -0.233   1.643  1.00  0.00    -0.269 OA
BRANCH  24  27
ATOM     27  C   UNL     1       8.845   1.505   3.216  1.00  0.00     0.039 A 
ATOM     28  C   UNL     1      10.102   2.051   2.941  1.00  0.00     0.014 A 
ATOM     29  C   UNL     1       8.206   1.800   4.424  1.00  0.00     0.014 A 
ATOM     30  C   UNL     1      10.704   2.913   3.860  1.00  0.00     0.010 A 
ATOM     31  C   UNL     1       8.774   2.715   5.308  1.00  0.00     0.010 A 
ATOM     32  C   UNL     1      10.039   3.262   5.046  1.00  0.00    -0.014 A 
BRANCH  32  33
ATOM     33  C   UNL     1      10.681   4.153   6.043  1.00  0.00     0.031 A 
ATOM     34  C   UNL     1      11.070   3.615   7.393  1.00  0.00     0.074 A 
ATOM     35  C   UNL     1      10.888   5.451   5.748  1.00  0.00     0.049 A 
ATOM     36  N   UNL     1      11.633   4.234   8.401  1.00  0.00    -0.248 NA
ATOM     37  C   UNL     1      10.760   2.201   7.657  1.00  0.00     0.031 C 
ATOM     38  C   UNL     1      10.511   6.106   4.495  1.00  0.00     0.029 A 
ATOM     39  N   UNL     1      11.468   6.452   6.486  1.00  0.00    -0.354 N 
ATOM     40  C   UNL     1      11.724   3.293   9.419  1.00  0.00     0.074 A 
ATOM     41  C   UNL     1      11.114   2.077   8.927  1.00  0.00     0.031 C 
ATOM     42  C   UNL     1      10.897   7.391   4.539  1.00  0.00     0.029 A 
ATOM     43  C   UNL     1      11.527   7.656   5.829  1.00  0.00     0.049 A 
ATOM     44  H   UNL     1      11.809   6.319   7.400  1.00  0.00     0.167 HD
ATOM     45  C   UNL     1      12.288   3.420  10.643  1.00  0.00     0.037 A 
ATOM     46  C   UNL     1      12.041   8.836   6.221  1.00  0.00     0.037 A 
ATOM     47  C   UNL     1      12.931   4.617  11.116  1.00  0.00     0.049 A 
ATOM     48  C   UNL     1      12.695   8.942   7.571  1.00  0.00     0.074 A 
ATOM     49  C   UNL     1      13.588   4.828  12.316  1.00  0.00     0.029 A 
ATOM     50  N   UNL     1      13.002   5.805  10.406  1.00  0.00    -0.354 N 
ATOM     51  N   UNL     1      12.839   8.024   8.495  1.00  0.00    -0.248 NA
ATOM     52  C   UNL     1      13.273  10.247   7.924  1.00  0.00     0.031 C 
ATOM     53  C   UNL     1      14.030   6.155  12.344  1.00  0.00     0.029 A 
ATOM     54  C   UNL     1      13.684   6.757  11.145  1.00  0.00     0.049 A 
ATOM     55  H   UNL     1      12.624   5.951   9.509  1.00  0.00     0.167 HD
ATOM     56  C   UNL     1      13.556   8.627   9.521  1.00  0.00     0.074 A 
ATOM     57  C   UNL     1      13.822   9.987   9.102  1.00  0.00     0.031 C 
ATOM     58  C   UNL     1      13.959   8.100  10.704  1.00  0.00     0.037 A 
BRANCH  45  59
ATOM     59  C   UNL     1      12.239   2.227  11.552  1.00  0.00     0.057 A 
ATOM     60  C   UNL     1      13.005   1.079  11.308  1.00  0.00     0.134 A 
ATOM     61  C   UNL     1      11.430   2.231  12.695  1.00  0.00     0.134 A 
ATOM     62  F   UNL     1      13.790   1.005  10.222  1.00  0.00    -0.206 F 
ATOM     63  C   UNL     1      12.947  -0.032  12.151  1.00  0.00     0.040 A 
ATOM     64  C   UNL     1      11.384   1.137  13.561  1.00  0.00     0.040 A 
ATOM     65  F   UNL     1      10.675   3.299  12.992  1.00  0.00    -0.206 F 
ATOM     66  C   UNL     1      12.138  -0.002  13.285  1.00  0.00     0.006 A 
ENDBRANCH  45  59
BRANCH  46  67
ATOM     67  C   UNL     1      12.012  10.002   5.303  1.00  0.00     0.057 A 
ATOM     68  C   UNL     1      13.184  10.468   4.696  1.00  0.00     0.134 A 
ATOM     69  C   UNL     1      10.822  10.681   5.019  1.00  0.00     0.134 A 
ATOM     70  F   UNL     1      14.357   9.867   4.944  1.00  0.00    -0.206 F 
ATOM     71  C   UNL     1      13.179  11.582   3.856  1.00  0.00     0.040 A 
ATOM     72  C   UNL     1      10.799  11.784   4.163  1.00  0.00     0.040 A 
ATOM     73  F   UNL     1       9.665  10.278   5.564  1.00  0.00    -0.206 F 
ATOM     74  C   UNL     1      11.982  12.242   3.585  1.00  0.00     0.006 A 
ENDBRANCH  46  67
BRANCH  58  75
ATOM     75  C   UNL     1      14.776   8.981  11.601  1.00  0.00     0.057 A 
ATOM     76  C   UNL     1      14.211  10.050  12.307  1.00  0.00     0.134 A 
ATOM     77  C   UNL     1      16.143   8.736  11.780  1.00  0.00     0.134 A 
ATOM     78  F   UNL     1      12.909  10.344  12.169  1.00  0.00    -0.206 F 
ATOM     79  C   UNL     1      14.983  10.861  13.139  1.00  0.00     0.040 A 
ATOM     80  C   UNL     1      16.921   9.525  12.629  1.00  0.00     0.040 A 
ATOM     81  F   UNL     1      16.744   7.721  11.139  1.00  0.00    -0.206 F 
ATOM     82  C   UNL     1      16.342  10.596  13.306  1.00  0.00     0.006 A 
ENDBRANCH  58  75
ENDBRANCH  32  33
ENDBRANCH  24  27
ENDBRANCH  22  23
ENDBRANCH  21  22
ENDBRANCH   1  21
TORSDOF 13
