REMARK SMILES Nc1oc(-c2ccccc2)cc1C(=O)NCCCCNC(=O)c1ccc(-c2c3nc(c(-c4c(F)cccc4F)c4ccc([nH]4)c(-c4c(F)cccc4F)c4nc(c(-c5c(F)cccc5F)c5ccc2[nH]5)C=C4)C=C3)cc1
REMARK SMILES IDX 18 1 17 2 16 3 15 4 13 5 14 6 12 8 2 9 3 10 4 11 11 12 1 13
REMARK SMILES IDX 5 16 6 17 10 18 7 19 9 20 8 21 19 22 20 23 21 24 22 26 23 27
REMARK SMILES IDX 24 28 76 29 25 30 75 31 26 32 27 33 28 34 69 35 29 36 74 37
REMARK SMILES IDX 68 38 70 39 30 40 73 41 67 42 66 43 31 45 57 46 40 47 56 48
REMARK SMILES IDX 41 49 44 50 55 51 71 52 42 53 43 54 54 56 72 57 45 58 32 59
REMARK SMILES IDX 33 60 38 61 34 62 35 63 37 64 39 65 36 66 58 67 59 68 64 69
REMARK SMILES IDX 60 70 61 71 63 72 65 73 62 74 46 75 47 76 52 77 48 78 49 79
REMARK SMILES IDX 51 80 53 81 50 82
REMARK H PARENT 15 7 1 14 1 15 20 25 70 44 44 55
REMARK Flexibility Score: inf
ROOT
ATOM      1  C   UNL     1      -5.527   2.040  -2.209  1.00  0.00     0.023 C 
ENDROOT
BRANCH   1   2
ATOM      2  C   UNL     1      -4.374   1.237  -2.834  1.00  0.00     0.023 C 
BRANCH   2   3
ATOM      3  C   UNL     1      -3.038   1.980  -2.921  1.00  0.00     0.116 C 
BRANCH   3   4
ATOM      4  N   UNL     1      -2.381   2.079  -1.633  1.00  0.00    -0.352 N 
ATOM      5  C   UNL     1      -1.381   1.345  -1.039  1.00  0.00     0.256 C 
ATOM      6  O   UNL     1      -0.995   1.745   0.062  1.00  0.00    -0.269 OA
ATOM      7  H   UNL     1      -2.717   2.817  -1.073  1.00  0.00     0.163 HD
BRANCH   5   8
ATOM      8  C   UNL     1      -0.788   0.185  -1.690  1.00  0.00     0.103 A 
ATOM      9  C   UNL     1       0.377  -0.434  -1.253  1.00  0.00     0.203 A 
ATOM     10  O   UNL     1       0.754  -1.439  -2.088  1.00  0.00    -0.440 OA
ATOM     11  C   UNL     1      -0.183  -1.494  -3.068  1.00  0.00     0.137 A 
ATOM     12  C   UNL     1      -1.182  -0.581  -2.820  1.00  0.00     0.067 A 
BRANCH   9  13
ATOM     13  N   UNL     1       1.181  -0.218  -0.207  1.00  0.00    -0.369 N 
ATOM     14  H   UNL     1       1.976  -0.782  -0.073  1.00  0.00     0.159 HD
ATOM     15  H   UNL     1       0.977   0.504   0.430  1.00  0.00     0.159 HD
ENDBRANCH   9  13
BRANCH  11  16
ATOM     16  C   UNL     1       0.027  -2.411  -4.168  1.00  0.00     0.017 A 
ATOM     17  C   UNL     1      -0.066  -3.793  -3.988  1.00  0.00     0.012 A 
ATOM     18  C   UNL     1       0.198  -1.894  -5.460  1.00  0.00     0.012 A 
ATOM     19  C   UNL     1      -0.029  -4.644  -5.096  1.00  0.00     0.001 A 
ATOM     20  C   UNL     1       0.244  -2.745  -6.564  1.00  0.00     0.001 A 
ATOM     21  C   UNL     1       0.116  -4.120  -6.381  1.00  0.00     0.000 A 
ENDBRANCH  11  16
ENDBRANCH   5   8
ENDBRANCH   3   4
ENDBRANCH   2   3
ENDBRANCH   1   2
BRANCH   1  22
ATOM     22  C   UNL     1      -5.962   3.277  -2.993  1.00  0.00     0.116 C 
BRANCH  22  23
ATOM     23  N   UNL     1      -6.428   2.970  -4.346  1.00  0.00    -0.352 N 
ATOM     24  C   UNL     1      -6.638   3.839  -5.406  1.00  0.00     0.251 C 
ATOM     25  H   UNL     1      -6.617   2.021  -4.528  1.00  0.00     0.163 HD
ATOM     26  O   UNL     1      -7.377   3.545  -6.329  1.00  0.00    -0.269 OA
BRANCH  24  27
ATOM     27  C   UNL     1      -5.927   5.131  -5.406  1.00  0.00     0.039 A 
ATOM     28  C   UNL     1      -6.552   6.321  -5.788  1.00  0.00     0.014 A 
ATOM     29  C   UNL     1      -4.607   5.128  -4.976  1.00  0.00     0.014 A 
ATOM     30  C   UNL     1      -5.856   7.521  -5.643  1.00  0.00     0.010 A 
ATOM     31  C   UNL     1      -3.992   6.311  -4.669  1.00  0.00     0.010 A 
ATOM     32  C   UNL     1      -4.579   7.510  -5.061  1.00  0.00    -0.014 A 
BRANCH  32  33
ATOM     33  C   UNL     1      -3.878   8.751  -4.735  1.00  0.00     0.031 A 
ATOM     34  C   UNL     1      -4.645   9.682  -3.857  1.00  0.00     0.074 A 
ATOM     35  C   UNL     1      -2.556   8.908  -4.977  1.00  0.00     0.049 A 
ATOM     36  N   UNL     1      -5.037  10.886  -4.117  1.00  0.00    -0.248 NA
ATOM     37  C   UNL     1      -5.152   9.160  -2.575  1.00  0.00     0.031 C 
ATOM     38  C   UNL     1      -1.618   7.922  -5.536  1.00  0.00     0.029 A 
ATOM     39  N   UNL     1      -1.730   9.941  -4.654  1.00  0.00    -0.354 N 
ATOM     40  C   UNL     1      -5.646  11.351  -2.950  1.00  0.00     0.074 A 
ATOM     41  C   UNL     1      -5.864  10.195  -2.125  1.00  0.00     0.031 C 
ATOM     42  C   UNL     1      -0.349   8.299  -5.275  1.00  0.00     0.029 A 
ATOM     43  C   UNL     1      -0.374   9.632  -4.708  1.00  0.00     0.049 A 
ATOM     44  H   UNL     1      -2.064  10.833  -4.404  1.00  0.00     0.167 HD
ATOM     45  C   UNL     1      -5.659  12.681  -2.651  1.00  0.00     0.037 A 
ATOM     46  C   UNL     1       0.659  10.406  -4.296  1.00  0.00     0.037 A 
ATOM     47  C   UNL     1      -5.386  13.469  -3.829  1.00  0.00     0.049 A 
ATOM     48  C   UNL     1       0.151  11.792  -4.188  1.00  0.00     0.074 A 
ATOM     49  C   UNL     1      -5.982  13.636  -5.062  1.00  0.00     0.029 A 
ATOM     50  N   UNL     1      -4.119  13.980  -3.953  1.00  0.00    -0.354 N 
ATOM     51  N   UNL     1      -0.225  12.511  -5.207  1.00  0.00    -0.248 NA
ATOM     52  C   UNL     1      -0.353  12.226  -2.896  1.00  0.00     0.031 C 
ATOM     53  C   UNL     1      -4.899  13.808  -5.976  1.00  0.00     0.029 A 
ATOM     54  C   UNL     1      -3.710  13.802  -5.245  1.00  0.00     0.049 A 
ATOM     55  H   UNL     1      -3.594  14.402  -3.234  1.00  0.00     0.167 HD
ATOM     56  C   UNL     1      -1.341  13.200  -4.757  1.00  0.00     0.074 A 
ATOM     57  C   UNL     1      -1.303  13.070  -3.302  1.00  0.00     0.031 C 
ATOM     58  C   UNL     1      -2.337  13.555  -5.622  1.00  0.00     0.037 A 
BRANCH  45  59
ATOM     59  C   UNL     1      -5.457  13.250  -1.255  1.00  0.00     0.057 A 
ATOM     60  C   UNL     1      -5.455  14.652  -1.094  1.00  0.00     0.134 A 
ATOM     61  C   UNL     1      -4.947  12.534  -0.153  1.00  0.00     0.134 A 
ATOM     62  F   UNL     1      -5.932  15.457  -2.056  1.00  0.00    -0.206 F 
ATOM     63  C   UNL     1      -4.870  15.286   0.009  1.00  0.00     0.040 A 
ATOM     64  C   UNL     1      -4.405  13.158   0.975  1.00  0.00     0.040 A 
ATOM     65  F   UNL     1      -4.855  11.201  -0.130  1.00  0.00    -0.206 F 
ATOM     66  C   UNL     1      -4.324  14.537   1.041  1.00  0.00     0.006 A 
ENDBRANCH  45  59
BRANCH  46  67
ATOM     67  C   UNL     1       1.958   9.994  -3.719  1.00  0.00     0.057 A 
ATOM     68  C   UNL     1       3.047  10.876  -3.676  1.00  0.00     0.134 A 
ATOM     69  C   UNL     1       2.079   8.825  -2.946  1.00  0.00     0.134 A 
ATOM     70  F   UNL     1       3.009  12.035  -4.347  1.00  0.00    -0.206 F 
ATOM     71  C   UNL     1       4.180  10.624  -2.889  1.00  0.00     0.040 A 
ATOM     72  C   UNL     1       3.206   8.559  -2.161  1.00  0.00     0.040 A 
ATOM     73  F   UNL     1       1.068   7.949  -2.858  1.00  0.00    -0.206 F 
ATOM     74  C   UNL     1       4.256   9.468  -2.119  1.00  0.00     0.006 A 
ENDBRANCH  46  67
BRANCH  58  75
ATOM     75  C   UNL     1      -2.055  13.461  -7.097  1.00  0.00     0.057 A 
ATOM     76  C   UNL     1      -1.823  12.261  -7.786  1.00  0.00     0.134 A 
ATOM     77  C   UNL     1      -2.182  14.620  -7.870  1.00  0.00     0.134 A 
ATOM     78  F   UNL     1      -1.775  11.089  -7.144  1.00  0.00    -0.206 F 
ATOM     79  C   UNL     1      -1.694  12.224  -9.178  1.00  0.00     0.040 A 
ATOM     80  C   UNL     1      -2.088  14.591  -9.263  1.00  0.00     0.040 A 
ATOM     81  F   UNL     1      -2.455  15.796  -7.284  1.00  0.00    -0.206 F 
ATOM     82  C   UNL     1      -1.836  13.391  -9.922  1.00  0.00     0.006 A 
ENDBRANCH  58  75
ENDBRANCH  32  33
ENDBRANCH  24  27
ENDBRANCH  22  23
ENDBRANCH   1  22
TORSDOF 13
