REMARK SMILES CC(=O)Nc1cc(NC(C)=O)cc(C(=O)Nc2ccc(Br)cc2C(=O)NCCCCNC(=O)c2ccc(-c3c4nc(c(-c5c(F)cccc5F)c5ccc([nH]5)c(-c5c(F)cccc5F)c5nc(c(-c6c(F)cccc6F)c6ccc3[nH]6)C=C5)C=C4)cc2)c1
REMARK SMILES IDX 28 1 27 2 26 3 24 4 25 5 23 7 17 8 18 9 19 10 22 11 20 12
REMARK SMILES IDX 21 13 16 14 14 15 15 16 13 18 5 19 6 20 88 21 7 22 12 23
REMARK SMILES IDX 4 24 1 25 2 26 3 27 8 29 9 30 10 32 11 33 29 34 30 35 31 36
REMARK SMILES IDX 32 37 33 39 34 40 35 41 87 42 36 43 86 44 37 45 38 46 39 47
REMARK SMILES IDX 80 48 40 49 85 50 79 51 81 52 41 53 84 54 78 55 77 56 42 58
REMARK SMILES IDX 68 59 51 60 67 61 52 62 55 63 66 64 82 65 53 66 54 67 65 69
REMARK SMILES IDX 83 70 56 71 43 72 44 73 49 74 45 75 46 76 48 77 50 78 47 79
REMARK SMILES IDX 69 80 70 81 75 82 71 83 72 84 74 85 76 86 73 87 57 88 58 89
REMARK SMILES IDX 63 90 59 91 60 92 62 93 64 94 61 95
REMARK H PARENT 26 6 16 17 4 28 8 31 31 38 81 57 55 68
REMARK Flexibility Score: inf
ROOT
ATOM      1  C   UNL     1       7.965   2.072   1.886  1.00  0.00     0.023 C 
ENDROOT
BRANCH   1   2
ATOM      2  C   UNL     1       6.592   1.539   1.500  1.00  0.00     0.116 C 
BRANCH   2   3
ATOM      3  N   UNL     1       5.600   2.562   1.244  1.00  0.00    -0.352 N 
ATOM      4  C   UNL     1       4.444   2.487   0.507  1.00  0.00     0.253 C 
ATOM      5  O   UNL     1       3.746   3.495   0.412  1.00  0.00    -0.269 OA
ATOM      6  H   UNL     1       5.781   3.437   1.657  1.00  0.00     0.163 HD
BRANCH   4   7
ATOM      7  C   UNL     1       4.059   1.262  -0.250  1.00  0.00     0.064 A 
ATOM      8  C   UNL     1       4.134  -0.071   0.203  1.00  0.00     0.054 A 
ATOM      9  C   UNL     1       3.961  -1.111  -0.727  1.00  0.00     0.028 A 
ATOM     10  C   UNL     1       3.545  -0.845  -2.034  1.00  0.00     0.018 A 
ATOM     11  C   UNL     1       3.602   1.517  -1.560  1.00  0.00     0.031 A 
ATOM     12  C   UNL     1       3.325   0.468  -2.431  1.00  0.00     0.018 A 
ATOM     13  Br  UNL     1       2.643   0.824  -4.155  1.00  0.00    -0.051 Br
BRANCH   8  14
ATOM     14  N   UNL     1       4.288  -0.510   1.540  1.00  0.00    -0.321 N 
ATOM     15  C   UNL     1       3.858   0.039   2.735  1.00  0.00     0.255 C 
ATOM     16  O   UNL     1       4.341  -0.360   3.793  1.00  0.00    -0.269 OA
ATOM     17  H   UNL     1       4.788  -1.353   1.637  1.00  0.00     0.170 HD
BRANCH  15  18
ATOM     18  C   UNL     1       2.780   1.054   2.775  1.00  0.00     0.044 A 
ATOM     19  C   UNL     1       0.862   2.080   1.732  1.00  0.00     0.044 A 
ATOM     20  C   UNL     1       0.934   3.110   2.684  1.00  0.00     0.052 A 
ATOM     21  C   UNL     1       1.742   1.016   1.840  1.00  0.00     0.040 A 
ATOM     22  C   UNL     1       1.867   3.078   3.728  1.00  0.00     0.044 A 
ATOM     23  C   UNL     1       2.815   2.053   3.751  1.00  0.00     0.040 A 
BRANCH  19  24
ATOM     24  N   UNL     1      -0.025   2.259   0.654  1.00  0.00    -0.326 N 
ATOM     25  C   UNL     1      -0.223  -0.034  -0.325  1.00  0.00     0.114 C 
ATOM     26  C   UNL     1      -0.427   1.454  -0.371  1.00  0.00     0.221 C 
ATOM     27  O   UNL     1      -1.005   1.966  -1.333  1.00  0.00    -0.275 OA
ATOM     28  H   UNL     1      -0.443   3.150   0.637  1.00  0.00     0.169 HD
ENDBRANCH  19  24
BRANCH  22  29
ATOM     29  N   UNL     1       1.920   4.036   4.766  1.00  0.00    -0.326 N 
ATOM     30  C   UNL     1       1.032   5.074   4.987  1.00  0.00     0.221 C 
ATOM     31  H   UNL     1       2.669   3.956   5.399  1.00  0.00     0.169 HD
ATOM     32  C   UNL     1       1.361   5.888   6.214  1.00  0.00     0.114 C 
ATOM     33  O   UNL     1       0.043   5.348   4.315  1.00  0.00    -0.275 OA
ENDBRANCH  22  29
ENDBRANCH  15  18
ENDBRANCH   8  14
ENDBRANCH   4   7
ENDBRANCH   2   3
ENDBRANCH   1   2
BRANCH   1  34
ATOM     34  C   UNL     1       8.026   2.926   3.154  1.00  0.00     0.023 C 
BRANCH  34  35
ATOM     35  C   UNL     1       7.255   2.418   4.371  1.00  0.00     0.116 C 
BRANCH  35  36
ATOM     36  N   UNL     1       7.652   1.097   4.821  1.00  0.00    -0.352 N 
ATOM     37  C   UNL     1       8.209   0.680   6.012  1.00  0.00     0.251 C 
ATOM     38  H   UNL     1       7.499   0.377   4.166  1.00  0.00     0.163 HD
ATOM     39  O   UNL     1       8.568  -0.481   6.147  1.00  0.00    -0.269 OA
BRANCH  37  40
ATOM     40  C   UNL     1       8.409   1.641   7.120  1.00  0.00     0.039 A 
ATOM     41  C   UNL     1       9.626   1.630   7.806  1.00  0.00     0.014 A 
ATOM     42  C   UNL     1       7.408   2.540   7.494  1.00  0.00     0.014 A 
ATOM     43  C   UNL     1       9.871   2.578   8.803  1.00  0.00     0.010 A 
ATOM     44  C   UNL     1       7.685   3.540   8.424  1.00  0.00     0.010 A 
ATOM     45  C   UNL     1       8.919   3.571   9.089  1.00  0.00    -0.014 A 
BRANCH  45  46
ATOM     46  C   UNL     1       9.210   4.646  10.075  1.00  0.00     0.031 A 
ATOM     47  C   UNL     1       8.384   4.784  11.325  1.00  0.00     0.074 A 
ATOM     48  C   UNL     1      10.188   5.538   9.818  1.00  0.00     0.049 A 
ATOM     49  N   UNL     1       8.482   5.666  12.288  1.00  0.00    -0.248 NA
ATOM     50  C   UNL     1       7.282   3.825  11.501  1.00  0.00     0.031 C 
ATOM     51  C   UNL     1      11.014   5.566   8.610  1.00  0.00     0.029 A 
ATOM     52  N   UNL     1      10.650   6.597  10.559  1.00  0.00    -0.354 N 
ATOM     53  C   UNL     1       7.450   5.378  13.172  1.00  0.00     0.074 A 
ATOM     54  C   UNL     1       6.700   4.281  12.600  1.00  0.00     0.031 C 
ATOM     55  C   UNL     1      11.904   6.566   8.708  1.00  0.00     0.029 A 
ATOM     56  C   UNL     1      11.696   7.266   9.971  1.00  0.00     0.049 A 
ATOM     57  H   UNL     1      10.269   6.852  11.430  1.00  0.00     0.167 HD
ATOM     58  C   UNL     1       7.168   5.953  14.366  1.00  0.00     0.037 A 
ATOM     59  C   UNL     1      12.414   8.320  10.405  1.00  0.00     0.037 A 
ATOM     60  C   UNL     1       7.932   7.023  14.952  1.00  0.00     0.049 A 
ATOM     61  C   UNL     1      12.108   8.915  11.751  1.00  0.00     0.074 A 
ATOM     62  C   UNL     1       7.767   7.627  16.186  1.00  0.00     0.029 A 
ATOM     63  N   UNL     1       9.010   7.648  14.343  1.00  0.00    -0.354 N 
ATOM     64  N   UNL     1      11.181   8.578  12.614  1.00  0.00    -0.248 NA
ATOM     65  C   UNL     1      12.963  10.027  12.191  1.00  0.00     0.031 C 
ATOM     66  C   UNL     1       8.722   8.643  16.309  1.00  0.00     0.029 A 
ATOM     67  C   UNL     1       9.511   8.641  15.170  1.00  0.00     0.049 A 
ATOM     68  H   UNL     1       9.367   7.420  13.454  1.00  0.00     0.167 HD
ATOM     69  C   UNL     1      11.357   9.415  13.708  1.00  0.00     0.074 A 
ATOM     70  C   UNL     1      12.492  10.263  13.406  1.00  0.00     0.031 C 
ATOM     71  C   UNL     1      10.642   9.477  14.859  1.00  0.00     0.037 A 
BRANCH  58  72
ATOM     72  C   UNL     1       5.982   5.424  15.120  1.00  0.00     0.057 A 
ATOM     73  C   UNL     1       5.985   4.147  15.699  1.00  0.00     0.134 A 
ATOM     74  C   UNL     1       4.830   6.203  15.285  1.00  0.00     0.134 A 
ATOM     75  F   UNL     1       7.051   3.343  15.568  1.00  0.00    -0.206 F 
ATOM     76  C   UNL     1       4.873   3.651  16.383  1.00  0.00     0.040 A 
ATOM     77  C   UNL     1       3.723   5.729  15.992  1.00  0.00     0.040 A 
ATOM     78  F   UNL     1       4.761   7.436  14.762  1.00  0.00    -0.206 F 
ATOM     79  C   UNL     1       3.740   4.446  16.536  1.00  0.00     0.006 A 
ENDBRANCH  58  72
BRANCH  59  80
ATOM     80  C   UNL     1      13.527   8.850   9.579  1.00  0.00     0.057 A 
ATOM     81  C   UNL     1      14.861   8.660   9.960  1.00  0.00     0.134 A 
ATOM     82  C   UNL     1      13.289   9.560   8.397  1.00  0.00     0.134 A 
ATOM     83  F   UNL     1      15.152   8.002  11.093  1.00  0.00    -0.206 F 
ATOM     84  C   UNL     1      15.918   9.176   9.209  1.00  0.00     0.040 A 
ATOM     85  C   UNL     1      14.337  10.060   7.622  1.00  0.00     0.040 A 
ATOM     86  F   UNL     1      12.034   9.767   7.973  1.00  0.00    -0.206 F 
ATOM     87  C   UNL     1      15.656   9.875   8.032  1.00  0.00     0.006 A 
ENDBRANCH  59  80
BRANCH  71  88
ATOM     88  C   UNL     1      11.092  10.473  15.888  1.00  0.00     0.057 A 
ATOM     89  C   UNL     1      10.924  11.852  15.708  1.00  0.00     0.134 A 
ATOM     90  C   UNL     1      11.692  10.044  17.079  1.00  0.00     0.134 A 
ATOM     91  F   UNL     1      10.368  12.328  14.584  1.00  0.00    -0.206 F 
ATOM     92  C   UNL     1      11.366  12.771  16.661  1.00  0.00     0.040 A 
ATOM     93  C   UNL     1      12.113  10.952  18.051  1.00  0.00     0.040 A 
ATOM     94  F   UNL     1      11.875   8.737  17.318  1.00  0.00    -0.206 F 
ATOM     95  C   UNL     1      11.959  12.321  17.839  1.00  0.00     0.006 A 
ENDBRANCH  71  88
ENDBRANCH  45  46
ENDBRANCH  37  40
ENDBRANCH  35  36
ENDBRANCH  34  35
ENDBRANCH   1  34
TORSDOF 15
