REMARK SMILES O=C(CCOc1cc(-c2ccncc2)nc(-c2ccc(C(F)(F)F)cc2)n1)NCCCCNC(=O)c1ccc(-c2c3nc(c(-c4c(F)cccc4F)c4ccc([nH]4)c(-c4c(F)cccc4F)c4nc(c(-c5c(F)cccc5F)c5ccc2[nH]5)C=C4)C=C3)cc1
REMARK SMILES IDX 29 1 28 2 1 3 2 4 3 6 4 7 5 8 6 9 7 10 27 11 8 12 16 13
REMARK SMILES IDX 15 14 9 15 10 16 14 17 11 18 13 19 12 20 17 21 18 22 26 23
REMARK SMILES IDX 19 24 25 25 20 26 21 27 22 28 23 29 24 30 30 31 31 32 32 33
REMARK SMILES IDX 33 34 34 35 35 37 36 38 37 39 89 40 38 41 88 42 39 43 40 44
REMARK SMILES IDX 41 45 82 46 42 47 87 48 81 49 83 50 43 51 86 52 80 53 79 54
REMARK SMILES IDX 44 56 70 57 53 58 69 59 54 60 57 61 68 62 84 63 55 64 56 65
REMARK SMILES IDX 67 67 85 68 58 69 45 70 46 71 51 72 47 73 48 74 50 75 52 76
REMARK SMILES IDX 49 77 71 78 72 79 77 80 73 81 74 82 76 83 78 84 75 85 59 86
REMARK SMILES IDX 60 87 65 88 61 89 62 90 64 91 66 92 63 93
REMARK H PARENT 28 5 33 36 83 55 57 66
REMARK Flexibility Score: inf
ROOT
ATOM      1  C   UNL     1       2.985  -2.462  -0.842  1.00  0.00     0.116 C 
ENDROOT
BRANCH   1   2
ATOM      2  N   UNL     1       3.652  -1.198  -1.043  1.00  0.00    -0.356 N 
ATOM      3  O   UNL     1       1.710   0.033  -1.140  1.00  0.00    -0.275 OA
ATOM      4  C   UNL     1       2.938  -0.019  -1.122  1.00  0.00     0.223 C 
ATOM      5  H   UNL     1       4.633  -1.176  -1.125  1.00  0.00     0.163 HD
BRANCH   4   6
ATOM      6  C   UNL     1       3.777   1.228  -1.007  1.00  0.00     0.141 C 
BRANCH   6   7
ATOM      7  C   UNL     1       3.730   1.714   0.442  1.00  0.00     0.241 C 
BRANCH   7   8
ATOM      8  O   UNL     1       4.409   0.783   1.288  1.00  0.00    -0.477 OA
BRANCH   8   9
ATOM      9  C   UNL     1       3.686   0.320   2.358  1.00  0.00     0.217 A 
ATOM     10  C   UNL     1       2.518  -0.394   2.205  1.00  0.00     0.097 A 
ATOM     11  N   UNL     1       4.353   0.378   3.516  1.00  0.00    -0.193 NA
ATOM     12  C   UNL     1       2.061  -1.096   3.306  1.00  0.00     0.078 A 
ATOM     13  C   UNL     1       3.822  -0.303   4.546  1.00  0.00     0.163 A 
ATOM     14  N   UNL     1       2.701  -1.046   4.487  1.00  0.00    -0.228 NA
BRANCH  12  15
ATOM     15  C   UNL     1       0.912  -2.018   3.236  1.00  0.00     0.003 A 
ATOM     16  C   UNL     1       0.792  -2.965   2.212  1.00  0.00     0.030 A 
ATOM     17  C   UNL     1      -0.099  -2.006   4.197  1.00  0.00     0.030 A 
ATOM     18  C   UNL     1      -0.321  -3.786   2.142  1.00  0.00     0.111 A 
ATOM     19  C   UNL     1      -1.176  -2.872   4.057  1.00  0.00     0.111 A 
ATOM     20  N   UNL     1      -1.318  -3.749   3.040  1.00  0.00    -0.265 NA
ENDBRANCH  12  15
BRANCH  13  21
ATOM     21  C   UNL     1       4.650  -0.414   5.752  1.00  0.00     0.019 A 
ATOM     22  C   UNL     1       5.398   0.673   6.233  1.00  0.00     0.012 A 
ATOM     23  C   UNL     1       4.781  -1.645   6.416  1.00  0.00     0.012 A 
ATOM     24  C   UNL     1       6.274   0.525   7.315  1.00  0.00     0.014 A 
ATOM     25  C   UNL     1       5.678  -1.806   7.475  1.00  0.00     0.014 A 
ATOM     26  C   UNL     1       6.444  -0.725   7.926  1.00  0.00     0.056 A 
BRANCH  26  27
ATOM     27  C   UNL     1       7.423  -0.895   9.060  1.00  0.00     0.416 C 
ATOM     28  F   UNL     1       8.591  -0.222   8.853  1.00  0.00    -0.166 F 
ATOM     29  F   UNL     1       6.936  -0.447  10.247  1.00  0.00    -0.166 F 
ATOM     30  F   UNL     1       7.785  -2.193   9.267  1.00  0.00    -0.166 F 
ENDBRANCH  26  27
ENDBRANCH  13  21
ENDBRANCH   8   9
ENDBRANCH   7   8
ENDBRANCH   6   7
ENDBRANCH   4   6
ENDBRANCH   1   2
BRANCH   1  31
ATOM     31  C   UNL     1       3.800  -3.591  -0.178  1.00  0.00     0.023 C 
BRANCH  31  32
ATOM     32  C   UNL     1       5.113  -3.289   0.553  1.00  0.00     0.023 C 
BRANCH  32  33
ATOM     33  C   UNL     1       5.185  -3.139   2.078  1.00  0.00     0.116 C 
BRANCH  33  34
ATOM     34  N   UNL     1       4.501  -4.109   2.916  1.00  0.00    -0.352 N 
ATOM     35  C   UNL     1       4.883  -4.701   4.109  1.00  0.00     0.251 C 
ATOM     36  H   UNL     1       3.620  -4.393   2.581  1.00  0.00     0.163 HD
ATOM     37  O   UNL     1       4.058  -5.388   4.712  1.00  0.00    -0.269 OA
BRANCH  35  38
ATOM     38  C   UNL     1       6.263  -4.601   4.668  1.00  0.00     0.039 A 
ATOM     39  C   UNL     1       6.795  -5.725   5.324  1.00  0.00     0.014 A 
ATOM     40  C   UNL     1       7.049  -3.453   4.575  1.00  0.00     0.014 A 
ATOM     41  C   UNL     1       8.137  -5.748   5.731  1.00  0.00     0.010 A 
ATOM     42  C   UNL     1       8.399  -3.489   4.925  1.00  0.00     0.010 A 
ATOM     43  C   UNL     1       8.968  -4.653   5.458  1.00  0.00    -0.014 A 
BRANCH  43  44
ATOM     44  C   UNL     1      10.448  -4.739   5.552  1.00  0.00     0.031 A 
ATOM     45  C   UNL     1      11.222  -3.909   6.533  1.00  0.00     0.074 A 
ATOM     46  C   UNL     1      11.098  -5.441   4.602  1.00  0.00     0.049 A 
ATOM     47  N   UNL     1      12.517  -3.757   6.651  1.00  0.00    -0.248 NA
ATOM     48  C   UNL     1      10.432  -3.122   7.488  1.00  0.00     0.031 C 
ATOM     49  C   UNL     1      10.452  -6.215   3.539  1.00  0.00     0.029 A 
ATOM     50  N   UNL     1      12.438  -5.575   4.341  1.00  0.00    -0.354 N 
ATOM     51  C   UNL     1      12.699  -2.861   7.698  1.00  0.00     0.074 A 
ATOM     52  C   UNL     1      11.379  -2.462   8.142  1.00  0.00     0.031 C 
ATOM     53  C   UNL     1      11.393  -6.723   2.729  1.00  0.00     0.029 A 
ATOM     54  C   UNL     1      12.704  -6.294   3.200  1.00  0.00     0.049 A 
ATOM     55  H   UNL     1      13.141  -5.194   4.916  1.00  0.00     0.167 HD
ATOM     56  C   UNL     1      13.862  -2.427   8.245  1.00  0.00     0.037 A 
ATOM     57  C   UNL     1      13.873  -6.565   2.590  1.00  0.00     0.037 A 
ATOM     58  C   UNL     1      15.169  -2.813   7.773  1.00  0.00     0.049 A 
ATOM     59  C   UNL     1      15.149  -6.071   3.207  1.00  0.00     0.074 A 
ATOM     60  C   UNL     1      16.409  -2.483   8.292  1.00  0.00     0.029 A 
ATOM     61  N   UNL     1      15.403  -3.601   6.654  1.00  0.00    -0.354 N 
ATOM     62  N   UNL     1      15.313  -5.317   4.268  1.00  0.00    -0.248 NA
ATOM     63  C   UNL     1      16.401  -6.481   2.559  1.00  0.00     0.031 C 
ATOM     64  C   UNL     1      17.393  -3.028   7.457  1.00  0.00     0.029 A 
ATOM     65  C   UNL     1      16.766  -3.745   6.451  1.00  0.00     0.049 A 
ATOM     66  H   UNL     1      14.703  -3.999   6.088  1.00  0.00     0.167 HD
ATOM     67  C   UNL     1      16.685  -5.189   4.434  1.00  0.00     0.074 A 
ATOM     68  C   UNL     1      17.306  -5.953   3.370  1.00  0.00     0.031 C 
ATOM     69  C   UNL     1      17.369  -4.506   5.385  1.00  0.00     0.037 A 
BRANCH  56  70
ATOM     70  C   UNL     1      13.773  -1.492   9.420  1.00  0.00     0.057 A 
ATOM     71  C   UNL     1      13.288  -1.919  10.664  1.00  0.00     0.134 A 
ATOM     72  C   UNL     1      14.220  -0.168   9.328  1.00  0.00     0.134 A 
ATOM     73  F   UNL     1      12.843  -3.175  10.826  1.00  0.00    -0.206 F 
ATOM     74  C   UNL     1      13.223  -1.058  11.762  1.00  0.00     0.040 A 
ATOM     75  C   UNL     1      14.187   0.695  10.426  1.00  0.00     0.040 A 
ATOM     76  F   UNL     1      14.710   0.308   8.173  1.00  0.00    -0.206 F 
ATOM     77  C   UNL     1      13.679   0.253  11.646  1.00  0.00     0.006 A 
ENDBRANCH  56  70
BRANCH  57  78
ATOM     78  C   UNL     1      13.882  -7.383   1.351  1.00  0.00     0.057 A 
ATOM     79  C   UNL     1      14.342  -8.704   1.368  1.00  0.00     0.134 A 
ATOM     80  C   UNL     1      13.401  -6.882   0.135  1.00  0.00     0.134 A 
ATOM     81  F   UNL     1      14.825  -9.235   2.501  1.00  0.00    -0.206 F 
ATOM     82  C   UNL     1      14.338  -9.495   0.218  1.00  0.00     0.040 A 
ATOM     83  C   UNL     1      13.369  -7.669  -1.017  1.00  0.00     0.040 A 
ATOM     84  F   UNL     1      12.931  -5.628   0.056  1.00  0.00    -0.206 F 
ATOM     85  C   UNL     1      13.844  -8.979  -0.978  1.00  0.00     0.006 A 
ENDBRANCH  57  78
BRANCH  69  86
ATOM     86  C   UNL     1      18.867  -4.582   5.333  1.00  0.00     0.057 A 
ATOM     87  C   UNL     1      19.609  -3.930   4.341  1.00  0.00     0.134 A 
ATOM     88  C   UNL     1      19.576  -5.298   6.307  1.00  0.00     0.134 A 
ATOM     89  F   UNL     1      18.990  -3.241   3.371  1.00  0.00    -0.206 F 
ATOM     90  C   UNL     1      21.003  -4.009   4.303  1.00  0.00     0.040 A 
ATOM     91  C   UNL     1      20.970  -5.360   6.296  1.00  0.00     0.040 A 
ATOM     92  F   UNL     1      18.927  -5.940   7.289  1.00  0.00    -0.206 F 
ATOM     93  C   UNL     1      21.687  -4.720   5.287  1.00  0.00     0.006 A 
ENDBRANCH  69  86
ENDBRANCH  43  44
ENDBRANCH  35  38
ENDBRANCH  33  34
ENDBRANCH  32  33
ENDBRANCH  31  32
ENDBRANCH   1  31
TORSDOF 17
