REMARK SMILES Cc1cc(C(=O)N2C[C@@H](C(=O)NCCCCNC(=O)c3ccc(-c4c5nc(c(-c6c(F)cccc6F)c6ccc([nH]6)c(-c6c(F)cccc6F)c6nc(c(-c7c(F)cccc7F)c7ccc4[nH]7)C=C6)C=C5)cc3)[C@H](C3CC3)C2)sc1C
REMARK SMILES IDX 14 1 13 2 12 3 10 4 11 5 9 7 7 8 8 9 78 10 74 11 5 12 6 13
REMARK SMILES IDX 4 14 1 15 2 16 3 17 80 18 79 19 81 20 75 21 76 22 77 23
REMARK SMILES IDX 15 24 16 25 17 26 18 27 19 29 20 30 21 31 73 32 22 33 72 34
REMARK SMILES IDX 23 35 24 36 25 37 66 38 26 39 71 40 65 41 67 42 27 43 70 44
REMARK SMILES IDX 64 45 63 46 28 48 54 49 37 50 53 51 38 52 41 53 52 54 68 55
REMARK SMILES IDX 39 56 40 57 51 59 69 60 42 61 29 62 30 63 35 64 31 65 32 66
REMARK SMILES IDX 34 67 36 68 33 69 55 70 56 71 61 72 57 73 58 74 60 75 62 76
REMARK SMILES IDX 59 77 43 78 44 79 49 80 45 81 46 82 48 83 50 84 47 85
REMARK H PARENT 12 6 17 28 67 47 41 58
REMARK Flexibility Score: inf
ROOT
ATOM      1  C   UNL     1       6.222   3.792  -0.065  1.00  0.00     0.023 C 
ENDROOT
BRANCH   1   2
ATOM      2  C   UNL     1       6.315   2.327  -0.473  1.00  0.00     0.116 C 
BRANCH   2   3
ATOM      3  N   UNL     1       6.653   1.431   0.617  1.00  0.00    -0.356 N 
ATOM      4  C   UNL     1       6.282   0.129   0.811  1.00  0.00     0.225 C 
ATOM      5  O   UNL     1       6.818  -0.490   1.732  1.00  0.00    -0.275 OA
ATOM      6  H   UNL     1       7.231   1.814   1.315  1.00  0.00     0.163 HD
BRANCH   4   7
ATOM      7  C   UNL     1       5.227  -0.508  -0.070  1.00  0.00     0.103 C 
ATOM      8  N   UNL     1       3.506  -2.053  -0.117  1.00  0.00    -0.337 N 
ATOM      9  C   UNL     1       4.149  -1.140   0.806  1.00  0.00     0.133 C 
ATOM     10  C   UNL     1       4.508  -2.659  -0.966  1.00  0.00     0.124 C 
ATOM     11  C   UNL     1       5.737  -1.717  -0.894  1.00  0.00     0.026 C 
BRANCH   8  12
ATOM     12  C   UNL     1       2.167  -2.345  -0.320  1.00  0.00     0.263 C 
ATOM     13  O   UNL     1       1.867  -3.442  -0.801  1.00  0.00    -0.268 OA
BRANCH  12  14
ATOM     14  C   UNL     1       1.135  -1.343  -0.064  1.00  0.00     0.093 A 
ATOM     15  C   UNL     1      -2.524  -0.456   0.165  1.00  0.00     0.045 C 
ATOM     16  C   UNL     1      -1.032  -0.419   0.100  1.00  0.00    -0.037 A 
ATOM     17  C   UNL     1      -0.216  -1.600   0.091  1.00  0.00     0.029 A 
ATOM     18  C   UNL     1      -0.249   0.718   0.002  1.00  0.00     0.005 A 
ATOM     19  S   UNL     1       1.402   0.339  -0.204  1.00  0.00    -0.135 S 
ATOM     20  C   UNL     1      -0.679   2.148  -0.007  1.00  0.00     0.056 C 
ENDBRANCH  12  14
ENDBRANCH   8  12
BRANCH  11  21
ATOM     21  C   UNL     1       6.263  -1.450  -2.288  1.00  0.00    -0.005 C 
ATOM     22  C   UNL     1       6.008  -0.192  -3.082  1.00  0.00     0.004 C 
ATOM     23  C   UNL     1       7.383  -0.475  -2.537  1.00  0.00     0.004 C 
ENDBRANCH  11  21
ENDBRANCH   4   7
ENDBRANCH   2   3
ENDBRANCH   1   2
BRANCH   1  24
ATOM     24  C   UNL     1       7.510   4.427   0.456  1.00  0.00     0.023 C 
BRANCH  24  25
ATOM     25  C   UNL     1       8.757   4.221  -0.399  1.00  0.00     0.116 C 
BRANCH  25  26
ATOM     26  N   UNL     1       8.625   4.722  -1.760  1.00  0.00    -0.352 N 
ATOM     27  C   UNL     1       9.346   5.686  -2.428  1.00  0.00     0.251 C 
ATOM     28  H   UNL     1       7.906   4.304  -2.287  1.00  0.00     0.163 HD
ATOM     29  O   UNL     1       9.016   6.029  -3.556  1.00  0.00    -0.269 OA
BRANCH  27  30
ATOM     30  C   UNL     1      10.488   6.351  -1.763  1.00  0.00     0.039 A 
ATOM     31  C   UNL     1      10.548   7.747  -1.772  1.00  0.00     0.014 A 
ATOM     32  C   UNL     1      11.469   5.611  -1.099  1.00  0.00     0.014 A 
ATOM     33  C   UNL     1      11.521   8.402  -1.013  1.00  0.00     0.010 A 
ATOM     34  C   UNL     1      12.390   6.263  -0.284  1.00  0.00     0.010 A 
ATOM     35  C   UNL     1      12.407   7.665  -0.210  1.00  0.00    -0.014 A 
BRANCH  35  36
ATOM     36  C   UNL     1      13.302   8.338   0.765  1.00  0.00     0.031 A 
ATOM     37  C   UNL     1      14.795   8.232   0.640  1.00  0.00     0.074 A 
ATOM     38  C   UNL     1      12.760   8.975   1.823  1.00  0.00     0.049 A 
ATOM     39  N   UNL     1      15.724   8.681   1.444  1.00  0.00    -0.248 NA
ATOM     40  C   UNL     1      15.311   7.504  -0.529  1.00  0.00     0.031 C 
ATOM     41  C   UNL     1      11.326   9.101   2.093  1.00  0.00     0.029 A 
ATOM     42  N   UNL     1      13.352   9.624   2.879  1.00  0.00    -0.354 N 
ATOM     43  C   UNL     1      16.932   8.282   0.888  1.00  0.00     0.074 A 
ATOM     44  C   UNL     1      16.616   7.514  -0.298  1.00  0.00     0.031 C 
ATOM     45  C   UNL     1      11.150   9.800   3.225  1.00  0.00     0.029 A 
ATOM     46  C   UNL     1      12.454  10.138   3.784  1.00  0.00     0.049 A 
ATOM     47  H   UNL     1      14.328   9.712   2.978  1.00  0.00     0.167 HD
ATOM     48  C   UNL     1      18.189   8.549   1.315  1.00  0.00     0.037 A 
ATOM     49  C   UNL     1      12.657  10.798   4.939  1.00  0.00     0.037 A 
ATOM     50  C   UNL     1      18.504   9.329   2.482  1.00  0.00     0.049 A 
ATOM     51  C   UNL     1      14.062  11.070   5.395  1.00  0.00     0.074 A 
ATOM     52  C   UNL     1      19.748   9.712   2.954  1.00  0.00     0.029 A 
ATOM     53  N   UNL     1      17.567   9.842   3.366  1.00  0.00    -0.354 N 
ATOM     54  N   UNL     1      15.194  10.750   4.818  1.00  0.00    -0.248 NA
ATOM     55  C   UNL     1      14.218  11.796   6.664  1.00  0.00     0.031 C 
ATOM     56  C   UNL     1      19.566  10.421   4.146  1.00  0.00     0.029 A 
ATOM     57  C   UNL     1      18.207  10.516   4.395  1.00  0.00     0.049 A 
ATOM     58  H   UNL     1      16.592   9.743   3.277  1.00  0.00     0.167 HD
ATOM     59  C   UNL     1      16.195  11.250   5.640  1.00  0.00     0.074 A 
ATOM     60  C   UNL     1      15.536  11.912   6.748  1.00  0.00     0.031 C 
ATOM     61  C   UNL     1      17.539  11.167   5.492  1.00  0.00     0.037 A 
BRANCH  48  62
ATOM     62  C   UNL     1      19.326   7.995   0.506  1.00  0.00     0.057 A 
ATOM     63  C   UNL     1      19.651   8.511  -0.755  1.00  0.00     0.134 A 
ATOM     64  C   UNL     1      20.129   6.965   1.011  1.00  0.00     0.134 A 
ATOM     65  F   UNL     1      18.914   9.491  -1.299  1.00  0.00    -0.206 F 
ATOM     66  C   UNL     1      20.723   8.008  -1.495  1.00  0.00     0.040 A 
ATOM     67  C   UNL     1      21.218   6.470   0.291  1.00  0.00     0.040 A 
ATOM     68  F   UNL     1      19.876   6.430   2.215  1.00  0.00    -0.206 F 
ATOM     69  C   UNL     1      21.514   6.989  -0.969  1.00  0.00     0.006 A 
ENDBRANCH  48  62
BRANCH  49  70
ATOM     70  C   UNL     1      11.499  11.260   5.744  1.00  0.00     0.057 A 
ATOM     71  C   UNL     1      11.187  12.621   5.840  1.00  0.00     0.134 A 
ATOM     72  C   UNL     1      10.685  10.360   6.442  1.00  0.00     0.134 A 
ATOM     73  F   UNL     1      11.942  13.532   5.210  1.00  0.00    -0.206 F 
ATOM     74  C   UNL     1      10.117  13.073   6.615  1.00  0.00     0.040 A 
ATOM     75  C   UNL     1       9.598  10.796   7.202  1.00  0.00     0.040 A 
ATOM     76  F   UNL     1      10.929   9.042   6.385  1.00  0.00    -0.206 F 
ATOM     77  C   UNL     1       9.316  12.157   7.295  1.00  0.00     0.006 A 
ENDBRANCH  49  70
BRANCH  61  78
ATOM     78  C   UNL     1      18.384  11.822   6.544  1.00  0.00     0.057 A 
ATOM     79  C   UNL     1      18.525  11.270   7.823  1.00  0.00     0.134 A 
ATOM     80  C   UNL     1      19.090  12.999   6.264  1.00  0.00     0.134 A 
ATOM     81  F   UNL     1      17.863  10.152   8.158  1.00  0.00    -0.206 F 
ATOM     82  C   UNL     1      19.323  11.877   8.795  1.00  0.00     0.040 A 
ATOM     83  C   UNL     1      19.909  13.602   7.219  1.00  0.00     0.040 A 
ATOM     84  F   UNL     1      19.003  13.575   5.056  1.00  0.00    -0.206 F 
ATOM     85  C   UNL     1      20.023  13.043   8.491  1.00  0.00     0.006 A 
ENDBRANCH  61  78
ENDBRANCH  35  36
ENDBRANCH  27  30
ENDBRANCH  25  26
ENDBRANCH  24  25
ENDBRANCH   1  24
TORSDOF 14
