REMARK SMILES CCOc1cc2c(cc1OCC)[C@@H](C(=O)NCCCCNC(=O)c1ccc(-c3c4nc(c(-c5c(F)cccc5F)c5ccc([nH]5)c(-c5c(F)cccc5F)c5nc(c(-c6c(F)cccc6F)c6ccc3[nH]6)C=C5)C=C4)cc1)[C@H](c1ccc(F)cc1Cl)N(C)C2=O
REMARK SMILES IDX 18 1 17 2 16 3 14 4 15 5 13 7 4 8 5 9 9 10 6 11 8 12 7 13
REMARK SMILES IDX 89 14 87 15 90 16 78 17 88 18 3 19 2 20 1 21 10 22 11 23
REMARK SMILES IDX 12 24 79 25 80 26 85 27 81 28 84 29 86 30 82 31 83 32 19 33
REMARK SMILES IDX 20 34 21 35 22 36 23 38 24 39 25 40 77 41 26 42 76 43 27 44
REMARK SMILES IDX 28 45 29 46 70 47 30 48 75 49 69 50 71 51 31 52 74 53 68 54
REMARK SMILES IDX 67 55 32 57 58 58 41 59 57 60 42 61 45 62 56 63 72 64 43 65
REMARK SMILES IDX 44 66 55 68 73 69 46 70 33 71 34 72 39 73 35 74 36 75 38 76
REMARK SMILES IDX 40 77 37 78 59 79 60 80 65 81 61 82 62 83 64 84 66 85 63 86
REMARK SMILES IDX 47 87 48 88 53 89 49 90 50 91 52 92 54 93 51 94
REMARK H PARENT 16 6 21 37 71 56 45 67
REMARK Flexibility Score: inf
ROOT
ATOM      1  C   UNL     1       7.616   0.657   0.410  1.00  0.00     0.023 C 
ENDROOT
BRANCH   1   2
ATOM      2  C   UNL     1       6.880   1.518  -0.618  1.00  0.00     0.116 C 
BRANCH   2   3
ATOM      3  N   UNL     1       7.534   1.451  -1.912  1.00  0.00    -0.355 N 
ATOM      4  C   UNL     1       7.421   0.618  -2.974  1.00  0.00     0.230 C 
ATOM      5  O   UNL     1       8.281   0.770  -3.856  1.00  0.00    -0.274 OA
ATOM      6  H   UNL     1       8.202   2.161  -2.046  1.00  0.00     0.163 HD
BRANCH   4   7
ATOM      7  C   UNL     1       6.389  -0.490  -3.164  1.00  0.00     0.136 C 
ATOM      8  C   UNL     1       2.233   0.034  -2.162  1.00  0.00     0.161 A 
ATOM      9  C   UNL     1       3.093  -0.669  -1.307  1.00  0.00     0.064 A 
ATOM     10  C   UNL     1       2.723   0.591  -3.349  1.00  0.00     0.161 A 
ATOM     11  C   UNL     1       4.449  -0.791  -1.606  1.00  0.00     0.048 A 
ATOM     12  C   UNL     1       4.095   0.480  -3.626  1.00  0.00     0.056 A 
ATOM     13  C   UNL     1       4.960  -0.219  -2.772  1.00  0.00    -0.016 A 
ATOM     14  C   UNL     1       5.351  -1.506  -0.663  1.00  0.00     0.254 C 
ATOM     15  N   UNL     1       6.565  -1.959  -1.179  1.00  0.00    -0.333 N 
ATOM     16  O   UNL     1       5.019  -1.615   0.513  1.00  0.00    -0.269 OA
ATOM     17  C   UNL     1       6.855  -1.873  -2.611  1.00  0.00     0.134 C 
ATOM     18  C   UNL     1       7.526  -2.637  -0.319  1.00  0.00     0.147 C 
BRANCH   8  19
ATOM     19  O   UNL     1       0.903   0.046  -1.839  1.00  0.00    -0.490 OA
BRANCH  19  20
ATOM     20  C   UNL     1       0.600   0.947  -0.765  1.00  0.00     0.226 C 
ATOM     21  C   UNL     1       0.530   0.224   0.569  1.00  0.00     0.049 C 
ENDBRANCH  19  20
ENDBRANCH   8  19
BRANCH  10  22
ATOM     22  O   UNL     1       2.054   1.238  -4.350  1.00  0.00    -0.490 OA
BRANCH  22  23
ATOM     23  C   UNL     1       0.634   1.335  -4.346  1.00  0.00     0.226 C 
ATOM     24  C   UNL     1      -0.030   0.056  -4.827  1.00  0.00     0.049 C 
ENDBRANCH  22  23
ENDBRANCH  10  22
BRANCH  17  25
ATOM     25  C   UNL     1       6.300  -3.040  -3.473  1.00  0.00    -0.005 A 
ATOM     26  C   UNL     1       6.691  -3.019  -4.839  1.00  0.00     0.010 A 
ATOM     27  C   UNL     1       5.433  -4.088  -3.084  1.00  0.00     0.049 A 
ATOM     28  C   UNL     1       6.176  -3.919  -5.774  1.00  0.00     0.040 A 
ATOM     29  C   UNL     1       4.928  -4.994  -4.029  1.00  0.00     0.060 A 
ATOM     30  Cl  UNL     1       4.903  -4.434  -1.477  1.00  0.00    -0.084 Cl
ATOM     31  C   UNL     1       5.287  -4.891  -5.360  1.00  0.00     0.124 A 
ATOM     32  F   UNL     1       4.776  -5.750  -6.251  1.00  0.00    -0.207 F 
ENDBRANCH  17  25
ENDBRANCH   4   7
ENDBRANCH   2   3
ENDBRANCH   1   2
BRANCH   1  33
ATOM     33  C   UNL     1       8.312   1.422   1.526  1.00  0.00     0.023 C 
BRANCH  33  34
ATOM     34  C   UNL     1       7.368   2.179   2.446  1.00  0.00     0.116 C 
BRANCH  34  35
ATOM     35  N   UNL     1       6.445   1.342   3.199  1.00  0.00    -0.352 N 
ATOM     36  C   UNL     1       5.937   1.578   4.463  1.00  0.00     0.251 C 
ATOM     37  H   UNL     1       6.150   0.513   2.758  1.00  0.00     0.163 HD
ATOM     38  O   UNL     1       5.209   0.777   5.021  1.00  0.00    -0.269 OA
BRANCH  36  39
ATOM     39  C   UNL     1       6.346   2.820   5.159  1.00  0.00     0.039 A 
ATOM     40  C   UNL     1       6.884   2.732   6.444  1.00  0.00     0.014 A 
ATOM     41  C   UNL     1       6.287   4.048   4.498  1.00  0.00     0.014 A 
ATOM     42  C   UNL     1       7.443   3.868   7.033  1.00  0.00     0.010 A 
ATOM     43  C   UNL     1       6.932   5.150   5.042  1.00  0.00     0.010 A 
ATOM     44  C   UNL     1       7.511   5.075   6.318  1.00  0.00    -0.014 A 
BRANCH  44  45
ATOM     45  C   UNL     1       8.149   6.287   6.890  1.00  0.00     0.031 A 
ATOM     46  C   UNL     1       7.327   7.530   7.093  1.00  0.00     0.074 A 
ATOM     47  C   UNL     1       9.472   6.301   7.145  1.00  0.00     0.049 A 
ATOM     48  N   UNL     1       7.708   8.725   7.468  1.00  0.00    -0.248 NA
ATOM     49  C   UNL     1       5.890   7.428   6.787  1.00  0.00     0.031 C 
ATOM     50  C   UNL     1      10.394   5.185   6.929  1.00  0.00     0.029 A 
ATOM     51  N   UNL     1      10.273   7.302   7.635  1.00  0.00    -0.354 N 
ATOM     52  C   UNL     1       6.569   9.518   7.407  1.00  0.00     0.074 A 
ATOM     53  C   UNL     1       5.499   8.687   6.902  1.00  0.00     0.031 C 
ATOM     54  C   UNL     1      11.628   5.552   7.314  1.00  0.00     0.029 A 
ATOM     55  C   UNL     1      11.590   6.936   7.775  1.00  0.00     0.049 A 
ATOM     56  H   UNL     1       9.936   8.198   7.865  1.00  0.00     0.167 HD
ATOM     57  C   UNL     1       6.418  10.814   7.767  1.00  0.00     0.037 A 
ATOM     58  C   UNL     1      12.644   7.639   8.231  1.00  0.00     0.037 A 
ATOM     59  C   UNL     1       7.467  11.621   8.327  1.00  0.00     0.049 A 
ATOM     60  C   UNL     1      12.437   9.056   8.691  1.00  0.00     0.074 A 
ATOM     61  C   UNL     1       7.404  12.925   8.784  1.00  0.00     0.029 A 
ATOM     62  N   UNL     1       8.770  11.189   8.522  1.00  0.00    -0.354 N 
ATOM     63  N   UNL     1      11.343   9.778   8.679  1.00  0.00    -0.248 NA
ATOM     64  C   UNL     1      13.610   9.751   9.241  1.00  0.00     0.031 C 
ATOM     65  C   UNL     1       8.676  13.288   9.241  1.00  0.00     0.029 A 
ATOM     66  C   UNL     1       9.520  12.199   9.098  1.00  0.00     0.049 A 
ATOM     67  H   UNL     1       9.111  10.296   8.286  1.00  0.00     0.167 HD
ATOM     68  C   UNL     1      11.684  10.996   9.252  1.00  0.00     0.074 A 
ATOM     69  C   UNL     1      13.086  10.913   9.606  1.00  0.00     0.031 C 
ATOM     70  C   UNL     1      10.908  12.086   9.466  1.00  0.00     0.037 A 
BRANCH  57  71
ATOM     71  C   UNL     1       5.059  11.422   7.581  1.00  0.00     0.057 A 
ATOM     72  C   UNL     1       3.968  11.048   8.377  1.00  0.00     0.134 A 
ATOM     73  C   UNL     1       4.838  12.394   6.598  1.00  0.00     0.134 A 
ATOM     74  F   UNL     1       4.109  10.108   9.324  1.00  0.00    -0.206 F 
ATOM     75  C   UNL     1       2.698  11.591   8.178  1.00  0.00     0.040 A 
ATOM     76  C   UNL     1       3.579  12.966   6.408  1.00  0.00     0.040 A 
ATOM     77  F   UNL     1       5.840  12.801   5.803  1.00  0.00    -0.206 F 
ATOM     78  C   UNL     1       2.503  12.558   7.194  1.00  0.00     0.006 A 
ENDBRANCH  57  71
BRANCH  58  79
ATOM     79  C   UNL     1      13.980   7.001   8.329  1.00  0.00     0.057 A 
ATOM     80  C   UNL     1      14.522   6.660   9.575  1.00  0.00     0.134 A 
ATOM     81  C   UNL     1      14.752   6.730   7.194  1.00  0.00     0.134 A 
ATOM     82  F   UNL     1      13.836   6.912  10.699  1.00  0.00    -0.206 F 
ATOM     83  C   UNL     1      15.791   6.092   9.690  1.00  0.00     0.040 A 
ATOM     84  C   UNL     1      16.015   6.143   7.293  1.00  0.00     0.040 A 
ATOM     85  F   UNL     1      14.285   7.025   5.972  1.00  0.00    -0.206 F 
ATOM     86  C   UNL     1      16.541   5.829   8.546  1.00  0.00     0.006 A 
ENDBRANCH  58  79
BRANCH  70  87
ATOM     87  C   UNL     1      11.541  13.252  10.162  1.00  0.00     0.057 A 
ATOM     88  C   UNL     1      12.452  14.095   9.516  1.00  0.00     0.134 A 
ATOM     89  C   UNL     1      11.204  13.552  11.488  1.00  0.00     0.134 A 
ATOM     90  F   UNL     1      12.824  13.851   8.250  1.00  0.00    -0.206 F 
ATOM     91  C   UNL     1      13.024  15.186  10.172  1.00  0.00     0.040 A 
ATOM     92  C   UNL     1      11.752  14.653  12.147  1.00  0.00     0.040 A 
ATOM     93  F   UNL     1      10.331  12.787  12.160  1.00  0.00    -0.206 F 
ATOM     94  C   UNL     1      12.669  15.471  11.489  1.00  0.00     0.006 A 
ENDBRANCH  70  87
ENDBRANCH  44  45
ENDBRANCH  36  39
ENDBRANCH  34  35
ENDBRANCH  33  34
ENDBRANCH   1  33
TORSDOF 16
