REMARK SMILES O=C(CCN1C(=O)S/C(=C\c2ccc(F)cc2)C1=O)Nc1ccc(O)cc1C(=O)NCCCCNC(=O)c1ccc(-c2c3nc(c(-c4c(F)cccc4F)c4ccc([nH]4)c(-c4c(F)cccc4F)c4nc(c(-c5c(F)cccc5F)c5ccc2[nH]5)C=C4)C=C3)cc1
REMARK SMILES IDX 31 1 30 2 28 3 29 4 27 6 21 7 22 8 23 9 26 10 24 11 20 12
REMARK SMILES IDX 1 13 2 14 3 16 4 17 5 18 6 19 18 20 7 21 8 22 9 23 19 24
REMARK SMILES IDX 10 25 11 26 12 27 17 28 13 29 16 30 14 31 15 32 25 33 32 35
REMARK SMILES IDX 33 36 34 37 35 38 36 39 37 41 38 42 39 43 91 44 40 45 90 46
REMARK SMILES IDX 41 47 42 48 43 49 84 50 44 51 89 52 83 53 85 54 45 55 88 56
REMARK SMILES IDX 82 57 81 58 46 60 72 61 55 62 71 63 56 64 59 65 70 66 86 67
REMARK SMILES IDX 57 68 58 69 69 71 87 72 60 73 47 74 48 75 53 76 49 77 50 78
REMARK SMILES IDX 52 79 54 80 51 81 73 82 74 83 79 84 75 85 76 86 78 87 80 88
REMARK SMILES IDX 77 89 61 90 62 91 67 92 63 93 64 94 66 95 68 96 65 97
REMARK H PARENT 30 5 20 15 25 34 35 40 85 59 59 70
REMARK Flexibility Score: inf
ROOT
ATOM      1  C   UNL     1       2.784  -2.506  -0.806  1.00  0.00     0.116 C 
ENDROOT
BRANCH   1   2
ATOM      2  N   UNL     1       3.530  -2.418  -2.074  1.00  0.00    -0.352 N 
ATOM      3  C   UNL     1       3.387  -1.714  -3.255  1.00  0.00     0.253 C 
ATOM      4  O   UNL     1       4.259  -1.864  -4.113  1.00  0.00    -0.269 OA
ATOM      5  H   UNL     1       4.323  -3.002  -2.082  1.00  0.00     0.163 HD
BRANCH   3   6
ATOM      6  C   UNL     1       2.270  -0.771  -3.559  1.00  0.00     0.067 A 
ATOM      7  C   UNL     1       1.836   0.238  -2.688  1.00  0.00     0.054 A 
ATOM      8  C   UNL     1       0.752   1.060  -3.041  1.00  0.00     0.031 A 
ATOM      9  C   UNL     1       0.171   0.963  -4.304  1.00  0.00     0.048 A 
ATOM     10  C   UNL     1       1.704  -0.831  -4.846  1.00  0.00     0.062 A 
ATOM     11  C   UNL     1       0.675   0.039  -5.208  1.00  0.00     0.116 A 
BRANCH   7  12
ATOM     12  N   UNL     1       2.608   0.565  -1.564  1.00  0.00    -0.325 N 
ATOM     13  O   UNL     1       0.946   1.180  -0.090  1.00  0.00    -0.275 OA
ATOM     14  C   UNL     1       2.134   1.095  -0.390  1.00  0.00     0.226 C 
ATOM     15  H   UNL     1       3.577   0.398  -1.622  1.00  0.00     0.169 HD
BRANCH  14  16
ATOM     16  C   UNL     1       3.218   1.589   0.542  1.00  0.00     0.122 C 
BRANCH  16  17
ATOM     17  C   UNL     1       4.393   0.634   0.709  1.00  0.00     0.140 C 
BRANCH  17  18
ATOM     18  N   UNL     1       5.382   0.518  -0.371  1.00  0.00    -0.268 N 
ATOM     19  C   UNL     1       6.136   1.588  -0.787  1.00  0.00     0.293 C 
ATOM     20  C   UNL     1       5.841  -0.700  -0.797  1.00  0.00     0.268 C 
ATOM     21  O   UNL     1       6.030   2.730  -0.411  1.00  0.00    -0.261 OA
ATOM     22  S   UNL     1       7.353   1.057  -1.956  1.00  0.00    -0.022 SA
ATOM     23  C   UNL     1       6.945  -0.591  -1.770  1.00  0.00     0.083 C 
ATOM     24  O   UNL     1       5.430  -1.784  -0.422  1.00  0.00    -0.268 OA
ATOM     25  C   UNL     1       7.439  -1.702  -2.337  1.00  0.00     0.029 C 
BRANCH  25  26
ATOM     26  C   UNL     1       8.525  -1.834  -3.310  1.00  0.00    -0.024 A 
ATOM     27  C   UNL     1       9.800  -1.313  -3.059  1.00  0.00     0.011 A 
ATOM     28  C   UNL     1       8.304  -2.580  -4.479  1.00  0.00     0.011 A 
ATOM     29  C   UNL     1      10.823  -1.483  -3.994  1.00  0.00     0.040 A 
ATOM     30  C   UNL     1       9.330  -2.750  -5.412  1.00  0.00     0.040 A 
ATOM     31  C   UNL     1      10.576  -2.189  -5.165  1.00  0.00     0.123 A 
ATOM     32  F   UNL     1      11.557  -2.335  -6.066  1.00  0.00    -0.207 F 
ENDBRANCH  25  26
ENDBRANCH  17  18
ENDBRANCH  16  17
ENDBRANCH  14  16
ENDBRANCH   7  12
BRANCH  11  33
ATOM     33  O   UNL     1       0.189  -0.030  -6.480  1.00  0.00    -0.508 OA
ATOM     34  H   UNL     1      -0.502   0.542  -6.750  1.00  0.00     0.293 HD
ENDBRANCH  11  33
ENDBRANCH   3   6
ENDBRANCH   1   2
BRANCH   1  35
ATOM     35  C   UNL     1       3.190  -3.705   0.112  1.00  0.00     0.023 C 
BRANCH  35  36
ATOM     36  C   UNL     1       4.051  -3.758   1.440  1.00  0.00     0.023 C 
BRANCH  36  37
ATOM     37  C   UNL     1       5.495  -3.276   1.772  1.00  0.00     0.116 C 
BRANCH  37  38
ATOM     38  N   UNL     1       5.500  -1.946   2.388  1.00  0.00    -0.352 N 
ATOM     39  C   UNL     1       6.340  -1.334   3.282  1.00  0.00     0.251 C 
ATOM     40  H   UNL     1       4.750  -1.376   2.101  1.00  0.00     0.163 HD
ATOM     41  O   UNL     1       6.049  -0.251   3.776  1.00  0.00    -0.269 OA
BRANCH  39  42
ATOM     42  C   UNL     1       7.628  -1.954   3.598  1.00  0.00     0.039 A 
ATOM     43  C   UNL     1       7.913  -2.406   4.889  1.00  0.00     0.014 A 
ATOM     44  C   UNL     1       8.558  -2.064   2.565  1.00  0.00     0.014 A 
ATOM     45  C   UNL     1       9.109  -3.088   5.113  1.00  0.00     0.010 A 
ATOM     46  C   UNL     1       9.729  -2.772   2.781  1.00  0.00     0.010 A 
ATOM     47  C   UNL     1       9.991  -3.325   4.043  1.00  0.00    -0.014 A 
BRANCH  47  48
ATOM     48  C   UNL     1      11.124  -4.263   4.183  1.00  0.00     0.031 A 
ATOM     49  C   UNL     1      12.537  -3.781   4.076  1.00  0.00     0.074 A 
ATOM     50  C   UNL     1      10.845  -5.575   4.298  1.00  0.00     0.049 A 
ATOM     51  N   UNL     1      13.644  -4.473   4.127  1.00  0.00    -0.248 NA
ATOM     52  C   UNL     1      12.733  -2.340   3.854  1.00  0.00     0.031 C 
ATOM     53  C   UNL     1       9.495  -6.148   4.327  1.00  0.00     0.029 A 
ATOM     54  N   UNL     1      11.668  -6.665   4.406  1.00  0.00    -0.354 N 
ATOM     55  C   UNL     1      14.669  -3.554   3.949  1.00  0.00     0.074 A 
ATOM     56  C   UNL     1      14.051  -2.265   3.728  1.00  0.00     0.031 C 
ATOM     57  C   UNL     1       9.584  -7.477   4.485  1.00  0.00     0.029 A 
ATOM     58  C   UNL     1      10.991  -7.854   4.532  1.00  0.00     0.049 A 
ATOM     59  H   UNL     1      12.650  -6.602   4.394  1.00  0.00     0.167 HD
ATOM     60  C   UNL     1      16.003  -3.772   3.994  1.00  0.00     0.037 A 
ATOM     61  C   UNL     1      11.457  -9.108   4.676  1.00  0.00     0.037 A 
ATOM     62  C   UNL     1      16.595  -5.064   4.225  1.00  0.00     0.049 A 
ATOM     63  C   UNL     1      12.943  -9.320   4.730  1.00  0.00     0.074 A 
ATOM     64  C   UNL     1      17.934  -5.388   4.347  1.00  0.00     0.029 A 
ATOM     65  N   UNL     1      15.880  -6.246   4.365  1.00  0.00    -0.354 N 
ATOM     66  N   UNL     1      13.904  -8.432   4.643  1.00  0.00    -0.248 NA
ATOM     67  C   UNL     1      13.411 -10.700   4.908  1.00  0.00     0.031 C 
ATOM     68  C   UNL     1      18.032  -6.772   4.514  1.00  0.00     0.029 A 
ATOM     69  C   UNL     1      16.753  -7.305   4.551  1.00  0.00     0.049 A 
ATOM     70  H   UNL     1      14.899  -6.320   4.337  1.00  0.00     0.167 HD
ATOM     71  C   UNL     1      15.089  -9.140   4.775  1.00  0.00     0.074 A 
ATOM     72  C   UNL     1      14.725 -10.530   4.965  1.00  0.00     0.031 C 
ATOM     73  C   UNL     1      16.364  -8.681   4.740  1.00  0.00     0.037 A 
BRANCH  60  74
ATOM     74  C   UNL     1      16.912  -2.592   3.813  1.00  0.00     0.057 A 
ATOM     75  C   UNL     1      17.733  -2.482   2.683  1.00  0.00     0.134 A 
ATOM     76  C   UNL     1      17.022  -1.593   4.790  1.00  0.00     0.134 A 
ATOM     77  F   UNL     1      17.683  -3.405   1.712  1.00  0.00    -0.206 F 
ATOM     78  C   UNL     1      18.636  -1.427   2.538  1.00  0.00     0.040 A 
ATOM     79  C   UNL     1      17.901  -0.520   4.643  1.00  0.00     0.040 A 
ATOM     80  F   UNL     1      16.256  -1.633   5.892  1.00  0.00    -0.206 F 
ATOM     81  C   UNL     1      18.719  -0.440   3.518  1.00  0.00     0.006 A 
ENDBRANCH  60  74
BRANCH  61  82
ATOM     82  C   UNL     1      10.503 -10.234   4.831  1.00  0.00     0.057 A 
ATOM     83  C   UNL     1       9.688 -10.659   3.774  1.00  0.00     0.134 A 
ATOM     84  C   UNL     1      10.350 -10.882   6.062  1.00  0.00     0.134 A 
ATOM     85  F   UNL     1       9.774 -10.068   2.573  1.00  0.00    -0.206 F 
ATOM     86  C   UNL     1       8.746 -11.676   3.939  1.00  0.00     0.040 A 
ATOM     87  C   UNL     1       9.429 -11.917   6.235  1.00  0.00     0.040 A 
ATOM     88  F   UNL     1      11.107 -10.526   7.110  1.00  0.00    -0.206 F 
ATOM     89  C   UNL     1       8.618 -12.311   5.173  1.00  0.00     0.006 A 
ENDBRANCH  61  82
BRANCH  73  90
ATOM     90  C   UNL     1      17.464  -9.684   4.924  1.00  0.00     0.057 A 
ATOM     91  C   UNL     1      18.244  -9.679   6.088  1.00  0.00     0.134 A 
ATOM     92  C   UNL     1      17.806 -10.591   3.915  1.00  0.00     0.134 A 
ATOM     93  F   UNL     1      17.973  -8.825   7.087  1.00  0.00    -0.206 F 
ATOM     94  C   UNL     1      19.340 -10.529   6.232  1.00  0.00     0.040 A 
ATOM     95  C   UNL     1      18.884 -11.466   4.060  1.00  0.00     0.040 A 
ATOM     96  F   UNL     1      17.090 -10.652   2.783  1.00  0.00    -0.206 F 
ATOM     97  C   UNL     1      19.662 -11.427   5.216  1.00  0.00     0.006 A 
ENDBRANCH  73  90
ENDBRANCH  47  48
ENDBRANCH  39  42
ENDBRANCH  37  38
ENDBRANCH  36  37
ENDBRANCH  35  36
ENDBRANCH   1  35
TORSDOF 17
