REMARK SMILES CC1(C)[C@H](C(=O)NCCCCNC(=O)c2ccc(-c3c4nc(c(-c5c(F)cccc5F)c5ccc([nH]5)c(-c5c(F)cccc5F)c5nc(c(-c6c(F)cccc6F)c6ccc3[nH]6)C=C5)C=C4)cc2)[C@@H]1C(=O)Nc1ccc(Cl)c(Br)c1
REMARK SMILES IDX 9 1 8 2 7 3 5 4 6 5 4 7 1 8 2 9 3 10 69 11 70 12 71 13 72 14
REMARK SMILES IDX 73 16 74 17 80 18 75 19 78 20 76 21 79 22 77 23 10 24 11 25
REMARK SMILES IDX 12 26 13 27 14 29 15 30 16 31 68 32 17 33 67 34 18 35 19 36
REMARK SMILES IDX 20 37 61 38 21 39 66 40 60 41 62 42 22 43 65 44 59 45 58 46
REMARK SMILES IDX 23 48 49 49 32 50 48 51 33 52 36 53 47 54 63 55 34 56 35 57
REMARK SMILES IDX 46 59 64 60 37 61 24 62 25 63 30 64 26 65 27 66 29 67 31 68
REMARK SMILES IDX 28 69 50 70 51 71 56 72 52 73 53 74 55 75 57 76 54 77 38 78
REMARK SMILES IDX 39 79 44 80 40 81 41 82 43 83 45 84 42 85
REMARK H PARENT 7 6 72 15 12 28 62 47 36 58
REMARK Flexibility Score: inf
ROOT
ATOM      1  C   UNL     1       0.338   4.167  -0.849  1.00  0.00     0.023 C 
ENDROOT
BRANCH   1   2
ATOM      2  C   UNL     1      -0.721   3.136  -0.473  1.00  0.00     0.116 C 
BRANCH   2   3
ATOM      3  N   UNL     1      -1.043   2.273  -1.586  1.00  0.00    -0.356 N 
ATOM      4  C   UNL     1      -1.083   0.924  -1.780  1.00  0.00     0.224 C 
ATOM      5  O   UNL     1      -1.408   0.571  -2.916  1.00  0.00    -0.275 OA
ATOM      6  H   UNL     1      -1.293   2.777  -2.393  1.00  0.00     0.163 HD
BRANCH   4   7
ATOM      7  C   UNL     1      -0.824  -0.165  -0.800  1.00  0.00     0.098 C 
ATOM      8  C   UNL     1       0.996  -1.681   0.184  1.00  0.00     0.013 C 
ATOM      9  C   UNL     1       0.338  -0.314   0.163  1.00  0.00    -0.011 C 
ATOM     10  C   UNL     1       1.346   0.791   0.342  1.00  0.00     0.013 C 
ATOM     11  C   UNL     1      -1.119  -0.235   0.672  1.00  0.00     0.098 C 
BRANCH  11  12
ATOM     12  C   UNL     1      -1.694   0.854   1.488  1.00  0.00     0.228 C 
ATOM     13  O   UNL     1      -1.091   1.253   2.481  1.00  0.00    -0.274 OA
ATOM     14  N   UNL     1      -2.891   1.444   1.144  1.00  0.00    -0.326 N 
ATOM     15  H   UNL     1      -3.166   2.189   1.726  1.00  0.00     0.169 HD
BRANCH  14  16
ATOM     16  C   UNL     1      -3.781   1.155   0.099  1.00  0.00     0.042 A 
ATOM     17  C   UNL     1      -4.450   2.233  -0.488  1.00  0.00     0.028 A 
ATOM     18  C   UNL     1      -3.995  -0.131  -0.397  1.00  0.00     0.043 A 
ATOM     19  C   UNL     1      -5.219   2.042  -1.639  1.00  0.00     0.024 A 
ATOM     20  C   UNL     1      -4.781  -0.329  -1.539  1.00  0.00     0.038 A 
ATOM     21  C   UNL     1      -5.373   0.763  -2.179  1.00  0.00     0.055 A 
ATOM     22  Br  UNL     1      -4.978  -2.114  -2.160  1.00  0.00    -0.049 Br
ATOM     23  Cl  UNL     1      -6.300   0.613  -3.627  1.00  0.00    -0.083 Cl
ENDBRANCH  14  16
ENDBRANCH  11  12
ENDBRANCH   4   7
ENDBRANCH   2   3
ENDBRANCH   1   2
BRANCH   1  24
ATOM     24  C   UNL     1      -0.190   5.329  -1.689  1.00  0.00     0.023 C 
BRANCH  24  25
ATOM     25  C   UNL     1      -1.327   6.125  -1.054  1.00  0.00     0.116 C 
BRANCH  25  26
ATOM     26  N   UNL     1      -1.002   6.634   0.273  1.00  0.00    -0.352 N 
ATOM     27  C   UNL     1      -1.113   7.916   0.755  1.00  0.00     0.251 C 
ATOM     28  H   UNL     1      -0.656   5.968   0.911  1.00  0.00     0.163 HD
ATOM     29  O   UNL     1      -0.687   8.213   1.865  1.00  0.00    -0.269 OA
BRANCH  27  30
ATOM     30  C   UNL     1      -1.725   8.944  -0.105  1.00  0.00     0.039 A 
ATOM     31  C   UNL     1      -0.992  10.091  -0.416  1.00  0.00     0.014 A 
ATOM     32  C   UNL     1      -2.982   8.719  -0.673  1.00  0.00     0.014 A 
ATOM     33  C   UNL     1      -1.477  10.970  -1.384  1.00  0.00     0.010 A 
ATOM     34  C   UNL     1      -3.433   9.563  -1.681  1.00  0.00     0.010 A 
ATOM     35  C   UNL     1      -2.672  10.680  -2.062  1.00  0.00    -0.014 A 
BRANCH  35  36
ATOM     36  C   UNL     1      -3.124  11.493  -3.216  1.00  0.00     0.031 A 
ATOM     37  C   UNL     1      -4.407  12.265  -3.136  1.00  0.00     0.074 A 
ATOM     38  C   UNL     1      -2.430  11.445  -4.369  1.00  0.00     0.049 A 
ATOM     39  N   UNL     1      -5.035  12.921  -4.077  1.00  0.00    -0.248 NA
ATOM     40  C   UNL     1      -5.089  12.277  -1.832  1.00  0.00     0.031 C 
ATOM     41  C   UNL     1      -1.191  10.694  -4.583  1.00  0.00     0.029 A 
ATOM     42  N   UNL     1      -2.681  12.024  -5.588  1.00  0.00    -0.354 N 
ATOM     43  C   UNL     1      -6.191  13.411  -3.486  1.00  0.00     0.074 A 
ATOM     44  C   UNL     1      -6.200  12.941  -2.117  1.00  0.00     0.031 C 
ATOM     45  C   UNL     1      -0.785  10.868  -5.851  1.00  0.00     0.029 A 
ATOM     46  C   UNL     1      -1.753  11.706  -6.550  1.00  0.00     0.049 A 
ATOM     47  H   UNL     1      -3.452  12.612  -5.756  1.00  0.00     0.167 HD
ATOM     48  C   UNL     1      -7.149  14.197  -4.031  1.00  0.00     0.037 A 
ATOM     49  C   UNL     1      -1.700  12.037  -7.853  1.00  0.00     0.037 A 
ATOM     50  C   UNL     1      -7.123  14.683  -5.384  1.00  0.00     0.049 A 
ATOM     51  C   UNL     1      -2.789  12.887  -8.441  1.00  0.00     0.074 A 
ATOM     52  C   UNL     1      -8.005  15.551  -6.005  1.00  0.00     0.029 A 
ATOM     53  N   UNL     1      -6.167  14.339  -6.328  1.00  0.00    -0.354 N 
ATOM     54  N   UNL     1      -3.844  13.397  -7.854  1.00  0.00    -0.248 NA
ATOM     55  C   UNL     1      -2.687  13.199  -9.874  1.00  0.00     0.031 C 
ATOM     56  C   UNL     1      -7.604  15.700  -7.338  1.00  0.00     0.029 A 
ATOM     57  C   UNL     1      -6.454  14.953  -7.536  1.00  0.00     0.049 A 
ATOM     58  H   UNL     1      -5.399  13.746  -6.164  1.00  0.00     0.167 HD
ATOM     59  C   UNL     1      -4.522  14.103  -8.838  1.00  0.00     0.074 A 
ATOM     60  C   UNL     1      -3.753  13.966 -10.058  1.00  0.00     0.031 C 
ATOM     61  C   UNL     1      -5.679  14.800  -8.740  1.00  0.00     0.037 A 
BRANCH  48  62
ATOM     62  C   UNL     1      -8.304  14.581  -3.156  1.00  0.00     0.057 A 
ATOM     63  C   UNL     1      -8.160  15.503  -2.111  1.00  0.00     0.134 A 
ATOM     64  C   UNL     1      -9.578  14.045  -3.376  1.00  0.00     0.134 A 
ATOM     65  F   UNL     1      -6.962  16.042  -1.840  1.00  0.00    -0.206 F 
ATOM     66  C   UNL     1      -9.238  15.860  -1.300  1.00  0.00     0.040 A 
ATOM     67  C   UNL     1     -10.669  14.411  -2.587  1.00  0.00     0.040 A 
ATOM     68  F   UNL     1      -9.784  13.159  -4.363  1.00  0.00    -0.206 F 
ATOM     69  C   UNL     1     -10.499  15.317  -1.541  1.00  0.00     0.006 A 
ENDBRANCH  48  62
BRANCH  49  70
ATOM     70  C   UNL     1      -0.570  11.566  -8.691  1.00  0.00     0.057 A 
ATOM     71  C   UNL     1       0.422  12.453  -9.122  1.00  0.00     0.134 A 
ATOM     72  C   UNL     1      -0.450  10.225  -9.075  1.00  0.00     0.134 A 
ATOM     73  F   UNL     1       0.350  13.753  -8.800  1.00  0.00    -0.206 F 
ATOM     74  C   UNL     1       1.489  12.027  -9.915  1.00  0.00     0.040 A 
ATOM     75  C   UNL     1       0.621   9.781  -9.852  1.00  0.00     0.040 A 
ATOM     76  F   UNL     1      -1.367   9.325  -8.688  1.00  0.00    -0.206 F 
ATOM     77  C   UNL     1       1.593  10.686 -10.277  1.00  0.00     0.006 A 
ENDBRANCH  49  70
BRANCH  61  78
ATOM     78  C   UNL     1      -6.178  15.476  -9.981  1.00  0.00     0.057 A 
ATOM     79  C   UNL     1      -6.790  14.752 -11.012  1.00  0.00     0.134 A 
ATOM     80  C   UNL     1      -6.091  16.866 -10.124  1.00  0.00     0.134 A 
ATOM     81  F   UNL     1      -6.889  13.417 -10.939  1.00  0.00    -0.206 F 
ATOM     82  C   UNL     1      -7.289  15.389 -12.149  1.00  0.00     0.040 A 
ATOM     83  C   UNL     1      -6.605  17.515 -11.247  1.00  0.00     0.040 A 
ATOM     84  F   UNL     1      -5.520  17.614  -9.168  1.00  0.00    -0.206 F 
ATOM     85  C   UNL     1      -7.204  16.776 -12.265  1.00  0.00     0.006 A 
ENDBRANCH  61  78
ENDBRANCH  35  36
ENDBRANCH  27  30
ENDBRANCH  25  26
ENDBRANCH  24  25
ENDBRANCH   1  24
TORSDOF 13
