REMARK SMILES C[C@@]12CCC[C@](C)(C(=O)NCCCCNC(=O)c3ccc(-c4c5nc(c(-c6c(F)cccc6F)c6ccc([nH]6)c(-c6c(F)cccc6F)c6nc(c(-c7c(F)cccc7F)c7ccc4[nH]7)C=C6)C=C5)cc3)[C@H]1CC[C@@]13C=C(CO)[C@@H](CC[C@@H]12)C3
REMARK SMILES IDX 12 1 11 2 10 3 8 4 9 5 6 7 1 8 2 9 3 10 72 11 83 12 4 13
REMARK SMILES IDX 73 14 75 15 82 16 5 17 7 18 74 19 76 20 84 21 81 22 77 23
REMARK SMILES IDX 80 24 78 25 79 26 13 28 14 29 15 30 16 31 17 33 18 34 19 35
REMARK SMILES IDX 71 36 20 37 70 38 21 39 22 40 23 41 64 42 24 43 69 44 63 45
REMARK SMILES IDX 65 46 25 47 68 48 62 49 61 50 26 52 52 53 35 54 51 55 36 56
REMARK SMILES IDX 39 57 50 58 66 59 37 60 38 61 49 63 67 64 40 65 27 66 28 67
REMARK SMILES IDX 33 68 29 69 30 70 32 71 34 72 31 73 53 74 54 75 59 76 55 77
REMARK SMILES IDX 56 78 58 79 60 80 57 81 41 82 42 83 47 84 43 85 44 86 46 87
REMARK SMILES IDX 48 88 45 89
REMARK H PARENT 10 6 79 27 15 32 65 51 39 62
REMARK Flexibility Score: inf
ROOT
ATOM      1  C   UNL     1       0.035   3.403   1.706  1.00  0.00     0.023 C 
ENDROOT
BRANCH   1   2
ATOM      2  C   UNL     1       0.235   2.191   2.620  1.00  0.00     0.116 C 
BRANCH   2   3
ATOM      3  N   UNL     1      -1.003   1.445   2.769  1.00  0.00    -0.356 N 
ATOM      4  C   UNL     1      -1.422   0.228   2.309  1.00  0.00     0.226 C 
ATOM      5  O   UNL     1      -2.611  -0.039   2.510  1.00  0.00    -0.274 OA
ATOM      6  H   UNL     1      -1.679   1.912   3.312  1.00  0.00     0.163 HD
BRANCH   4   7
ATOM      7  C   UNL     1      -0.459  -0.797   1.643  1.00  0.00     0.050 C 
ATOM      8  C   UNL     1       2.186  -1.517   0.242  1.00  0.00     0.012 C 
ATOM      9  C   UNL     1       0.835  -1.478  -0.559  1.00  0.00    -0.025 C 
ATOM     10  C   UNL     1       0.152  -2.865  -0.515  1.00  0.00     0.007 C 
ATOM     11  C   UNL     1      -0.146  -0.468   0.104  1.00  0.00     0.010 C 
ATOM     12  C   UNL     1       1.243  -1.107  -2.030  1.00  0.00     0.005 C 
ATOM     13  C   UNL     1      -0.377  -3.278   0.863  1.00  0.00     0.002 C 
ATOM     14  C   UNL     1       0.185   0.979  -0.247  1.00  0.00     0.006 C 
ATOM     15  C   UNL     1       1.468   0.429  -2.335  1.00  0.00    -0.008 C 
ATOM     16  C   UNL     1       0.738  -1.763  -3.310  1.00  0.00     0.006 C 
ATOM     17  C   UNL     1      -1.191  -2.183   1.569  1.00  0.00     0.017 C 
ATOM     18  C   UNL     1       0.672  -1.010   2.690  1.00  0.00     0.022 C 
ATOM     19  C   UNL     1       0.394   1.289  -1.718  1.00  0.00     0.012 C 
ATOM     20  C   UNL     1       2.917   0.641  -2.007  1.00  0.00    -0.018 C 
ATOM     21  C   UNL     1       1.599   0.757  -3.847  1.00  0.00     0.019 C 
ATOM     22  C   UNL     1       1.934  -1.606  -4.334  1.00  0.00     0.008 C 
ATOM     23  C   UNL     1       3.621   0.069  -3.010  1.00  0.00    -0.045 C 
ATOM     24  C   UNL     1       2.697  -0.233  -4.217  1.00  0.00     0.018 C 
BRANCH  23  25
ATOM     25  C   UNL     1       5.070  -0.270  -2.948  1.00  0.00     0.187 C 
BRANCH  25  26
ATOM     26  O   UNL     1       5.327  -1.075  -1.800  1.00  0.00    -0.392 OA
ATOM     27  H   UNL     1       5.079  -0.586  -1.000  1.00  0.00     0.211 HD
ENDBRANCH  25  26
ENDBRANCH  23  25
ENDBRANCH   4   7
ENDBRANCH   2   3
ENDBRANCH   1   2
BRANCH   1  28
ATOM     28  C   UNL     1      -0.402   4.658   2.426  1.00  0.00     0.023 C 
BRANCH  28  29
ATOM     29  C   UNL     1       0.662   5.219   3.342  1.00  0.00     0.116 C 
BRANCH  29  30
ATOM     30  N   UNL     1       1.891   5.588   2.649  1.00  0.00    -0.352 N 
ATOM     31  C   UNL     1       2.631   6.736   2.799  1.00  0.00     0.251 C 
ATOM     32  H   UNL     1       2.232   4.936   1.995  1.00  0.00     0.163 HD
ATOM     33  O   UNL     1       3.586   6.975   2.066  1.00  0.00    -0.269 OA
BRANCH  31  34
ATOM     34  C   UNL     1       2.215   7.697   3.835  1.00  0.00     0.039 A 
ATOM     35  C   UNL     1       2.039   9.034   3.489  1.00  0.00     0.014 A 
ATOM     36  C   UNL     1       1.869   7.233   5.108  1.00  0.00     0.014 A 
ATOM     37  C   UNL     1       1.442   9.896   4.407  1.00  0.00     0.010 A 
ATOM     38  C   UNL     1       1.149   8.055   5.958  1.00  0.00     0.010 A 
ATOM     39  C   UNL     1       0.952   9.402   5.629  1.00  0.00    -0.014 A 
BRANCH  39  40
ATOM     40  C   UNL     1       0.254  10.294   6.584  1.00  0.00     0.031 A 
ATOM     41  C   UNL     1       0.818  10.506   7.962  1.00  0.00     0.074 A 
ATOM     42  C   UNL     1      -0.900  10.886   6.219  1.00  0.00     0.049 A 
ATOM     43  N   UNL     1       0.385  11.284   8.920  1.00  0.00    -0.248 NA
ATOM     44  C   UNL     1       2.004   9.713   8.329  1.00  0.00     0.031 C 
ATOM     45  C   UNL     1      -1.594  10.681   4.944  1.00  0.00     0.029 A 
ATOM     46  N   UNL     1      -1.685  11.793   6.881  1.00  0.00    -0.354 N 
ATOM     47  C   UNL     1       1.237  11.065   9.995  1.00  0.00     0.074 A 
ATOM     48  C   UNL     1       2.155  10.021   9.607  1.00  0.00     0.031 C 
ATOM     49  C   UNL     1      -2.667  11.488   4.893  1.00  0.00     0.029 A 
ATOM     50  C   UNL     1      -2.750  12.243   6.138  1.00  0.00     0.049 A 
ATOM     51  H   UNL     1      -1.504  12.093   7.801  1.00  0.00     0.167 HD
ATOM     52  C   UNL     1       1.280  11.707  11.185  1.00  0.00     0.037 A 
ATOM     53  C   UNL     1      -3.672  13.181   6.424  1.00  0.00     0.037 A 
ATOM     54  C   UNL     1       0.382  12.766  11.553  1.00  0.00     0.049 A 
ATOM     55  C   UNL     1      -3.580  13.909   7.736  1.00  0.00     0.074 A 
ATOM     56  C   UNL     1       0.371  13.529  12.707  1.00  0.00     0.029 A 
ATOM     57  N   UNL     1      -0.670  13.212  10.766  1.00  0.00    -0.354 N 
ATOM     58  N   UNL     1      -2.712  13.759   8.707  1.00  0.00    -0.248 NA
ATOM     59  C   UNL     1      -4.586  14.950   7.981  1.00  0.00     0.031 C 
ATOM     60  C   UNL     1      -0.715  14.409  12.635  1.00  0.00     0.029 A 
ATOM     61  C   UNL     1      -1.349  14.229  11.415  1.00  0.00     0.049 A 
ATOM     62  H   UNL     1      -0.900  12.857   9.877  1.00  0.00     0.167 HD
ATOM     63  C   UNL     1      -3.053  14.700   9.670  1.00  0.00     0.074 A 
ATOM     64  C   UNL     1      -4.189  15.434   9.149  1.00  0.00     0.031 C 
ATOM     65  C   UNL     1      -2.483  14.937  10.878  1.00  0.00     0.037 A 
BRANCH  52  66
ATOM     66  C   UNL     1       2.345  11.282  12.156  1.00  0.00     0.057 A 
ATOM     67  C   UNL     1       3.706  11.519  11.912  1.00  0.00     0.134 A 
ATOM     68  C   UNL     1       2.010  10.629  13.348  1.00  0.00     0.134 A 
ATOM     69  F   UNL     1       4.098  12.122  10.779  1.00  0.00    -0.206 F 
ATOM     70  C   UNL     1       4.694  11.093  12.800  1.00  0.00     0.040 A 
ATOM     71  C   UNL     1       2.988  10.226  14.259  1.00  0.00     0.040 A 
ATOM     72  F   UNL     1       0.728  10.369  13.646  1.00  0.00    -0.206 F 
ATOM     73  C   UNL     1       4.335  10.450  13.982  1.00  0.00     0.006 A 
ENDBRANCH  52  66
BRANCH  53  74
ATOM     74  C   UNL     1      -4.718  13.526   5.428  1.00  0.00     0.057 A 
ATOM     75  C   UNL     1      -4.705  14.760   4.765  1.00  0.00     0.134 A 
ATOM     76  C   UNL     1      -5.754  12.639   5.116  1.00  0.00     0.134 A 
ATOM     77  F   UNL     1      -3.745  15.658   5.031  1.00  0.00    -0.206 F 
ATOM     78  C   UNL     1      -5.695  15.108   3.845  1.00  0.00     0.040 A 
ATOM     79  C   UNL     1      -6.737  12.964   4.179  1.00  0.00     0.040 A 
ATOM     80  F   UNL     1      -5.818  11.437   5.707  1.00  0.00    -0.206 F 
ATOM     81  C   UNL     1      -6.714  14.205   3.547  1.00  0.00     0.006 A 
ENDBRANCH  53  74
BRANCH  65  82
ATOM     82  C   UNL     1      -3.074  16.046  11.698  1.00  0.00     0.057 A 
ATOM     83  C   UNL     1      -4.340  15.936  12.288  1.00  0.00     0.134 A 
ATOM     84  C   UNL     1      -2.365  17.237  11.902  1.00  0.00     0.134 A 
ATOM     85  F   UNL     1      -5.074  14.825  12.120  1.00  0.00    -0.206 F 
ATOM     86  C   UNL     1      -4.897  16.986  13.016  1.00  0.00     0.040 A 
ATOM     87  C   UNL     1      -2.899  18.282  12.656  1.00  0.00     0.040 A 
ATOM     88  F   UNL     1      -1.142  17.402  11.376  1.00  0.00    -0.206 F 
ATOM     89  C   UNL     1      -4.175  18.163  13.205  1.00  0.00     0.006 A 
ENDBRANCH  65  82
ENDBRANCH  39  40
ENDBRANCH  31  34
ENDBRANCH  29  30
ENDBRANCH  28  29
ENDBRANCH   1  28
TORSDOF 13
