REMARK SMILES O=Cc1[nH]nc2cc(C(=O)NCCCCNC(=O)c3ccc(-c4c5nc(c(-c6c(F)cccc6F)c6ccc([nH]6)c(-c6c(F)cccc6F)c6nc(c(-c7c(F)cccc7F)c7ccc4[nH]7)C=C6)C=C5)cc3)ccc12
REMARK SMILES IDX 14 1 13 2 12 3 11 4 9 5 10 6 8 8 3 9 4 10 75 11 5 12 6 14
REMARK SMILES IDX 74 15 7 16 73 17 2 18 1 19 15 20 16 21 17 22 18 24 19 25
REMARK SMILES IDX 20 26 72 27 21 28 71 29 22 30 23 31 24 32 65 33 25 34 70 35
REMARK SMILES IDX 64 36 66 37 26 38 69 39 63 40 62 41 27 43 53 44 36 45 52 46
REMARK SMILES IDX 37 47 40 48 51 49 67 50 38 51 39 52 50 54 68 55 41 56 28 57
REMARK SMILES IDX 29 58 34 59 30 60 31 61 33 62 35 63 32 64 54 65 55 66 60 67
REMARK SMILES IDX 56 68 57 69 59 70 61 71 58 72 42 73 43 74 48 75 44 76 45 77
REMARK SMILES IDX 47 78 49 79 46 80
REMARK H PARENT 11 7 4 13 16 23 66 42 40 53
REMARK Flexibility Score: inf
ROOT
ATOM      1  C   UNL     1       1.389  -0.904   9.084  1.00  0.00     0.023 C 
ENDROOT
BRANCH   1   2
ATOM      2  C   UNL     1       1.302  -0.687   7.568  1.00  0.00     0.023 C 
BRANCH   2   3
ATOM      3  C   UNL     1       0.980   0.753   7.160  1.00  0.00     0.116 C 
BRANCH   3   4
ATOM      4  N   UNL     1       2.174   1.571   7.206  1.00  0.00    -0.352 N 
ATOM      5  C   UNL     1       3.110   1.935   6.274  1.00  0.00     0.251 C 
ATOM      6  O   UNL     1       4.031   2.644   6.686  1.00  0.00    -0.269 OA
ATOM      7  H   UNL     1       2.352   1.945   8.099  1.00  0.00     0.163 HD
BRANCH   5   8
ATOM      8  C   UNL     1       3.072   1.576   4.819  1.00  0.00     0.042 A 
ATOM      9  C   UNL     1       3.197   0.966   0.766  1.00  0.00     0.105 A 
ATOM     10  N   UNL     1       4.130   1.938   0.518  1.00  0.00    -0.274 N 
ATOM     11  C   UNL     1       3.036   1.009   2.130  1.00  0.00     0.030 A 
ATOM     12  N   UNL     1       4.530   2.629   1.599  1.00  0.00    -0.175 NA
ATOM     13  H   UNL     1       4.481   2.118  -0.384  1.00  0.00     0.190 HD
ATOM     14  C   UNL     1       3.866   2.075   2.625  1.00  0.00     0.094 A 
ATOM     15  C   UNL     1       2.228   0.175   2.894  1.00  0.00     0.013 A 
ATOM     16  C   UNL     1       3.893   2.392   3.992  1.00  0.00     0.044 A 
ATOM     17  C   UNL     1       2.314   0.489   4.272  1.00  0.00     0.015 A 
BRANCH   9  18
ATOM     18  C   UNL     1       2.597   0.153  -0.256  1.00  0.00     0.280 C 
ATOM     19  O   UNL     1       1.706  -0.671  -0.077  1.00  0.00    -0.296 OA
ENDBRANCH   9  18
ENDBRANCH   5   8
ENDBRANCH   3   4
ENDBRANCH   2   3
ENDBRANCH   1   2
BRANCH   1  20
ATOM     20  C   UNL     1       0.098  -0.634   9.853  1.00  0.00     0.116 C 
BRANCH  20  21
ATOM     21  N   UNL     1      -1.038  -1.401   9.364  1.00  0.00    -0.352 N 
ATOM     22  C   UNL     1      -2.133  -1.851  10.062  1.00  0.00     0.251 C 
ATOM     23  H   UNL     1      -1.019  -1.627   8.406  1.00  0.00     0.163 HD
ATOM     24  O   UNL     1      -2.963  -2.567   9.519  1.00  0.00    -0.269 OA
BRANCH  22  25
ATOM     25  C   UNL     1      -2.276  -1.497  11.489  1.00  0.00     0.039 A 
ATOM     26  C   UNL     1      -2.531  -2.517  12.408  1.00  0.00     0.014 A 
ATOM     27  C   UNL     1      -2.128  -0.176  11.918  1.00  0.00     0.014 A 
ATOM     28  C   UNL     1      -2.569  -2.222  13.771  1.00  0.00     0.010 A 
ATOM     29  C   UNL     1      -2.103   0.106  13.280  1.00  0.00     0.010 A 
ATOM     30  C   UNL     1      -2.318  -0.914  14.219  1.00  0.00    -0.014 A 
BRANCH  30  31
ATOM     31  C   UNL     1      -2.267  -0.599  15.667  1.00  0.00     0.031 A 
ATOM     32  C   UNL     1      -3.288   0.318  16.277  1.00  0.00     0.074 A 
ATOM     33  C   UNL     1      -1.258  -1.085  16.416  1.00  0.00     0.049 A 
ATOM     34  N   UNL     1      -3.372   0.759  17.507  1.00  0.00    -0.248 NA
ATOM     35  C   UNL     1      -4.338   0.828  15.382  1.00  0.00     0.031 C 
ATOM     36  C   UNL     1      -0.175  -1.940  15.926  1.00  0.00     0.029 A 
ATOM     37  N   UNL     1      -0.974  -0.919  17.748  1.00  0.00    -0.354 N 
ATOM     38  C   UNL     1      -4.471   1.608  17.528  1.00  0.00     0.074 A 
ATOM     39  C   UNL     1      -4.992   1.660  16.179  1.00  0.00     0.031 C 
ATOM     40  C   UNL     1       0.642  -2.242  16.948  1.00  0.00     0.029 A 
ATOM     41  C   UNL     1       0.161  -1.578  18.155  1.00  0.00     0.049 A 
ATOM     42  H   UNL     1      -1.531  -0.380  18.355  1.00  0.00     0.167 HD
ATOM     43  C   UNL     1      -5.010   2.266  18.581  1.00  0.00     0.037 A 
ATOM     44  C   UNL     1       0.747  -1.637  19.365  1.00  0.00     0.037 A 
ATOM     45  C   UNL     1      -4.507   2.189  19.927  1.00  0.00     0.049 A 
ATOM     46  C   UNL     1       0.122  -0.906  20.520  1.00  0.00     0.074 A 
ATOM     47  C   UNL     1      -5.022   2.766  21.075  1.00  0.00     0.029 A 
ATOM     48  N   UNL     1      -3.370   1.491  20.305  1.00  0.00    -0.354 N 
ATOM     49  N   UNL     1      -0.959  -0.164  20.541  1.00  0.00    -0.248 NA
ATOM     50  C   UNL     1       0.795  -1.025  21.821  1.00  0.00     0.031 C 
ATOM     51  C   UNL     1      -4.176   2.446  22.142  1.00  0.00     0.029 A 
ATOM     52  C   UNL     1      -3.157   1.636  21.666  1.00  0.00     0.049 A 
ATOM     53  H   UNL     1      -2.799   0.969  19.696  1.00  0.00     0.167 HD
ATOM     54  C   UNL     1      -1.111   0.249  21.858  1.00  0.00     0.074 A 
ATOM     55  C   UNL     1      -0.018  -0.336  22.608  1.00  0.00     0.031 C 
ATOM     56  C   UNL     1      -2.069   1.041  22.397  1.00  0.00     0.037 A 
BRANCH  43  57
ATOM     57  C   UNL     1      -6.215   3.120  18.317  1.00  0.00     0.057 A 
ATOM     58  C   UNL     1      -7.464   2.560  18.017  1.00  0.00     0.134 A 
ATOM     59  C   UNL     1      -6.133   4.516  18.388  1.00  0.00     0.134 A 
ATOM     60  F   UNL     1      -7.607   1.230  17.920  1.00  0.00    -0.206 F 
ATOM     61  C   UNL     1      -8.582   3.358  17.771  1.00  0.00     0.040 A 
ATOM     62  C   UNL     1      -7.251   5.324  18.171  1.00  0.00     0.040 A 
ATOM     63  F   UNL     1      -4.969   5.117  18.676  1.00  0.00    -0.206 F 
ATOM     64  C   UNL     1      -8.478   4.745  17.854  1.00  0.00     0.006 A 
ENDBRANCH  43  57
BRANCH  44  65
ATOM     65  C   UNL     1       1.979  -2.442  19.555  1.00  0.00     0.057 A 
ATOM     66  C   UNL     1       1.951  -3.640  20.277  1.00  0.00     0.134 A 
ATOM     67  C   UNL     1       3.209  -2.035  19.026  1.00  0.00     0.134 A 
ATOM     68  F   UNL     1       0.805  -4.072  20.823  1.00  0.00    -0.206 F 
ATOM     69  C   UNL     1       3.106  -4.396  20.485  1.00  0.00     0.040 A 
ATOM     70  C   UNL     1       4.368  -2.792  19.206  1.00  0.00     0.040 A 
ATOM     71  F   UNL     1       3.300  -0.900  18.317  1.00  0.00    -0.206 F 
ATOM     72  C   UNL     1       4.319  -3.974  19.943  1.00  0.00     0.006 A 
ENDBRANCH  44  65
BRANCH  56  73
ATOM     73  C   UNL     1      -1.997   1.294  23.874  1.00  0.00     0.057 A 
ATOM     74  C   UNL     1      -1.037   2.148  24.430  1.00  0.00     0.134 A 
ATOM     75  C   UNL     1      -2.925   0.706  24.743  1.00  0.00     0.134 A 
ATOM     76  F   UNL     1      -0.112   2.730  23.651  1.00  0.00    -0.206 F 
ATOM     77  C   UNL     1      -0.990   2.394  25.803  1.00  0.00     0.040 A 
ATOM     78  C   UNL     1      -2.903   0.964  26.114  1.00  0.00     0.040 A 
ATOM     79  F   UNL     1      -3.874  -0.116  24.272  1.00  0.00    -0.206 F 
ATOM     80  C   UNL     1      -1.930   1.806  26.648  1.00  0.00     0.006 A 
ENDBRANCH  56  73
ENDBRANCH  30  31
ENDBRANCH  22  25
ENDBRANCH  20  21
ENDBRANCH   1  20
TORSDOF 12
