REMARK SMILES COc1ccc2c(c1)c(CC(=O)NCCCCNC(=O)c1ccc(-c3c4nc(c(-c5c(F)cccc5F)c5ccc([nH]5)c(-c5c(F)cccc5F)c5nc(c(-c6c(F)cccc6F)c6ccc3[nH]6)C=C5)C=C4)cc1)c(C(F)(F)F)n2C(=O)c1ccc(Cl)cc1
REMARK SMILES IDX 15 1 14 2 13 3 11 4 12 5 10 7 9 8 3 9 4 10 8 11 5 12 7 13
REMARK SMILES IDX 6 14 80 15 75 16 2 17 1 18 81 19 82 20 83 21 84 22 89 23
REMARK SMILES IDX 85 24 88 25 86 26 87 27 76 28 77 29 78 30 79 31 16 32 17 33
REMARK SMILES IDX 18 34 19 35 20 37 21 38 22 39 74 40 23 41 73 42 24 43 25 44
REMARK SMILES IDX 26 45 67 46 27 47 72 48 66 49 68 50 28 51 71 52 65 53 64 54
REMARK SMILES IDX 29 56 55 57 38 58 54 59 39 60 42 61 53 62 69 63 40 64 41 65
REMARK SMILES IDX 52 67 70 68 43 69 30 70 31 71 36 72 32 73 33 74 35 75 37 76
REMARK SMILES IDX 34 77 56 78 57 79 62 80 58 81 59 82 61 83 63 84 60 85 44 86
REMARK SMILES IDX 45 87 50 88 46 89 47 90 49 91 51 92 48 93
REMARK H PARENT 13 6 18 36 68 55 42 66
REMARK Flexibility Score: inf
ROOT
ATOM      1  C   UNL     1       0.933   7.578   1.655  1.00  0.00     0.023 C 
ENDROOT
BRANCH   1   2
ATOM      2  C   UNL     1      -0.424   7.607   2.357  1.00  0.00     0.116 C 
BRANCH   2   3
ATOM      3  N   UNL     1      -1.397   6.760   1.697  1.00  0.00    -0.356 N 
ATOM      4  C   UNL     1      -2.007   5.632   2.170  1.00  0.00     0.224 C 
ATOM      5  O   UNL     1      -2.842   5.074   1.456  1.00  0.00    -0.275 OA
ATOM      6  H   UNL     1      -1.653   7.033   0.786  1.00  0.00     0.163 HD
BRANCH   4   7
ATOM      7  C   UNL     1      -1.687   5.120   3.568  1.00  0.00     0.138 C 
BRANCH   7   8
ATOM      8  C   UNL     1      -0.271   4.633   3.717  1.00  0.00     0.000 A 
ATOM      9  C   UNL     1       0.779   1.927   1.232  1.00  0.00     0.119 A 
ATOM     10  C   UNL     1       2.036   1.711   1.774  1.00  0.00     0.048 A 
ATOM     11  C   UNL     1      -0.058   2.891   1.797  1.00  0.00     0.057 A 
ATOM     12  C   UNL     1       2.481   2.453   2.873  1.00  0.00     0.031 A 
ATOM     13  C   UNL     1       0.369   3.655   2.906  1.00  0.00     0.008 A 
ATOM     14  C   UNL     1       1.658   3.463   3.410  1.00  0.00     0.057 A 
ATOM     15  N   UNL     1       1.880   4.452   4.378  1.00  0.00    -0.271 N 
ATOM     16  C   UNL     1       0.637   4.989   4.712  1.00  0.00     0.135 A 
BRANCH   9  17
ATOM     17  O   UNL     1       0.263   1.278   0.144  1.00  0.00    -0.497 OA
ATOM     18  C   UNL     1       0.811  -0.006  -0.132  1.00  0.00     0.278 C 
ENDBRANCH   9  17
BRANCH  15  19
ATOM     19  C   UNL     1       3.138   4.887   4.888  1.00  0.00     0.262 C 
ATOM     20  O   UNL     1       3.170   5.896   5.566  1.00  0.00    -0.268 OA
BRANCH  19  21
ATOM     21  C   UNL     1       4.428   4.228   4.602  1.00  0.00     0.040 A 
ATOM     22  C   UNL     1       5.035   4.378   3.350  1.00  0.00     0.015 A 
ATOM     23  C   UNL     1       4.996   3.410   5.583  1.00  0.00     0.015 A 
ATOM     24  C   UNL     1       6.177   3.631   3.051  1.00  0.00     0.021 A 
ATOM     25  C   UNL     1       6.145   2.675   5.281  1.00  0.00     0.021 A 
ATOM     26  C   UNL     1       6.718   2.773   4.011  1.00  0.00     0.041 A 
ATOM     27  Cl  UNL     1       8.085   1.807   3.617  1.00  0.00    -0.084 Cl
ENDBRANCH  19  21
ENDBRANCH  15  19
BRANCH  16  28
ATOM     28  C   UNL     1       0.411   5.838   5.919  1.00  0.00     0.432 C 
ATOM     29  F   UNL     1       0.546   7.157   5.643  1.00  0.00    -0.165 F 
ATOM     30  F   UNL     1      -0.866   5.678   6.369  1.00  0.00    -0.165 F 
ATOM     31  F   UNL     1       1.198   5.529   6.975  1.00  0.00    -0.165 F 
ENDBRANCH  16  28
ENDBRANCH   7   8
ENDBRANCH   4   7
ENDBRANCH   2   3
ENDBRANCH   1   2
BRANCH   1  32
ATOM     32  C   UNL     1       0.973   8.318   0.311  1.00  0.00     0.023 C 
BRANCH  32  33
ATOM     33  C   UNL     1       0.526   9.782   0.364  1.00  0.00     0.116 C 
BRANCH  33  34
ATOM     34  N   UNL     1       1.258  10.585   1.324  1.00  0.00    -0.352 N 
ATOM     35  C   UNL     1       2.340  11.419   1.252  1.00  0.00     0.251 C 
ATOM     36  H   UNL     1       0.893  10.514   2.235  1.00  0.00     0.163 HD
ATOM     37  O   UNL     1       2.551  12.120   2.245  1.00  0.00    -0.269 OA
BRANCH  35  38
ATOM     38  C   UNL     1       3.300  11.491   0.117  1.00  0.00     0.039 A 
ATOM     39  C   UNL     1       3.247  10.709  -1.033  1.00  0.00     0.014 A 
ATOM     40  C   UNL     1       4.396  12.365   0.281  1.00  0.00     0.014 A 
ATOM     41  C   UNL     1       4.299  10.727  -1.941  1.00  0.00     0.010 A 
ATOM     42  C   UNL     1       5.447  12.399  -0.634  1.00  0.00     0.010 A 
ATOM     43  C   UNL     1       5.417  11.545  -1.727  1.00  0.00    -0.014 A 
BRANCH  43  44
ATOM     44  C   UNL     1       6.446  11.547  -2.765  1.00  0.00     0.031 A 
ATOM     45  C   UNL     1       5.921  11.882  -4.116  1.00  0.00     0.074 A 
ATOM     46  C   UNL     1       7.761  11.309  -2.577  1.00  0.00     0.049 A 
ATOM     47  N   UNL     1       5.794  11.085  -5.125  1.00  0.00    -0.248 NA
ATOM     48  C   UNL     1       5.326  13.212  -4.318  1.00  0.00     0.031 C 
ATOM     49  C   UNL     1       8.494  11.204  -1.315  1.00  0.00     0.029 A 
ATOM     50  N   UNL     1       8.746  11.168  -3.516  1.00  0.00    -0.354 N 
ATOM     51  C   UNL     1       5.288  11.864  -6.161  1.00  0.00     0.074 A 
ATOM     52  C   UNL     1       4.880  13.113  -5.572  1.00  0.00     0.031 C 
ATOM     53  C   UNL     1       9.825  11.224  -1.565  1.00  0.00     0.029 A 
ATOM     54  C   UNL     1      10.038  11.195  -3.003  1.00  0.00     0.049 A 
ATOM     55  H   UNL     1       8.555  11.056  -4.475  1.00  0.00     0.167 HD
ATOM     56  C   UNL     1       5.488  11.508  -7.458  1.00  0.00     0.037 A 
ATOM     57  C   UNL     1      11.198  11.216  -3.708  1.00  0.00     0.037 A 
ATOM     58  C   UNL     1       5.802  10.107  -7.579  1.00  0.00     0.049 A 
ATOM     59  C   UNL     1      10.914  10.694  -5.062  1.00  0.00     0.074 A 
ATOM     60  C   UNL     1       5.170   8.921  -7.257  1.00  0.00     0.029 A 
ATOM     61  N   UNL     1       7.113   9.777  -7.806  1.00  0.00    -0.354 N 
ATOM     62  N   UNL     1      10.645   9.448  -5.322  1.00  0.00    -0.248 NA
ATOM     63  C   UNL     1      10.549  11.642  -6.103  1.00  0.00     0.031 C 
ATOM     64  C   UNL     1       6.217   8.037  -6.855  1.00  0.00     0.029 A 
ATOM     65  C   UNL     1       7.427   8.714  -7.003  1.00  0.00     0.049 A 
ATOM     66  H   UNL     1       7.722  10.225  -8.437  1.00  0.00     0.167 HD
ATOM     67  C   UNL     1       9.680   9.502  -6.314  1.00  0.00     0.074 A 
ATOM     68  C   UNL     1       9.757  10.861  -6.842  1.00  0.00     0.031 C 
ATOM     69  C   UNL     1       8.730   8.527  -6.411  1.00  0.00     0.037 A 
BRANCH  56  70
ATOM     70  C   UNL     1       5.859  12.504  -8.536  1.00  0.00     0.057 A 
ATOM     71  C   UNL     1       6.424  13.770  -8.276  1.00  0.00     0.134 A 
ATOM     72  C   UNL     1       5.987  12.055  -9.864  1.00  0.00     0.134 A 
ATOM     73  F   UNL     1       6.442  14.316  -7.055  1.00  0.00    -0.206 F 
ATOM     74  C   UNL     1       7.107  14.509  -9.245  1.00  0.00     0.040 A 
ATOM     75  C   UNL     1       6.713  12.765 -10.828  1.00  0.00     0.040 A 
ATOM     76  F   UNL     1       5.500  10.861 -10.236  1.00  0.00    -0.206 F 
ATOM     77  C   UNL     1       7.288  13.990 -10.516  1.00  0.00     0.006 A 
ENDBRANCH  56  70
BRANCH  57  78
ATOM     78  C   UNL     1      12.493  11.862  -3.393  1.00  0.00     0.057 A 
ATOM     79  C   UNL     1      12.550  13.034  -2.622  1.00  0.00     0.134 A 
ATOM     80  C   UNL     1      13.667  11.526  -4.088  1.00  0.00     0.134 A 
ATOM     81  F   UNL     1      11.466  13.486  -1.975  1.00  0.00    -0.206 F 
ATOM     82  C   UNL     1      13.692  13.840  -2.566  1.00  0.00     0.040 A 
ATOM     83  C   UNL     1      14.817  12.326  -4.045  1.00  0.00     0.040 A 
ATOM     84  F   UNL     1      13.704  10.448  -4.885  1.00  0.00    -0.206 F 
ATOM     85  C   UNL     1      14.826  13.496  -3.292  1.00  0.00     0.006 A 
ENDBRANCH  57  78
BRANCH  69  86
ATOM     86  C   UNL     1       8.971   7.250  -5.657  1.00  0.00     0.057 A 
ATOM     87  C   UNL     1       9.007   6.050  -6.377  1.00  0.00     0.134 A 
ATOM     88  C   UNL     1       9.082   7.156  -4.261  1.00  0.00     0.134 A 
ATOM     89  F   UNL     1       8.854   6.057  -7.711  1.00  0.00    -0.206 F 
ATOM     90  C   UNL     1       9.168   4.815  -5.747  1.00  0.00     0.040 A 
ATOM     91  C   UNL     1       9.282   5.928  -3.621  1.00  0.00     0.040 A 
ATOM     92  F   UNL     1       8.961   8.237  -3.479  1.00  0.00    -0.206 F 
ATOM     93  C   UNL     1       9.323   4.753  -4.365  1.00  0.00     0.006 A 
ENDBRANCH  69  86
ENDBRANCH  43  44
ENDBRANCH  35  38
ENDBRANCH  33  34
ENDBRANCH  32  33
ENDBRANCH   1  32
TORSDOF 16
