REMARK SMILES C[C@@H](Oc1ccc(-c2ccccc2)cc1)C(=O)N1CCC[C@H](C(=O)NCCCCNC(=O)c2ccc(-c3c4nc(c(-c5c(F)cccc5F)c5ccc([nH]5)c(-c5c(F)cccc5F)c5nc(c(-c6c(F)cccc6F)c6ccc3[nH]6)C=C5)C=C4)cc2)C1
REMARK SMILES IDX 26 1 25 2 23 3 24 4 22 6 18 7 19 8 87 9 20 10 21 11 16 12
REMARK SMILES IDX 17 13 2 14 1 15 3 16 4 17 5 18 15 19 6 20 14 21 7 22 8 23
REMARK SMILES IDX 9 24 13 25 10 26 12 27 11 28 27 29 28 30 29 31 30 32 31 33
REMARK SMILES IDX 32 35 33 36 34 37 86 38 35 39 85 40 36 41 37 42 38 43 79 44
REMARK SMILES IDX 39 45 84 46 78 47 80 48 40 49 83 50 77 51 76 52 41 54 67 55
REMARK SMILES IDX 50 56 66 57 51 58 54 59 65 60 81 61 52 62 53 63 64 65 82 66
REMARK SMILES IDX 55 67 42 68 43 69 48 70 44 71 45 72 47 73 49 74 46 75 68 76
REMARK SMILES IDX 69 77 74 78 70 79 71 80 73 81 75 82 72 83 56 84 57 85 62 86
REMARK SMILES IDX 58 87 59 88 61 89 63 90 60 91
REMARK H PARENT 25 5 30 34 80 53 54 64
REMARK Flexibility Score: inf
ROOT
ATOM      1  C   UNL     1      -3.980   0.724  -0.441  1.00  0.00     0.116 C 
ENDROOT
BRANCH   1   2
ATOM      2  N   UNL     1      -4.178  -0.214   0.640  1.00  0.00    -0.356 N 
ATOM      3  C   UNL     1      -3.668  -1.453   0.854  1.00  0.00     0.224 C 
ATOM      4  O   UNL     1      -3.886  -1.944   1.969  1.00  0.00    -0.275 OA
ATOM      5  H   UNL     1      -4.790   0.100   1.344  1.00  0.00     0.163 HD
BRANCH   3   6
ATOM      6  C   UNL     1      -2.881  -2.272  -0.182  1.00  0.00     0.098 C 
ATOM      7  N   UNL     1      -1.516  -0.919  -1.794  1.00  0.00    -0.339 N 
ATOM      8  C   UNL     1      -2.220  -1.478  -2.941  1.00  0.00     0.119 C 
ATOM      9  C   UNL     1      -1.511  -1.706  -0.568  1.00  0.00     0.133 C 
ATOM     10  C   UNL     1      -3.636  -1.934  -2.620  1.00  0.00     0.022 C 
ATOM     11  C   UNL     1      -3.722  -2.777  -1.356  1.00  0.00     0.017 C 
BRANCH   7  12
ATOM     12  C   UNL     1      -0.812   0.270  -1.972  1.00  0.00     0.263 C 
ATOM     13  O   UNL     1      -1.313   1.203  -2.609  1.00  0.00    -0.271 OA
BRANCH  12  14
ATOM     14  C   UNL     1       0.644   0.358  -1.481  1.00  0.00     0.259 C 
ATOM     15  C   UNL     1       0.829   0.395   0.029  1.00  0.00     0.064 C 
BRANCH  14  16
ATOM     16  O   UNL     1       1.277  -0.798  -2.053  1.00  0.00    -0.481 OA
BRANCH  16  17
ATOM     17  C   UNL     1       2.590  -0.594  -2.358  1.00  0.00     0.120 A 
ATOM     18  C   UNL     1       2.961  -0.226  -3.648  1.00  0.00     0.047 A 
ATOM     19  C   UNL     1       3.547  -0.935  -1.413  1.00  0.00     0.047 A 
ATOM     20  C   UNL     1       4.317  -0.224  -4.001  1.00  0.00     0.012 A 
ATOM     21  C   UNL     1       4.894  -0.922  -1.765  1.00  0.00     0.012 A 
ATOM     22  C   UNL     1       5.301  -0.604  -3.072  1.00  0.00    -0.018 A 
BRANCH  22  23
ATOM     23  C   UNL     1       6.716  -0.752  -3.451  1.00  0.00    -0.018 A 
ATOM     24  C   UNL     1       7.435   0.277  -4.074  1.00  0.00     0.009 A 
ATOM     25  C   UNL     1       7.391  -1.957  -3.176  1.00  0.00     0.009 A 
ATOM     26  C   UNL     1       8.788   0.113  -4.390  1.00  0.00     0.001 A 
ATOM     27  C   UNL     1       8.740  -2.122  -3.490  1.00  0.00     0.001 A 
ATOM     28  C   UNL     1       9.440  -1.083  -4.094  1.00  0.00     0.000 A 
ENDBRANCH  22  23
ENDBRANCH  16  17
ENDBRANCH  14  16
ENDBRANCH  12  14
ENDBRANCH   7  12
ENDBRANCH   3   6
ENDBRANCH   1   2
BRANCH   1  29
ATOM     29  C   UNL     1      -5.257   1.058  -1.204  1.00  0.00     0.023 C 
BRANCH  29  30
ATOM     30  C   UNL     1      -5.899   2.384  -0.820  1.00  0.00     0.023 C 
BRANCH  30  31
ATOM     31  C   UNL     1      -4.995   3.609  -0.936  1.00  0.00     0.116 C 
BRANCH  31  32
ATOM     32  N   UNL     1      -4.390   3.803  -2.246  1.00  0.00    -0.352 N 
ATOM     33  C   UNL     1      -4.169   4.990  -2.914  1.00  0.00     0.251 C 
ATOM     34  H   UNL     1      -4.102   2.986  -2.712  1.00  0.00     0.163 HD
ATOM     35  O   UNL     1      -3.734   5.002  -4.056  1.00  0.00    -0.269 OA
BRANCH  33  36
ATOM     36  C   UNL     1      -4.515   6.263  -2.242  1.00  0.00     0.039 A 
ATOM     37  C   UNL     1      -5.293   7.197  -2.926  1.00  0.00     0.014 A 
ATOM     38  C   UNL     1      -4.129   6.498  -0.920  1.00  0.00     0.014 A 
ATOM     39  C   UNL     1      -5.761   8.326  -2.251  1.00  0.00     0.010 A 
ATOM     40  C   UNL     1      -4.673   7.571  -0.223  1.00  0.00     0.010 A 
ATOM     41  C   UNL     1      -5.497   8.496  -0.880  1.00  0.00    -0.014 A 
BRANCH  41  42
ATOM     42  C   UNL     1      -6.102   9.623  -0.126  1.00  0.00     0.031 A 
ATOM     43  C   UNL     1      -5.236  10.671   0.513  1.00  0.00     0.074 A 
ATOM     44  C   UNL     1      -7.441   9.674   0.023  1.00  0.00     0.049 A 
ATOM     45  N   UNL     1      -5.591  11.742   1.179  1.00  0.00    -0.248 NA
ATOM     46  C   UNL     1      -3.780  10.479   0.424  1.00  0.00     0.031 C 
ATOM     47  C   UNL     1      -8.388   8.669  -0.468  1.00  0.00     0.029 A 
ATOM     48  N   UNL     1      -8.240  10.612   0.626  1.00  0.00    -0.354 N 
ATOM     49  C   UNL     1      -4.408  12.341   1.590  1.00  0.00     0.074 A 
ATOM     50  C   UNL     1      -3.327  11.482   1.159  1.00  0.00     0.031 C 
ATOM     51  C   UNL     1      -9.639   9.069  -0.189  1.00  0.00     0.029 A 
ATOM     52  C   UNL     1      -9.583  10.343   0.519  1.00  0.00     0.049 A 
ATOM     53  H   UNL     1      -7.884  11.403   1.092  1.00  0.00     0.167 HD
ATOM     54  C   UNL     1      -4.234  13.517   2.238  1.00  0.00     0.037 A 
ATOM     55  C   UNL     1     -10.650  11.054   0.929  1.00  0.00     0.037 A 
ATOM     56  C   UNL     1      -5.309  14.385   2.641  1.00  0.00     0.049 A 
ATOM     57  C   UNL     1     -10.432  12.378   1.606  1.00  0.00     0.074 A 
ATOM     58  C   UNL     1      -5.236  15.632   3.236  1.00  0.00     0.029 A 
ATOM     59  N   UNL     1      -6.656  14.093   2.489  1.00  0.00    -0.354 N 
ATOM     60  N   UNL     1      -9.306  12.981   1.900  1.00  0.00    -0.248 NA
ATOM     61  C   UNL     1     -11.635  13.127   1.995  1.00  0.00     0.031 C 
ATOM     62  C   UNL     1      -6.540  16.078   3.478  1.00  0.00     0.029 A 
ATOM     63  C   UNL     1      -7.425  15.128   2.995  1.00  0.00     0.049 A 
ATOM     64  H   UNL     1      -7.013  13.271   2.081  1.00  0.00     0.167 HD
ATOM     65  C   UNL     1      -9.663  14.186   2.489  1.00  0.00     0.074 A 
ATOM     66  C   UNL     1     -11.110  14.239   2.488  1.00  0.00     0.031 C 
ATOM     67  C   UNL     1      -8.865  15.161   2.991  1.00  0.00     0.037 A 
BRANCH  54  68
ATOM     68  C   UNL     1      -2.824  13.939   2.534  1.00  0.00     0.057 A 
ATOM     69  C   UNL     1      -1.946  14.339   1.516  1.00  0.00     0.134 A 
ATOM     70  C   UNL     1      -2.343  13.967   3.848  1.00  0.00     0.134 A 
ATOM     71  F   UNL     1      -2.340  14.322   0.234  1.00  0.00    -0.206 F 
ATOM     72  C   UNL     1      -0.633  14.724   1.793  1.00  0.00     0.040 A 
ATOM     73  C   UNL     1      -1.041  14.377   4.140  1.00  0.00     0.040 A 
ATOM     74  F   UNL     1      -3.131  13.601   4.871  1.00  0.00    -0.206 F 
ATOM     75  C   UNL     1      -0.180  14.750   3.110  1.00  0.00     0.006 A 
ENDBRANCH  54  68
BRANCH  55  76
ATOM     76  C   UNL     1     -12.023  10.556   0.661  1.00  0.00     0.057 A 
ATOM     77  C   UNL     1     -12.841  11.179  -0.289  1.00  0.00     0.134 A 
ATOM     78  C   UNL     1     -12.550   9.457   1.346  1.00  0.00     0.134 A 
ATOM     79  F   UNL     1     -12.397  12.248  -0.966  1.00  0.00    -0.206 F 
ATOM     80  C   UNL     1     -14.143  10.739  -0.534  1.00  0.00     0.040 A 
ATOM     81  C   UNL     1     -13.842   8.991   1.095  1.00  0.00     0.040 A 
ATOM     82  F   UNL     1     -11.813   8.812   2.262  1.00  0.00    -0.206 F 
ATOM     83  C   UNL     1     -14.645   9.638   0.158  1.00  0.00     0.006 A 
ENDBRANCH  55  76
BRANCH  67  84
ATOM     84  C   UNL     1      -9.547  16.368   3.564  1.00  0.00     0.057 A 
ATOM     85  C   UNL     1     -10.242  16.314   4.779  1.00  0.00     0.134 A 
ATOM     86  C   UNL     1      -9.496  17.600   2.901  1.00  0.00     0.134 A 
ATOM     87  F   UNL     1     -10.339  15.160   5.456  1.00  0.00    -0.206 F 
ATOM     88  C   UNL     1     -10.891  17.436   5.297  1.00  0.00     0.040 A 
ATOM     89  C   UNL     1     -10.117  18.735   3.423  1.00  0.00     0.040 A 
ATOM     90  F   UNL     1      -8.838  17.722   1.738  1.00  0.00    -0.206 F 
ATOM     91  C   UNL     1     -10.825  18.652   4.620  1.00  0.00     0.006 A 
ENDBRANCH  67  84
ENDBRANCH  41  42
ENDBRANCH  33  36
ENDBRANCH  31  32
ENDBRANCH  30  31
ENDBRANCH  29  30
ENDBRANCH   1  29
TORSDOF 16
