REMARK SMILES O=C(NCCCCNC(=O)c1cc(/N=C/c2ccc([N+](=O)[O-])cc2)ccc1O)c1ccc(-c2c3nc(c(-c4c(F)cccc4F)c4ccc([nH]4)c(-c4c(F)cccc4F)c4nc(c(-c5c(F)cccc5F)c5ccc2[nH]5)C=C4)C=C3)cc1
REMARK SMILES IDX 6 1 5 2 4 3 3 4 1 5 2 6 29 8 30 9 82 10 31 11 81 12 32 13
REMARK SMILES IDX 33 14 34 15 75 16 35 17 80 18 74 19 76 20 36 21 79 22 73 23
REMARK SMILES IDX 72 24 37 26 63 27 46 28 62 29 47 30 50 31 61 32 77 33 48 34
REMARK SMILES IDX 49 35 60 37 78 38 51 39 38 40 39 41 44 42 40 43 41 44 43 45
REMARK SMILES IDX 45 46 42 47 64 48 65 49 70 50 66 51 67 52 69 53 71 54 68 55
REMARK SMILES IDX 52 56 53 57 58 58 54 59 55 60 57 61 59 62 56 63 7 64 8 65
REMARK SMILES IDX 9 66 10 68 11 69 12 70 27 71 13 72 26 73 25 74 28 75 14 77
REMARK SMILES IDX 15 78 16 79 17 80 24 81 18 82 23 83 19 84 20 85 21 86 22 87
REMARK H PARENT 3 7 76 25 50 36 8 67 28 76
REMARK Flexibility Score: inf
ROOT
ATOM      1  C   UNL     1       4.517   2.824   2.704  1.00  0.00     0.023 C 
ENDROOT
BRANCH   1   2
ATOM      2  C   UNL     1       5.000   2.220   1.388  1.00  0.00     0.023 C 
BRANCH   2   3
ATOM      3  C   UNL     1       4.639   0.755   1.179  1.00  0.00     0.116 C 
BRANCH   3   4
ATOM      4  N   UNL     1       3.202   0.533   1.111  1.00  0.00    -0.352 N 
ATOM      5  O   UNL     1       1.225   0.032   0.144  1.00  0.00    -0.269 OA
ATOM      6  C   UNL     1       2.451   0.004   0.089  1.00  0.00     0.251 C 
ATOM      7  H   UNL     1       2.696   0.801   1.911  1.00  0.00     0.163 HD
BRANCH   6   8
ATOM      8  C   UNL     1       3.124  -0.583  -1.088  1.00  0.00     0.039 A 
ATOM      9  C   UNL     1       4.204  -1.455  -0.928  1.00  0.00     0.014 A 
ATOM     10  C   UNL     1       2.658  -0.270  -2.368  1.00  0.00     0.014 A 
ATOM     11  C   UNL     1       4.900  -1.907  -2.043  1.00  0.00     0.010 A 
ATOM     12  C   UNL     1       3.305  -0.795  -3.490  1.00  0.00     0.010 A 
ATOM     13  C   UNL     1       4.442  -1.603  -3.335  1.00  0.00    -0.014 A 
BRANCH  13  14
ATOM     14  C   UNL     1       5.103  -2.229  -4.507  1.00  0.00     0.031 A 
ATOM     15  C   UNL     1       5.824  -1.403  -5.533  1.00  0.00     0.074 A 
ATOM     16  C   UNL     1       5.032  -3.568  -4.638  1.00  0.00     0.049 A 
ATOM     17  N   UNL     1       6.418  -1.796  -6.632  1.00  0.00    -0.248 NA
ATOM     18  C   UNL     1       5.882   0.049  -5.306  1.00  0.00     0.031 C 
ATOM     19  C   UNL     1       4.342  -4.468  -3.709  1.00  0.00     0.029 A 
ATOM     20  N   UNL     1       5.537  -4.407  -5.597  1.00  0.00    -0.354 N 
ATOM     21  C   UNL     1       6.900  -0.643  -7.238  1.00  0.00     0.074 A 
ATOM     22  C   UNL     1       6.518   0.468  -6.393  1.00  0.00     0.031 C 
ATOM     23  C   UNL     1       4.487  -5.732  -4.130  1.00  0.00     0.029 A 
ATOM     24  C   UNL     1       5.217  -5.727  -5.391  1.00  0.00     0.049 A 
ATOM     25  H   UNL     1       6.077  -4.094  -6.358  1.00  0.00     0.167 HD
ATOM     26  C   UNL     1       7.598  -0.530  -8.393  1.00  0.00     0.037 A 
ATOM     27  C   UNL     1       5.451  -6.812  -6.151  1.00  0.00     0.037 A 
ATOM     28  C   UNL     1       7.993  -1.647  -9.214  1.00  0.00     0.049 A 
ATOM     29  C   UNL     1       6.195  -6.648  -7.443  1.00  0.00     0.074 A 
ATOM     30  C   UNL     1       8.769  -1.641 -10.361  1.00  0.00     0.029 A 
ATOM     31  N   UNL     1       7.630  -2.966  -8.986  1.00  0.00    -0.354 N 
ATOM     32  N   UNL     1       6.703  -5.560  -7.969  1.00  0.00    -0.248 NA
ATOM     33  C   UNL     1       6.391  -7.857  -8.253  1.00  0.00     0.031 C 
ATOM     34  C   UNL     1       8.827  -2.946 -10.858  1.00  0.00     0.029 A 
ATOM     35  C   UNL     1       8.130  -3.775  -9.994  1.00  0.00     0.049 A 
ATOM     36  H   UNL     1       7.097  -3.281  -8.221  1.00  0.00     0.167 HD
ATOM     37  C   UNL     1       7.287  -5.954  -9.164  1.00  0.00     0.074 A 
ATOM     38  C   UNL     1       7.093  -7.385  -9.273  1.00  0.00     0.031 C 
ATOM     39  C   UNL     1       7.923  -5.197 -10.090  1.00  0.00     0.037 A 
BRANCH  26  40
ATOM     40  C   UNL     1       7.971   0.846  -8.864  1.00  0.00     0.057 A 
ATOM     41  C   UNL     1       8.982   1.594  -8.249  1.00  0.00     0.134 A 
ATOM     42  C   UNL     1       7.365   1.392 -10.004  1.00  0.00     0.134 A 
ATOM     43  F   UNL     1       9.598   1.132  -7.151  1.00  0.00    -0.206 F 
ATOM     44  C   UNL     1       9.370   2.841  -8.745  1.00  0.00     0.040 A 
ATOM     45  C   UNL     1       7.759   2.627 -10.521  1.00  0.00     0.040 A 
ATOM     46  F   UNL     1       6.396   0.723 -10.647  1.00  0.00    -0.206 F 
ATOM     47  C   UNL     1       8.764   3.356  -9.890  1.00  0.00     0.006 A 
ENDBRANCH  26  40
BRANCH  27  48
ATOM     48  C   UNL     1       4.937  -8.137  -5.726  1.00  0.00     0.057 A 
ATOM     49  C   UNL     1       5.804  -9.165  -5.340  1.00  0.00     0.134 A 
ATOM     50  C   UNL     1       3.562  -8.406  -5.695  1.00  0.00     0.134 A 
ATOM     51  F   UNL     1       7.131  -8.973  -5.365  1.00  0.00    -0.206 F 
ATOM     52  C   UNL     1       5.324 -10.418  -4.958  1.00  0.00     0.040 A 
ATOM     53  C   UNL     1       3.068  -9.645  -5.286  1.00  0.00     0.040 A 
ATOM     54  F   UNL     1       2.678  -7.460  -6.044  1.00  0.00    -0.206 F 
ATOM     55  C   UNL     1       3.952 -10.659  -4.924  1.00  0.00     0.006 A 
ENDBRANCH  27  48
BRANCH  39  56
ATOM     56  C   UNL     1       8.463  -5.906 -11.296  1.00  0.00     0.057 A 
ATOM     57  C   UNL     1       7.619  -6.381 -12.307  1.00  0.00     0.134 A 
ATOM     58  C   UNL     1       9.842  -6.080 -11.466  1.00  0.00     0.134 A 
ATOM     59  F   UNL     1       6.287  -6.261 -12.194  1.00  0.00    -0.206 F 
ATOM     60  C   UNL     1       8.127  -7.019 -13.439  1.00  0.00     0.040 A 
ATOM     61  C   UNL     1      10.364  -6.693 -12.605  1.00  0.00     0.040 A 
ATOM     62  F   UNL     1      10.704  -5.642 -10.536  1.00  0.00    -0.206 F 
ATOM     63  C   UNL     1       9.505  -7.169 -13.594  1.00  0.00     0.006 A 
ENDBRANCH  39  56
ENDBRANCH  13  14
ENDBRANCH   6   8
ENDBRANCH   3   4
ENDBRANCH   2   3
ENDBRANCH   1   2
BRANCH   1  64
ATOM     64  C   UNL     1       4.925   2.058   3.958  1.00  0.00     0.116 C 
BRANCH  64  65
ATOM     65  N   UNL     1       6.365   1.966   4.123  1.00  0.00    -0.352 N 
ATOM     66  C   UNL     1       7.102   2.183   5.263  1.00  0.00     0.255 C 
ATOM     67  H   UNL     1       6.876   1.716   3.319  1.00  0.00     0.163 HD
ATOM     68  O   UNL     1       8.327   2.105   5.237  1.00  0.00    -0.269 OA
BRANCH  66  69
ATOM     69  C   UNL     1       6.418   2.592   6.505  1.00  0.00     0.083 A 
ATOM     70  C   UNL     1       6.744   3.848   7.034  1.00  0.00     0.046 A 
ATOM     71  C   UNL     1       5.451   1.796   7.128  1.00  0.00     0.128 A 
ATOM     72  C   UNL     1       6.064   4.341   8.149  1.00  0.00     0.064 A 
ATOM     73  C   UNL     1       4.756   2.284   8.230  1.00  0.00     0.049 A 
ATOM     74  C   UNL     1       5.049   3.561   8.719  1.00  0.00     0.032 A 
BRANCH  71  75
ATOM     75  O   UNL     1       5.157   0.552   6.642  1.00  0.00    -0.507 OA
ATOM     76  H   UNL     1       5.621   0.218   5.900  1.00  0.00     0.293 HD
ENDBRANCH  71  75
BRANCH  72  77
ATOM     77  N   UNL     1       6.369   5.634   8.604  1.00  0.00    -0.256 NA
ATOM     78  C   UNL     1       6.513   5.814   9.878  1.00  0.00     0.119 C 
BRANCH  78  79
ATOM     79  C   UNL     1       6.831   7.137  10.452  1.00  0.00    -0.007 A 
ATOM     80  C   UNL     1       6.865   7.269  11.845  1.00  0.00     0.017 A 
ATOM     81  C   UNL     1       7.107   8.234   9.629  1.00  0.00     0.017 A 
ATOM     82  C   UNL     1       7.186   8.502  12.420  1.00  0.00     0.086 A 
ATOM     83  C   UNL     1       7.432   9.469  10.198  1.00  0.00     0.086 A 
ATOM     84  C   UNL     1       7.474   9.598  11.593  1.00  0.00     0.269 A 
BRANCH  84  85
ATOM     85  N   UNL     1       7.831  10.888  12.198  1.00  0.00     0.062 N 
ATOM     86  O   UNL     1       7.865  10.953  13.435  1.00  0.00    -0.258 OA
ATOM     87  O   UNL     1       8.077  11.834  11.436  1.00  0.00    -0.258 OA
ENDBRANCH  84  85
ENDBRANCH  78  79
ENDBRANCH  72  77
ENDBRANCH  66  69
ENDBRANCH  64  65
ENDBRANCH   1  64
TORSDOF 15
