REMARK SMILES O=C(NCCCCNC(=O)c1cc(N2CCN(c3ccc(F)cc3)CC2)ccc1NC(=O)C1CCCC1)c1ccc(-c2c3nc(c(-c4c(F)cccc4F)c4ccc([nH]4)c(-c4c(F)cccc4F)c4nc(c(-c5c(F)cccc5F)c5ccc2[nH]5)C=C4)C=C3)cc1
REMARK SMILES IDX 5 1 4 2 3 3 1 4 2 5 38 7 39 8 91 9 40 10 90 11 41 12 42 13
REMARK SMILES IDX 43 14 84 15 44 16 89 17 83 18 85 19 45 20 88 21 82 22 81 23
REMARK SMILES IDX 46 25 72 26 55 27 71 28 56 29 59 30 70 31 86 32 57 33 58 34
REMARK SMILES IDX 69 36 87 37 60 38 47 39 48 40 53 41 49 42 50 43 52 44 54 45
REMARK SMILES IDX 51 46 73 47 74 48 79 49 75 50 76 51 78 52 80 53 77 54 61 55
REMARK SMILES IDX 62 56 67 57 63 58 64 59 66 60 68 61 65 62 6 63 7 64 8 65
REMARK SMILES IDX 9 66 10 68 11 69 12 70 29 71 13 72 28 73 27 74 30 75 31 76
REMARK SMILES IDX 32 78 33 79 34 80 37 81 35 82 36 83 14 84 15 85 26 86 16 87
REMARK SMILES IDX 25 88 17 89 18 90 19 91 24 92 20 93 23 94 21 95 22 96
REMARK H PARENT 3 6 85 24 59 35 8 67 30 77
REMARK Flexibility Score: inf
ROOT
ATOM      1  C   UNL     1       4.768  -2.679  -0.303  1.00  0.00     0.023 C 
ENDROOT
BRANCH   1   2
ATOM      2  C   UNL     1       4.488  -1.240  -0.720  1.00  0.00     0.116 C 
BRANCH   2   3
ATOM      3  N   UNL     1       3.067  -0.930  -0.789  1.00  0.00    -0.352 N 
ATOM      4  O   UNL     1       1.098  -0.024  -0.156  1.00  0.00    -0.269 OA
ATOM      5  C   UNL     1       2.321  -0.040  -0.050  1.00  0.00     0.251 C 
ATOM      6  H   UNL     1       2.563  -1.434  -1.468  1.00  0.00     0.163 HD
BRANCH   5   7
ATOM      7  C   UNL     1       2.990   0.870   0.905  1.00  0.00     0.039 A 
ATOM      8  C   UNL     1       4.156   1.546   0.546  1.00  0.00     0.014 A 
ATOM      9  C   UNL     1       2.457   1.029   2.188  1.00  0.00     0.014 A 
ATOM     10  C   UNL     1       4.896   2.204   1.521  1.00  0.00     0.010 A 
ATOM     11  C   UNL     1       3.150   1.785   3.139  1.00  0.00     0.010 A 
ATOM     12  C   UNL     1       4.405   2.331   2.832  1.00  0.00    -0.014 A 
BRANCH  12  13
ATOM     13  C   UNL     1       5.226   3.045   3.846  1.00  0.00     0.031 A 
ATOM     14  C   UNL     1       5.748   2.336   5.069  1.00  0.00     0.074 A 
ATOM     15  C   UNL     1       5.551   4.335   3.631  1.00  0.00     0.049 A 
ATOM     16  N   UNL     1       6.523   2.796   6.021  1.00  0.00    -0.248 NA
ATOM     17  C   UNL     1       5.343   0.935   5.257  1.00  0.00     0.031 C 
ATOM     18  C   UNL     1       5.100   5.137   2.491  1.00  0.00     0.029 A 
ATOM     19  N   UNL     1       6.356   5.190   4.340  1.00  0.00    -0.354 N 
ATOM     20  C   UNL     1       6.676   1.754   6.928  1.00  0.00     0.074 A 
ATOM     21  C   UNL     1       5.893   0.645   6.428  1.00  0.00     0.031 C 
ATOM     22  C   UNL     1       5.684   6.343   2.543  1.00  0.00     0.029 A 
ATOM     23  C   UNL     1       6.497   6.423   3.751  1.00  0.00     0.049 A 
ATOM     24  H   UNL     1       6.790   4.944   5.188  1.00  0.00     0.167 HD
ATOM     25  C   UNL     1       7.409   1.722   8.068  1.00  0.00     0.037 A 
ATOM     26  C   UNL     1       7.196   7.504   4.141  1.00  0.00     0.037 A 
ATOM     27  C   UNL     1       8.212   2.818   8.550  1.00  0.00     0.049 A 
ATOM     28  C   UNL     1       7.992   7.442   5.411  1.00  0.00     0.074 A 
ATOM     29  C   UNL     1       9.023   2.865   9.672  1.00  0.00     0.029 A 
ATOM     30  N   UNL     1       8.303   4.060   7.941  1.00  0.00    -0.354 N 
ATOM     31  N   UNL     1       8.155   6.437   6.237  1.00  0.00    -0.248 NA
ATOM     32  C   UNL     1       8.703   8.666   5.803  1.00  0.00     0.031 C 
ATOM     33  C   UNL     1       9.568   4.150   9.766  1.00  0.00     0.029 A 
ATOM     34  C   UNL     1       9.139   4.887   8.675  1.00  0.00     0.049 A 
ATOM     35  H   UNL     1       7.842   4.317   7.110  1.00  0.00     0.167 HD
ATOM     36  C   UNL     1       9.005   6.899   7.232  1.00  0.00     0.074 A 
ATOM     37  C   UNL     1       9.338   8.268   6.896  1.00  0.00     0.031 C 
ATOM     38  C   UNL     1       9.469   6.246   8.326  1.00  0.00     0.037 A 
BRANCH  25  39
ATOM     39  C   UNL     1       7.365   0.465   8.891  1.00  0.00     0.057 A 
ATOM     40  C   UNL     1       7.988  -0.720   8.477  1.00  0.00     0.134 A 
ATOM     41  C   UNL     1       6.727   0.455  10.139  1.00  0.00     0.134 A 
ATOM     42  F   UNL     1       8.607  -0.783   7.289  1.00  0.00    -0.206 F 
ATOM     43  C   UNL     1       7.958  -1.875   9.263  1.00  0.00     0.040 A 
ATOM     44  C   UNL     1       6.713  -0.686  10.945  1.00  0.00     0.040 A 
ATOM     45  F   UNL     1       6.119   1.557  10.602  1.00  0.00    -0.206 F 
ATOM     46  C   UNL     1       7.325  -1.857  10.504  1.00  0.00     0.006 A 
ENDBRANCH  25  39
BRANCH  26  47
ATOM     47  C   UNL     1       7.179   8.734   3.311  1.00  0.00     0.057 A 
ATOM     48  C   UNL     1       8.322   9.161   2.626  1.00  0.00     0.134 A 
ATOM     49  C   UNL     1       6.020   9.510   3.181  1.00  0.00     0.134 A 
ATOM     50  F   UNL     1       9.466   8.469   2.726  1.00  0.00    -0.206 F 
ATOM     51  C   UNL     1       8.319  10.323   1.854  1.00  0.00     0.040 A 
ATOM     52  C   UNL     1       5.995  10.658   2.389  1.00  0.00     0.040 A 
ATOM     53  F   UNL     1       4.890   9.149   3.806  1.00  0.00    -0.206 F 
ATOM     54  C   UNL     1       7.149  11.072   1.729  1.00  0.00     0.006 A 
ENDBRANCH  26  47
BRANCH  38  55
ATOM     55  C   UNL     1      10.421   6.994   9.212  1.00  0.00     0.057 A 
ATOM     56  C   UNL     1      10.001   8.053  10.027  1.00  0.00     0.134 A 
ATOM     57  C   UNL     1      11.776   6.641   9.258  1.00  0.00     0.134 A 
ATOM     58  F   UNL     1       8.720   8.451  10.019  1.00  0.00    -0.206 F 
ATOM     59  C   UNL     1      10.900   8.754  10.832  1.00  0.00     0.040 A 
ATOM     60  C   UNL     1      12.679   7.316  10.080  1.00  0.00     0.040 A 
ATOM     61  F   UNL     1      12.242   5.631   8.508  1.00  0.00    -0.206 F 
ATOM     62  C   UNL     1      12.243   8.382  10.863  1.00  0.00     0.006 A 
ENDBRANCH  38  55
ENDBRANCH  12  13
ENDBRANCH   5   7
ENDBRANCH   2   3
ENDBRANCH   1   2
BRANCH   1  63
ATOM     63  C   UNL     1       4.291  -3.753  -1.282  1.00  0.00     0.023 C 
BRANCH  63  64
ATOM     64  C   UNL     1       4.749  -3.565  -2.725  1.00  0.00     0.116 C 
BRANCH  64  65
ATOM     65  N   UNL     1       6.196  -3.530  -2.843  1.00  0.00    -0.352 N 
ATOM     66  C   UNL     1       7.017  -4.221  -3.694  1.00  0.00     0.253 C 
ATOM     67  H   UNL     1       6.654  -2.919  -2.221  1.00  0.00     0.163 HD
ATOM     68  O   UNL     1       8.233  -4.181  -3.525  1.00  0.00    -0.269 OA
BRANCH  66  69
ATOM     69  C   UNL     1       6.470  -4.993  -4.830  1.00  0.00     0.065 A 
ATOM     70  C   UNL     1       6.869  -6.343  -4.912  1.00  0.00     0.042 A 
ATOM     71  C   UNL     1       5.685  -4.406  -5.842  1.00  0.00     0.054 A 
ATOM     72  C   UNL     1       6.536  -7.134  -6.014  1.00  0.00     0.038 A 
ATOM     73  C   UNL     1       5.427  -5.172  -6.964  1.00  0.00     0.029 A 
ATOM     74  C   UNL     1       5.821  -6.511  -7.040  1.00  0.00     0.028 A 
BRANCH  71  75
ATOM     75  N   UNL     1       5.234  -3.080  -5.715  1.00  0.00    -0.325 N 
ATOM     76  C   UNL     1       4.179  -2.364  -6.176  1.00  0.00     0.227 C 
ATOM     77  H   UNL     1       5.832  -2.538  -5.151  1.00  0.00     0.169 HD
ATOM     78  O   UNL     1       4.132  -1.190  -5.772  1.00  0.00    -0.274 OA
BRANCH  76  79
ATOM     79  C   UNL     1       3.059  -2.837  -7.099  1.00  0.00     0.079 C 
ATOM     80  C   UNL     1       3.418  -2.708  -8.576  1.00  0.00     0.013 C 
ATOM     81  C   UNL     1       2.408  -4.210  -6.907  1.00  0.00     0.013 C 
ATOM     82  C   UNL     1       2.492  -3.686  -9.282  1.00  0.00     0.001 C 
ATOM     83  C   UNL     1       2.301  -4.834  -8.301  1.00  0.00     0.001 C 
ENDBRANCH  76  79
ENDBRANCH  71  75
BRANCH  72  84
ATOM     84  N   UNL     1       6.960  -8.439  -6.118  1.00  0.00    -0.368 N 
ATOM     85  C   UNL     1       6.703  -9.435  -5.056  1.00  0.00     0.138 C 
ATOM     86  C   UNL     1       7.350  -9.012  -7.418  1.00  0.00     0.138 C 
ATOM     87  C   UNL     1       5.697 -10.527  -5.535  1.00  0.00     0.138 C 
ATOM     88  C   UNL     1       6.301 -10.032  -7.897  1.00  0.00     0.138 C 
ATOM     89  N   UNL     1       6.060 -11.057  -6.868  1.00  0.00    -0.368 N 
BRANCH  89  90
ATOM     90  C   UNL     1       6.598 -12.323  -6.988  1.00  0.00     0.037 A 
ATOM     91  C   UNL     1       5.854 -13.444  -6.588  1.00  0.00     0.029 A 
ATOM     92  C   UNL     1       7.868 -12.551  -7.541  1.00  0.00     0.029 A 
ATOM     93  C   UNL     1       6.349 -14.742  -6.752  1.00  0.00     0.041 A 
ATOM     94  C   UNL     1       8.378 -13.844  -7.691  1.00  0.00     0.041 A 
ATOM     95  C   UNL     1       7.609 -14.929  -7.301  1.00  0.00     0.123 A 
ATOM     96  F   UNL     1       8.086 -16.169  -7.462  1.00  0.00    -0.207 F 
ENDBRANCH  89  90
ENDBRANCH  72  84
ENDBRANCH  66  69
ENDBRANCH  64  65
ENDBRANCH  63  64
ENDBRANCH   1  63
TORSDOF 15
