REMARK SMILES CC(C)(C)C(=O)NCc1ccc(C(=O)NCCCCNC(=O)c2ccc(-c3c4nc(c(-c5c(F)cccc5F)c5ccc([nH]5)c(-c5c(F)cccc5F)c5nc(c(-c6c(F)cccc6F)c6ccc3[nH]6)C=C5)C=C4)cc2)o1
REMARK SMILES IDX 17 1 16 2 15 3 13 4 14 5 12 7 9 8 10 9 77 10 11 11 8 12 7 13
REMARK SMILES IDX 5 14 6 15 2 17 1 18 3 19 4 20 18 21 19 22 20 23 21 24 22 26
REMARK SMILES IDX 23 27 24 28 76 29 25 30 75 31 26 32 27 33 28 34 69 35 29 36
REMARK SMILES IDX 74 37 68 38 70 39 30 40 73 41 67 42 66 43 31 45 57 46 40 47
REMARK SMILES IDX 56 48 41 49 44 50 55 51 71 52 42 53 43 54 54 56 72 57 45 58
REMARK SMILES IDX 32 59 33 60 38 61 34 62 35 63 37 64 39 65 36 66 58 67 59 68
REMARK SMILES IDX 64 69 60 70 61 71 63 72 65 73 62 74 46 75 47 76 52 77 48 78
REMARK SMILES IDX 49 79 51 80 53 81 50 82
REMARK H PARENT 15 6 7 16 20 25 70 44 44 55
REMARK Flexibility Score: inf
ROOT
ATOM      1  C   UNL     1      -6.047   6.686   2.402  1.00  0.00     0.023 C 
ENDROOT
BRANCH   1   2
ATOM      2  C   UNL     1      -5.854   6.953   0.909  1.00  0.00     0.116 C 
BRANCH   2   3
ATOM      3  N   UNL     1      -4.760   7.870   0.679  1.00  0.00    -0.349 N 
ATOM      4  C   UNL     1      -3.443   7.628   0.353  1.00  0.00     0.286 C 
ATOM      5  O   UNL     1      -2.752   8.623   0.133  1.00  0.00    -0.266 OA
ATOM      6  H   UNL     1      -4.994   8.822   0.769  1.00  0.00     0.163 HD
BRANCH   4   7
ATOM      7  C   UNL     1      -2.933   6.271   0.266  1.00  0.00     0.191 A 
ATOM      8  C   UNL     1      -1.438   4.766  -0.378  1.00  0.00     0.124 A 
ATOM      9  C   UNL     1      -2.424   4.077   0.288  1.00  0.00     0.048 A 
ATOM     10  O   UNL     1      -1.740   6.094  -0.397  1.00  0.00    -0.454 OA
ATOM     11  C   UNL     1      -3.356   5.037   0.729  1.00  0.00     0.056 A 
BRANCH   8  12
ATOM     12  C   UNL     1      -0.168   4.355  -1.025  1.00  0.00     0.191 C 
BRANCH  12  13
ATOM     13  N   UNL     1       0.660   3.713  -0.026  1.00  0.00    -0.348 N 
ATOM     14  C   UNL     1       0.984   2.422   0.228  1.00  0.00     0.225 C 
ATOM     15  O   UNL     1       1.643   2.232   1.257  1.00  0.00    -0.275 OA
ATOM     16  H   UNL     1       1.075   4.349   0.602  1.00  0.00     0.163 HD
BRANCH  14  17
ATOM     17  C   UNL     1       0.589   1.245  -0.692  1.00  0.00     0.041 C 
ATOM     18  C   UNL     1       1.129  -0.059  -0.058  1.00  0.00     0.021 C 
ATOM     19  C   UNL     1       1.233   1.383  -2.077  1.00  0.00     0.021 C 
ATOM     20  C   UNL     1      -0.930   1.080  -0.808  1.00  0.00     0.021 C 
ENDBRANCH  14  17
ENDBRANCH  12  13
ENDBRANCH   8  12
ENDBRANCH   4   7
ENDBRANCH   2   3
ENDBRANCH   1   2
BRANCH   1  21
ATOM     21  C   UNL     1      -6.821   7.788   3.130  1.00  0.00     0.023 C 
BRANCH  21  22
ATOM     22  C   UNL     1      -8.224   8.047   2.592  1.00  0.00     0.116 C 
BRANCH  22  23
ATOM     23  N   UNL     1      -9.066   6.860   2.578  1.00  0.00    -0.352 N 
ATOM     24  C   UNL     1     -10.420   6.774   2.793  1.00  0.00     0.251 C 
ATOM     25  H   UNL     1      -8.606   6.010   2.390  1.00  0.00     0.163 HD
ATOM     26  O   UNL     1     -10.974   5.683   2.863  1.00  0.00    -0.269 OA
BRANCH  24  27
ATOM     27  C   UNL     1     -11.192   8.018   2.982  1.00  0.00     0.039 A 
ATOM     28  C   UNL     1     -12.027   8.128   4.094  1.00  0.00     0.014 A 
ATOM     29  C   UNL     1     -11.041   9.088   2.096  1.00  0.00     0.014 A 
ATOM     30  C   UNL     1     -12.656   9.345   4.359  1.00  0.00     0.010 A 
ATOM     31  C   UNL     1     -11.604  10.321   2.406  1.00  0.00     0.010 A 
ATOM     32  C   UNL     1     -12.414  10.462   3.542  1.00  0.00    -0.014 A 
BRANCH  32  33
ATOM     33  C   UNL     1     -12.985  11.791   3.878  1.00  0.00     0.031 A 
ATOM     34  C   UNL     1     -13.956  12.458   2.946  1.00  0.00     0.074 A 
ATOM     35  C   UNL     1     -12.581  12.420   4.999  1.00  0.00     0.049 A 
ATOM     36  N   UNL     1     -14.534  13.628   3.055  1.00  0.00    -0.248 NA
ATOM     37  C   UNL     1     -14.306  11.728   1.718  1.00  0.00     0.031 C 
ATOM     38  C   UNL     1     -11.599  11.901   5.955  1.00  0.00     0.029 A 
ATOM     39  N   UNL     1     -12.942  13.636   5.523  1.00  0.00    -0.354 N 
ATOM     40  C   UNL     1     -15.306  13.775   1.910  1.00  0.00     0.074 A 
ATOM     41  C   UNL     1     -15.076  12.605   1.091  1.00  0.00     0.031 C 
ATOM     42  C   UNL     1     -11.461  12.777   6.963  1.00  0.00     0.029 A 
ATOM     43  C   UNL     1     -12.310  13.935   6.706  1.00  0.00     0.049 A 
ATOM     44  H   UNL     1     -13.592  14.236   5.092  1.00  0.00     0.167 HD
ATOM     45  C   UNL     1     -16.151  14.781   1.583  1.00  0.00     0.037 A 
ATOM     46  C   UNL     1     -12.402  15.024   7.493  1.00  0.00     0.037 A 
ATOM     47  C   UNL     1     -16.387  15.938   2.408  1.00  0.00     0.049 A 
ATOM     48  C   UNL     1     -13.336  16.135   7.099  1.00  0.00     0.074 A 
ATOM     49  C   UNL     1     -17.266  16.984   2.193  1.00  0.00     0.029 A 
ATOM     50  N   UNL     1     -15.732  16.204   3.602  1.00  0.00    -0.354 N 
ATOM     51  N   UNL     1     -14.121  16.224   6.053  1.00  0.00    -0.248 NA
ATOM     52  C   UNL     1     -13.400  17.294   8.000  1.00  0.00     0.031 C 
ATOM     53  C   UNL     1     -17.104  17.911   3.228  1.00  0.00     0.029 A 
ATOM     54  C   UNL     1     -16.168  17.414   4.120  1.00  0.00     0.049 A 
ATOM     55  H   UNL     1     -15.058  15.621   4.019  1.00  0.00     0.167 HD
ATOM     56  C   UNL     1     -14.793  17.433   6.183  1.00  0.00     0.074 A 
ATOM     57  C   UNL     1     -14.336  18.032   7.420  1.00  0.00     0.031 C 
ATOM     58  C   UNL     1     -15.704  17.998   5.353  1.00  0.00     0.037 A 
BRANCH  45  59
ATOM     59  C   UNL     1     -16.885  14.674   0.277  1.00  0.00     0.057 A 
ATOM     60  C   UNL     1     -17.884  13.714   0.066  1.00  0.00     0.134 A 
ATOM     61  C   UNL     1     -16.613  15.561  -0.772  1.00  0.00     0.134 A 
ATOM     62  F   UNL     1     -18.187  12.825   1.024  1.00  0.00    -0.206 F 
ATOM     63  C   UNL     1     -18.567  13.623  -1.148  1.00  0.00     0.040 A 
ATOM     64  C   UNL     1     -17.310  15.500  -1.980  1.00  0.00     0.040 A 
ATOM     65  F   UNL     1     -15.673  16.509  -0.637  1.00  0.00    -0.206 F 
ATOM     66  C   UNL     1     -18.285  14.524  -2.173  1.00  0.00     0.006 A 
ENDBRANCH  45  59
BRANCH  46  67
ATOM     67  C   UNL     1     -11.603  15.111   8.743  1.00  0.00     0.057 A 
ATOM     68  C   UNL     1     -12.220  15.072   9.999  1.00  0.00     0.134 A 
ATOM     69  C   UNL     1     -10.210  15.247   8.713  1.00  0.00     0.134 A 
ATOM     70  F   UNL     1     -13.553  14.960  10.094  1.00  0.00    -0.206 F 
ATOM     71  C   UNL     1     -11.484  15.190  11.180  1.00  0.00     0.040 A 
ATOM     72  C   UNL     1      -9.459  15.338   9.886  1.00  0.00     0.040 A 
ATOM     73  F   UNL     1      -9.558  15.282   7.542  1.00  0.00    -0.206 F 
ATOM     74  C   UNL     1     -10.097  15.319  11.124  1.00  0.00     0.006 A 
ENDBRANCH  46  67
BRANCH  58  75
ATOM     75  C   UNL     1     -16.290  19.316   5.773  1.00  0.00     0.057 A 
ATOM     76  C   UNL     1     -15.537  20.497   5.772  1.00  0.00     0.134 A 
ATOM     77  C   UNL     1     -17.634  19.407   6.157  1.00  0.00     0.134 A 
ATOM     78  F   UNL     1     -14.240  20.477   5.428  1.00  0.00    -0.206 F 
ATOM     79  C   UNL     1     -16.091  21.716   6.168  1.00  0.00     0.040 A 
ATOM     80  C   UNL     1     -18.208  20.625   6.523  1.00  0.00     0.040 A 
ATOM     81  F   UNL     1     -18.416  18.317   6.170  1.00  0.00    -0.206 F 
ATOM     82  C   UNL     1     -17.433  21.783   6.538  1.00  0.00     0.006 A 
ENDBRANCH  58  75
ENDBRANCH  32  33
ENDBRANCH  24  27
ENDBRANCH  22  23
ENDBRANCH  21  22
ENDBRANCH   1  21
TORSDOF 14
