REMARK SMILES COCc1nc2ccccc2n1CC(=O)NCCCCNC(=O)c1ccc(-c2c3nc(c(-c4c(F)cccc4F)c4ccc([nH]4)c(-c4c(F)cccc4F)c4nc(c(-c5c(F)cccc5F)c5ccc2[nH]5)C=C4)C=C3)cc1
REMARK SMILES IDX 18 1 17 2 16 3 14 4 15 5 13 7 12 8 4 9 5 10 6 11 11 12 7 13
REMARK SMILES IDX 10 14 8 15 9 16 3 17 2 18 1 19 19 20 20 21 21 22 22 23 23 25
REMARK SMILES IDX 24 26 25 27 77 28 26 29 76 30 27 31 28 32 29 33 70 34 30 35
REMARK SMILES IDX 75 36 69 37 71 38 31 39 74 40 68 41 67 42 32 44 58 45 41 46
REMARK SMILES IDX 57 47 42 48 45 49 56 50 72 51 43 52 44 53 55 55 73 56 46 57
REMARK SMILES IDX 33 58 34 59 39 60 35 61 36 62 38 63 40 64 37 65 59 66 60 67
REMARK SMILES IDX 65 68 61 69 62 70 64 71 66 72 63 73 47 74 48 75 53 76 49 77
REMARK SMILES IDX 50 78 52 79 54 80 51 81
REMARK H PARENT 16 6 21 24 71 43 45 54
REMARK Flexibility Score: inf
ROOT
ATOM      1  C   UNL     1      -3.403  -0.433  -1.978  1.00  0.00     0.023 C 
ENDROOT
BRANCH   1   2
ATOM      2  C   UNL     1      -2.432   0.725  -2.163  1.00  0.00     0.116 C 
BRANCH   2   3
ATOM      3  N   UNL     1      -1.638   1.010  -0.989  1.00  0.00    -0.355 N 
ATOM      4  C   UNL     1      -0.299   1.248  -0.903  1.00  0.00     0.240 C 
ATOM      5  O   UNL     1       0.083   1.944   0.045  1.00  0.00    -0.273 OA
ATOM      6  H   UNL     1      -2.131   1.036  -0.137  1.00  0.00     0.163 HD
BRANCH   4   7
ATOM      7  C   UNL     1       0.689   0.795  -1.965  1.00  0.00     0.223 C 
BRANCH   7   8
ATOM      8  N   UNL     1       0.483  -0.536  -2.520  1.00  0.00    -0.316 N 
ATOM      9  C   UNL     1       0.589  -1.760  -1.881  1.00  0.00     0.136 A 
ATOM     10  N   UNL     1       0.176  -2.728  -2.683  1.00  0.00    -0.231 NA
ATOM     11  C   UNL     1      -0.131  -2.138  -3.879  1.00  0.00     0.089 A 
ATOM     12  C   UNL     1       0.128  -0.775  -3.838  1.00  0.00     0.069 A 
ATOM     13  C   UNL     1      -0.644  -2.708  -5.053  1.00  0.00     0.030 A 
ATOM     14  C   UNL     1      -0.065   0.061  -4.949  1.00  0.00     0.028 A 
ATOM     15  C   UNL     1      -0.884  -1.882  -6.159  1.00  0.00     0.002 A 
ATOM     16  C   UNL     1      -0.591  -0.520  -6.106  1.00  0.00     0.002 A 
BRANCH   9  17
ATOM     17  C   UNL     1       1.140  -2.014  -0.508  1.00  0.00     0.235 C 
BRANCH  17  18
ATOM     18  O   UNL     1       0.870  -0.899   0.328  1.00  0.00    -0.377 OA
ATOM     19  C   UNL     1       2.014  -0.441   1.036  1.00  0.00     0.195 C 
ENDBRANCH  17  18
ENDBRANCH   9  17
ENDBRANCH   7   8
ENDBRANCH   4   7
ENDBRANCH   2   3
ENDBRANCH   1   2
BRANCH   1  20
ATOM     20  C   UNL     1      -4.496  -0.199  -0.927  1.00  0.00     0.023 C 
BRANCH  20  21
ATOM     21  C   UNL     1      -5.141   1.189  -0.960  1.00  0.00     0.116 C 
BRANCH  21  22
ATOM     22  N   UNL     1      -5.646   1.576  -2.263  1.00  0.00    -0.352 N 
ATOM     23  C   UNL     1      -6.822   1.411  -2.931  1.00  0.00     0.251 C 
ATOM     24  H   UNL     1      -4.982   2.077  -2.790  1.00  0.00     0.163 HD
ATOM     25  O   UNL     1      -6.914   1.996  -4.018  1.00  0.00    -0.269 OA
BRANCH  23  26
ATOM     26  C   UNL     1      -7.947   0.554  -2.486  1.00  0.00     0.039 A 
ATOM     27  C   UNL     1      -7.992  -0.159  -1.290  1.00  0.00     0.014 A 
ATOM     28  C   UNL     1      -9.014   0.415  -3.396  1.00  0.00     0.014 A 
ATOM     29  C   UNL     1      -9.009  -1.072  -1.057  1.00  0.00     0.010 A 
ATOM     30  C   UNL     1     -10.049  -0.479  -3.157  1.00  0.00     0.010 A 
ATOM     31  C   UNL     1     -10.011  -1.263  -2.011  1.00  0.00    -0.014 A 
BRANCH  31  32
ATOM     32  C   UNL     1     -11.032  -2.257  -1.713  1.00  0.00     0.031 A 
ATOM     33  C   UNL     1     -11.785  -2.019  -0.450  1.00  0.00     0.074 A 
ATOM     34  C   UNL     1     -11.326  -3.288  -2.529  1.00  0.00     0.049 A 
ATOM     35  N   UNL     1     -11.802  -2.749   0.617  1.00  0.00    -0.248 NA
ATOM     36  C   UNL     1     -12.511  -0.747  -0.317  1.00  0.00     0.031 C 
ATOM     37  C   UNL     1     -10.866  -3.531  -3.898  1.00  0.00     0.029 A 
ATOM     38  N   UNL     1     -12.188  -4.319  -2.310  1.00  0.00    -0.354 N 
ATOM     39  C   UNL     1     -12.682  -2.124   1.498  1.00  0.00     0.074 A 
ATOM     40  C   UNL     1     -12.982  -0.837   0.927  1.00  0.00     0.031 C 
ATOM     41  C   UNL     1     -11.625  -4.500  -4.458  1.00  0.00     0.029 A 
ATOM     42  C   UNL     1     -12.517  -5.041  -3.447  1.00  0.00     0.049 A 
ATOM     43  H   UNL     1     -12.547  -4.533  -1.419  1.00  0.00     0.167 HD
ATOM     44  C   UNL     1     -13.262  -2.804   2.525  1.00  0.00     0.037 A 
ATOM     45  C   UNL     1     -13.493  -5.976  -3.555  1.00  0.00     0.037 A 
ATOM     46  C   UNL     1     -12.531  -4.002   2.846  1.00  0.00     0.049 A 
ATOM     47  C   UNL     1     -13.812  -6.457  -2.189  1.00  0.00     0.074 A 
ATOM     48  C   UNL     1     -11.251  -4.281   3.286  1.00  0.00     0.029 A 
ATOM     49  N   UNL     1     -13.037  -5.202   2.412  1.00  0.00    -0.354 N 
ATOM     50  N   UNL     1     -13.003  -7.181  -1.468  1.00  0.00    -0.248 NA
ATOM     51  C   UNL     1     -14.851  -5.756  -1.448  1.00  0.00     0.031 C 
ATOM     52  C   UNL     1     -10.893  -5.497   2.631  1.00  0.00     0.029 A 
ATOM     53  C   UNL     1     -11.992  -5.904   1.874  1.00  0.00     0.049 A 
ATOM     54  H   UNL     1     -13.973  -5.500   2.475  1.00  0.00     0.167 HD
ATOM     55  C   UNL     1     -13.146  -6.691  -0.179  1.00  0.00     0.074 A 
ATOM     56  C   UNL     1     -14.361  -5.880  -0.212  1.00  0.00     0.031 C 
ATOM     57  C   UNL     1     -12.119  -6.758   0.718  1.00  0.00     0.037 A 
BRANCH  44  58
ATOM     58  C   UNL     1     -14.694  -2.604   2.964  1.00  0.00     0.057 A 
ATOM     59  C   UNL     1     -15.692  -2.026   2.154  1.00  0.00     0.134 A 
ATOM     60  C   UNL     1     -15.171  -3.312   4.084  1.00  0.00     0.134 A 
ATOM     61  F   UNL     1     -15.411  -1.360   1.029  1.00  0.00    -0.206 F 
ATOM     62  C   UNL     1     -17.058  -2.193   2.400  1.00  0.00     0.040 A 
ATOM     63  C   UNL     1     -16.536  -3.526   4.312  1.00  0.00     0.040 A 
ATOM     64  F   UNL     1     -14.322  -3.902   4.939  1.00  0.00    -0.206 F 
ATOM     65  C   UNL     1     -17.484  -2.980   3.457  1.00  0.00     0.006 A 
ENDBRANCH  44  58
BRANCH  45  66
ATOM     66  C   UNL     1     -14.369  -6.253  -4.713  1.00  0.00     0.057 A 
ATOM     67  C   UNL     1     -14.726  -5.235  -5.616  1.00  0.00     0.134 A 
ATOM     68  C   UNL     1     -15.099  -7.445  -4.810  1.00  0.00     0.134 A 
ATOM     69  F   UNL     1     -14.149  -4.026  -5.558  1.00  0.00    -0.206 F 
ATOM     70  C   UNL     1     -15.755  -5.388  -6.550  1.00  0.00     0.040 A 
ATOM     71  C   UNL     1     -16.137  -7.610  -5.738  1.00  0.00     0.040 A 
ATOM     72  F   UNL     1     -14.864  -8.457  -3.962  1.00  0.00    -0.206 F 
ATOM     73  C   UNL     1     -16.474  -6.574  -6.605  1.00  0.00     0.006 A 
ENDBRANCH  45  66
BRANCH  57  74
ATOM     74  C   UNL     1     -10.924  -7.589   0.348  1.00  0.00     0.057 A 
ATOM     75  C   UNL     1     -10.542  -8.637   1.191  1.00  0.00     0.134 A 
ATOM     76  C   UNL     1     -10.079  -7.305  -0.736  1.00  0.00     0.134 A 
ATOM     77  F   UNL     1     -11.269  -8.926   2.282  1.00  0.00    -0.206 F 
ATOM     78  C   UNL     1      -9.385  -9.384   0.959  1.00  0.00     0.040 A 
ATOM     79  C   UNL     1      -8.936  -8.066  -0.998  1.00  0.00     0.040 A 
ATOM     80  F   UNL     1     -10.306  -6.256  -1.536  1.00  0.00    -0.206 F 
ATOM     81  C   UNL     1      -8.584  -9.108  -0.146  1.00  0.00     0.006 A 
ENDBRANCH  57  74
ENDBRANCH  31  32
ENDBRANCH  23  26
ENDBRANCH  21  22
ENDBRANCH  20  21
ENDBRANCH   1  20
TORSDOF 14
