REMARK SMILES Cc1cc(=O)n2cc(-c3ccccc3)nc2n1[C@H](C)C(=O)NCCCCNC(=O)c1ccc(-c2c3nc(c(-c4c(F)cccc4F)c4ccc([nH]4)c(-c4c(F)cccc4F)c4nc(c(-c5c(F)cccc5F)c5ccc2[nH]5)C=C4)C=C3)cc1
REMARK SMILES IDX 24 1 23 2 22 3 20 4 21 5 18 7 19 8 17 9 1 10 2 11 3 12 4 13
REMARK SMILES IDX 16 14 5 15 6 16 15 17 7 18 8 19 9 20 10 21 14 22 11 23 13 24
REMARK SMILES IDX 12 25 25 26 26 27 27 28 28 29 29 31 30 32 31 33 83 34 32 35
REMARK SMILES IDX 82 36 33 37 34 38 35 39 76 40 36 41 81 42 75 43 77 44 37 45
REMARK SMILES IDX 80 46 74 47 73 48 38 50 64 51 47 52 63 53 48 54 51 55 62 56
REMARK SMILES IDX 78 57 49 58 50 59 61 61 79 62 52 63 39 64 40 65 45 66 41 67
REMARK SMILES IDX 42 68 44 69 46 70 43 71 65 72 66 73 71 74 67 75 68 76 70 77
REMARK SMILES IDX 72 78 69 79 53 80 54 81 59 82 55 83 56 84 58 85 60 86 57 87
REMARK H PARENT 22 6 27 30 77 49 51 60
REMARK Flexibility Score: inf
ROOT
ATOM      1  C   UNL     1      -0.492   3.352  -4.635  1.00  0.00     0.023 C 
ENDROOT
BRANCH   1   2
ATOM      2  C   UNL     1      -1.373   2.112  -4.469  1.00  0.00     0.116 C 
BRANCH   2   3
ATOM      3  N   UNL     1      -0.630   0.882  -4.644  1.00  0.00    -0.354 N 
ATOM      4  C   UNL     1      -0.344  -0.107  -3.740  1.00  0.00     0.242 C 
ATOM      5  O   UNL     1       0.424  -1.001  -4.118  1.00  0.00    -0.273 OA
ATOM      6  H   UNL     1      -0.276   0.734  -5.550  1.00  0.00     0.163 HD
BRANCH   4   7
ATOM      7  C   UNL     1      -0.827  -0.038  -2.259  1.00  0.00     0.176 C 
ATOM      8  C   UNL     1       0.117   0.949  -1.590  1.00  0.00     0.042 C 
BRANCH   7   9
ATOM      9  N   UNL     1      -2.323   0.169  -2.108  1.00  0.00    -0.303 N 
ATOM     10  C   UNL     1      -2.414   1.859  -0.150  1.00  0.00     0.065 C 
ATOM     11  C   UNL     1      -3.047   0.994  -1.208  1.00  0.00     0.024 A 
ATOM     12  C   UNL     1      -4.398   1.050  -1.234  1.00  0.00     0.093 A 
ATOM     13  C   UNL     1      -5.191   0.259  -2.193  1.00  0.00     0.259 A 
ATOM     14  C   UNL     1      -3.051  -0.676  -2.922  1.00  0.00     0.218 A 
ATOM     15  O   UNL     1      -6.398   0.306  -2.302  1.00  0.00    -0.269 OA
ATOM     16  N   UNL     1      -4.426  -0.576  -2.989  1.00  0.00    -0.251 N 
ATOM     17  N   UNL     1      -2.618  -1.604  -3.741  1.00  0.00    -0.212 NA
ATOM     18  C   UNL     1      -4.853  -1.405  -4.000  1.00  0.00     0.127 A 
ATOM     19  C   UNL     1      -3.709  -2.013  -4.452  1.00  0.00     0.091 A 
BRANCH  19  20
ATOM     20  C   UNL     1      -3.588  -2.873  -5.595  1.00  0.00     0.002 A 
ATOM     21  C   UNL     1      -3.947  -2.392  -6.853  1.00  0.00     0.010 A 
ATOM     22  C   UNL     1      -2.976  -4.124  -5.465  1.00  0.00     0.010 A 
ATOM     23  C   UNL     1      -3.634  -3.140  -7.979  1.00  0.00     0.001 A 
ATOM     24  C   UNL     1      -2.721  -4.897  -6.593  1.00  0.00     0.001 A 
ATOM     25  C   UNL     1      -3.026  -4.391  -7.849  1.00  0.00     0.000 A 
ENDBRANCH  19  20
ENDBRANCH   7   9
ENDBRANCH   4   7
ENDBRANCH   2   3
ENDBRANCH   1   2
BRANCH   1  26
ATOM     26  C   UNL     1       0.129   3.565  -6.022  1.00  0.00     0.023 C 
BRANCH  26  27
ATOM     27  C   UNL     1      -0.874   3.638  -7.162  1.00  0.00     0.116 C 
BRANCH  27  28
ATOM     28  N   UNL     1      -1.801   4.763  -7.049  1.00  0.00    -0.352 N 
ATOM     29  C   UNL     1      -2.833   5.086  -7.912  1.00  0.00     0.251 C 
ATOM     30  H   UNL     1      -1.678   5.356  -6.273  1.00  0.00     0.163 HD
ATOM     31  O   UNL     1      -3.272   6.229  -7.970  1.00  0.00    -0.269 OA
BRANCH  29  32
ATOM     32  C   UNL     1      -3.407   4.020  -8.756  1.00  0.00     0.039 A 
ATOM     33  C   UNL     1      -3.771   4.252 -10.082  1.00  0.00     0.014 A 
ATOM     34  C   UNL     1      -3.554   2.751  -8.195  1.00  0.00     0.014 A 
ATOM     35  C   UNL     1      -4.216   3.173 -10.845  1.00  0.00     0.010 A 
ATOM     36  C   UNL     1      -3.821   1.663  -8.990  1.00  0.00     0.010 A 
ATOM     37  C   UNL     1      -4.214   1.870 -10.300  1.00  0.00    -0.014 A 
BRANCH  37  38
ATOM     38  C   UNL     1      -4.462   0.705 -11.151  1.00  0.00     0.031 A 
ATOM     39  C   UNL     1      -3.612   0.728 -12.368  1.00  0.00     0.074 A 
ATOM     40  C   UNL     1      -5.264  -0.345 -10.841  1.00  0.00     0.049 A 
ATOM     41  N   UNL     1      -3.985   1.086 -13.550  1.00  0.00    -0.248 NA
ATOM     42  C   UNL     1      -2.154   0.566 -12.237  1.00  0.00     0.031 C 
ATOM     43  C   UNL     1      -5.931  -0.634  -9.565  1.00  0.00     0.029 A 
ATOM     44  N   UNL     1      -5.632  -1.421 -11.609  1.00  0.00    -0.354 N 
ATOM     45  C   UNL     1      -2.874   0.906 -14.368  1.00  0.00     0.074 A 
ATOM     46  C   UNL     1      -1.746   0.815 -13.485  1.00  0.00     0.031 C 
ATOM     47  C   UNL     1      -6.447  -1.888  -9.579  1.00  0.00     0.029 A 
ATOM     48  C   UNL     1      -6.313  -2.433 -10.920  1.00  0.00     0.049 A 
ATOM     49  H   UNL     1      -5.433  -1.477 -12.571  1.00  0.00     0.167 HD
ATOM     50  C   UNL     1      -3.062   0.502 -15.656  1.00  0.00     0.037 A 
ATOM     51  C   UNL     1      -6.775  -3.609 -11.432  1.00  0.00     0.037 A 
ATOM     52  C   UNL     1      -4.447   0.687 -16.029  1.00  0.00     0.049 A 
ATOM     53  C   UNL     1      -6.950  -3.414 -12.877  1.00  0.00     0.074 A 
ATOM     54  C   UNL     1      -5.272   1.735 -16.375  1.00  0.00     0.029 A 
ATOM     55  N   UNL     1      -5.250  -0.340 -15.611  1.00  0.00    -0.354 N 
ATOM     56  N   UNL     1      -7.867  -2.638 -13.376  1.00  0.00    -0.248 NA
ATOM     57  C   UNL     1      -5.869  -3.794 -13.777  1.00  0.00     0.031 C 
ATOM     58  C   UNL     1      -6.599   1.335 -16.026  1.00  0.00     0.029 A 
ATOM     59  C   UNL     1      -6.562   0.034 -15.538  1.00  0.00     0.049 A 
ATOM     60  H   UNL     1      -4.921  -1.241 -15.390  1.00  0.00     0.167 HD
ATOM     61  C   UNL     1      -7.256  -2.084 -14.478  1.00  0.00     0.074 A 
ATOM     62  C   UNL     1      -6.127  -2.958 -14.784  1.00  0.00     0.031 C 
ATOM     63  C   UNL     1      -7.504  -0.791 -14.825  1.00  0.00     0.037 A 
BRANCH  50  64
ATOM     64  C   UNL     1      -2.216  -0.547 -16.361  1.00  0.00     0.057 A 
ATOM     65  C   UNL     1      -2.560  -0.917 -17.677  1.00  0.00     0.134 A 
ATOM     66  C   UNL     1      -1.305  -1.418 -15.727  1.00  0.00     0.134 A 
ATOM     67  F   UNL     1      -3.422  -0.183 -18.398  1.00  0.00    -0.206 F 
ATOM     68  C   UNL     1      -2.100  -2.097 -18.278  1.00  0.00     0.040 A 
ATOM     69  C   UNL     1      -0.809  -2.577 -16.333  1.00  0.00     0.040 A 
ATOM     70  F   UNL     1      -0.912  -1.261 -14.460  1.00  0.00    -0.206 F 
ATOM     71  C   UNL     1      -1.228  -2.938 -17.602  1.00  0.00     0.006 A 
ENDBRANCH  50  64
BRANCH  51  72
ATOM     72  C   UNL     1      -6.772  -4.986 -10.879  1.00  0.00     0.057 A 
ATOM     73  C   UNL     1      -7.632  -6.004 -11.309  1.00  0.00     0.134 A 
ATOM     74  C   UNL     1      -5.633  -5.419 -10.199  1.00  0.00     0.134 A 
ATOM     75  F   UNL     1      -8.678  -5.721 -12.098  1.00  0.00    -0.206 F 
ATOM     76  C   UNL     1      -7.378  -7.362 -11.035  1.00  0.00     0.040 A 
ATOM     77  C   UNL     1      -5.385  -6.754  -9.864  1.00  0.00     0.040 A 
ATOM     78  F   UNL     1      -4.626  -4.561 -10.038  1.00  0.00    -0.206 F 
ATOM     79  C   UNL     1      -6.259  -7.739 -10.296  1.00  0.00     0.006 A 
ENDBRANCH  51  72
BRANCH  63  80
ATOM     80  C   UNL     1      -8.761  -0.165 -14.309  1.00  0.00     0.057 A 
ATOM     81  C   UNL     1      -8.991   0.200 -12.976  1.00  0.00     0.134 A 
ATOM     82  C   UNL     1      -9.755   0.154 -15.238  1.00  0.00     0.134 A 
ATOM     83  F   UNL     1      -8.073  -0.021 -12.027  1.00  0.00    -0.206 F 
ATOM     84  C   UNL     1     -10.169   0.846 -12.585  1.00  0.00     0.040 A 
ATOM     85  C   UNL     1     -10.922   0.822 -14.867  1.00  0.00     0.040 A 
ATOM     86  F   UNL     1      -9.587  -0.149 -16.534  1.00  0.00    -0.206 F 
ATOM     87  C   UNL     1     -11.135   1.167 -13.535  1.00  0.00     0.006 A 
ENDBRANCH  63  80
ENDBRANCH  37  38
ENDBRANCH  29  32
ENDBRANCH  27  28
ENDBRANCH  26  27
ENDBRANCH   1  26
TORSDOF 13
