REMARK SMILES CC(C)[C@@H]1CCCN1C(=O)N1CCO[C@H](CC(=O)NCCCCNC(=O)c2ccc(-c3c4nc(c(-c5c(F)cccc5F)c5ccc([nH]5)c(-c5c(F)cccc5F)c5nc(c(-c6c(F)cccc6F)c6ccc3[nH]6)C=C5)C=C4)cc2)C1
REMARK SMILES IDX 20 1 19 2 17 3 18 4 16 6 15 7 11 8 12 9 81 10 13 11 14 12
REMARK SMILES IDX 9 13 10 14 8 15 4 16 5 17 6 18 7 19 2 20 1 21 3 22 21 23
REMARK SMILES IDX 22 24 23 25 24 26 25 27 26 29 27 30 28 31 80 32 29 33 79 34
REMARK SMILES IDX 30 35 31 36 32 37 73 38 33 39 78 40 72 41 74 42 34 43 77 44
REMARK SMILES IDX 71 45 70 46 35 48 61 49 44 50 60 51 45 52 48 53 59 54 75 55
REMARK SMILES IDX 46 56 47 57 58 59 76 60 49 61 36 62 37 63 42 64 38 65 39 66
REMARK SMILES IDX 41 67 43 68 40 69 62 70 63 71 68 72 64 73 65 74 67 75 69 76
REMARK SMILES IDX 66 77 50 78 51 79 56 80 52 81 53 82 55 83 57 84 54 85
REMARK H PARENT 19 5 24 28 74 47 48 58
REMARK Flexibility Score: inf
ROOT
ATOM      1  C   UNL     1       2.906  -0.845  -2.588  1.00  0.00     0.116 C 
ENDROOT
BRANCH   1   2
ATOM      2  N   UNL     1       2.702  -1.571  -3.826  1.00  0.00    -0.356 N 
ATOM      3  C   UNL     1       1.813  -2.552  -4.145  1.00  0.00     0.222 C 
ATOM      4  O   UNL     1       1.852  -3.035  -5.278  1.00  0.00    -0.275 OA
ATOM      5  H   UNL     1       3.308  -1.313  -4.558  1.00  0.00     0.163 HD
BRANCH   3   6
ATOM      6  C   UNL     1       0.770  -2.986  -3.149  1.00  0.00     0.133 C 
BRANCH   6   7
ATOM      7  C   UNL     1       0.957  -4.441  -2.713  1.00  0.00     0.147 C 
ATOM      8  N   UNL     1      -0.084  -4.219  -0.489  1.00  0.00    -0.320 N 
ATOM      9  C   UNL     1       1.171  -4.579   0.154  1.00  0.00     0.150 C 
ATOM     10  C   UNL     1      -0.210  -4.855  -1.799  1.00  0.00     0.154 C 
ATOM     11  C   UNL     1       2.343  -4.189  -0.742  1.00  0.00     0.182 C 
ATOM     12  O   UNL     1       2.226  -4.699  -2.076  1.00  0.00    -0.374 OA
BRANCH   8  13
ATOM     13  C   UNL     1      -1.209  -4.209   0.301  1.00  0.00     0.320 C 
ATOM     14  O   UNL     1      -1.713  -5.257   0.700  1.00  0.00    -0.248 OA
BRANCH  13  15
ATOM     15  N   UNL     1      -1.750  -2.968   0.558  1.00  0.00    -0.321 N 
ATOM     16  C   UNL     1      -1.309  -1.628   0.127  1.00  0.00     0.089 C 
ATOM     17  C   UNL     1      -2.400  -0.691   0.680  1.00  0.00     0.027 C 
ATOM     18  C   UNL     1      -3.638  -1.569   0.705  1.00  0.00     0.024 C 
ATOM     19  C   UNL     1      -3.077  -2.908   1.151  1.00  0.00     0.122 C 
BRANCH  16  20
ATOM     20  C   UNL     1       0.115  -1.187   0.542  1.00  0.00     0.005 C 
ATOM     21  C   UNL     1       0.402   0.258   0.109  1.00  0.00     0.009 C 
ATOM     22  C   UNL     1       0.422  -1.346   2.032  1.00  0.00     0.009 C 
ENDBRANCH  16  20
ENDBRANCH  13  15
ENDBRANCH   8  13
ENDBRANCH   6   7
ENDBRANCH   3   6
ENDBRANCH   1   2
BRANCH   1  23
ATOM     23  C   UNL     1       4.241  -1.214  -1.937  1.00  0.00     0.023 C 
BRANCH  23  24
ATOM     24  C   UNL     1       5.159  -0.014  -1.729  1.00  0.00     0.023 C 
BRANCH  24  25
ATOM     25  C   UNL     1       4.600   1.062  -0.807  1.00  0.00     0.116 C 
BRANCH  25  26
ATOM     26  N   UNL     1       4.426   0.633   0.574  1.00  0.00    -0.352 N 
ATOM     27  C   UNL     1       4.553   1.409   1.706  1.00  0.00     0.251 C 
ATOM     28  H   UNL     1       4.191  -0.313   0.713  1.00  0.00     0.163 HD
ATOM     29  O   UNL     1       4.417   0.932   2.827  1.00  0.00    -0.269 OA
BRANCH  27  30
ATOM     30  C   UNL     1       4.917   2.828   1.530  1.00  0.00     0.039 A 
ATOM     31  C   UNL     1       6.138   3.278   2.035  1.00  0.00     0.014 A 
ATOM     32  C   UNL     1       4.124   3.652   0.726  1.00  0.00     0.014 A 
ATOM     33  C   UNL     1       6.617   4.530   1.647  1.00  0.00     0.010 A 
ATOM     34  C   UNL     1       4.634   4.869   0.290  1.00  0.00     0.010 A 
ATOM     35  C   UNL     1       5.895   5.308   0.727  1.00  0.00    -0.014 A 
BRANCH  35  36
ATOM     36  C   UNL     1       6.452   6.568   0.173  1.00  0.00     0.031 A 
ATOM     37  C   UNL     1       5.762   7.874   0.443  1.00  0.00     0.074 A 
ATOM     38  C   UNL     1       7.514   6.523  -0.654  1.00  0.00     0.049 A 
ATOM     39  N   UNL     1       6.014   9.059  -0.050  1.00  0.00    -0.248 NA
ATOM     40  C   UNL     1       4.614   7.833   1.362  1.00  0.00     0.031 C 
ATOM     41  C   UNL     1       8.238   5.311  -1.045  1.00  0.00     0.029 A 
ATOM     42  N   UNL     1       8.160   7.526  -1.333  1.00  0.00    -0.354 N 
ATOM     43  C   UNL     1       5.041   9.898   0.474  1.00  0.00     0.074 A 
ATOM     44  C   UNL     1       4.171   9.080   1.292  1.00  0.00     0.031 C 
ATOM     45  C   UNL     1       9.238   5.644  -1.878  1.00  0.00     0.029 A 
ATOM     46  C   UNL     1       9.206   7.085  -2.107  1.00  0.00     0.049 A 
ATOM     47  H   UNL     1       7.898   8.473  -1.272  1.00  0.00     0.167 HD
ATOM     48  C   UNL     1       4.895  11.233   0.304  1.00  0.00     0.037 A 
ATOM     49  C   UNL     1      10.042   7.765  -2.914  1.00  0.00     0.037 A 
ATOM     50  C   UNL     1       5.785  12.054  -0.472  1.00  0.00     0.049 A 
ATOM     51  C   UNL     1       9.886   9.253  -3.051  1.00  0.00     0.074 A 
ATOM     52  C   UNL     1       5.759  13.426  -0.649  1.00  0.00     0.029 A 
ATOM     53  N   UNL     1       6.867  11.576  -1.194  1.00  0.00    -0.354 N 
ATOM     54  N   UNL     1       8.995  10.043  -2.504  1.00  0.00    -0.248 NA
ATOM     55  C   UNL     1      10.854   9.946  -3.915  1.00  0.00     0.031 C 
ATOM     56  C   UNL     1       6.816  13.777  -1.496  1.00  0.00     0.029 A 
ATOM     57  C   UNL     1       7.514  12.626  -1.823  1.00  0.00     0.049 A 
ATOM     58  H   UNL     1       7.136  10.631  -1.252  1.00  0.00     0.167 HD
ATOM     59  C   UNL     1       9.310  11.325  -2.933  1.00  0.00     0.074 A 
ATOM     60  C   UNL     1      10.478  11.210  -3.781  1.00  0.00     0.031 C 
ATOM     61  C   UNL     1       8.686  12.494  -2.649  1.00  0.00     0.037 A 
BRANCH  48  62
ATOM     62  C   UNL     1       3.729  11.886   0.982  1.00  0.00     0.057 A 
ATOM     63  C   UNL     1       3.698  12.076   2.369  1.00  0.00     0.134 A 
ATOM     64  C   UNL     1       2.633  12.341   0.239  1.00  0.00     0.134 A 
ATOM     65  F   UNL     1       4.711  11.647   3.137  1.00  0.00    -0.206 F 
ATOM     66  C   UNL     1       2.605  12.674   2.998  1.00  0.00     0.040 A 
ATOM     67  C   UNL     1       1.544  12.961   0.855  1.00  0.00     0.040 A 
ATOM     68  F   UNL     1       2.602  12.191  -1.093  1.00  0.00    -0.206 F 
ATOM     69  C   UNL     1       1.526  13.123   2.239  1.00  0.00     0.006 A 
ENDBRANCH  48  62
BRANCH  49  70
ATOM     70  C   UNL     1      11.127   7.052  -3.632  1.00  0.00     0.057 A 
ATOM     71  C   UNL     1      12.460   7.181  -3.228  1.00  0.00     0.134 A 
ATOM     72  C   UNL     1      10.862   6.235  -4.737  1.00  0.00     0.134 A 
ATOM     73  F   UNL     1      12.775   7.966  -2.187  1.00  0.00    -0.206 F 
ATOM     74  C   UNL     1      13.496   6.538  -3.907  1.00  0.00     0.040 A 
ATOM     75  C   UNL     1      11.885   5.570  -5.414  1.00  0.00     0.040 A 
ATOM     76  F   UNL     1       9.603   6.066  -5.168  1.00  0.00    -0.206 F 
ATOM     77  C   UNL     1      13.208   5.726  -5.002  1.00  0.00     0.006 A 
ENDBRANCH  49  70
BRANCH  61  78
ATOM     78  C   UNL     1       9.276  13.744  -3.227  1.00  0.00     0.057 A 
ATOM     79  C   UNL     1       9.103  14.085  -4.573  1.00  0.00     0.134 A 
ATOM     80  C   UNL     1       9.982  14.638  -2.413  1.00  0.00     0.134 A 
ATOM     81  F   UNL     1       8.447  13.261  -5.404  1.00  0.00    -0.206 F 
ATOM     82  C   UNL     1       9.624  15.270  -5.095  1.00  0.00     0.040 A 
ATOM     83  C   UNL     1      10.492  15.834  -2.919  1.00  0.00     0.040 A 
ATOM     84  F   UNL     1      10.176  14.369  -1.113  1.00  0.00    -0.206 F 
ATOM     85  C   UNL     1      10.315  16.151  -4.264  1.00  0.00     0.006 A 
ENDBRANCH  61  78
ENDBRANCH  35  36
ENDBRANCH  27  30
ENDBRANCH  25  26
ENDBRANCH  24  25
ENDBRANCH  23  24
ENDBRANCH   1  23
TORSDOF 15
