REMARK SMILES Cc1cc(C)cc(Oc2nc3ccccn3c(=O)c2/C=C2\SC(=S)N(CCC(=O)NCCCCNC(=O)c3ccc(-c4c5nc(c(-c6c(F)cccc6F)c6ccc([nH]6)c(-c6c(F)cccc6F)c6nc(c(-c7c(F)cccc7F)c7ccc4[nH]7)C=C6)C=C5)cc3)C2=O)c1
REMARK SMILES IDX 31 1 30 2 28 3 29 4 27 6 26 7 25 8 20 9 21 10 22 11 92 12
REMARK SMILES IDX 23 13 93 14 24 15 19 16 9 17 10 18 11 19 17 20 12 21 16 22
REMARK SMILES IDX 18 23 13 24 15 25 14 26 8 27 7 28 1 29 2 30 3 31 94 32 4 33
REMARK SMILES IDX 5 34 6 35 32 36 33 37 34 38 35 39 36 40 37 42 38 43 39 44
REMARK SMILES IDX 91 45 40 46 90 47 41 48 42 49 43 50 84 51 44 52 89 53 83 54
REMARK SMILES IDX 85 55 45 56 88 57 82 58 81 59 46 61 72 62 55 63 71 64 56 65
REMARK SMILES IDX 59 66 70 67 86 68 57 69 58 70 69 72 87 73 60 74 47 75 48 76
REMARK SMILES IDX 53 77 49 78 50 79 52 80 54 81 51 82 73 83 74 84 79 85 75 86
REMARK SMILES IDX 76 87 78 88 80 89 77 90 61 91 62 92 67 93 63 94 64 95 66 96
REMARK SMILES IDX 68 97 65 98
REMARK H PARENT 30 5 35 41 85 60 59 71
REMARK Flexibility Score: inf
ROOT
ATOM      1  C   UNL     1       0.702   0.988   3.246  1.00  0.00     0.116 C 
ENDROOT
BRANCH   1   2
ATOM      2  N   UNL     1       0.882   1.532   4.586  1.00  0.00    -0.356 N 
ATOM      3  C   UNL     1       2.015   1.937   5.224  1.00  0.00     0.221 C 
ATOM      4  O   UNL     1       1.937   2.314   6.393  1.00  0.00    -0.275 OA
ATOM      5  H   UNL     1       0.055   1.620   5.113  1.00  0.00     0.163 HD
BRANCH   3   6
ATOM      6  C   UNL     1       3.341   1.946   4.492  1.00  0.00     0.122 C 
BRANCH   6   7
ATOM      7  C   UNL     1       4.335   0.896   5.036  1.00  0.00     0.137 C 
BRANCH   7   8
ATOM      8  N   UNL     1       4.436  -0.370   4.275  1.00  0.00    -0.292 N 
ATOM      9  C   UNL     1       2.595  -3.294   3.468  1.00  0.00     0.041 C 
ATOM     10  C   UNL     1       3.707  -2.531   3.651  1.00  0.00     0.081 C 
ATOM     11  S   UNL     1       5.037  -2.223   2.585  1.00  0.00    -0.054 SA
ATOM     12  C   UNL     1       3.787  -1.518   4.760  1.00  0.00     0.266 C 
ATOM     13  C   UNL     1       5.124  -0.528   3.088  1.00  0.00     0.148 C 
ATOM     14  O   UNL     1       3.268  -1.659   5.829  1.00  0.00    -0.268 OA
ATOM     15  S   UNL     1       5.854   0.647   2.152  1.00  0.00    -0.052 S 
BRANCH   9  16
ATOM     16  C   UNL     1       2.312  -4.202   2.340  1.00  0.00     0.104 A 
ATOM     17  C   UNL     1       1.265  -4.350   1.434  1.00  0.00     0.234 A 
ATOM     18  N   UNL     1       1.404  -5.427   0.527  1.00  0.00    -0.194 NA
ATOM     19  C   UNL     1       2.580  -5.909   0.204  1.00  0.00     0.143 A 
ATOM     20  C   UNL     1       3.489  -5.166   2.186  1.00  0.00     0.269 A 
ATOM     21  C   UNL     1       2.841  -6.769  -1.018  1.00  0.00     0.048 A 
ATOM     22  N   UNL     1       3.708  -5.679   0.945  1.00  0.00    -0.267 N 
ATOM     23  O   UNL     1       4.215  -5.431   3.149  1.00  0.00    -0.268 OA
ATOM     24  C   UNL     1       4.079  -7.113  -1.396  1.00  0.00     0.005 A 
ATOM     25  C   UNL     1       4.975  -6.135   0.581  1.00  0.00     0.096 A 
ATOM     26  C   UNL     1       5.195  -6.791  -0.564  1.00  0.00     0.019 A 
BRANCH  17  27
ATOM     27  O   UNL     1      -0.118  -3.547   1.400  1.00  0.00    -0.438 OA
BRANCH  27  28
ATOM     28  C   UNL     1      -0.701  -2.335   0.667  1.00  0.00     0.130 A 
ATOM     29  C   UNL     1       0.474   0.704  -1.492  1.00  0.00     0.044 C 
ATOM     30  C   UNL     1      -0.501  -0.151  -0.708  1.00  0.00    -0.047 A 
ATOM     31  C   UNL     1      -1.595   0.375  -0.092  1.00  0.00     0.007 A 
ATOM     32  C   UNL     1      -0.227  -1.516  -0.442  1.00  0.00     0.050 A 
ATOM     33  C   UNL     1      -2.357  -0.461   0.746  1.00  0.00    -0.047 A 
ATOM     34  C   UNL     1      -3.663   0.140   1.179  1.00  0.00     0.044 C 
ATOM     35  C   UNL     1      -1.883  -1.766   1.191  1.00  0.00     0.050 A 
ENDBRANCH  27  28
ENDBRANCH  17  27
ENDBRANCH   9  16
ENDBRANCH   7   8
ENDBRANCH   6   7
ENDBRANCH   3   6
ENDBRANCH   1   2
BRANCH   1  36
ATOM     36  C   UNL     1       1.656  -0.183   2.969  1.00  0.00     0.023 C 
BRANCH  36  37
ATOM     37  C   UNL     1       1.222  -1.170   1.899  1.00  0.00     0.023 C 
BRANCH  37  38
ATOM     38  C   UNL     1       2.148  -1.613   0.605  1.00  0.00     0.116 C 
BRANCH  38  39
ATOM     39  N   UNL     1       2.004  -2.847  -0.584  1.00  0.00    -0.352 N 
ATOM     40  C   UNL     1       1.183  -3.759  -1.479  1.00  0.00     0.251 C 
ATOM     41  H   UNL     1       2.936  -3.086  -0.793  1.00  0.00     0.163 HD
ATOM     42  O   UNL     1       1.833  -4.142  -2.468  1.00  0.00    -0.269 OA
BRANCH  40  43
ATOM     43  C   UNL     1      -0.305  -4.460  -1.367  1.00  0.00     0.039 A 
ATOM     44  C   UNL     1      -0.409  -5.863  -1.383  1.00  0.00     0.014 A 
ATOM     45  C   UNL     1      -1.581  -3.907  -1.303  1.00  0.00     0.014 A 
ATOM     46  C   UNL     1      -1.504  -6.617  -0.865  1.00  0.00     0.010 A 
ATOM     47  C   UNL     1      -2.687  -4.611  -0.714  1.00  0.00     0.010 A 
ATOM     48  C   UNL     1      -2.646  -5.981  -0.405  1.00  0.00    -0.014 A 
BRANCH  48  49
ATOM     49  C   UNL     1      -3.834  -6.736   0.162  1.00  0.00     0.031 A 
ATOM     50  C   UNL     1      -5.162  -6.651  -0.559  1.00  0.00     0.074 A 
ATOM     51  C   UNL     1      -3.814  -7.496   1.288  1.00  0.00     0.049 A 
ATOM     52  N   UNL     1      -6.354  -7.061  -0.192  1.00  0.00    -0.248 NA
ATOM     53  C   UNL     1      -5.138  -5.978  -1.863  1.00  0.00     0.031 C 
ATOM     54  C   UNL     1      -2.653  -7.759   2.136  1.00  0.00     0.029 A 
ATOM     55  N   UNL     1      -4.835  -8.194   1.921  1.00  0.00    -0.354 N 
ATOM     56  C   UNL     1      -7.222  -6.630  -1.188  1.00  0.00     0.074 A 
ATOM     57  C   UNL     1      -6.426  -5.885  -2.140  1.00  0.00     0.031 C 
ATOM     58  C   UNL     1      -3.018  -8.565   3.155  1.00  0.00     0.029 A 
ATOM     59  C   UNL     1      -4.450  -8.860   3.067  1.00  0.00     0.049 A 
ATOM     60  H   UNL     1      -5.758  -8.211   1.580  1.00  0.00     0.167 HD
ATOM     61  C   UNL     1      -8.552  -6.849  -1.340  1.00  0.00     0.037 A 
ATOM     62  C   UNL     1      -5.155  -9.611   3.947  1.00  0.00     0.037 A 
ATOM     63  C   UNL     1      -9.371  -7.659  -0.483  1.00  0.00     0.049 A 
ATOM     64  C   UNL     1      -6.645  -9.830   3.780  1.00  0.00     0.074 A 
ATOM     65  C   UNL     1     -10.716  -7.965  -0.619  1.00  0.00     0.029 A 
ATOM     66  N   UNL     1      -8.927  -8.311   0.653  1.00  0.00    -0.354 N 
ATOM     67  N   UNL     1      -7.443  -9.420   2.826  1.00  0.00    -0.248 NA
ATOM     68  C   UNL     1      -7.335 -10.618   4.822  1.00  0.00     0.031 C 
ATOM     69  C   UNL     1     -11.092  -8.785   0.450  1.00  0.00     0.029 A 
ATOM     70  C   UNL     1      -9.972  -9.014   1.230  1.00  0.00     0.049 A 
ATOM     71  H   UNL     1      -8.005  -8.280   1.000  1.00  0.00     0.167 HD
ATOM     72  C   UNL     1      -8.701  -9.941   3.123  1.00  0.00     0.074 A 
ATOM     73  C   UNL     1      -8.573 -10.688   4.353  1.00  0.00     0.031 C 
ATOM     74  C   UNL     1      -9.854  -9.808   2.425  1.00  0.00     0.037 A 
BRANCH  61  75
ATOM     75  C   UNL     1      -9.204  -6.175  -2.510  1.00  0.00     0.057 A 
ATOM     76  C   UNL     1      -8.959  -6.582  -3.828  1.00  0.00     0.134 A 
ATOM     77  C   UNL     1     -10.046  -5.075  -2.312  1.00  0.00     0.134 A 
ATOM     78  F   UNL     1      -8.145  -7.618  -4.079  1.00  0.00    -0.206 F 
ATOM     79  C   UNL     1      -9.479  -5.878  -4.912  1.00  0.00     0.040 A 
ATOM     80  C   UNL     1     -10.601  -4.385  -3.389  1.00  0.00     0.040 A 
ATOM     81  F   UNL     1     -10.330  -4.645  -1.074  1.00  0.00    -0.206 F 
ATOM     82  C   UNL     1     -10.303  -4.775  -4.694  1.00  0.00     0.006 A 
ENDBRANCH  61  75
BRANCH  62  83
ATOM     83  C   UNL     1      -4.481 -10.269   5.105  1.00  0.00     0.057 A 
ATOM     84  C   UNL     1      -4.321 -11.662   5.144  1.00  0.00     0.134 A 
ATOM     85  C   UNL     1      -4.087  -9.549   6.238  1.00  0.00     0.134 A 
ATOM     86  F   UNL     1      -4.729 -12.416   4.112  1.00  0.00    -0.206 F 
ATOM     87  C   UNL     1      -3.808 -12.314   6.268  1.00  0.00     0.040 A 
ATOM     88  C   UNL     1      -3.553 -10.187   7.362  1.00  0.00     0.040 A 
ATOM     89  F   UNL     1      -4.239  -8.218   6.280  1.00  0.00    -0.206 F 
ATOM     90  C   UNL     1      -3.419 -11.574   7.382  1.00  0.00     0.006 A 
ENDBRANCH  62  83
BRANCH  74  91
ATOM     91  C   UNL     1     -11.077 -10.541   2.897  1.00  0.00     0.057 A 
ATOM     92  C   UNL     1     -11.835 -10.104   3.989  1.00  0.00     0.134 A 
ATOM     93  C   UNL     1     -11.563 -11.642   2.177  1.00  0.00     0.134 A 
ATOM     94  F   UNL     1     -11.425  -9.062   4.728  1.00  0.00    -0.206 F 
ATOM     95  C   UNL     1     -13.032 -10.732   4.346  1.00  0.00     0.040 A 
ATOM     96  C   UNL     1     -12.767 -12.266   2.512  1.00  0.00     0.040 A 
ATOM     97  F   UNL     1     -10.891 -12.109   1.113  1.00  0.00    -0.206 F 
ATOM     98  C   UNL     1     -13.507 -11.809   3.599  1.00  0.00     0.006 A 
ENDBRANCH  74  91
ENDBRANCH  48  49
ENDBRANCH  40  43
ENDBRANCH  38  39
ENDBRANCH  37  38
ENDBRANCH  36  37
ENDBRANCH   1  36
TORSDOF 16
