REMARK SMILES CC(C)NS(=O)(=O)c1cc(C(=O)NCCCCNC(=O)c2ccc(-c3c4nc(c(-c5c(F)cccc5F)c5ccc([nH]5)c(-c5c(F)cccc5F)c5nc(c(-c6c(F)cccc6F)c6ccc3[nH]6)C=C5)C=C4)cc2)cc(-c2ccc(CO)cc2)c1
REMARK SMILES IDX 15 1 14 2 13 3 11 4 12 5 10 7 8 8 9 9 85 10 76 11 75 12 5 13
REMARK SMILES IDX 6 14 7 15 4 16 2 18 1 19 3 20 77 21 78 22 84 23 79 24 83 25
REMARK SMILES IDX 80 26 81 27 82 28 16 30 17 31 18 32 19 33 20 35 21 36 22 37
REMARK SMILES IDX 74 38 23 39 73 40 24 41 25 42 26 43 67 44 27 45 72 46 66 47
REMARK SMILES IDX 68 48 28 49 71 50 65 51 64 52 29 54 55 55 38 56 54 57 39 58
REMARK SMILES IDX 42 59 53 60 69 61 40 62 41 63 52 65 70 66 43 67 30 68 31 69
REMARK SMILES IDX 36 70 32 71 33 72 35 73 37 74 34 75 56 76 57 77 62 78 58 79
REMARK SMILES IDX 59 80 61 81 63 82 60 83 44 84 45 85 50 86 46 87 47 88 49 89
REMARK SMILES IDX 51 90 48 91
REMARK H PARENT 13 6 4 17 82 29 18 34 68 53 42 64
REMARK Flexibility Score: inf
ROOT
ATOM      1  C   UNL     1       2.947   3.465  -7.458  1.00  0.00     0.023 C 
ENDROOT
BRANCH   1   2
ATOM      2  C   UNL     1       1.663   2.665  -7.606  1.00  0.00     0.116 C 
BRANCH   2   3
ATOM      3  N   UNL     1       1.823   1.219  -7.687  1.00  0.00    -0.352 N 
ATOM      4  C   UNL     1       1.107   0.187  -7.108  1.00  0.00     0.251 C 
ATOM      5  O   UNL     1       1.443  -0.970  -7.352  1.00  0.00    -0.269 OA
ATOM      6  H   UNL     1       2.573   0.925  -8.254  1.00  0.00     0.163 HD
BRANCH   4   7
ATOM      7  C   UNL     1       0.004   0.433  -6.134  1.00  0.00     0.041 A 
ATOM      8  C   UNL     1      -1.108  -0.158  -4.076  1.00  0.00     0.083 A 
ATOM      9  C   UNL     1      -0.223  -0.489  -5.109  1.00  0.00     0.035 A 
ATOM     10  C   UNL     1      -1.681   1.117  -4.004  1.00  0.00     0.030 A 
ATOM     11  C   UNL     1      -1.471   2.033  -5.039  1.00  0.00    -0.016 A 
ATOM     12  C   UNL     1      -0.760   1.598  -6.165  1.00  0.00     0.022 A 
BRANCH   8  13
ATOM     13  S   UNL     1      -1.530  -1.363  -2.849  1.00  0.00     0.240 S 
ATOM     14  O   UNL     1      -0.975  -2.640  -3.237  1.00  0.00    -0.207 OA
ATOM     15  O   UNL     1      -2.941  -1.218  -2.572  1.00  0.00    -0.207 OA
BRANCH  13  16
ATOM     16  N   UNL     1      -0.740  -0.817  -1.483  1.00  0.00    -0.209 NA
ATOM     17  H   UNL     1      -1.079   0.132  -1.327  1.00  0.00     0.141 HD
BRANCH  16  18
ATOM     18  C   UNL     1       0.718  -0.746  -1.360  1.00  0.00     0.063 C 
ATOM     19  C   UNL     1       1.036  -0.060  -0.031  1.00  0.00     0.025 C 
ATOM     20  C   UNL     1       1.372  -2.119  -1.407  1.00  0.00     0.025 C 
ENDBRANCH  16  18
ENDBRANCH  13  16
ENDBRANCH   8  13
BRANCH  11  21
ATOM     21  C   UNL     1      -1.803   3.463  -4.918  1.00  0.00    -0.018 A 
ATOM     22  C   UNL     1      -2.435   4.170  -5.951  1.00  0.00     0.009 A 
ATOM     23  C   UNL     1      -1.345   4.196  -3.808  1.00  0.00     0.009 A 
ATOM     24  C   UNL     1      -2.616   5.556  -5.870  1.00  0.00     0.007 A 
ATOM     25  C   UNL     1      -1.527   5.579  -3.722  1.00  0.00     0.007 A 
ATOM     26  C   UNL     1      -2.174   6.271  -4.750  1.00  0.00    -0.023 A 
BRANCH  26  27
ATOM     27  C   UNL     1      -2.415   7.754  -4.651  1.00  0.00     0.191 C 
BRANCH  27  28
ATOM     28  O   UNL     1      -1.723   8.449  -5.677  1.00  0.00    -0.392 OA
ATOM     29  H   UNL     1      -0.770   8.291  -5.589  1.00  0.00     0.211 HD
ENDBRANCH  27  28
ENDBRANCH  26  27
ENDBRANCH  11  21
ENDBRANCH   4   7
ENDBRANCH   2   3
ENDBRANCH   1   2
BRANCH   1  30
ATOM     30  C   UNL     1       3.928   3.395  -8.616  1.00  0.00     0.023 C 
BRANCH  30  31
ATOM     31  C   UNL     1       3.346   3.684  -9.993  1.00  0.00     0.116 C 
BRANCH  31  32
ATOM     32  N   UNL     1       2.740   5.004 -10.111  1.00  0.00    -0.352 N 
ATOM     33  C   UNL     1       3.027   6.029 -10.985  1.00  0.00     0.251 C 
ATOM     34  H   UNL     1       2.018   5.191  -9.470  1.00  0.00     0.163 HD
ATOM     35  O   UNL     1       2.473   7.117 -10.861  1.00  0.00    -0.269 OA
BRANCH  33  36
ATOM     36  C   UNL     1       4.037   5.831 -12.046  1.00  0.00     0.039 A 
ATOM     37  C   UNL     1       5.021   6.806 -12.234  1.00  0.00     0.014 A 
ATOM     38  C   UNL     1       4.043   4.670 -12.821  1.00  0.00     0.014 A 
ATOM     39  C   UNL     1       6.066   6.567 -13.129  1.00  0.00     0.010 A 
ATOM     40  C   UNL     1       5.135   4.392 -13.637  1.00  0.00     0.010 A 
ATOM     41  C   UNL     1       6.163   5.335 -13.796  1.00  0.00    -0.014 A 
BRANCH  41  42
ATOM     42  C   UNL     1       7.335   5.003 -14.646  1.00  0.00     0.031 A 
ATOM     43  C   UNL     1       7.150   4.707 -16.109  1.00  0.00     0.074 A 
ATOM     44  C   UNL     1       8.557   4.894 -14.087  1.00  0.00     0.049 A 
ATOM     45  N   UNL     1       8.035   4.324 -16.994  1.00  0.00    -0.248 NA
ATOM     46  C   UNL     1       5.784   4.830 -16.642  1.00  0.00     0.031 C 
ATOM     47  C   UNL     1       8.864   5.106 -12.670  1.00  0.00     0.029 A 
ATOM     48  N   UNL     1       9.770   4.566 -14.641  1.00  0.00    -0.354 N 
ATOM     49  C   UNL     1       7.333   4.150 -18.180  1.00  0.00     0.074 A 
ATOM     50  C   UNL     1       5.940   4.409 -17.888  1.00  0.00     0.031 C 
ATOM     51  C   UNL     1      10.180   4.929 -12.473  1.00  0.00     0.029 A 
ATOM     52  C   UNL     1      10.804   4.546 -13.735  1.00  0.00     0.049 A 
ATOM     53  H   UNL     1       9.889   4.365 -15.597  1.00  0.00     0.167 HD
ATOM     54  C   UNL     1       7.808   3.829 -19.407  1.00  0.00     0.037 A 
ATOM     55  C   UNL     1      12.105   4.241 -13.899  1.00  0.00     0.037 A 
ATOM     56  C   UNL     1       9.197   3.587 -19.697  1.00  0.00     0.049 A 
ATOM     57  C   UNL     1      12.604   3.860 -15.266  1.00  0.00     0.074 A 
ATOM     58  C   UNL     1       9.785   3.311 -20.919  1.00  0.00     0.029 A 
ATOM     59  N   UNL     1      10.213   3.583 -18.754  1.00  0.00    -0.354 N 
ATOM     60  N   UNL     1      11.940   3.773 -16.394  1.00  0.00    -0.248 NA
ATOM     61  C   UNL     1      14.033   3.539 -15.386  1.00  0.00     0.031 C 
ATOM     62  C   UNL     1      11.148   3.083 -20.706  1.00  0.00     0.029 A 
ATOM     63  C   UNL     1      11.421   3.280 -19.362  1.00  0.00     0.049 A 
ATOM     64  H   UNL     1      10.095   3.769 -17.794  1.00  0.00     0.167 HD
ATOM     65  C   UNL     1      12.874   3.419 -17.359  1.00  0.00     0.074 A 
ATOM     66  C   UNL     1      14.153   3.323 -16.688  1.00  0.00     0.031 C 
ATOM     67  C   UNL     1      12.689   3.194 -18.683  1.00  0.00     0.037 A 
BRANCH  54  68
ATOM     68  C   UNL     1       6.814   3.719 -20.528  1.00  0.00     0.057 A 
ATOM     69  C   UNL     1       6.145   4.841 -21.037  1.00  0.00     0.134 A 
ATOM     70  C   UNL     1       6.551   2.483 -21.132  1.00  0.00     0.134 A 
ATOM     71  F   UNL     1       6.343   6.054 -20.498  1.00  0.00    -0.206 F 
ATOM     72  C   UNL     1       5.228   4.732 -22.084  1.00  0.00     0.040 A 
ATOM     73  C   UNL     1       5.660   2.367 -22.201  1.00  0.00     0.040 A 
ATOM     74  F   UNL     1       7.161   1.369 -20.701  1.00  0.00    -0.206 F 
ATOM     75  C   UNL     1       4.990   3.493 -22.675  1.00  0.00     0.006 A 
ENDBRANCH  54  68
BRANCH  55  76
ATOM     76  C   UNL     1      13.037   4.292 -12.741  1.00  0.00     0.057 A 
ATOM     77  C   UNL     1      14.051   5.255 -12.672  1.00  0.00     0.134 A 
ATOM     78  C   UNL     1      12.949   3.374 -11.688  1.00  0.00     0.134 A 
ATOM     79  F   UNL     1      14.199   6.152 -13.658  1.00  0.00    -0.206 F 
ATOM     80  C   UNL     1      14.958   5.288 -11.611  1.00  0.00     0.040 A 
ATOM     81  C   UNL     1      13.831   3.413 -10.607  1.00  0.00     0.040 A 
ATOM     82  F   UNL     1      11.996   2.431 -11.689  1.00  0.00    -0.206 F 
ATOM     83  C   UNL     1      14.846   4.367 -10.572  1.00  0.00     0.006 A 
ENDBRANCH  55  76
BRANCH  67  84
ATOM     84  C   UNL     1      13.902   2.861 -19.504  1.00  0.00     0.057 A 
ATOM     85  C   UNL     1      14.563   1.632 -19.388  1.00  0.00     0.134 A 
ATOM     86  C   UNL     1      14.387   3.768 -20.455  1.00  0.00     0.134 A 
ATOM     87  F   UNL     1      14.158   0.723 -18.488  1.00  0.00    -0.206 F 
ATOM     88  C   UNL     1      15.678   1.327 -20.171  1.00  0.00     0.040 A 
ATOM     89  C   UNL     1      15.481   3.462 -21.266  1.00  0.00     0.040 A 
ATOM     90  F   UNL     1      13.795   4.960 -20.625  1.00  0.00    -0.206 F 
ATOM     91  C   UNL     1      16.134   2.240 -21.120  1.00  0.00     0.006 A 
ENDBRANCH  67  84
ENDBRANCH  41  42
ENDBRANCH  33  36
ENDBRANCH  31  32
ENDBRANCH  30  31
ENDBRANCH   1  30
TORSDOF 17
