REMARK SMILES Cc1ccc(CN2/C(=[NH+]/C(=O)CCC(=O)NCCCCNC(=O)c3ccc(-c4c5nc(c(-c6c(F)cccc6F)c6ccc([nH]6)c(-c6c(F)cccc6F)c6nc(c(-c7c(F)cccc7F)c7ccc4[nH]7)C=C6)C=C5)cc3)S[C@H]3CS(=O)(=O)C[C@@H]32)cc1
REMARK SMILES IDX 17 1 16 2 14 3 15 4 13 6 12 7 10 8 7 9 8 10 85 11 9 12 78 13
REMARK SMILES IDX 79 14 84 15 80 17 81 18 11 19 82 20 83 21 6 22 5 23 1 24
REMARK SMILES IDX 2 25 3 26 87 27 4 28 86 29 18 30 19 31 20 32 21 33 22 34
REMARK SMILES IDX 23 36 24 37 25 38 77 39 26 40 76 41 27 42 28 43 29 44 70 45
REMARK SMILES IDX 30 46 75 47 69 48 71 49 31 50 74 51 68 52 67 53 32 55 58 56
REMARK SMILES IDX 41 57 57 58 42 59 45 60 56 61 72 62 43 63 44 64 55 66 73 67
REMARK SMILES IDX 46 68 33 69 34 70 39 71 35 72 36 73 38 74 40 75 37 76 59 77
REMARK SMILES IDX 60 78 65 79 61 80 62 81 64 82 66 83 63 84 47 85 48 86 53 87
REMARK SMILES IDX 49 88 50 89 52 90 54 91 51 92
REMARK H PARENT 16 5 9 16 21 35 71 54 45 65
REMARK Flexibility Score: inf
ROOT
ATOM      1  C   UNL     1      -0.175  -3.633  -1.975  1.00  0.00     0.116 C 
ENDROOT
BRANCH   1   2
ATOM      2  N   UNL     1       0.265  -4.904  -1.461  1.00  0.00    -0.356 N 
ATOM      3  C   UNL     1      -0.621  -5.922  -1.204  1.00  0.00     0.220 C 
ATOM      4  O   UNL     1      -0.424  -6.656  -0.237  1.00  0.00    -0.275 OA
ATOM      5  H   UNL     1       1.224  -5.047  -1.291  1.00  0.00     0.163 HD
BRANCH   3   6
ATOM      6  C   UNL     1      -1.807  -6.100  -2.152  1.00  0.00     0.112 C 
BRANCH   6   7
ATOM      7  C   UNL     1      -3.202  -5.641  -1.651  1.00  0.00     0.138 C 
BRANCH   7   8
ATOM      8  C   UNL     1      -3.751  -4.304  -2.224  1.00  0.00     0.308 C 
ATOM      9  N   UNL     1      -4.820  -0.853  -1.081  1.00  0.00    -0.247 N 
ATOM     10  C   UNL     1      -4.766  -2.247  -1.575  1.00  0.00     0.314 C 
ATOM     11  C   UNL     1      -5.968  -0.154  -1.823  1.00  0.00     0.206 C 
ATOM     12  N   UNL     1      -3.986  -3.253  -1.308  1.00  0.00    -0.205 N 
ATOM     13  S   UNL     1      -6.095  -2.494  -2.824  1.00  0.00    -0.030 SA
ATOM     14  C   UNL     1      -5.994  -0.766  -3.231  1.00  0.00     0.120 C 
ATOM     15  C   UNL     1      -5.973   1.343  -2.039  1.00  0.00     0.187 C 
ATOM     16  H   UNL     1      -3.541  -3.284  -0.431  1.00  0.00     0.316 HD
ATOM     17  C   UNL     1      -6.944  -0.064  -4.166  1.00  0.00     0.156 C 
ATOM     18  S   UNL     1      -6.993   1.597  -3.508  1.00  0.00     0.155 S 
ATOM     19  O   UNL     1      -3.771  -4.173  -3.450  1.00  0.00    -0.247 OA
ATOM     20  O   UNL     1      -6.291   2.501  -4.412  1.00  0.00    -0.229 OA
ATOM     21  O   UNL     1      -8.341   1.865  -3.081  1.00  0.00    -0.229 OA
BRANCH   9  22
ATOM     22  C   UNL     1      -4.394  -0.237   0.309  1.00  0.00     0.273 C 
BRANCH  22  23
ATOM     23  C   UNL     1      -2.923   0.137   0.832  1.00  0.00    -0.007 A 
ATOM     24  C   UNL     1       1.397   0.570   0.683  1.00  0.00     0.044 C 
ATOM     25  C   UNL     1      -0.058   0.577   1.111  1.00  0.00    -0.051 A 
ATOM     26  C   UNL     1      -0.673  -0.553   1.659  1.00  0.00     0.004 A 
ATOM     27  C   UNL     1      -0.915   1.619   0.774  1.00  0.00     0.004 A 
ATOM     28  C   UNL     1      -2.091  -0.761   1.536  1.00  0.00     0.008 A 
ATOM     29  C   UNL     1      -2.331   1.416   0.708  1.00  0.00     0.008 A 
ENDBRANCH  22  23
ENDBRANCH   9  22
ENDBRANCH   7   8
ENDBRANCH   6   7
ENDBRANCH   3   6
ENDBRANCH   1   2
BRANCH   1  30
ATOM     30  C   UNL     1      -1.055  -3.085  -0.905  1.00  0.00     0.023 C 
BRANCH  30  31
ATOM     31  C   UNL     1      -1.606  -1.730  -1.178  1.00  0.00     0.023 C 
BRANCH  31  32
ATOM     32  C   UNL     1      -1.524  -0.800  -2.358  1.00  0.00     0.116 C 
BRANCH  32  33
ATOM     33  N   UNL     1      -2.539  -0.689  -3.391  1.00  0.00    -0.352 N 
ATOM     34  C   UNL     1      -3.097   0.447  -4.003  1.00  0.00     0.251 C 
ATOM     35  H   UNL     1      -2.893  -1.548  -3.715  1.00  0.00     0.163 HD
ATOM     36  O   UNL     1      -3.744   0.285  -5.039  1.00  0.00    -0.269 OA
BRANCH  34  37
ATOM     37  C   UNL     1      -3.004   1.870  -3.505  1.00  0.00     0.039 A 
ATOM     38  C   UNL     1      -2.980   2.861  -4.474  1.00  0.00     0.014 A 
ATOM     39  C   UNL     1      -2.237   2.116  -2.414  1.00  0.00     0.014 A 
ATOM     40  C   UNL     1      -1.753   3.431  -4.737  1.00  0.00     0.010 A 
ATOM     41  C   UNL     1      -0.950   2.398  -2.710  1.00  0.00     0.010 A 
ATOM     42  C   UNL     1      -0.716   2.978  -3.949  1.00  0.00    -0.014 A 
BRANCH  42  43
ATOM     43  C   UNL     1       0.669   2.928  -4.303  1.00  0.00     0.031 A 
ATOM     44  C   UNL     1       1.496   3.937  -3.648  1.00  0.00     0.074 A 
ATOM     45  C   UNL     1       1.031   1.739  -4.840  1.00  0.00     0.049 A 
ATOM     46  N   UNL     1       2.642   4.321  -4.059  1.00  0.00    -0.248 NA
ATOM     47  C   UNL     1       1.052   4.669  -2.456  1.00  0.00     0.031 C 
ATOM     48  C   UNL     1       2.316   1.060  -4.877  1.00  0.00     0.029 A 
ATOM     49  N   UNL     1       0.206   0.917  -5.623  1.00  0.00    -0.354 N 
ATOM     50  C   UNL     1       3.244   4.914  -2.970  1.00  0.00     0.074 A 
ATOM     51  C   UNL     1       2.167   5.311  -2.107  1.00  0.00     0.031 C 
ATOM     52  C   UNL     1       2.294   0.147  -5.871  1.00  0.00     0.029 A 
ATOM     53  C   UNL     1       1.032   0.307  -6.582  1.00  0.00     0.049 A 
ATOM     54  H   UNL     1      -0.765   0.792  -5.520  1.00  0.00     0.167 HD
ATOM     55  C   UNL     1       4.588   4.743  -2.827  1.00  0.00     0.037 A 
ATOM     56  C   UNL     1       0.913   0.726  -7.879  1.00  0.00     0.037 A 
ATOM     57  C   UNL     1       5.080   3.907  -3.931  1.00  0.00     0.049 A 
ATOM     58  C   UNL     1       2.099   1.564  -8.309  1.00  0.00     0.074 A 
ATOM     59  C   UNL     1       5.429   2.568  -4.013  1.00  0.00     0.029 A 
ATOM     60  N   UNL     1       4.883   4.337  -5.237  1.00  0.00    -0.354 N 
ATOM     61  N   UNL     1       2.886   2.202  -7.484  1.00  0.00    -0.248 NA
ATOM     62  C   UNL     1       2.523   1.702  -9.697  1.00  0.00     0.031 C 
ATOM     63  C   UNL     1       5.402   2.193  -5.387  1.00  0.00     0.029 A 
ATOM     64  C   UNL     1       5.028   3.298  -6.132  1.00  0.00     0.049 A 
ATOM     65  H   UNL     1       4.667   5.264  -5.490  1.00  0.00     0.167 HD
ATOM     66  C   UNL     1       3.897   2.812  -8.180  1.00  0.00     0.074 A 
ATOM     67  C   UNL     1       3.627   2.458  -9.562  1.00  0.00     0.031 C 
ATOM     68  C   UNL     1       4.866   3.552  -7.558  1.00  0.00     0.037 A 
BRANCH  55  69
ATOM     69  C   UNL     1       5.419   5.051  -1.603  1.00  0.00     0.057 A 
ATOM     70  C   UNL     1       6.739   4.561  -1.518  1.00  0.00     0.134 A 
ATOM     71  C   UNL     1       5.024   5.817  -0.490  1.00  0.00     0.134 A 
ATOM     72  F   UNL     1       7.298   3.861  -2.514  1.00  0.00    -0.206 F 
ATOM     73  C   UNL     1       7.572   4.777  -0.414  1.00  0.00     0.040 A 
ATOM     74  C   UNL     1       5.841   6.026   0.631  1.00  0.00     0.040 A 
ATOM     75  F   UNL     1       3.852   6.451  -0.429  1.00  0.00    -0.206 F 
ATOM     76  C   UNL     1       7.122   5.506   0.672  1.00  0.00     0.006 A 
ENDBRANCH  55  69
BRANCH  56  77
ATOM     77  C   UNL     1      -0.516   0.974  -8.255  1.00  0.00     0.057 A 
ATOM     78  C   UNL     1      -1.388  -0.133  -8.287  1.00  0.00     0.134 A 
ATOM     79  C   UNL     1      -1.107   2.237  -8.134  1.00  0.00     0.134 A 
ATOM     80  F   UNL     1      -0.891  -1.377  -8.390  1.00  0.00    -0.206 F 
ATOM     81  C   UNL     1      -2.764  -0.001  -8.079  1.00  0.00     0.040 A 
ATOM     82  C   UNL     1      -2.488   2.381  -7.939  1.00  0.00     0.040 A 
ATOM     83  F   UNL     1      -0.350   3.341  -8.058  1.00  0.00    -0.206 F 
ATOM     84  C   UNL     1      -3.312   1.260  -7.870  1.00  0.00     0.006 A 
ENDBRANCH  56  77
BRANCH  68  85
ATOM     85  C   UNL     1       5.797   4.561  -8.207  1.00  0.00     0.057 A 
ATOM     86  C   UNL     1       5.601   5.128  -9.473  1.00  0.00     0.134 A 
ATOM     87  C   UNL     1       6.871   5.131  -7.473  1.00  0.00     0.134 A 
ATOM     88  F   UNL     1       4.561   4.799 -10.247  1.00  0.00    -0.206 F 
ATOM     89  C   UNL     1       6.440   6.124  -9.992  1.00  0.00     0.040 A 
ATOM     90  C   UNL     1       7.653   6.186  -7.944  1.00  0.00     0.040 A 
ATOM     91  F   UNL     1       7.203   4.715  -6.242  1.00  0.00    -0.206 F 
ATOM     92  C   UNL     1       7.457   6.670  -9.222  1.00  0.00     0.006 A 
ENDBRANCH  68  85
ENDBRANCH  42  43
ENDBRANCH  34  37
ENDBRANCH  32  33
ENDBRANCH  31  32
ENDBRANCH  30  31
ENDBRANCH   1  30
TORSDOF 15
