REMARK SMILES COc1cccc([C@@H]2CN(C(=O)CSc3nc(C)n[nH]3)C[C@H]2C(=O)NCCCCNC(=O)c2ccc(-c3c4nc(c(-c5c(F)cccc5F)c5ccc([nH]5)c(-c5c(F)cccc5F)c5nc(c(-c6c(F)cccc6F)c6ccc3[nH]6)C=C5)C=C4)cc2)c1
REMARK SMILES IDX 26 1 25 2 23 3 24 4 22 6 8 7 9 8 10 9 21 10 7 11 3 12 4 13
REMARK SMILES IDX 87 14 5 15 6 16 2 17 1 18 11 19 12 20 13 21 14 22 15 23
REMARK SMILES IDX 16 24 20 25 17 26 19 27 18 29 27 30 28 31 29 32 30 33 31 34
REMARK SMILES IDX 32 36 33 37 34 38 86 39 35 40 85 41 36 42 37 43 38 44 79 45
REMARK SMILES IDX 39 46 84 47 78 48 80 49 40 50 83 51 77 52 76 53 41 55 67 56
REMARK SMILES IDX 50 57 66 58 51 59 54 60 65 61 81 62 52 63 53 64 64 66 82 67
REMARK SMILES IDX 55 68 42 69 43 70 48 71 44 72 45 73 47 74 49 75 46 76 68 77
REMARK SMILES IDX 69 78 74 79 70 80 71 81 73 82 75 83 72 84 56 85 57 86 62 87
REMARK SMILES IDX 58 88 59 89 61 90 63 91 60 92
REMARK H PARENT 25 5 20 28 30 35 80 54 54 65
REMARK Flexibility Score: inf
ROOT
ATOM      1  C   UNL     1       5.486  -6.236   2.923  1.00  0.00     0.116 C 
ENDROOT
BRANCH   1   2
ATOM      2  N   UNL     1       4.747  -6.218   1.672  1.00  0.00    -0.356 N 
ATOM      3  C   UNL     1       4.302  -5.196   0.891  1.00  0.00     0.225 C 
ATOM      4  O   UNL     1       3.755  -5.502  -0.172  1.00  0.00    -0.275 OA
ATOM      5  H   UNL     1       4.527  -7.113   1.324  1.00  0.00     0.163 HD
BRANCH   3   6
ATOM      6  C   UNL     1       4.468  -3.730   1.259  1.00  0.00     0.107 C 
ATOM      7  C   UNL     1       3.850  -3.353   2.617  1.00  0.00     0.053 C 
ATOM      8  C   UNL     1       4.800  -2.298   3.181  1.00  0.00     0.128 C 
ATOM      9  N   UNL     1       6.094  -2.653   2.622  1.00  0.00    -0.341 N 
ATOM     10  C   UNL     1       5.935  -3.311   1.334  1.00  0.00     0.133 C 
BRANCH   7  11
ATOM     11  C   UNL     1       2.403  -2.921   2.602  1.00  0.00    -0.039 A 
ATOM     12  C   UNL     1       0.625  -1.423   1.883  1.00  0.00     0.119 A 
ATOM     13  C   UNL     1      -0.268  -2.088   2.723  1.00  0.00     0.046 A 
ATOM     14  C   UNL     1       1.958  -1.837   1.827  1.00  0.00     0.050 A 
ATOM     15  C   UNL     1       0.153  -3.178   3.480  1.00  0.00     0.004 A 
ATOM     16  C   UNL     1       1.480  -3.593   3.419  1.00  0.00     0.004 A 
BRANCH  12  17
ATOM     17  O   UNL     1       0.096  -0.357   1.208  1.00  0.00    -0.497 OA
ATOM     18  C   UNL     1       0.773   0.033   0.018  1.00  0.00     0.278 C 
ENDBRANCH  12  17
ENDBRANCH   7  11
BRANCH   9  19
ATOM     19  C   UNL     1       7.333  -2.313   3.102  1.00  0.00     0.233 C 
ATOM     20  O   UNL     1       8.355  -2.485   2.429  1.00  0.00    -0.274 OA
BRANCH  19  21
ATOM     21  C   UNL     1       7.456  -1.696   4.479  1.00  0.00     0.178 C 
BRANCH  21  22
ATOM     22  S   UNL     1       6.891   0.011   4.530  1.00  0.00    -0.077 SA
BRANCH  22  23
ATOM     23  C   UNL     1       7.766   0.859   3.311  1.00  0.00     0.184 A 
ATOM     24  N   UNL     1       7.640   2.145   3.090  1.00  0.00    -0.206 NA
ATOM     25  N   UNL     1       8.649   0.329   2.416  1.00  0.00    -0.254 N 
ATOM     26  C   UNL     1       8.481   2.365   2.034  1.00  0.00     0.148 A 
ATOM     27  N   UNL     1       9.117   1.278   1.582  1.00  0.00    -0.158 NA
ATOM     28  H   UNL     1       8.910  -0.620   2.385  1.00  0.00     0.192 HD
ATOM     29  C   UNL     1       8.657   3.708   1.449  1.00  0.00     0.092 C 
ENDBRANCH  22  23
ENDBRANCH  21  22
ENDBRANCH  19  21
ENDBRANCH   9  19
ENDBRANCH   3   6
ENDBRANCH   1   2
BRANCH   1  30
ATOM     30  C   UNL     1       4.643  -6.703   4.115  1.00  0.00     0.023 C 
BRANCH  30  31
ATOM     31  C   UNL     1       4.194  -8.168   4.099  1.00  0.00     0.023 C 
BRANCH  31  32
ATOM     32  C   UNL     1       5.327  -9.181   4.125  1.00  0.00     0.116 C 
BRANCH  32  33
ATOM     33  N   UNL     1       6.160  -9.084   5.325  1.00  0.00    -0.352 N 
ATOM     34  C   UNL     1       7.358  -9.732   5.575  1.00  0.00     0.251 C 
ATOM     35  H   UNL     1       5.830  -8.489   6.037  1.00  0.00     0.163 HD
ATOM     36  O   UNL     1       7.783  -9.883   6.709  1.00  0.00    -0.269 OA
BRANCH  34  37
ATOM     37  C   UNL     1       8.123 -10.220   4.417  1.00  0.00     0.039 A 
ATOM     38  C   UNL     1       8.649 -11.513   4.365  1.00  0.00     0.014 A 
ATOM     39  C   UNL     1       8.221  -9.356   3.333  1.00  0.00     0.014 A 
ATOM     40  C   UNL     1       9.198 -11.959   3.165  1.00  0.00     0.010 A 
ATOM     41  C   UNL     1       8.591  -9.854   2.115  1.00  0.00     0.010 A 
ATOM     42  C   UNL     1       9.144 -11.128   2.036  1.00  0.00    -0.014 A 
BRANCH  42  43
ATOM     43  C   UNL     1       9.583 -11.593   0.727  1.00  0.00     0.031 A 
ATOM     44  C   UNL     1       8.927 -12.834   0.227  1.00  0.00     0.074 A 
ATOM     45  C   UNL     1      10.331 -10.814  -0.084  1.00  0.00     0.049 A 
ATOM     46  N   UNL     1       9.484 -13.970  -0.034  1.00  0.00    -0.248 NA
ATOM     47  C   UNL     1       7.460 -12.851   0.098  1.00  0.00     0.031 C 
ATOM     48  C   UNL     1      10.785  -9.432   0.123  1.00  0.00     0.029 A 
ATOM     49  N   UNL     1      10.740 -11.067  -1.353  1.00  0.00    -0.354 N 
ATOM     50  C   UNL     1       8.479 -14.790  -0.545  1.00  0.00     0.074 A 
ATOM     51  C   UNL     1       7.236 -14.109  -0.287  1.00  0.00     0.031 C 
ATOM     52  C   UNL     1      11.163  -8.898  -1.058  1.00  0.00     0.029 A 
ATOM     53  C   UNL     1      11.152  -9.945  -2.060  1.00  0.00     0.049 A 
ATOM     54  H   UNL     1      10.743 -11.971  -1.742  1.00  0.00     0.167 HD
ATOM     55  C   UNL     1       8.768 -15.862  -1.335  1.00  0.00     0.037 A 
ATOM     56  C   UNL     1      11.420  -9.889  -3.387  1.00  0.00     0.037 A 
ATOM     57  C   UNL     1      10.163 -16.215  -1.250  1.00  0.00     0.049 A 
ATOM     58  C   UNL     1      11.669 -11.285  -3.837  1.00  0.00     0.074 A 
ATOM     59  C   UNL     1      11.006 -16.565  -0.212  1.00  0.00     0.029 A 
ATOM     60  N   UNL     1      10.989 -15.842  -2.284  1.00  0.00    -0.354 N 
ATOM     61  N   UNL     1      12.701 -11.991  -3.460  1.00  0.00    -0.248 NA
ATOM     62  C   UNL     1      10.522 -12.056  -4.298  1.00  0.00     0.031 C 
ATOM     63  C   UNL     1      12.222 -15.872  -0.486  1.00  0.00     0.029 A 
ATOM     64  C   UNL     1      12.073 -15.222  -1.712  1.00  0.00     0.049 A 
ATOM     65  H   UNL     1      10.835 -15.991  -3.244  1.00  0.00     0.167 HD
ATOM     66  C   UNL     1      12.197 -13.263  -3.228  1.00  0.00     0.074 A 
ATOM     67  C   UNL     1      10.865 -13.261  -3.833  1.00  0.00     0.031 C 
ATOM     68  C   UNL     1      12.765 -14.104  -2.312  1.00  0.00     0.037 A 
BRANCH  55  69
ATOM     69  C   UNL     1       7.883 -16.378  -2.442  1.00  0.00     0.057 A 
ATOM     70  C   UNL     1       8.191 -17.604  -3.061  1.00  0.00     0.134 A 
ATOM     71  C   UNL     1       6.921 -15.595  -3.110  1.00  0.00     0.134 A 
ATOM     72  F   UNL     1       9.106 -18.431  -2.533  1.00  0.00    -0.206 F 
ATOM     73  C   UNL     1       7.632 -17.988  -4.287  1.00  0.00     0.040 A 
ATOM     74  C   UNL     1       6.318 -15.993  -4.307  1.00  0.00     0.040 A 
ATOM     75  F   UNL     1       6.592 -14.364  -2.701  1.00  0.00    -0.206 F 
ATOM     76  C   UNL     1       6.696 -17.178  -4.917  1.00  0.00     0.006 A 
ENDBRANCH  55  69
BRANCH  56  77
ATOM     77  C   UNL     1      11.174  -8.764  -4.319  1.00  0.00     0.057 A 
ATOM     78  C   UNL     1      11.736  -8.751  -5.603  1.00  0.00     0.134 A 
ATOM     79  C   UNL     1      10.178  -7.800  -4.075  1.00  0.00     0.134 A 
ATOM     80  F   UNL     1      12.664  -9.655  -5.949  1.00  0.00    -0.206 F 
ATOM     81  C   UNL     1      11.318  -7.848  -6.591  1.00  0.00     0.040 A 
ATOM     82  C   UNL     1       9.757  -6.888  -5.050  1.00  0.00     0.040 A 
ATOM     83  F   UNL     1       9.515  -7.763  -2.910  1.00  0.00    -0.206 F 
ATOM     84  C   UNL     1      10.318  -6.919  -6.319  1.00  0.00     0.006 A 
ENDBRANCH  56  77
BRANCH  68  85
ATOM     85  C   UNL     1      14.078 -13.715  -1.685  1.00  0.00     0.057 A 
ATOM     86  C   UNL     1      14.268 -12.566  -0.901  1.00  0.00     0.134 A 
ATOM     87  C   UNL     1      15.136 -14.632  -1.714  1.00  0.00     0.134 A 
ATOM     88  F   UNL     1      13.285 -11.679  -0.719  1.00  0.00    -0.206 F 
ATOM     89  C   UNL     1      15.461 -12.324  -0.212  1.00  0.00     0.040 A 
ATOM     90  C   UNL     1      16.320 -14.419  -1.003  1.00  0.00     0.040 A 
ATOM     91  F   UNL     1      15.011 -15.785  -2.390  1.00  0.00    -0.206 F 
ATOM     92  C   UNL     1      16.490 -13.258  -0.256  1.00  0.00     0.006 A 
ENDBRANCH  68  85
ENDBRANCH  42  43
ENDBRANCH  34  37
ENDBRANCH  32  33
ENDBRANCH  31  32
ENDBRANCH  30  31
ENDBRANCH   1  30
TORSDOF 17
