REMARK SMILES COCC[N@H+]1C[C@@H]2CN(c3nc(CO)cs3)C[C@]2(C(=O)NCCCCNC(=O)c2ccc(-c3c4nc(c(-c5c(F)cccc5F)c5ccc([nH]5)c(-c5c(F)cccc5F)c5nc(c(-c6c(F)cccc6F)c6ccc3[nH]6)C=C5)C=C4)cc2)C1
REMARK SMILES IDX 23 1 22 2 21 3 19 4 20 5 18 7 5 8 6 9 83 10 7 12 8 13 17 14
REMARK SMILES IDX 9 15 4 16 3 17 2 18 1 19 10 20 11 21 16 22 12 23 15 24 13 25
REMARK SMILES IDX 14 26 24 28 25 29 26 30 27 31 28 33 29 34 30 35 82 36 31 37
REMARK SMILES IDX 81 38 32 39 33 40 34 41 75 42 35 43 80 44 74 45 76 46 36 47
REMARK SMILES IDX 79 48 73 49 72 50 37 52 63 53 46 54 62 55 47 56 50 57 61 58
REMARK SMILES IDX 77 59 48 60 49 61 60 63 78 64 51 65 38 66 39 67 44 68 40 69
REMARK SMILES IDX 41 70 43 71 45 72 42 73 64 74 65 75 70 76 66 77 67 78 69 79
REMARK SMILES IDX 71 80 68 81 52 82 53 83 58 84 54 85 55 86 57 87 59 88 56 89
REMARK H PARENT 21 6 5 11 14 27 26 32 76 51 50 62
REMARK Flexibility Score: inf
ROOT
ATOM      1  C   UNL     1       4.465  -1.410   5.352  1.00  0.00     0.023 C 
ENDROOT
BRANCH   1   2
ATOM      2  C   UNL     1       3.509  -0.252   5.069  1.00  0.00     0.116 C 
BRANCH   2   3
ATOM      3  N   UNL     1       4.078   0.590   4.046  1.00  0.00    -0.355 N 
ATOM      4  C   UNL     1       3.884   0.424   2.705  1.00  0.00     0.234 C 
ATOM      5  O   UNL     1       4.806   0.748   1.952  1.00  0.00    -0.274 OA
ATOM      6  H   UNL     1       4.647   1.339   4.336  1.00  0.00     0.163 HD
BRANCH   4   7
ATOM      7  C   UNL     1       2.553  -0.172   2.250  1.00  0.00     0.125 C 
ATOM      8  N   UNL     1       0.946   1.451   1.387  1.00  0.00    -0.332 N 
ATOM      9  C   UNL     1       0.167   0.292   1.759  1.00  0.00     0.269 C 
ATOM     10  C   UNL     1       2.349   1.042   1.218  1.00  0.00     0.281 C 
ATOM     11  H   UNL     1       0.919   2.114   2.162  1.00  0.00     0.348 HD
ATOM     12  C   UNL     1       1.241  -0.757   1.738  1.00  0.00     0.087 C 
ATOM     13  C   UNL     1       0.985  -2.014   2.518  1.00  0.00     0.129 C 
ATOM     14  C   UNL     1       3.265  -1.598   1.925  1.00  0.00     0.142 C 
ATOM     15  N   UNL     1       2.297  -2.621   2.421  1.00  0.00    -0.346 N 
BRANCH   8  16
ATOM     16  C   UNL     1       0.367   2.370   0.409  1.00  0.00     0.291 C 
BRANCH  16  17
ATOM     17  C   UNL     1       0.782   2.287  -1.075  1.00  0.00     0.221 C 
BRANCH  17  18
ATOM     18  O   UNL     1       0.020   1.348  -1.833  1.00  0.00    -0.379 OA
ATOM     19  C   UNL     1       0.632   0.075  -1.953  1.00  0.00     0.195 C 
ENDBRANCH  17  18
ENDBRANCH  16  17
ENDBRANCH   8  16
BRANCH  15  20
ATOM     20  C   UNL     1       2.642  -3.553   3.345  1.00  0.00     0.185 A 
ATOM     21  N   UNL     1       2.336  -3.470   4.624  1.00  0.00    -0.223 NA
ATOM     22  S   UNL     1       3.475  -4.997   2.908  1.00  0.00    -0.105 S 
ATOM     23  C   UNL     1       2.870  -4.540   5.335  1.00  0.00     0.079 A 
ATOM     24  C   UNL     1       3.448  -5.511   4.542  1.00  0.00     0.095 A 
BRANCH  23  25
ATOM     25  C   UNL     1       2.837  -4.526   6.832  1.00  0.00     0.213 C 
BRANCH  25  26
ATOM     26  O   UNL     1       2.030  -5.564   7.369  1.00  0.00    -0.390 OA
ATOM     27  H   UNL     1       1.115  -5.450   7.068  1.00  0.00     0.211 HD
ENDBRANCH  25  26
ENDBRANCH  23  25
ENDBRANCH  15  20
ENDBRANCH   4   7
ENDBRANCH   2   3
ENDBRANCH   1   2
BRANCH   1  28
ATOM     28  C   UNL     1       5.751  -1.030   6.068  1.00  0.00     0.023 C 
BRANCH  28  29
ATOM     29  C   UNL     1       5.504  -0.333   7.390  1.00  0.00     0.116 C 
BRANCH  29  30
ATOM     30  N   UNL     1       4.562  -1.056   8.244  1.00  0.00    -0.352 N 
ATOM     31  C   UNL     1       4.658  -1.305   9.589  1.00  0.00     0.251 C 
ATOM     32  H   UNL     1       3.759  -1.409   7.796  1.00  0.00     0.163 HD
ATOM     33  O   UNL     1       3.889  -2.073  10.151  1.00  0.00    -0.269 OA
BRANCH  31  34
ATOM     34  C   UNL     1       5.731  -0.622  10.324  1.00  0.00     0.039 A 
ATOM     35  C   UNL     1       6.608  -1.363  11.114  1.00  0.00     0.014 A 
ATOM     36  C   UNL     1       5.927   0.744  10.105  1.00  0.00     0.014 A 
ATOM     37  C   UNL     1       7.731  -0.731  11.642  1.00  0.00     0.010 A 
ATOM     38  C   UNL     1       7.105   1.332  10.522  1.00  0.00     0.010 A 
ATOM     39  C   UNL     1       8.004   0.609  11.318  1.00  0.00    -0.014 A 
BRANCH  39  40
ATOM     40  C   UNL     1       9.200   1.307  11.837  1.00  0.00     0.031 A 
ATOM     41  C   UNL     1       9.019   2.519  12.707  1.00  0.00     0.074 A 
ATOM     42  C   UNL     1      10.428   0.900  11.469  1.00  0.00     0.049 A 
ATOM     43  N   UNL     1       9.921   3.325  13.204  1.00  0.00    -0.248 NA
ATOM     44  C   UNL     1       7.632   2.904  13.026  1.00  0.00     0.031 C 
ATOM     45  C   UNL     1      10.721  -0.228  10.582  1.00  0.00     0.029 A 
ATOM     46  N   UNL     1      11.663   1.395  11.797  1.00  0.00    -0.354 N 
ATOM     47  C   UNL     1       9.210   4.312  13.873  1.00  0.00     0.074 A 
ATOM     48  C   UNL     1       7.807   4.059  13.645  1.00  0.00     0.031 C 
ATOM     49  C   UNL     1      12.052  -0.367  10.474  1.00  0.00     0.029 A 
ATOM     50  C   UNL     1      12.703   0.685  11.248  1.00  0.00     0.049 A 
ATOM     51  H   UNL     1      11.793   2.183  12.371  1.00  0.00     0.167 HD
ATOM     52  C   UNL     1       9.682   5.316  14.647  1.00  0.00     0.037 A 
ATOM     53  C   UNL     1      14.031   0.866  11.366  1.00  0.00     0.037 A 
ATOM     54  C   UNL     1      11.081   5.544  14.888  1.00  0.00     0.049 A 
ATOM     55  C   UNL     1      14.535   1.999  12.217  1.00  0.00     0.074 A 
ATOM     56  C   UNL     1      11.675   6.501  15.688  1.00  0.00     0.029 A 
ATOM     57  N   UNL     1      12.106   4.797  14.324  1.00  0.00    -0.354 N 
ATOM     58  N   UNL     1      13.855   2.888  12.902  1.00  0.00    -0.248 NA
ATOM     59  C   UNL     1      15.993   2.148  12.319  1.00  0.00     0.031 C 
ATOM     60  C   UNL     1      13.062   6.364  15.572  1.00  0.00     0.029 A 
ATOM     61  C   UNL     1      13.331   5.284  14.745  1.00  0.00     0.049 A 
ATOM     62  H   UNL     1      11.980   4.034  13.715  1.00  0.00     0.167 HD
ATOM     63  C   UNL     1      14.800   3.677  13.545  1.00  0.00     0.074 A 
ATOM     64  C   UNL     1      16.099   3.154  13.175  1.00  0.00     0.031 C 
ATOM     65  C   UNL     1      14.611   4.737  14.371  1.00  0.00     0.037 A 
BRANCH  52  66
ATOM     66  C   UNL     1       8.669   6.225  15.283  1.00  0.00     0.057 A 
ATOM     67  C   UNL     1       7.781   5.770  16.268  1.00  0.00     0.134 A 
ATOM     68  C   UNL     1       8.567   7.567  14.896  1.00  0.00     0.134 A 
ATOM     69  F   UNL     1       7.811   4.490  16.673  1.00  0.00    -0.206 F 
ATOM     70  C   UNL     1       6.801   6.602  16.813  1.00  0.00     0.040 A 
ATOM     71  C   UNL     1       7.614   8.418  15.460  1.00  0.00     0.040 A 
ATOM     72  F   UNL     1       9.385   8.072  13.961  1.00  0.00    -0.206 F 
ATOM     73  C   UNL     1       6.720   7.933  16.412  1.00  0.00     0.006 A 
ENDBRANCH  52  66
BRANCH  53  74
ATOM     74  C   UNL     1      14.973  -0.074  10.708  1.00  0.00     0.057 A 
ATOM     75  C   UNL     1      15.750  -0.958  11.467  1.00  0.00     0.134 A 
ATOM     76  C   UNL     1      15.123  -0.116   9.318  1.00  0.00     0.134 A 
ATOM     77  F   UNL     1      15.661  -0.956  12.805  1.00  0.00    -0.206 F 
ATOM     78  C   UNL     1      16.657  -1.835  10.870  1.00  0.00     0.040 A 
ATOM     79  C   UNL     1      16.008  -1.006   8.704  1.00  0.00     0.040 A 
ATOM     80  F   UNL     1      14.400   0.696   8.533  1.00  0.00    -0.206 F 
ATOM     81  C   UNL     1      16.784  -1.863   9.482  1.00  0.00     0.006 A 
ENDBRANCH  53  74
BRANCH  65  82
ATOM     82  C   UNL     1      15.836   5.365  14.969  1.00  0.00     0.057 A 
ATOM     83  C   UNL     1      16.732   6.124  14.206  1.00  0.00     0.134 A 
ATOM     84  C   UNL     1      16.097   5.239  16.340  1.00  0.00     0.134 A 
ATOM     85  F   UNL     1      16.544   6.273  12.886  1.00  0.00    -0.206 F 
ATOM     86  C   UNL     1      17.860   6.712  14.780  1.00  0.00     0.040 A 
ATOM     87  C   UNL     1      17.204   5.849  16.931  1.00  0.00     0.040 A 
ATOM     88  F   UNL     1      15.272   4.535  17.130  1.00  0.00    -0.206 F 
ATOM     89  C   UNL     1      18.093   6.582  16.148  1.00  0.00     0.006 A 
ENDBRANCH  65  82
ENDBRANCH  39  40
ENDBRANCH  31  34
ENDBRANCH  29  30
ENDBRANCH  28  29
ENDBRANCH   1  28
TORSDOF 17
