REMARK SMILES CCN(C(=O)Cc1c(C(=O)NCCCCNC(=O)c2ccc(-c3c4nc(c(-c5c(F)cccc5F)c5ccc([nH]5)c(-c5c(F)cccc5F)c5nc(c(-c6c(F)cccc6F)c6ccc3[nH]6)C=C5)C=C4)cc2)[nH]c2ccccc12)c1cccc(C)c1
REMARK SMILES IDX 12 1 11 2 9 3 10 4 8 6 7 7 79 8 73 9 74 10 78 11 75 13 77 14
REMARK SMILES IDX 76 15 6 16 4 17 5 18 3 19 2 20 1 21 80 22 81 23 86 24 82 25
REMARK SMILES IDX 84 26 83 27 85 28 13 29 14 30 15 31 16 32 17 33 18 35 19 36
REMARK SMILES IDX 20 37 72 38 21 39 71 40 22 41 23 42 24 43 65 44 25 45 70 46
REMARK SMILES IDX 64 47 66 48 26 49 69 50 63 51 62 52 27 54 53 55 36 56 52 57
REMARK SMILES IDX 37 58 40 59 51 60 67 61 38 62 39 63 50 65 68 66 41 67 28 68
REMARK SMILES IDX 29 69 34 70 30 71 31 72 33 73 35 74 32 75 54 76 55 77 60 78
REMARK SMILES IDX 56 79 57 80 59 81 61 82 58 83 42 84 43 85 48 86 44 87 45 88
REMARK SMILES IDX 47 89 49 90 46 91
REMARK H PARENT 11 5 73 12 16 34 66 53 40 64
REMARK Flexibility Score: inf
ROOT
ATOM      1  C   UNL     1      -1.105  -5.140  -1.126  1.00  0.00     0.116 C 
ENDROOT
BRANCH   1   2
ATOM      2  N   UNL     1      -1.139  -4.419  -2.380  1.00  0.00    -0.351 N 
ATOM      3  C   UNL     1      -1.508  -3.147  -2.726  1.00  0.00     0.268 C 
ATOM      4  O   UNL     1      -1.511  -2.910  -3.933  1.00  0.00    -0.268 OA
ATOM      5  H   UNL     1      -0.834  -4.957  -3.146  1.00  0.00     0.163 HD
BRANCH   3   6
ATOM      6  C   UNL     1      -1.871  -2.144  -1.740  1.00  0.00     0.109 A 
ATOM      7  C   UNL     1      -1.835  -0.752  -1.896  1.00  0.00    -0.000 A 
ATOM      8  C   UNL     1      -2.396  -0.167  -0.711  1.00  0.00     0.004 A 
ATOM      9  N   UNL     1      -2.385  -2.371  -0.484  1.00  0.00    -0.350 N 
ATOM     10  C   UNL     1      -2.627  -1.200   0.188  1.00  0.00     0.046 A 
ATOM     11  C   UNL     1      -2.680   1.153  -0.298  1.00  0.00     0.010 A 
ATOM     12  H   UNL     1      -2.558  -3.267  -0.113  1.00  0.00     0.167 HD
ATOM     13  C   UNL     1      -3.050  -0.985   1.505  1.00  0.00     0.027 A 
ATOM     14  C   UNL     1      -3.113   1.390   1.011  1.00  0.00     0.001 A 
ATOM     15  C   UNL     1      -3.274   0.336   1.905  1.00  0.00     0.002 A 
BRANCH   7  16
ATOM     16  C   UNL     1      -1.323   0.021  -3.086  1.00  0.00     0.139 C 
BRANCH  16  17
ATOM     17  C   UNL     1       0.159  -0.197  -3.413  1.00  0.00     0.231 C 
ATOM     18  O   UNL     1       0.443  -0.696  -4.509  1.00  0.00    -0.274 OA
BRANCH  17  19
ATOM     19  N   UNL     1       1.141   0.200  -2.485  1.00  0.00    -0.312 N 
BRANCH  19  20
ATOM     20  C   UNL     1       0.859   1.012  -1.288  1.00  0.00     0.122 C 
ATOM     21  C   UNL     1       0.831   0.258   0.035  1.00  0.00     0.028 C 
ENDBRANCH  19  20
BRANCH  19  22
ATOM     22  C   UNL     1       2.533  -0.012  -2.786  1.00  0.00     0.044 A 
ATOM     23  C   UNL     1       3.052   0.261  -4.057  1.00  0.00     0.026 A 
ATOM     24  C   UNL     1       3.415  -0.476  -1.801  1.00  0.00     0.029 A 
ATOM     25  C   UNL     1       4.414   0.096  -4.326  1.00  0.00     0.002 A 
ATOM     26  C   UNL     1       4.782  -0.652  -2.059  1.00  0.00    -0.049 A 
ATOM     27  C   UNL     1       5.277  -0.356  -3.330  1.00  0.00     0.003 A 
ATOM     28  C   UNL     1       5.698  -1.185  -0.997  1.00  0.00     0.044 C 
ENDBRANCH  19  22
ENDBRANCH  17  19
ENDBRANCH  16  17
ENDBRANCH   7  16
ENDBRANCH   3   6
ENDBRANCH   1   2
BRANCH   1  29
ATOM     29  C   UNL     1      -2.367  -5.991  -0.970  1.00  0.00     0.023 C 
BRANCH  29  30
ATOM     30  C   UNL     1      -2.411  -7.219  -1.889  1.00  0.00     0.023 C 
BRANCH  30  31
ATOM     31  C   UNL     1      -1.266  -8.212  -1.706  1.00  0.00     0.116 C 
BRANCH  31  32
ATOM     32  N   UNL     1      -1.141  -8.695  -0.338  1.00  0.00    -0.352 N 
ATOM     33  C   UNL     1      -0.849  -9.963   0.103  1.00  0.00     0.251 C 
ATOM     34  H   UNL     1      -1.285  -8.023   0.366  1.00  0.00     0.163 HD
ATOM     35  O   UNL     1      -0.886 -10.232   1.298  1.00  0.00    -0.269 OA
BRANCH  33  36
ATOM     36  C   UNL     1      -0.528 -11.011  -0.885  1.00  0.00     0.039 A 
ATOM     37  C   UNL     1      -1.248 -12.207  -0.857  1.00  0.00     0.014 A 
ATOM     38  C   UNL     1       0.438 -10.784  -1.869  1.00  0.00     0.014 A 
ATOM     39  C   UNL     1      -1.061 -13.146  -1.872  1.00  0.00     0.010 A 
ATOM     40  C   UNL     1       0.580 -11.693  -2.911  1.00  0.00     0.010 A 
ATOM     41  C   UNL     1      -0.181 -12.873  -2.932  1.00  0.00    -0.014 A 
BRANCH  41  42
ATOM     42  C   UNL     1      -0.071 -13.784  -4.097  1.00  0.00     0.031 A 
ATOM     43  C   UNL     1       1.219 -14.496  -4.380  1.00  0.00     0.074 A 
ATOM     44  C   UNL     1      -1.107 -13.892  -4.951  1.00  0.00     0.049 A 
ATOM     45  N   UNL     1       1.543 -15.242  -5.405  1.00  0.00    -0.248 NA
ATOM     46  C   UNL     1       2.296 -14.329  -3.392  1.00  0.00     0.031 C 
ATOM     47  C   UNL     1      -2.397 -13.213  -4.808  1.00  0.00     0.029 A 
ATOM     48  N   UNL     1      -1.232 -14.599  -6.120  1.00  0.00    -0.354 N 
ATOM     49  C   UNL     1       2.862 -15.619  -5.195  1.00  0.00     0.074 A 
ATOM     50  C   UNL     1       3.293 -14.985  -3.967  1.00  0.00     0.031 C 
ATOM     51  C   UNL     1      -3.186 -13.546  -5.842  1.00  0.00     0.029 A 
ATOM     52  C   UNL     1      -2.446 -14.426  -6.740  1.00  0.00     0.049 A 
ATOM     53  H   UNL     1      -0.520 -15.174  -6.481  1.00  0.00     0.167 HD
ATOM     54  C   UNL     1       3.636 -16.435  -5.948  1.00  0.00     0.037 A 
ATOM     55  C   UNL     1      -2.905 -14.909  -7.910  1.00  0.00     0.037 A 
ATOM     56  C   UNL     1       3.197 -17.080  -7.157  1.00  0.00     0.049 A 
ATOM     57  C   UNL     1      -2.016 -15.793  -8.740  1.00  0.00     0.074 A 
ATOM     58  C   UNL     1       3.884 -17.982  -7.951  1.00  0.00     0.029 A 
ATOM     59  N   UNL     1       1.959 -16.886  -7.750  1.00  0.00    -0.354 N 
ATOM     60  N   UNL     1      -0.795 -16.200  -8.493  1.00  0.00    -0.248 NA
ATOM     61  C   UNL     1      -2.568 -16.281 -10.012  1.00  0.00     0.031 C 
ATOM     62  C   UNL     1       3.076 -18.300  -9.049  1.00  0.00     0.029 A 
ATOM     63  C   UNL     1       1.872 -17.628  -8.916  1.00  0.00     0.049 A 
ATOM     64  H   UNL     1       1.247 -16.305  -7.395  1.00  0.00     0.167 HD
ATOM     65  C   UNL     1      -0.438 -17.005  -9.566  1.00  0.00     0.074 A 
ATOM     66  C   UNL     1      -1.579 -17.042 -10.459  1.00  0.00     0.031 C 
ATOM     67  C   UNL     1       0.730 -17.653  -9.793  1.00  0.00     0.037 A 
BRANCH  54  68
ATOM     68  C   UNL     1       5.041 -16.678  -5.481  1.00  0.00     0.057 A 
ATOM     69  C   UNL     1       5.317 -17.459  -4.351  1.00  0.00     0.134 A 
ATOM     70  C   UNL     1       6.131 -16.152  -6.186  1.00  0.00     0.134 A 
ATOM     71  F   UNL     1       4.317 -17.982  -3.625  1.00  0.00    -0.206 F 
ATOM     72  C   UNL     1       6.626 -17.688  -3.925  1.00  0.00     0.040 A 
ATOM     73  C   UNL     1       7.445 -16.394  -5.783  1.00  0.00     0.040 A 
ATOM     74  F   UNL     1       5.936 -15.399  -7.279  1.00  0.00    -0.206 F 
ATOM     75  C   UNL     1       7.695 -17.160  -4.646  1.00  0.00     0.006 A 
ENDBRANCH  54  68
BRANCH  55  76
ATOM     76  C   UNL     1      -4.276 -14.572  -8.367  1.00  0.00     0.057 A 
ATOM     77  C   UNL     1      -5.288 -15.539  -8.379  1.00  0.00     0.134 A 
ATOM     78  C   UNL     1      -4.608 -13.285  -8.805  1.00  0.00     0.134 A 
ATOM     79  F   UNL     1      -5.025 -16.795  -7.990  1.00  0.00    -0.206 F 
ATOM     80  C   UNL     1      -6.577 -15.243  -8.826  1.00  0.00     0.040 A 
ATOM     81  C   UNL     1      -5.898 -12.968  -9.232  1.00  0.00     0.040 A 
ATOM     82  F   UNL     1      -3.684 -12.312  -8.811  1.00  0.00    -0.206 F 
ATOM     83  C   UNL     1      -6.886 -13.952  -9.249  1.00  0.00     0.006 A 
ENDBRANCH  55  76
BRANCH  67  84
ATOM     84  C   UNL     1       0.828 -18.470 -11.047  1.00  0.00     0.057 A 
ATOM     85  C   UNL     1       0.973 -17.872 -12.304  1.00  0.00     0.134 A 
ATOM     86  C   UNL     1       0.825 -19.869 -10.990  1.00  0.00     0.134 A 
ATOM     87  F   UNL     1       0.967 -16.535 -12.426  1.00  0.00    -0.206 F 
ATOM     88  C   UNL     1       1.097 -18.637 -13.465  1.00  0.00     0.040 A 
ATOM     89  C   UNL     1       0.973 -20.645 -12.141  1.00  0.00     0.040 A 
ATOM     90  F   UNL     1       0.696 -20.504  -9.815  1.00  0.00    -0.206 F 
ATOM     91  C   UNL     1       1.105 -20.028 -13.383  1.00  0.00     0.006 A 
ENDBRANCH  67  84
ENDBRANCH  41  42
ENDBRANCH  33  36
ENDBRANCH  31  32
ENDBRANCH  30  31
ENDBRANCH  29  30
ENDBRANCH   1  29
TORSDOF 16
