REMARK SMILES O=C(NCCCCNC(=O)[C@H]1C[NH2+]CCN1c1ncc(C(F)(F)F)cc1Cl)c1ccc(-c2c3nc(c(-c4c(F)cccc4F)c4ccc([nH]4)c(-c4c(F)cccc4F)c4nc(c(-c5c(F)cccc5F)c5ccc2[nH]5)C=C4)C=C3)cc1
REMARK SMILES IDX 5 1 4 2 3 3 1 4 2 5 28 7 29 8 81 9 30 10 80 11 31 12 32 13
REMARK SMILES IDX 33 14 74 15 34 16 79 17 73 18 75 19 35 20 78 21 72 22 71 23
REMARK SMILES IDX 36 25 62 26 45 27 61 28 46 29 49 30 60 31 76 32 47 33 48 34
REMARK SMILES IDX 59 36 77 37 50 38 37 39 38 40 43 41 39 42 40 43 42 44 44 45
REMARK SMILES IDX 41 46 63 47 64 48 69 49 65 50 66 51 68 52 70 53 67 54 51 55
REMARK SMILES IDX 52 56 57 57 53 58 54 59 56 60 58 61 55 62 6 63 7 64 8 65
REMARK SMILES IDX 9 66 10 68 11 69 12 70 16 71 13 72 15 73 14 74 17 77 18 78
REMARK SMILES IDX 26 79 19 80 25 81 27 82 20 83 21 84 22 85 23 86 24 87
REMARK H PARENT 3 6 75 24 49 35 8 67 13 75 13 76
REMARK Flexibility Score: inf
ROOT
ATOM      1  C   UNL     1       3.264   8.713  -3.798  1.00  0.00     0.023 C 
ENDROOT
BRANCH   1   2
ATOM      2  C   UNL     1       2.764   9.115  -2.426  1.00  0.00     0.116 C 
BRANCH   2   3
ATOM      3  N   UNL     1       3.557  10.156  -1.785  1.00  0.00    -0.352 N 
ATOM      4  O   UNL     1       3.861  12.027  -0.533  1.00  0.00    -0.269 OA
ATOM      5  C   UNL     1       3.106  11.159  -0.956  1.00  0.00     0.251 C 
ATOM      6  H   UNL     1       4.525  10.141  -1.965  1.00  0.00     0.163 HD
BRANCH   5   7
ATOM      7  C   UNL     1       1.667  11.187  -0.627  1.00  0.00     0.039 A 
ATOM      8  C   UNL     1       1.043  10.015  -0.200  1.00  0.00     0.014 A 
ATOM      9  C   UNL     1       0.923  12.345  -0.865  1.00  0.00     0.014 A 
ATOM     10  C   UNL     1      -0.340   9.947  -0.201  1.00  0.00     0.010 A 
ATOM     11  C   UNL     1      -0.469  12.304  -0.747  1.00  0.00     0.010 A 
ATOM     12  C   UNL     1      -1.114  11.094  -0.454  1.00  0.00    -0.014 A 
BRANCH  12  13
ATOM     13  C   UNL     1      -2.589  10.981  -0.331  1.00  0.00     0.031 A 
ATOM     14  C   UNL     1      -3.503  11.190  -1.505  1.00  0.00     0.074 A 
ATOM     15  C   UNL     1      -3.087  10.591   0.859  1.00  0.00     0.049 A 
ATOM     16  N   UNL     1      -4.805  11.055  -1.562  1.00  0.00    -0.248 NA
ATOM     17  C   UNL     1      -2.891  11.612  -2.774  1.00  0.00     0.031 C 
ATOM     18  C   UNL     1      -2.291  10.377   2.072  1.00  0.00     0.029 A 
ATOM     19  N   UNL     1      -4.360  10.255   1.236  1.00  0.00    -0.354 N 
ATOM     20  C   UNL     1      -5.171  11.400  -2.856  1.00  0.00     0.074 A 
ATOM     21  C   UNL     1      -3.955  11.763  -3.553  1.00  0.00     0.031 C 
ATOM     22  C   UNL     1      -3.073   9.860   3.027  1.00  0.00     0.029 A 
ATOM     23  C   UNL     1      -4.438   9.782   2.524  1.00  0.00     0.049 A 
ATOM     24  H   UNL     1      -5.141  10.342   0.644  1.00  0.00     0.167 HD
ATOM     25  C   UNL     1      -6.409  11.411  -3.408  1.00  0.00     0.037 A 
ATOM     26  C   UNL     1      -5.493   9.341   3.230  1.00  0.00     0.037 A 
ATOM     27  C   UNL     1      -7.611  11.027  -2.711  1.00  0.00     0.049 A 
ATOM     28  C   UNL     1      -6.842   9.332   2.582  1.00  0.00     0.074 A 
ATOM     29  C   UNL     1      -8.914  11.010  -3.181  1.00  0.00     0.029 A 
ATOM     30  N   UNL     1      -7.656  10.581  -1.399  1.00  0.00    -0.354 N 
ATOM     31  N   UNL     1      -7.170   9.681   1.362  1.00  0.00    -0.248 NA
ATOM     32  C   UNL     1      -7.968   8.883   3.409  1.00  0.00     0.031 C 
ATOM     33  C   UNL     1      -9.749  10.577  -2.144  1.00  0.00     0.029 A 
ATOM     34  C   UNL     1      -8.963  10.291  -1.040  1.00  0.00     0.049 A 
ATOM     35  H   UNL     1      -6.874  10.485  -0.808  1.00  0.00     0.167 HD
ATOM     36  C   UNL     1      -8.543   9.510   1.278  1.00  0.00     0.074 A 
ATOM     37  C   UNL     1      -8.977   8.982   2.556  1.00  0.00     0.031 C 
ATOM     38  C   UNL     1      -9.373   9.784   0.243  1.00  0.00     0.037 A 
BRANCH  25  39
ATOM     39  C   UNL     1      -6.536  11.867  -4.832  1.00  0.00     0.057 A 
ATOM     40  C   UNL     1      -6.152  11.053  -5.905  1.00  0.00     0.134 A 
ATOM     41  C   UNL     1      -7.111  13.108  -5.136  1.00  0.00     0.134 A 
ATOM     42  F   UNL     1      -5.584   9.858  -5.683  1.00  0.00    -0.206 F 
ATOM     43  C   UNL     1      -6.327  11.461  -7.230  1.00  0.00     0.040 A 
ATOM     44  C   UNL     1      -7.309  13.518  -6.456  1.00  0.00     0.040 A 
ATOM     45  F   UNL     1      -7.506  13.934  -4.156  1.00  0.00    -0.206 F 
ATOM     46  C   UNL     1      -6.915  12.694  -7.508  1.00  0.00     0.006 A 
ENDBRANCH  25  39
BRANCH  26  47
ATOM     47  C   UNL     1      -5.302   8.893   4.630  1.00  0.00     0.057 A 
ATOM     48  C   UNL     1      -5.422   7.546   4.986  1.00  0.00     0.134 A 
ATOM     49  C   UNL     1      -4.960   9.801   5.641  1.00  0.00     0.134 A 
ATOM     50  F   UNL     1      -5.761   6.632   4.064  1.00  0.00    -0.206 F 
ATOM     51  C   UNL     1      -5.216   7.117   6.298  1.00  0.00     0.040 A 
ATOM     52  C   UNL     1      -4.723   9.383   6.949  1.00  0.00     0.040 A 
ATOM     53  F   UNL     1      -4.817  11.105   5.359  1.00  0.00    -0.206 F 
ATOM     54  C   UNL     1      -4.856   8.037   7.282  1.00  0.00     0.006 A 
ENDBRANCH  26  47
BRANCH  38  55
ATOM     55  C   UNL     1     -10.829   9.523   0.473  1.00  0.00     0.057 A 
ATOM     56  C   UNL     1     -11.603  10.367   1.279  1.00  0.00     0.134 A 
ATOM     57  C   UNL     1     -11.460   8.416  -0.106  1.00  0.00     0.134 A 
ATOM     58  F   UNL     1     -11.049  11.434   1.874  1.00  0.00    -0.206 F 
ATOM     59  C   UNL     1     -12.950  10.103   1.526  1.00  0.00     0.040 A 
ATOM     60  C   UNL     1     -12.812   8.153   0.117  1.00  0.00     0.040 A 
ATOM     61  F   UNL     1     -10.773   7.572  -0.890  1.00  0.00    -0.206 F 
ATOM     62  C   UNL     1     -13.558   8.993   0.942  1.00  0.00     0.006 A 
ENDBRANCH  38  55
ENDBRANCH  12  13
ENDBRANCH   5   7
ENDBRANCH   2   3
ENDBRANCH   1   2
BRANCH   1  63
ATOM     63  C   UNL     1       4.692   8.178  -3.824  1.00  0.00     0.023 C 
BRANCH  63  64
ATOM     64  C   UNL     1       4.920   6.895  -3.027  1.00  0.00     0.116 C 
BRANCH  64  65
ATOM     65  N   UNL     1       4.445   5.736  -3.743  1.00  0.00    -0.354 N 
ATOM     66  C   UNL     1       5.080   4.850  -4.554  1.00  0.00     0.248 C 
ATOM     67  H   UNL     1       3.485   5.554  -3.622  1.00  0.00     0.163 HD
ATOM     68  O   UNL     1       4.329   3.983  -5.027  1.00  0.00    -0.272 OA
BRANCH  66  69
ATOM     69  C   UNL     1       6.618   4.781  -4.806  1.00  0.00     0.228 C 
ATOM     70  C   UNL     1       6.839   4.091  -6.194  1.00  0.00     0.296 C 
ATOM     71  N   UNL     1       7.367   6.059  -4.772  1.00  0.00    -0.333 N 
ATOM     72  N   UNL     1       6.603   4.971  -7.366  1.00  0.00    -0.343 N 
ATOM     73  C   UNL     1       7.309   6.938  -5.941  1.00  0.00     0.180 C 
ATOM     74  C   UNL     1       7.474   6.154  -7.258  1.00  0.00     0.282 C 
ATOM     75  H   UNL     1       5.626   5.265  -7.381  1.00  0.00     0.346 HD
ATOM     76  H   UNL     1       6.812   4.465  -8.226  1.00  0.00     0.346 HD
BRANCH  71  77
ATOM     77  C   UNL     1       8.336   6.339  -3.829  1.00  0.00     0.148 A 
ATOM     78  N   UNL     1       8.190   7.530  -3.188  1.00  0.00    -0.237 NA
ATOM     79  C   UNL     1       9.409   5.499  -3.490  1.00  0.00     0.084 A 
ATOM     80  C   UNL     1       9.022   7.844  -2.164  1.00  0.00     0.126 A 
ATOM     81  C   UNL     1      10.273   5.859  -2.447  1.00  0.00     0.039 A 
ATOM     82  Cl  UNL     1       9.807   4.051  -4.340  1.00  0.00    -0.080 Cl
ATOM     83  C   UNL     1      10.071   7.047  -1.748  1.00  0.00     0.075 A 
BRANCH  83  84
ATOM     84  C   UNL     1      10.913   7.447  -0.578  1.00  0.00     0.417 C 
ATOM     85  F   UNL     1      11.197   8.777  -0.558  1.00  0.00    -0.166 F 
ATOM     86  F   UNL     1      10.304   7.176   0.609  1.00  0.00    -0.166 F 
ATOM     87  F   UNL     1      12.114   6.807  -0.536  1.00  0.00    -0.166 F 
ENDBRANCH  83  84
ENDBRANCH  71  77
ENDBRANCH  66  69
ENDBRANCH  64  65
ENDBRANCH  63  64
ENDBRANCH   1  63
TORSDOF 13
