REMARK SMILES O=C(NCCCCNC(=O)c1ccc(-c2c3nc(c(-c4c(F)cccc4F)c4ccc([nH]4)c(-c4c(F)cccc4F)c4nc(c(-c5c(F)cccc5F)c5ccc2[nH]5)C=C4)C=C3)cc1)C1=CCc2ccccc21
REMARK SMILES IDX 6 1 5 2 4 3 3 4 1 5 2 6 65 8 66 9 73 10 67 11 68 12 72 13
REMARK SMILES IDX 69 14 71 15 70 16 7 17 8 18 9 19 10 21 11 22 12 23 64 24
REMARK SMILES IDX 13 25 63 26 14 27 15 28 16 29 57 30 17 31 62 32 56 33 58 34
REMARK SMILES IDX 18 35 61 36 55 37 54 38 19 40 45 41 28 42 44 43 29 44 32 45
REMARK SMILES IDX 43 46 59 47 30 48 31 49 42 51 60 52 33 53 20 54 21 55 26 56
REMARK SMILES IDX 22 57 23 58 25 59 27 60 24 61 46 62 47 63 52 64 48 65 49 66
REMARK SMILES IDX 51 67 53 68 50 69 34 70 35 71 40 72 36 73 37 74 39 75 41 76
REMARK SMILES IDX 38 77
REMARK H PARENT 3 7 8 20 58 39 32 50
REMARK Flexibility Score: inf
ROOT
ATOM      1  C   UNL     1       3.792  -2.833   3.018  1.00  0.00     0.023 C 
ENDROOT
BRANCH   1   2
ATOM      2  C   UNL     1       3.954  -1.339   2.787  1.00  0.00     0.023 C 
BRANCH   2   3
ATOM      3  C   UNL     1       4.216  -0.840   1.376  1.00  0.00     0.116 C 
BRANCH   3   4
ATOM      4  N   UNL     1       3.127  -0.621   0.439  1.00  0.00    -0.352 N 
ATOM      5  O   UNL     1       2.248   0.133  -1.528  1.00  0.00    -0.269 OA
ATOM      6  C   UNL     1       3.232   0.007  -0.806  1.00  0.00     0.251 C 
ATOM      7  H   UNL     1       2.236  -0.943   0.705  1.00  0.00     0.163 HD
BRANCH   6   8
ATOM      8  C   UNL     1       4.603   0.446  -1.266  1.00  0.00     0.043 C 
ATOM      9  C   UNL     1       5.346   1.192  -0.421  1.00  0.00    -0.008 C 
ATOM     10  C   UNL     1       5.527  -0.459  -1.947  1.00  0.00    -0.010 A 
ATOM     11  C   UNL     1       6.697   0.533  -0.175  1.00  0.00     0.064 C 
ATOM     12  C   UNL     1       6.637  -0.626  -1.120  1.00  0.00    -0.036 A 
ATOM     13  C   UNL     1       5.489  -1.066  -3.186  1.00  0.00     0.009 A 
ATOM     14  C   UNL     1       7.501  -1.687  -1.299  1.00  0.00     0.004 A 
ATOM     15  C   UNL     1       6.471  -2.017  -3.475  1.00  0.00     0.001 A 
ATOM     16  C   UNL     1       7.400  -2.401  -2.493  1.00  0.00     0.000 A 
ENDBRANCH   6   8
ENDBRANCH   3   4
ENDBRANCH   2   3
ENDBRANCH   1   2
BRANCH   1  17
ATOM     17  C   UNL     1       4.541  -3.792   2.102  1.00  0.00     0.116 C 
BRANCH  17  18
ATOM     18  N   UNL     1       5.993  -3.778   2.221  1.00  0.00    -0.352 N 
ATOM     19  C   UNL     1       6.881  -4.795   2.526  1.00  0.00     0.251 C 
ATOM     20  H   UNL     1       6.411  -2.901   2.059  1.00  0.00     0.163 HD
ATOM     21  O   UNL     1       8.079  -4.569   2.557  1.00  0.00    -0.269 OA
BRANCH  19  22
ATOM     22  C   UNL     1       6.379  -6.149   2.876  1.00  0.00     0.039 A 
ATOM     23  C   UNL     1       6.916  -6.802   3.991  1.00  0.00     0.014 A 
ATOM     24  C   UNL     1       5.367  -6.765   2.141  1.00  0.00     0.014 A 
ATOM     25  C   UNL     1       6.357  -8.007   4.431  1.00  0.00     0.010 A 
ATOM     26  C   UNL     1       4.738  -7.901   2.644  1.00  0.00     0.010 A 
ATOM     27  C   UNL     1       5.222  -8.538   3.797  1.00  0.00    -0.014 A 
BRANCH  27  28
ATOM     28  C   UNL     1       4.538  -9.762   4.300  1.00  0.00     0.031 A 
ATOM     29  C   UNL     1       4.409 -10.970   3.407  1.00  0.00     0.074 A 
ATOM     30  C   UNL     1       3.970  -9.772   5.524  1.00  0.00     0.049 A 
ATOM     31  N   UNL     1       3.757 -12.087   3.611  1.00  0.00    -0.248 NA
ATOM     32  C   UNL     1       5.075 -10.899   2.095  1.00  0.00     0.031 C 
ATOM     33  C   UNL     1       3.975  -8.658   6.474  1.00  0.00     0.029 A 
ATOM     34  N   UNL     1       3.262 -10.755   6.175  1.00  0.00    -0.354 N 
ATOM     35  C   UNL     1       3.924 -12.839   2.454  1.00  0.00     0.074 A 
ATOM     36  C   UNL     1       4.677 -12.026   1.526  1.00  0.00     0.031 C 
ATOM     37  C   UNL     1       3.324  -9.026   7.591  1.00  0.00     0.029 A 
ATOM     38  C   UNL     1       2.818 -10.384   7.423  1.00  0.00     0.049 A 
ATOM     39  H   UNL     1       3.090 -11.642   5.784  1.00  0.00     0.167 HD
ATOM     40  C   UNL     1       3.520 -14.105   2.197  1.00  0.00     0.037 A 
ATOM     41  C   UNL     1       2.077 -11.059   8.325  1.00  0.00     0.037 A 
ATOM     42  C   UNL     1       2.796 -14.929   3.128  1.00  0.00     0.049 A 
ATOM     43  C   UNL     1       1.630 -12.462   8.007  1.00  0.00     0.074 A 
ATOM     44  C   UNL     1       2.370 -16.237   2.971  1.00  0.00     0.029 A 
ATOM     45  N   UNL     1       2.400 -14.528   4.394  1.00  0.00    -0.354 N 
ATOM     46  N   UNL     1       1.844 -13.176   6.929  1.00  0.00    -0.248 NA
ATOM     47  C   UNL     1       0.847 -13.158   9.039  1.00  0.00     0.031 C 
ATOM     48  C   UNL     1       1.683 -16.615   4.128  1.00  0.00     0.029 A 
ATOM     49  C   UNL     1       1.729 -15.561   5.026  1.00  0.00     0.049 A 
ATOM     50  H   UNL     1       2.569 -13.640   4.784  1.00  0.00     0.167 HD
ATOM     51  C   UNL     1       1.262 -14.415   7.171  1.00  0.00     0.074 A 
ATOM     52  C   UNL     1       0.698 -14.360   8.502  1.00  0.00     0.031 C 
ATOM     53  C   UNL     1       1.201 -15.502   6.364  1.00  0.00     0.037 A 
BRANCH  40  54
ATOM     54  C   UNL     1       3.875 -14.690   0.860  1.00  0.00     0.057 A 
ATOM     55  C   UNL     1       5.197 -15.020   0.531  1.00  0.00     0.134 A 
ATOM     56  C   UNL     1       2.884 -14.975  -0.087  1.00  0.00     0.134 A 
ATOM     57  F   UNL     1       6.196 -14.760   1.389  1.00  0.00    -0.206 F 
ATOM     58  C   UNL     1       5.523 -15.591  -0.699  1.00  0.00     0.040 A 
ATOM     59  C   UNL     1       3.194 -15.575  -1.310  1.00  0.00     0.040 A 
ATOM     60  F   UNL     1       1.597 -14.692   0.165  1.00  0.00    -0.206 F 
ATOM     61  C   UNL     1       4.518 -15.880  -1.620  1.00  0.00     0.006 A 
ENDBRANCH  40  54
BRANCH  41  62
ATOM     62  C   UNL     1       1.711 -10.435   9.625  1.00  0.00     0.057 A 
ATOM     63  C   UNL     1       2.213 -10.932  10.835  1.00  0.00     0.134 A 
ATOM     64  C   UNL     1       0.807  -9.369   9.697  1.00  0.00     0.134 A 
ATOM     65  F   UNL     1       3.068 -11.966  10.836  1.00  0.00    -0.206 F 
ATOM     66  C   UNL     1       1.800 -10.421  12.067  1.00  0.00     0.040 A 
ATOM     67  C   UNL     1       0.409  -8.826  10.921  1.00  0.00     0.040 A 
ATOM     68  F   UNL     1       0.293  -8.838   8.577  1.00  0.00    -0.206 F 
ATOM     69  C   UNL     1       0.895  -9.363  12.111  1.00  0.00     0.006 A 
ENDBRANCH  41  62
BRANCH  53  70
ATOM     70  C   UNL     1       0.566 -16.744   6.921  1.00  0.00     0.057 A 
ATOM     71  C   UNL     1      -0.813 -16.842   7.144  1.00  0.00     0.134 A 
ATOM     72  C   UNL     1       1.349 -17.872   7.202  1.00  0.00     0.134 A 
ATOM     73  F   UNL     1      -1.617 -15.795   6.906  1.00  0.00    -0.206 F 
ATOM     74  C   UNL     1      -1.387 -18.008   7.653  1.00  0.00     0.040 A 
ATOM     75  C   UNL     1       0.782 -19.053   7.681  1.00  0.00     0.040 A 
ATOM     76  F   UNL     1       2.675 -17.850   7.000  1.00  0.00    -0.206 F 
ATOM     77  C   UNL     1      -0.589 -19.120   7.916  1.00  0.00     0.006 A 
ENDBRANCH  53  70
ENDBRANCH  27  28
ENDBRANCH  19  22
ENDBRANCH  17  18
ENDBRANCH   1  17
TORSDOF 11
