REMARK SMILES O=C(NCCCCNC(=O)[C@H]1[C@H]2CC[C@H](CC2)[C@@H]1C(=O)Nc1sc2c(c1C(=O)N1CCCCC1)CCCC2)c1ccc(-c2c3nc(c(-c4c(F)cccc4F)c4ccc([nH]4)c(-c4c(F)cccc4F)c4nc(c(-c5c(F)cccc5F)c5ccc2[nH]5)C=C4)C=C3)cc1
REMARK SMILES IDX 6 1 5 2 4 3 3 4 1 5 2 6 39 8 40 9 92 10 41 11 91 12 42 13
REMARK SMILES IDX 43 14 44 15 85 16 45 17 90 18 84 19 86 20 46 21 89 22 83 23
REMARK SMILES IDX 82 24 47 26 73 27 56 28 72 29 57 30 60 31 71 32 87 33 58 34
REMARK SMILES IDX 59 35 70 37 88 38 61 39 48 40 49 41 54 42 50 43 51 44 53 45
REMARK SMILES IDX 55 46 52 47 74 48 75 49 80 50 76 51 77 52 79 53 81 54 78 55
REMARK SMILES IDX 62 56 63 57 68 58 64 59 65 60 67 61 69 62 66 63 7 64 8 65
REMARK SMILES IDX 9 66 10 68 11 69 12 70 18 71 13 72 17 73 15 74 14 75 16 76
REMARK SMILES IDX 19 77 20 78 21 79 22 81 23 82 26 83 24 84 25 85 38 86 35 87
REMARK SMILES IDX 37 88 36 89 27 90 28 91 29 92 30 93 34 94 31 95 33 96 32 97
REMARK H PARENT 3 7 86 25 60 36 8 67 21 80
REMARK Flexibility Score: inf
ROOT
ATOM      1  C   UNL     1       5.162  -3.423  -0.282  1.00  0.00     0.023 C 
ENDROOT
BRANCH   1   2
ATOM      2  C   UNL     1       5.499  -2.046   0.261  1.00  0.00     0.023 C 
BRANCH   2   3
ATOM      3  C   UNL     1       4.922  -0.869  -0.517  1.00  0.00     0.116 C 
BRANCH   3   4
ATOM      4  N   UNL     1       3.460  -0.830  -0.569  1.00  0.00    -0.352 N 
ATOM      5  O   UNL     1       1.350  -0.198  -0.031  1.00  0.00    -0.269 OA
ATOM      6  C   UNL     1       2.559  -0.017   0.085  1.00  0.00     0.251 C 
ATOM      7  H   UNL     1       3.053  -1.495  -1.170  1.00  0.00     0.163 HD
BRANCH   6   8
ATOM      8  C   UNL     1       3.052   1.045   0.979  1.00  0.00     0.039 A 
ATOM      9  C   UNL     1       4.100   1.862   0.571  1.00  0.00     0.014 A 
ATOM     10  C   UNL     1       2.523   1.167   2.266  1.00  0.00     0.014 A 
ATOM     11  C   UNL     1       4.810   2.569   1.525  1.00  0.00     0.010 A 
ATOM     12  C   UNL     1       3.152   2.005   3.191  1.00  0.00     0.010 A 
ATOM     13  C   UNL     1       4.352   2.646   2.852  1.00  0.00    -0.014 A 
BRANCH  13  14
ATOM     14  C   UNL     1       5.173   3.385   3.847  1.00  0.00     0.031 A 
ATOM     15  C   UNL     1       5.737   2.694   5.063  1.00  0.00     0.074 A 
ATOM     16  C   UNL     1       5.490   4.670   3.596  1.00  0.00     0.049 A 
ATOM     17  N   UNL     1       6.515   3.180   5.998  1.00  0.00    -0.248 NA
ATOM     18  C   UNL     1       5.377   1.282   5.268  1.00  0.00     0.031 C 
ATOM     19  C   UNL     1       5.006   5.448   2.452  1.00  0.00     0.029 A 
ATOM     20  N   UNL     1       6.329   5.533   4.250  1.00  0.00    -0.354 N 
ATOM     21  C   UNL     1       6.695   2.156   6.920  1.00  0.00     0.074 A 
ATOM     22  C   UNL     1       5.938   1.021   6.440  1.00  0.00     0.031 C 
ATOM     23  C   UNL     1       5.627   6.635   2.432  1.00  0.00     0.029 A 
ATOM     24  C   UNL     1       6.485   6.736   3.605  1.00  0.00     0.049 A 
ATOM     25  H   UNL     1       6.776   5.313   5.100  1.00  0.00     0.167 HD
ATOM     26  C   UNL     1       7.427   2.161   8.060  1.00  0.00     0.037 A 
ATOM     27  C   UNL     1       7.231   7.809   3.923  1.00  0.00     0.037 A 
ATOM     28  C   UNL     1       8.224   3.275   8.507  1.00  0.00     0.049 A 
ATOM     29  C   UNL     1       8.052   7.777   5.176  1.00  0.00     0.074 A 
ATOM     30  C   UNL     1       9.028   3.366   9.631  1.00  0.00     0.029 A 
ATOM     31  N   UNL     1       8.328   4.488   7.843  1.00  0.00    -0.354 N 
ATOM     32  N   UNL     1       8.203   6.801   6.038  1.00  0.00    -0.248 NA
ATOM     33  C   UNL     1       8.794   8.999   5.507  1.00  0.00     0.031 C 
ATOM     34  C   UNL     1       9.592   4.646   9.664  1.00  0.00     0.029 A 
ATOM     35  C   UNL     1       9.172   5.338   8.540  1.00  0.00     0.049 A 
ATOM     36  H   UNL     1       7.869   4.713   7.002  1.00  0.00     0.167 HD
ATOM     37  C   UNL     1       9.066   7.287   7.009  1.00  0.00     0.074 A 
ATOM     38  C   UNL     1       9.422   8.636   6.616  1.00  0.00     0.031 C 
ATOM     39  C   UNL     1       9.517   6.674   8.130  1.00  0.00     0.037 A 
BRANCH  26  40
ATOM     40  C   UNL     1       7.385   0.933   8.923  1.00  0.00     0.057 A 
ATOM     41  C   UNL     1       8.047  -0.250   8.572  1.00  0.00     0.134 A 
ATOM     42  C   UNL     1       6.706   0.953  10.149  1.00  0.00     0.134 A 
ATOM     43  F   UNL     1       8.704  -0.341   7.406  1.00  0.00    -0.206 F 
ATOM     44  C   UNL     1       8.021  -1.375   9.401  1.00  0.00     0.040 A 
ATOM     45  C   UNL     1       6.691  -0.157  10.996  1.00  0.00     0.040 A 
ATOM     46  F   UNL     1       6.055   2.056  10.549  1.00  0.00    -0.206 F 
ATOM     47  C   UNL     1       7.347  -1.327  10.620  1.00  0.00     0.006 A 
ENDBRANCH  26  40
BRANCH  27  48
ATOM     48  C   UNL     1       7.226   8.996   3.035  1.00  0.00     0.057 A 
ATOM     49  C   UNL     1       8.354   9.338   2.281  1.00  0.00     0.134 A 
ATOM     50  C   UNL     1       6.088   9.799   2.898  1.00  0.00     0.134 A 
ATOM     51  F   UNL     1       9.478   8.614   2.381  1.00  0.00    -0.206 F 
ATOM     52  C   UNL     1       8.352  10.442   1.428  1.00  0.00     0.040 A 
ATOM     53  C   UNL     1       6.063  10.889   2.029  1.00  0.00     0.040 A 
ATOM     54  F   UNL     1       4.972   9.515   3.587  1.00  0.00    -0.206 F 
ATOM     55  C   UNL     1       7.201  11.217   1.295  1.00  0.00     0.006 A 
ENDBRANCH  27  48
BRANCH  39  56
ATOM     56  C   UNL     1      10.466   7.454   8.988  1.00  0.00     0.057 A 
ATOM     57  C   UNL     1      10.030   8.516   9.790  1.00  0.00     0.134 A 
ATOM     58  C   UNL     1      11.828   7.132   9.016  1.00  0.00     0.134 A 
ATOM     59  F   UNL     1       8.739   8.881   9.793  1.00  0.00    -0.206 F 
ATOM     60  C   UNL     1      10.923   9.250  10.571  1.00  0.00     0.040 A 
ATOM     61  C   UNL     1      12.726   7.845   9.810  1.00  0.00     0.040 A 
ATOM     62  F   UNL     1      12.305   6.122   8.274  1.00  0.00    -0.206 F 
ATOM     63  C   UNL     1      12.276   8.912  10.585  1.00  0.00     0.006 A 
ENDBRANCH  39  56
ENDBRANCH  13  14
ENDBRANCH   6   8
ENDBRANCH   3   4
ENDBRANCH   2   3
ENDBRANCH   1   2
BRANCH   1  64
ATOM     64  C   UNL     1       5.221  -3.571  -1.792  1.00  0.00     0.116 C 
BRANCH  64  65
ATOM     65  N   UNL     1       6.524  -3.613  -2.404  1.00  0.00    -0.356 N 
ATOM     66  C   UNL     1       6.911  -4.106  -3.616  1.00  0.00     0.224 C 
ATOM     67  H   UNL     1       7.250  -3.225  -1.862  1.00  0.00     0.163 HD
ATOM     68  O   UNL     1       8.047  -3.772  -3.981  1.00  0.00    -0.275 OA
BRANCH  66  69
ATOM     69  C   UNL     1       6.124  -5.132  -4.471  1.00  0.00     0.094 C 
ATOM     70  C   UNL     1       6.636  -6.562  -4.132  1.00  0.00     0.002 C 
ATOM     71  C   UNL     1       4.574  -5.123  -4.460  1.00  0.00     0.094 C 
ATOM     72  C   UNL     1       6.159  -6.979  -2.729  1.00  0.00     0.005 C 
ATOM     73  C   UNL     1       6.044  -7.556  -5.154  1.00  0.00     0.005 C 
ATOM     74  C   UNL     1       4.044  -6.529  -4.030  1.00  0.00     0.002 C 
ATOM     75  C   UNL     1       4.628  -6.983  -2.676  1.00  0.00     0.005 C 
ATOM     76  C   UNL     1       4.512  -7.575  -5.059  1.00  0.00     0.005 C 
BRANCH  71  77
ATOM     77  C   UNL     1       3.901  -4.701  -5.783  1.00  0.00     0.229 C 
ATOM     78  O   UNL     1       4.520  -4.715  -6.850  1.00  0.00    -0.274 OA
ATOM     79  N   UNL     1       2.546  -4.447  -5.815  1.00  0.00    -0.317 N 
ATOM     80  H   UNL     1       2.147  -4.411  -6.715  1.00  0.00     0.170 HD
BRANCH  79  81
ATOM     81  C   UNL     1       1.661  -4.235  -4.769  1.00  0.00     0.108 A 
ATOM     82  S   UNL     1       2.096  -3.180  -3.514  1.00  0.00    -0.122 S 
ATOM     83  C   UNL     1       0.338  -4.665  -4.655  1.00  0.00     0.078 A 
ATOM     84  C   UNL     1       0.795  -3.679  -2.569  1.00  0.00     0.011 A 
ATOM     85  C   UNL     1      -0.148  -4.370  -3.307  1.00  0.00    -0.019 A 
ATOM     86  C   UNL     1       0.691  -3.324  -1.119  1.00  0.00     0.047 C 
ATOM     87  C   UNL     1      -1.441  -4.783  -2.664  1.00  0.00     0.037 C 
ATOM     88  C   UNL     1      -0.349  -4.213  -0.434  1.00  0.00     0.006 C 
ATOM     89  C   UNL     1      -1.643  -4.224  -1.245  1.00  0.00     0.005 C 
BRANCH  83  90
ATOM     90  C   UNL     1      -0.285  -5.440  -5.745  1.00  0.00     0.257 C 
ATOM     91  O   UNL     1       0.282  -5.606  -6.826  1.00  0.00    -0.269 OA
ATOM     92  N   UNL     1      -1.480  -6.090  -5.461  1.00  0.00    -0.339 N 
ATOM     93  C   UNL     1      -1.542  -7.497  -5.821  1.00  0.00     0.120 C 
ATOM     94  C   UNL     1      -2.731  -5.369  -5.666  1.00  0.00     0.120 C 
ATOM     95  C   UNL     1      -2.606  -8.206  -4.996  1.00  0.00     0.022 C 
ATOM     96  C   UNL     1      -3.879  -6.023  -4.894  1.00  0.00     0.022 C 
ATOM     97  C   UNL     1      -3.966  -7.527  -5.157  1.00  0.00     0.004 C 
ENDBRANCH  83  90
ENDBRANCH  79  81
ENDBRANCH  71  77
ENDBRANCH  66  69
ENDBRANCH  64  65
ENDBRANCH   1  64
TORSDOF 14
