REMARK SMILES Cc1sc2nc(SCc3ccc(C(=O)NCCCCNC(=O)c4ccc(-c5c6nc(c(-c7c(F)cccc7F)c7ccc([nH]7)c(-c7c(F)cccc7F)c7nc(c(-c8c(F)cccc8F)c8ccc5[nH]8)C=C7)C=C6)cc4)cc3)n(Cc3ccco3)c(=O)c2c1C
REMARK SMILES IDX 16 1 15 2 13 3 14 4 12 6 9 7 10 8 78 9 11 10 77 11 8 12 7 13
REMARK SMILES IDX 6 14 1 15 2 16 3 17 89 18 4 19 88 20 90 21 5 22 86 23 79 24
REMARK SMILES IDX 87 25 80 26 81 27 82 28 85 29 83 30 84 31 17 32 18 33 19 34
REMARK SMILES IDX 20 35 21 36 22 38 23 39 24 40 76 41 25 42 75 43 26 44 27 45
REMARK SMILES IDX 28 46 69 47 29 48 74 49 68 50 70 51 30 52 73 53 67 54 66 55
REMARK SMILES IDX 31 57 57 58 40 59 56 60 41 61 44 62 55 63 71 64 42 65 43 66
REMARK SMILES IDX 54 68 72 69 45 70 32 71 33 72 38 73 34 74 35 75 37 76 39 77
REMARK SMILES IDX 36 78 58 79 59 80 64 81 60 82 61 83 63 84 65 85 62 86 46 87
REMARK SMILES IDX 47 88 52 89 48 90 49 91 51 92 53 93 50 94
REMARK H PARENT 15 5 20 37 70 56 44 67
REMARK Flexibility Score: inf
ROOT
ATOM      1  C   UNL     1       3.105  -3.026  11.893  1.00  0.00     0.116 C 
ENDROOT
BRANCH   1   2
ATOM      2  N   UNL     1       2.150  -1.945  11.749  1.00  0.00    -0.352 N 
ATOM      3  C   UNL     1       0.824  -1.879  11.380  1.00  0.00     0.251 C 
ATOM      4  O   UNL     1       0.265  -0.804  11.624  1.00  0.00    -0.269 OA
ATOM      5  H   UNL     1       2.533  -1.064  11.962  1.00  0.00     0.163 HD
BRANCH   3   6
ATOM      6  C   UNL     1       0.046  -2.928  10.630  1.00  0.00     0.039 A 
ATOM      7  C   UNL     1      -1.282  -4.409   8.597  1.00  0.00    -0.038 A 
ATOM      8  C   UNL     1      -1.902  -3.306   9.189  1.00  0.00     0.005 A 
ATOM      9  C   UNL     1      -0.149  -4.918   9.240  1.00  0.00     0.005 A 
ATOM     10  C   UNL     1      -1.217  -2.543  10.147  1.00  0.00     0.014 A 
ATOM     11  C   UNL     1       0.485  -4.199  10.267  1.00  0.00     0.014 A 
BRANCH   7  12
ATOM     12  C   UNL     1      -1.724  -4.959   7.243  1.00  0.00     0.113 C 
BRANCH  12  13
ATOM     13  S   UNL     1      -0.417  -4.774   5.991  1.00  0.00    -0.083 SA
BRANCH  13  14
ATOM     14  C   UNL     1      -0.703  -3.511   4.792  1.00  0.00     0.173 A 
ATOM     15  C   UNL     1       1.287  -0.502  -0.159  1.00  0.00     0.057 C 
ATOM     16  C   UNL     1       0.629  -1.133   1.024  1.00  0.00     0.007 A 
ATOM     17  S   UNL     1       0.897  -2.801   1.355  1.00  0.00    -0.120 S 
ATOM     18  C   UNL     1      -0.186  -0.542   1.975  1.00  0.00    -0.022 A 
ATOM     19  C   UNL     1      -0.059  -2.754   2.765  1.00  0.00     0.132 A 
ATOM     20  C   UNL     1      -0.650  -1.527   2.907  1.00  0.00     0.080 A 
ATOM     21  C   UNL     1      -0.510   0.917   2.066  1.00  0.00     0.046 C 
ATOM     22  N   UNL     1      -0.138  -3.785   3.647  1.00  0.00    -0.213 NA
ATOM     23  C   UNL     1      -1.532  -1.357   4.027  1.00  0.00     0.263 A 
ATOM     24  N   UNL     1      -1.336  -2.293   5.045  1.00  0.00    -0.279 N 
ATOM     25  O   UNL     1      -2.361  -0.450   4.068  1.00  0.00    -0.268 OA
BRANCH  24  26
ATOM     26  C   UNL     1      -1.743  -1.781   6.323  1.00  0.00     0.203 C 
BRANCH  26  27
ATOM     27  C   UNL     1      -0.592  -1.079   6.952  1.00  0.00     0.123 A 
ATOM     28  C   UNL     1       0.683  -1.454   7.331  1.00  0.00     0.047 A 
ATOM     29  O   UNL     1      -0.781   0.244   7.224  1.00  0.00    -0.467 OA
ATOM     30  C   UNL     1       1.294  -0.301   7.877  1.00  0.00     0.042 A 
ATOM     31  C   UNL     1       0.364   0.705   7.785  1.00  0.00     0.195 A 
ENDBRANCH  26  27
ENDBRANCH  24  26
ENDBRANCH  13  14
ENDBRANCH  12  13
ENDBRANCH   7  12
ENDBRANCH   3   6
ENDBRANCH   1   2
BRANCH   1  32
ATOM     32  C   UNL     1       4.546  -2.651  11.545  1.00  0.00     0.023 C 
BRANCH  32  33
ATOM     33  C   UNL     1       5.312  -1.761  12.534  1.00  0.00     0.023 C 
BRANCH  33  34
ATOM     34  C   UNL     1       5.393  -2.240  13.994  1.00  0.00     0.116 C 
BRANCH  34  35
ATOM     35  N   UNL     1       5.841  -3.618  14.100  1.00  0.00    -0.352 N 
ATOM     36  C   UNL     1       6.830  -4.214  14.838  1.00  0.00     0.251 C 
ATOM     37  H   UNL     1       5.337  -4.245  13.532  1.00  0.00     0.163 HD
ATOM     38  O   UNL     1       7.116  -5.384  14.588  1.00  0.00    -0.269 OA
BRANCH  36  39
ATOM     39  C   UNL     1       7.561  -3.525  15.926  1.00  0.00     0.039 A 
ATOM     40  C   UNL     1       8.944  -3.739  16.034  1.00  0.00     0.014 A 
ATOM     41  C   UNL     1       6.900  -2.824  16.932  1.00  0.00     0.014 A 
ATOM     42  C   UNL     1       9.671  -3.212  17.110  1.00  0.00     0.010 A 
ATOM     43  C   UNL     1       7.629  -2.312  18.016  1.00  0.00     0.010 A 
ATOM     44  C   UNL     1       9.025  -2.477  18.112  1.00  0.00    -0.014 A 
BRANCH  44  45
ATOM     45  C   UNL     1       9.831  -1.770  19.147  1.00  0.00     0.031 A 
ATOM     46  C   UNL     1       9.301  -0.439  19.566  1.00  0.00     0.074 A 
ATOM     47  C   UNL     1      10.685  -2.360  20.015  1.00  0.00     0.049 A 
ATOM     48  N   UNL     1       8.342  -0.334  20.438  1.00  0.00    -0.248 NA
ATOM     49  C   UNL     1       9.616   0.812  18.880  1.00  0.00     0.031 C 
ATOM     50  C   UNL     1      10.585  -3.758  20.442  1.00  0.00     0.029 A 
ATOM     51  N   UNL     1      11.633  -1.816  20.862  1.00  0.00    -0.354 N 
ATOM     52  C   UNL     1       7.858   0.955  20.365  1.00  0.00     0.074 A 
ATOM     53  C   UNL     1       8.704   1.644  19.415  1.00  0.00     0.031 C 
ATOM     54  C   UNL     1      11.307  -3.917  21.572  1.00  0.00     0.029 A 
ATOM     55  C   UNL     1      12.050  -2.688  21.870  1.00  0.00     0.049 A 
ATOM     56  H   UNL     1      11.982  -0.901  20.764  1.00  0.00     0.167 HD
ATOM     57  C   UNL     1       6.766   1.354  21.067  1.00  0.00     0.037 A 
ATOM     58  C   UNL     1      12.383  -2.326  23.142  1.00  0.00     0.037 A 
ATOM     59  C   UNL     1       6.143   0.344  21.873  1.00  0.00     0.049 A 
ATOM     60  C   UNL     1      11.112  -1.722  23.658  1.00  0.00     0.074 A 
ATOM     61  C   UNL     1       5.137  -0.586  21.727  1.00  0.00     0.029 A 
ATOM     62  N   UNL     1       6.657   0.104  23.126  1.00  0.00    -0.354 N 
ATOM     63  N   UNL     1      10.085  -2.385  24.109  1.00  0.00    -0.248 NA
ATOM     64  C   UNL     1      10.859  -0.309  23.378  1.00  0.00     0.031 C 
ATOM     65  C   UNL     1       5.423  -1.611  22.685  1.00  0.00     0.029 A 
ATOM     66  C   UNL     1       6.619  -1.256  23.305  1.00  0.00     0.049 A 
ATOM     67  H   UNL     1       6.986   0.775  23.767  1.00  0.00     0.167 HD
ATOM     68  C   UNL     1       8.991  -1.542  23.920  1.00  0.00     0.074 A 
ATOM     69  C   UNL     1       9.541  -0.263  23.518  1.00  0.00     0.031 C 
ATOM     70  C   UNL     1       7.702  -1.991  23.910  1.00  0.00     0.037 A 
BRANCH  57  71
ATOM     71  C   UNL     1       6.252   2.730  21.142  1.00  0.00     0.057 A 
ATOM     72  C   UNL     1       5.325   3.234  20.230  1.00  0.00     0.134 A 
ATOM     73  C   UNL     1       6.488   3.457  22.315  1.00  0.00     0.134 A 
ATOM     74  F   UNL     1       5.049   2.570  19.098  1.00  0.00    -0.206 F 
ATOM     75  C   UNL     1       4.616   4.406  20.506  1.00  0.00     0.040 A 
ATOM     76  C   UNL     1       5.782   4.620  22.606  1.00  0.00     0.040 A 
ATOM     77  F   UNL     1       7.361   2.997  23.228  1.00  0.00    -0.206 F 
ATOM     78  C   UNL     1       4.829   5.089  21.706  1.00  0.00     0.006 A 
ENDBRANCH  57  71
BRANCH  58  79
ATOM     79  C   UNL     1      13.722  -1.706  23.392  1.00  0.00     0.057 A 
ATOM     80  C   UNL     1      13.957  -0.590  24.211  1.00  0.00     0.134 A 
ATOM     81  C   UNL     1      14.871  -2.299  22.840  1.00  0.00     0.134 A 
ATOM     82  F   UNL     1      12.968  -0.011  24.905  1.00  0.00    -0.206 F 
ATOM     83  C   UNL     1      15.227  -0.019  24.361  1.00  0.00     0.040 A 
ATOM     84  C   UNL     1      16.152  -1.758  23.004  1.00  0.00     0.040 A 
ATOM     85  F   UNL     1      14.778  -3.442  22.143  1.00  0.00    -0.206 F 
ATOM     86  C   UNL     1      16.330  -0.595  23.744  1.00  0.00     0.006 A 
ENDBRANCH  58  79
BRANCH  70  87
ATOM     87  C   UNL     1       7.542  -3.430  24.270  1.00  0.00     0.057 A 
ATOM     88  C   UNL     1       7.213  -4.399  23.313  1.00  0.00     0.134 A 
ATOM     89  C   UNL     1       7.756  -3.867  25.582  1.00  0.00     0.134 A 
ATOM     90  F   UNL     1       7.019  -4.064  22.027  1.00  0.00    -0.206 F 
ATOM     91  C   UNL     1       7.072  -5.746  23.654  1.00  0.00     0.040 A 
ATOM     92  C   UNL     1       7.644  -5.215  25.929  1.00  0.00     0.040 A 
ATOM     93  F   UNL     1       8.072  -2.990  26.549  1.00  0.00    -0.206 F 
ATOM     94  C   UNL     1       7.293  -6.157  24.965  1.00  0.00     0.006 A 
ENDBRANCH  70  87
ENDBRANCH  44  45
ENDBRANCH  36  39
ENDBRANCH  34  35
ENDBRANCH  33  34
ENDBRANCH  32  33
ENDBRANCH   1  32
TORSDOF 16
