REMARK SMILES CC1=NN(c2ccc(C(=O)NCCCCNC(=O)c3ccc(-c4c5nc(c(-c6c(F)cccc6F)c6ccc([nH]6)c(-c6c(F)cccc6F)c6nc(c(-c7c(F)cccc7F)c7ccc4[nH]7)C=C6)C=C5)cc3)cc2)C(=O)/C1=C\c1ccc(N2CCCC2)cc1
REMARK SMILES IDX 13 1 12 2 11 3 9 4 10 5 8 7 5 8 6 9 74 10 7 11 73 12 4 13
REMARK SMILES IDX 1 14 2 15 3 16 77 17 75 18 78 19 76 20 79 21 80 22 89 23
REMARK SMILES IDX 81 24 88 25 82 26 83 27 84 28 87 29 85 30 86 31 14 32 15 33
REMARK SMILES IDX 16 34 17 35 18 37 19 38 20 39 72 40 21 41 71 42 22 43 23 44
REMARK SMILES IDX 24 45 65 46 25 47 70 48 64 49 66 50 26 51 69 52 63 53 62 54
REMARK SMILES IDX 27 56 53 57 36 58 52 59 37 60 40 61 51 62 67 63 38 64 39 65
REMARK SMILES IDX 50 67 68 68 41 69 28 70 29 71 34 72 30 73 31 74 33 75 35 76
REMARK SMILES IDX 32 77 54 78 55 79 60 80 56 81 57 82 59 83 61 84 58 85 42 86
REMARK SMILES IDX 43 87 48 88 44 89 45 90 47 91 49 92 46 93
REMARK H PARENT 11 6 16 36 66 55 40 66
REMARK Flexibility Score: inf
ROOT
ATOM      1  C   UNL     1       4.207   6.233  -3.358  1.00  0.00     0.023 C 
ENDROOT
BRANCH   1   2
ATOM      2  C   UNL     1       4.725   5.863  -1.965  1.00  0.00     0.116 C 
BRANCH   2   3
ATOM      3  N   UNL     1       4.056   6.659  -0.955  1.00  0.00    -0.352 N 
ATOM      4  C   UNL     1       2.946   6.430  -0.179  1.00  0.00     0.251 C 
ATOM      5  O   UNL     1       2.603   7.326   0.594  1.00  0.00    -0.269 OA
ATOM      6  H   UNL     1       4.479   7.533  -0.793  1.00  0.00     0.163 HD
BRANCH   4   7
ATOM      7  C   UNL     1       2.188   5.144  -0.183  1.00  0.00     0.039 A 
ATOM      8  C   UNL     1       0.925   2.648   0.074  1.00  0.00     0.069 A 
ATOM      9  C   UNL     1       0.759   3.608   1.070  1.00  0.00     0.029 A 
ATOM     10  C   UNL     1       1.635   2.967  -1.082  1.00  0.00     0.029 A 
ATOM     11  C   UNL     1       1.423   4.837   0.957  1.00  0.00     0.016 A 
ATOM     12  C   UNL     1       2.202   4.228  -1.234  1.00  0.00     0.016 A 
BRANCH   8  13
ATOM     13  N   UNL     1       0.416   1.354   0.219  1.00  0.00    -0.196 N 
ATOM     14  C   UNL     1      -2.531  -0.690   0.157  1.00  0.00     0.069 C 
ATOM     15  C   UNL     1      -1.169  -0.086   0.196  1.00  0.00     0.071 C 
ATOM     16  N   UNL     1      -0.949   1.190   0.384  1.00  0.00    -0.169 NA
ATOM     17  C   UNL     1       0.079  -0.852   0.004  1.00  0.00     0.065 C 
ATOM     18  C   UNL     1       1.128   0.189  -0.089  1.00  0.00     0.280 C 
ATOM     19  C   UNL     1       0.229  -2.182   0.001  1.00  0.00     0.024 C 
ATOM     20  O   UNL     1       2.296   0.044  -0.386  1.00  0.00    -0.267 OA
BRANCH  19  21
ATOM     21  C   UNL     1       1.542  -2.839   0.043  1.00  0.00    -0.025 A 
ATOM     22  C   UNL     1       2.001  -3.619  -1.017  1.00  0.00     0.010 A 
ATOM     23  C   UNL     1       2.360  -2.684   1.166  1.00  0.00     0.010 A 
ATOM     24  C   UNL     1       3.275  -4.206  -0.958  1.00  0.00     0.026 A 
ATOM     25  C   UNL     1       3.622  -3.283   1.218  1.00  0.00     0.026 A 
ATOM     26  C   UNL     1       4.108  -4.058   0.161  1.00  0.00     0.037 A 
BRANCH  26  27
ATOM     27  N   UNL     1       5.360  -4.630   0.189  1.00  0.00    -0.372 N 
ATOM     28  C   UNL     1       5.995  -5.151   1.395  1.00  0.00     0.116 C 
ATOM     29  C   UNL     1       6.346  -4.257  -0.825  1.00  0.00     0.116 C 
ATOM     30  C   UNL     1       7.447  -4.707   1.257  1.00  0.00     0.023 C 
ATOM     31  C   UNL     1       7.676  -4.745  -0.246  1.00  0.00     0.023 C 
ENDBRANCH  26  27
ENDBRANCH  19  21
ENDBRANCH   8  13
ENDBRANCH   4   7
ENDBRANCH   2   3
ENDBRANCH   1   2
BRANCH   1  32
ATOM     32  C   UNL     1       4.806   7.528  -3.908  1.00  0.00     0.023 C 
BRANCH  32  33
ATOM     33  C   UNL     1       6.316   7.487  -4.106  1.00  0.00     0.116 C 
BRANCH  33  34
ATOM     34  N   UNL     1       6.745   6.428  -5.007  1.00  0.00    -0.352 N 
ATOM     35  C   UNL     1       7.775   6.452  -5.916  1.00  0.00     0.251 C 
ATOM     36  H   UNL     1       6.234   5.588  -4.959  1.00  0.00     0.163 HD
ATOM     37  O   UNL     1       7.940   5.526  -6.702  1.00  0.00    -0.269 OA
BRANCH  35  38
ATOM     38  C   UNL     1       8.657   7.633  -5.957  1.00  0.00     0.039 A 
ATOM     39  C   UNL     1       8.891   8.258  -7.183  1.00  0.00     0.014 A 
ATOM     40  C   UNL     1       9.199   8.153  -4.778  1.00  0.00     0.014 A 
ATOM     41  C   UNL     1       9.619   9.447  -7.217  1.00  0.00     0.010 A 
ATOM     42  C   UNL     1       9.851   9.379  -4.804  1.00  0.00     0.010 A 
ATOM     43  C   UNL     1      10.069  10.037  -6.024  1.00  0.00    -0.014 A 
BRANCH  43  44
ATOM     44  C   UNL     1      10.770  11.345  -6.034  1.00  0.00     0.031 A 
ATOM     45  C   UNL     1      12.192  11.443  -5.559  1.00  0.00     0.074 A 
ATOM     46  C   UNL     1      10.105  12.453  -6.417  1.00  0.00     0.049 A 
ATOM     47  N   UNL     1      12.956  12.499  -5.450  1.00  0.00    -0.248 NA
ATOM     48  C   UNL     1      12.833  10.191  -5.126  1.00  0.00     0.031 C 
ATOM     49  C   UNL     1       8.708  12.495  -6.853  1.00  0.00     0.029 A 
ATOM     50  N   UNL     1      10.516  13.759  -6.496  1.00  0.00    -0.354 N 
ATOM     51  C   UNL     1      14.160  12.041  -4.930  1.00  0.00     0.074 A 
ATOM     52  C   UNL     1      14.003  10.625  -4.684  1.00  0.00     0.031 C 
ATOM     53  C   UNL     1       8.389  13.755  -7.185  1.00  0.00     0.029 A 
ATOM     54  C   UNL     1       9.541  14.618  -6.943  1.00  0.00     0.049 A 
ATOM     55  H   UNL     1      11.424  14.054  -6.255  1.00  0.00     0.167 HD
ATOM     56  C   UNL     1      15.302  12.733  -4.705  1.00  0.00     0.037 A 
ATOM     57  C   UNL     1       9.572  15.951  -7.130  1.00  0.00     0.037 A 
ATOM     58  C   UNL     1      15.456  14.141  -4.960  1.00  0.00     0.049 A 
ATOM     59  C   UNL     1      10.842  16.702  -6.840  1.00  0.00     0.074 A 
ATOM     60  C   UNL     1      16.585  14.926  -4.810  1.00  0.00     0.029 A 
ATOM     61  N   UNL     1      14.444  14.977  -5.409  1.00  0.00    -0.354 N 
ATOM     62  N   UNL     1      11.996  16.244  -6.418  1.00  0.00    -0.248 NA
ATOM     63  C   UNL     1      10.815  18.155  -7.058  1.00  0.00     0.031 C 
ATOM     64  C   UNL     1      16.242  16.247  -5.114  1.00  0.00     0.029 A 
ATOM     65  C   UNL     1      14.916  16.276  -5.514  1.00  0.00     0.049 A 
ATOM     66  H   UNL     1      13.527  14.691  -5.622  1.00  0.00     0.167 HD
ATOM     67  C   UNL     1      12.840  17.346  -6.350  1.00  0.00     0.074 A 
ATOM     68  C   UNL     1      12.069  18.490  -6.790  1.00  0.00     0.031 C 
ATOM     69  C   UNL     1      14.137  17.405  -5.959  1.00  0.00     0.037 A 
BRANCH  56  70
ATOM     70  C   UNL     1      16.473  11.971  -4.152  1.00  0.00     0.057 A 
ATOM     71  C   UNL     1      17.148  11.001  -4.906  1.00  0.00     0.134 A 
ATOM     72  C   UNL     1      16.948  12.226  -2.859  1.00  0.00     0.134 A 
ATOM     73  F   UNL     1      16.739  10.698  -6.147  1.00  0.00    -0.206 F 
ATOM     74  C   UNL     1      18.230  10.289  -4.383  1.00  0.00     0.040 A 
ATOM     75  C   UNL     1      18.049  11.544  -2.337  1.00  0.00     0.040 A 
ATOM     76  F   UNL     1      16.355  13.146  -2.084  1.00  0.00    -0.206 F 
ATOM     77  C   UNL     1      18.687  10.566  -3.097  1.00  0.00     0.006 A 
ENDBRANCH  56  70
BRANCH  57  78
ATOM     78  C   UNL     1       8.369  16.661  -7.637  1.00  0.00     0.057 A 
ATOM     79  C   UNL     1       8.355  17.237  -8.913  1.00  0.00     0.134 A 
ATOM     80  C   UNL     1       7.213  16.792  -6.859  1.00  0.00     0.134 A 
ATOM     81  F   UNL     1       9.438  17.161  -9.700  1.00  0.00    -0.206 F 
ATOM     82  C   UNL     1       7.245  17.938  -9.388  1.00  0.00     0.040 A 
ATOM     83  C   UNL     1       6.085  17.466  -7.332  1.00  0.00     0.040 A 
ATOM     84  F   UNL     1       7.157  16.256  -5.631  1.00  0.00    -0.206 F 
ATOM     85  C   UNL     1       6.103  18.049  -8.597  1.00  0.00     0.006 A 
ENDBRANCH  57  78
BRANCH  69  86
ATOM     86  C   UNL     1      14.816  18.743  -6.026  1.00  0.00     0.057 A 
ATOM     87  C   UNL     1      14.496  19.785  -5.146  1.00  0.00     0.134 A 
ATOM     88  C   UNL     1      15.833  18.978  -6.961  1.00  0.00     0.134 A 
ATOM     89  F   UNL     1      13.523  19.630  -4.234  1.00  0.00    -0.206 F 
ATOM     90  C   UNL     1      15.142  21.020  -5.212  1.00  0.00     0.040 A 
ATOM     91  C   UNL     1      16.509  20.198  -7.015  1.00  0.00     0.040 A 
ATOM     92  F   UNL     1      16.198  18.020  -7.827  1.00  0.00    -0.206 F 
ATOM     93  C   UNL     1      16.158  21.226  -6.144  1.00  0.00     0.006 A 
ENDBRANCH  69  86
ENDBRANCH  43  44
ENDBRANCH  35  38
ENDBRANCH  33  34
ENDBRANCH  32  33
ENDBRANCH   1  32
TORSDOF 14
