REMARK SMILES C[C@@H]1CC[C@H](C)c2nc3cc(F)c(Cl)cc3c(C(=O)NCCCCNC(=O)c3ccc(-c4c5nc(c(-c6c(F)cccc6F)c6ccc([nH]6)c(-c6c(F)cccc6F)c6nc(c(-c7c(F)cccc7F)c7ccc4[nH]7)C=C6)C=C5)cc3)c21
REMARK SMILES IDX 23 1 22 2 21 3 20 4 18 5 19 6 17 8 1 9 2 10 3 11 82 12 4 13
REMARK SMILES IDX 7 14 5 15 8 16 16 17 6 18 9 19 15 20 10 21 13 22 11 23 14 24
REMARK SMILES IDX 12 25 24 26 25 27 26 28 27 30 28 31 29 32 81 33 30 34 80 35
REMARK SMILES IDX 31 36 32 37 33 38 74 39 34 40 79 41 73 42 75 43 35 44 78 45
REMARK SMILES IDX 72 46 71 47 36 49 62 50 45 51 61 52 46 53 49 54 60 55 76 56
REMARK SMILES IDX 47 57 48 58 59 60 77 61 50 62 37 63 38 64 43 65 39 66 40 67
REMARK SMILES IDX 42 68 44 69 41 70 63 71 64 72 69 73 65 74 66 75 68 76 70 77
REMARK SMILES IDX 67 78 51 79 52 80 57 81 53 82 54 83 56 84 58 85 55 86
REMARK H PARENT 20 7 25 29 75 48 49 59
REMARK Flexibility Score: inf
ROOT
ATOM      1  C   UNL     1      -1.867  -0.482   6.317  1.00  0.00     0.023 C 
ENDROOT
BRANCH   1   2
ATOM      2  C   UNL     1      -1.377   0.806   5.672  1.00  0.00     0.023 C 
BRANCH   2   3
ATOM      3  C   UNL     1      -0.141   0.665   4.769  1.00  0.00     0.116 C 
BRANCH   3   4
ATOM      4  N   UNL     1      -0.583   0.360   3.420  1.00  0.00    -0.352 N 
ATOM      5  C   UNL     1      -1.090   1.226   2.475  1.00  0.00     0.252 C 
ATOM      6  O   UNL     1      -2.048   0.856   1.801  1.00  0.00    -0.269 OA
ATOM      7  H   UNL     1      -0.511  -0.583   3.146  1.00  0.00     0.163 HD
BRANCH   5   8
ATOM      8  C   UNL     1      -0.416   2.516   2.142  1.00  0.00     0.054 A 
ATOM      9  C   UNL     1       1.285   0.527   0.105  1.00  0.00     0.013 C 
ATOM     10  C   UNL     1       0.143   1.513  -0.179  1.00  0.00     0.019 C 
ATOM     11  C   UNL     1       0.217   2.021  -1.629  1.00  0.00     0.009 C 
ATOM     12  C   UNL     1       0.142   2.643   0.844  1.00  0.00    -0.010 A 
ATOM     13  C   UNL     1       1.305   3.068  -1.807  1.00  0.00     0.010 C 
ATOM     14  C   UNL     1       0.721   3.875   0.525  1.00  0.00     0.048 A 
ATOM     15  C   UNL     1       1.008   4.272  -0.914  1.00  0.00     0.035 C 
ATOM     16  N   UNL     1       0.889   4.859   1.439  1.00  0.00    -0.252 NA
ATOM     17  C   UNL     1      -0.405   3.625   3.036  1.00  0.00     0.015 A 
ATOM     18  C   UNL     1       2.113   5.322  -1.049  1.00  0.00     0.014 C 
ATOM     19  C   UNL     1       0.363   4.737   2.655  1.00  0.00     0.074 A 
ATOM     20  C   UNL     1      -1.121   3.730   4.252  1.00  0.00     0.034 A 
ATOM     21  C   UNL     1       0.555   5.789   3.538  1.00  0.00     0.069 A 
ATOM     22  C   UNL     1      -0.918   4.785   5.139  1.00  0.00     0.077 A 
ATOM     23  C   UNL     1      -0.051   5.801   4.786  1.00  0.00     0.143 A 
ATOM     24  Cl  UNL     1      -1.736   4.794   6.651  1.00  0.00    -0.081 Cl
ATOM     25  F   UNL     1       0.184   6.827   5.616  1.00  0.00    -0.205 F 
ENDBRANCH   5   8
ENDBRANCH   3   4
ENDBRANCH   2   3
ENDBRANCH   1   2
BRANCH   1  26
ATOM     26  C   UNL     1      -1.019  -0.948   7.484  1.00  0.00     0.116 C 
BRANCH  26  27
ATOM     27  N   UNL     1      -0.946   0.006   8.591  1.00  0.00    -0.352 N 
ATOM     28  C   UNL     1      -0.870  -0.264   9.936  1.00  0.00     0.251 C 
ATOM     29  H   UNL     1      -0.951   0.958   8.341  1.00  0.00     0.163 HD
ATOM     30  O   UNL     1      -0.857   0.636  10.767  1.00  0.00    -0.269 OA
BRANCH  28  31
ATOM     31  C   UNL     1      -0.877  -1.677  10.361  1.00  0.00     0.039 A 
ATOM     32  C   UNL     1      -0.013  -2.583   9.745  1.00  0.00     0.014 A 
ATOM     33  C   UNL     1      -1.870  -2.116  11.239  1.00  0.00     0.014 A 
ATOM     34  C   UNL     1      -0.293  -3.937   9.828  1.00  0.00     0.010 A 
ATOM     35  C   UNL     1      -2.075  -3.486  11.408  1.00  0.00     0.010 A 
ATOM     36  C   UNL     1      -1.335  -4.404  10.648  1.00  0.00    -0.014 A 
BRANCH  36  37
ATOM     37  C   UNL     1      -1.647  -5.856  10.657  1.00  0.00     0.031 A 
ATOM     38  C   UNL     1      -2.976  -6.367  10.167  1.00  0.00     0.074 A 
ATOM     39  C   UNL     1      -0.684  -6.722  11.027  1.00  0.00     0.049 A 
ATOM     40  N   UNL     1      -3.409  -7.601  10.105  1.00  0.00    -0.248 NA
ATOM     41  C   UNL     1      -3.947  -5.370   9.687  1.00  0.00     0.031 C 
ATOM     42  C   UNL     1       0.653  -6.345  11.490  1.00  0.00     0.029 A 
ATOM     43  N   UNL     1      -0.664  -8.092  11.028  1.00  0.00    -0.354 N 
ATOM     44  C   UNL     1      -4.709  -7.527   9.619  1.00  0.00     0.074 A 
ATOM     45  C   UNL     1      -5.001  -6.126   9.407  1.00  0.00     0.031 C 
ATOM     46  C   UNL     1       1.389  -7.453  11.651  1.00  0.00     0.029 A 
ATOM     47  C   UNL     1       0.554  -8.618  11.383  1.00  0.00     0.049 A 
ATOM     48  H   UNL     1      -1.445  -8.645  10.798  1.00  0.00     0.167 HD
ATOM     49  C   UNL     1      -5.575  -8.537   9.368  1.00  0.00     0.037 A 
ATOM     50  C   UNL     1       0.953  -9.897  11.496  1.00  0.00     0.037 A 
ATOM     51  C   UNL     1      -5.265  -9.933   9.538  1.00  0.00     0.049 A 
ATOM     52  C   UNL     1      -0.032 -10.994  11.233  1.00  0.00     0.074 A 
ATOM     53  C   UNL     1      -6.074 -11.031   9.301  1.00  0.00     0.029 A 
ATOM     54  N   UNL     1      -4.043 -10.422   9.973  1.00  0.00    -0.354 N 
ATOM     55  N   UNL     1      -1.272 -10.904  10.820  1.00  0.00    -0.248 NA
ATOM     56  C   UNL     1       0.428 -12.367  11.478  1.00  0.00     0.031 C 
ATOM     57  C   UNL     1      -5.350 -12.185   9.619  1.00  0.00     0.029 A 
ATOM     58  C   UNL     1      -4.080 -11.806  10.023  1.00  0.00     0.049 A 
ATOM     59  H   UNL     1      -3.265  -9.869  10.211  1.00  0.00     0.167 HD
ATOM     60  C   UNL     1      -1.746 -12.206  10.764  1.00  0.00     0.074 A 
ATOM     61  C   UNL     1      -0.650 -13.069  11.156  1.00  0.00     0.031 C 
ATOM     62  C   UNL     1      -2.983 -12.645  10.428  1.00  0.00     0.037 A 
BRANCH  49  63
ATOM     63  C   UNL     1      -6.952  -8.178   8.895  1.00  0.00     0.057 A 
ATOM     64  C   UNL     1      -7.200  -7.771   7.579  1.00  0.00     0.134 A 
ATOM     65  C   UNL     1      -8.054  -8.307   9.751  1.00  0.00     0.134 A 
ATOM     66  F   UNL     1      -6.187  -7.616   6.713  1.00  0.00    -0.206 F 
ATOM     67  C   UNL     1      -8.495  -7.497   7.132  1.00  0.00     0.040 A 
ATOM     68  C   UNL     1      -9.355  -8.055   9.311  1.00  0.00     0.040 A 
ATOM     69  F   UNL     1      -7.885  -8.699  11.023  1.00  0.00    -0.206 F 
ATOM     70  C   UNL     1      -9.577  -7.647   7.998  1.00  0.00     0.006 A 
ENDBRANCH  49  63
BRANCH  50  71
ATOM     71  C   UNL     1       2.351 -10.191  11.888  1.00  0.00     0.057 A 
ATOM     72  C   UNL     1       3.266 -10.699  10.961  1.00  0.00     0.134 A 
ATOM     73  C   UNL     1       2.818  -9.921  13.181  1.00  0.00     0.134 A 
ATOM     74  F   UNL     1       2.872 -10.989   9.713  1.00  0.00    -0.206 F 
ATOM     75  C   UNL     1       4.600 -10.925  11.304  1.00  0.00     0.040 A 
ATOM     76  C   UNL     1       4.153 -10.120  13.530  1.00  0.00     0.040 A 
ATOM     77  F   UNL     1       1.988  -9.424  14.110  1.00  0.00    -0.206 F 
ATOM     78  C   UNL     1       5.048 -10.625  12.590  1.00  0.00     0.006 A 
ENDBRANCH  50  71
BRANCH  62  79
ATOM     79  C   UNL     1      -3.215 -14.123  10.479  1.00  0.00     0.057 A 
ATOM     80  C   UNL     1      -3.407 -14.787  11.696  1.00  0.00     0.134 A 
ATOM     81  C   UNL     1      -3.292 -14.878   9.303  1.00  0.00     0.134 A 
ATOM     82  F   UNL     1      -3.331 -14.117  12.856  1.00  0.00    -0.206 F 
ATOM     83  C   UNL     1      -3.656 -16.159  11.743  1.00  0.00     0.040 A 
ATOM     84  C   UNL     1      -3.559 -16.247   9.336  1.00  0.00     0.040 A 
ATOM     85  F   UNL     1      -3.123 -14.295   8.107  1.00  0.00    -0.206 F 
ATOM     86  C   UNL     1      -3.739 -16.891  10.559  1.00  0.00     0.006 A 
ENDBRANCH  62  79
ENDBRANCH  36  37
ENDBRANCH  28  31
ENDBRANCH  26  27
ENDBRANCH   1  26
TORSDOF 11
