REMARK SMILES O=C(NCCCCNC(=O)c1ccccc1C[N@H+]1CCCC[C@@H]1CCn1cccn1)c1ccc(-c2c3nc(c(-c4c(F)cccc4F)c4ccc([nH]4)c(-c4c(F)cccc4F)c4nc(c(-c5c(F)cccc5F)c5ccc2[nH]5)C=C4)C=C3)cc1
REMARK SMILES IDX 7 1 6 2 5 3 4 4 3 5 1 6 2 7 31 9 32 10 84 11 33 12 83 13
REMARK SMILES IDX 34 14 35 15 36 16 77 17 37 18 82 19 76 20 78 21 38 22 81 23
REMARK SMILES IDX 75 24 74 25 39 27 65 28 48 29 64 30 49 31 52 32 63 33 79 34
REMARK SMILES IDX 50 35 51 36 62 38 80 39 53 40 40 41 41 42 46 43 42 44 43 45
REMARK SMILES IDX 45 46 47 47 44 48 66 49 67 50 72 51 68 52 69 53 71 54 73 55
REMARK SMILES IDX 70 56 54 57 55 58 60 59 56 60 57 61 59 62 61 63 58 64 8 65
REMARK SMILES IDX 9 66 10 68 11 69 12 70 16 71 13 72 15 73 14 74 17 75 18 76
REMARK SMILES IDX 19 77 23 78 20 80 22 81 21 82 24 83 25 84 26 85 27 86 30 87
REMARK SMILES IDX 28 88 29 89
REMARK H PARENT 3 8 78 26 52 37 8 67 18 79
REMARK Flexibility Score: inf
ROOT
ATOM      1  C   UNL     1       4.866   1.965   3.537  1.00  0.00     0.116 C 
ENDROOT
BRANCH   1   2
ATOM      2  C   UNL     1       4.452   2.666   2.250  1.00  0.00     0.023 C 
BRANCH   2   3
ATOM      3  C   UNL     1       4.922   2.013   0.946  1.00  0.00     0.023 C 
BRANCH   3   4
ATOM      4  C   UNL     1       4.569   0.536   0.755  1.00  0.00     0.116 C 
BRANCH   4   5
ATOM      5  N   UNL     1       3.155   0.222   0.770  1.00  0.00    -0.352 N 
ATOM      6  O   UNL     1       1.111  -0.338   0.148  1.00  0.00    -0.269 OA
ATOM      7  C   UNL     1       2.152   0.249  -0.161  1.00  0.00     0.251 C 
ATOM      8  H   UNL     1       2.844  -0.082   1.654  1.00  0.00     0.163 HD
BRANCH   7   9
ATOM      9  C   UNL     1       2.190   0.991  -1.453  1.00  0.00     0.039 A 
ATOM     10  C   UNL     1       3.330   1.484  -2.083  1.00  0.00     0.014 A 
ATOM     11  C   UNL     1       0.939   1.220  -2.062  1.00  0.00     0.014 A 
ATOM     12  C   UNL     1       3.213   2.269  -3.234  1.00  0.00     0.010 A 
ATOM     13  C   UNL     1       0.816   1.991  -3.216  1.00  0.00     0.010 A 
ATOM     14  C   UNL     1       1.954   2.546  -3.787  1.00  0.00    -0.014 A 
BRANCH  14  15
ATOM     15  C   UNL     1       1.897   3.205  -5.096  1.00  0.00     0.031 A 
ATOM     16  C   UNL     1       2.517   2.388  -6.179  1.00  0.00     0.074 A 
ATOM     17  C   UNL     1       1.243   4.353  -5.381  1.00  0.00     0.049 A 
ATOM     18  N   UNL     1       3.579   2.661  -6.863  1.00  0.00    -0.248 NA
ATOM     19  C   UNL     1       1.977   1.042  -6.432  1.00  0.00     0.031 C 
ATOM     20  C   UNL     1       0.344   5.118  -4.515  1.00  0.00     0.029 A 
ATOM     21  N   UNL     1       1.186   5.050  -6.559  1.00  0.00    -0.354 N 
ATOM     22  C   UNL     1       3.731   1.617  -7.773  1.00  0.00     0.074 A 
ATOM     23  C   UNL     1       2.824   0.582  -7.354  1.00  0.00     0.031 C 
ATOM     24  C   UNL     1      -0.326   6.035  -5.255  1.00  0.00     0.029 A 
ATOM     25  C   UNL     1       0.186   6.021  -6.616  1.00  0.00     0.049 A 
ATOM     26  H   UNL     1       1.802   4.879  -7.307  1.00  0.00     0.167 HD
ATOM     27  C   UNL     1       4.418   1.798  -8.934  1.00  0.00     0.037 A 
ATOM     28  C   UNL     1      -0.212   6.736  -7.704  1.00  0.00     0.037 A 
ATOM     29  C   UNL     1       5.274   2.956  -8.845  1.00  0.00     0.049 A 
ATOM     30  C   UNL     1       0.872   6.667  -8.710  1.00  0.00     0.074 A 
ATOM     31  C   UNL     1       6.321   3.343  -8.032  1.00  0.00     0.029 A 
ATOM     32  N   UNL     1       4.853   4.098  -9.478  1.00  0.00    -0.354 N 
ATOM     33  N   UNL     1       2.021   7.265  -8.587  1.00  0.00    -0.248 NA
ATOM     34  C   UNL     1       0.830   5.577  -9.670  1.00  0.00     0.031 C 
ATOM     35  C   UNL     1       6.150   4.747  -7.854  1.00  0.00     0.029 A 
ATOM     36  C   UNL     1       5.060   5.147  -8.627  1.00  0.00     0.049 A 
ATOM     37  H   UNL     1       4.471   4.152 -10.384  1.00  0.00     0.167 HD
ATOM     38  C   UNL     1       2.936   6.347  -9.073  1.00  0.00     0.074 A 
ATOM     39  C   UNL     1       2.140   5.371  -9.816  1.00  0.00     0.031 C 
ATOM     40  C   UNL     1       4.209   6.310  -8.585  1.00  0.00     0.037 A 
BRANCH  27  41
ATOM     41  C   UNL     1       4.003   1.218 -10.272  1.00  0.00     0.057 A 
ATOM     42  C   UNL     1       4.787   1.508 -11.408  1.00  0.00     0.134 A 
ATOM     43  C   UNL     1       2.728   0.689 -10.556  1.00  0.00     0.134 A 
ATOM     44  F   UNL     1       6.026   2.007 -11.281  1.00  0.00    -0.206 F 
ATOM     45  C   UNL     1       4.295   1.398 -12.714  1.00  0.00     0.040 A 
ATOM     46  C   UNL     1       2.245   0.529 -11.859  1.00  0.00     0.040 A 
ATOM     47  F   UNL     1       1.840   0.387  -9.604  1.00  0.00    -0.206 F 
ATOM     48  C   UNL     1       3.012   0.922 -12.942  1.00  0.00     0.006 A 
ENDBRANCH  27  41
BRANCH  28  49
ATOM     49  C   UNL     1      -1.548   7.265  -8.082  1.00  0.00     0.057 A 
ATOM     50  C   UNL     1      -1.696   8.208  -9.116  1.00  0.00     0.134 A 
ATOM     51  C   UNL     1      -2.727   6.628  -7.666  1.00  0.00     0.134 A 
ATOM     52  F   UNL     1      -0.628   8.845  -9.618  1.00  0.00    -0.206 F 
ATOM     53  C   UNL     1      -2.933   8.470  -9.723  1.00  0.00     0.040 A 
ATOM     54  C   UNL     1      -3.970   6.884  -8.260  1.00  0.00     0.040 A 
ATOM     55  F   UNL     1      -2.697   5.664  -6.735  1.00  0.00    -0.206 F 
ATOM     56  C   UNL     1      -4.074   7.795  -9.305  1.00  0.00     0.006 A 
ENDBRANCH  28  49
BRANCH  40  57
ATOM     57  C   UNL     1       4.686   7.471  -7.759  1.00  0.00     0.057 A 
ATOM     58  C   UNL     1       4.119   7.875  -6.540  1.00  0.00     0.134 A 
ATOM     59  C   UNL     1       5.859   8.123  -8.160  1.00  0.00     0.134 A 
ATOM     60  F   UNL     1       3.051   7.251  -6.025  1.00  0.00    -0.206 F 
ATOM     61  C   UNL     1       4.676   8.910  -5.781  1.00  0.00     0.040 A 
ATOM     62  C   UNL     1       6.444   9.129  -7.392  1.00  0.00     0.040 A 
ATOM     63  F   UNL     1       6.482   7.756  -9.291  1.00  0.00    -0.206 F 
ATOM     64  C   UNL     1       5.846   9.534  -6.202  1.00  0.00     0.006 A 
ENDBRANCH  40  57
ENDBRANCH  14  15
ENDBRANCH   7   9
ENDBRANCH   4   5
ENDBRANCH   3   4
ENDBRANCH   2   3
ENDBRANCH   1   2
BRANCH   1  65
ATOM     65  N   UNL     1       6.305   1.823   3.703  1.00  0.00    -0.352 N 
ATOM     66  C   UNL     1       7.073   1.878   4.841  1.00  0.00     0.251 C 
ATOM     67  H   UNL     1       6.805   1.663   2.870  1.00  0.00     0.163 HD
ATOM     68  O   UNL     1       8.293   1.718   4.752  1.00  0.00    -0.269 OA
BRANCH  66  69
ATOM     69  C   UNL     1       6.484   2.193   6.164  1.00  0.00     0.048 A 
ATOM     70  C   UNL     1       7.076   3.274   6.849  1.00  0.00     0.014 A 
ATOM     71  C   UNL     1       5.430   1.470   6.753  1.00  0.00     0.019 A 
ATOM     72  C   UNL     1       6.578   3.701   8.079  1.00  0.00     0.001 A 
ATOM     73  C   UNL     1       4.900   1.982   7.950  1.00  0.00     0.010 A 
ATOM     74  C   UNL     1       5.468   3.070   8.615  1.00  0.00     0.001 A 
BRANCH  71  75
ATOM     75  C   UNL     1       4.851   0.209   6.136  1.00  0.00     0.300 C 
BRANCH  75  76
ATOM     76  N   UNL     1       4.902  -1.052   6.896  1.00  0.00    -0.329 N 
ATOM     77  C   UNL     1       6.302  -1.434   7.145  1.00  0.00     0.262 C 
ATOM     78  C   UNL     1       4.043  -1.166   8.098  1.00  0.00     0.186 C 
ATOM     79  H   UNL     1       4.457  -1.737   6.285  1.00  0.00     0.348 HD
ATOM     80  C   UNL     1       6.414  -2.855   7.682  1.00  0.00     0.062 C 
ATOM     81  C   UNL     1       4.136  -2.602   8.663  1.00  0.00     0.065 C 
ATOM     82  C   UNL     1       5.578  -3.015   8.939  1.00  0.00     0.012 C 
BRANCH  78  83
ATOM     83  C   UNL     1       2.556  -0.827   7.795  1.00  0.00     0.088 C 
BRANCH  83  84
ATOM     84  C   UNL     1       1.641  -0.715   9.020  1.00  0.00     0.150 C 
BRANCH  84  85
ATOM     85  N   UNL     1       1.996   0.385   9.899  1.00  0.00    -0.273 N 
ATOM     86  C   UNL     1       1.634   1.696   9.764  1.00  0.00     0.108 A 
ATOM     87  N   UNL     1       2.812   0.167  10.947  1.00  0.00    -0.182 NA
ATOM     88  C   UNL     1       2.268   2.373  10.780  1.00  0.00     0.042 A 
ATOM     89  C   UNL     1       2.977   1.379  11.480  1.00  0.00     0.135 A 
ENDBRANCH  84  85
ENDBRANCH  83  84
ENDBRANCH  78  83
ENDBRANCH  75  76
ENDBRANCH  71  75
ENDBRANCH  66  69
ENDBRANCH   1  65
TORSDOF 16
