REMARK SMILES O=C(Cc1ccn[nH]1)Nc1sc2c(c1C(=O)NCCCCNC(=O)c1ccc(-c3c4nc(c(-c5c(F)cccc5F)c5ccc([nH]5)c(-c5c(F)cccc5F)c5nc(c(-c6c(F)cccc6F)c6ccc3[nH]6)C=C5)C=C4)cc1)CCC2
REMARK SMILES IDX 19 1 18 2 17 3 15 4 16 5 14 7 10 8 11 9 12 10 13 11 81 12
REMARK SMILES IDX 79 13 80 14 9 15 1 16 2 17 3 19 4 20 5 21 8 22 6 23 7 24
REMARK SMILES IDX 20 26 21 27 22 28 23 29 24 31 25 32 26 33 78 34 27 35 77 36
REMARK SMILES IDX 28 37 29 38 30 39 71 40 31 41 76 42 70 43 72 44 32 45 75 46
REMARK SMILES IDX 69 47 68 48 33 50 59 51 42 52 58 53 43 54 46 55 57 56 73 57
REMARK SMILES IDX 44 58 45 59 56 61 74 62 47 63 34 64 35 65 40 66 36 67 37 68
REMARK SMILES IDX 39 69 41 70 38 71 60 72 61 73 66 74 62 75 63 76 65 77 67 78
REMARK SMILES IDX 64 79 48 80 49 81 54 82 50 83 51 84 53 85 55 86 52 87
REMARK H PARENT 17 6 9 18 8 25 22 30 72 49 46 60
REMARK Flexibility Score: inf
ROOT
ATOM      1  C   UNL     1      -2.635   3.839   1.087  1.00  0.00     0.023 C 
ENDROOT
BRANCH   1   2
ATOM      2  C   UNL     1      -1.364   3.980   1.921  1.00  0.00     0.116 C 
BRANCH   2   3
ATOM      3  N   UNL     1      -0.586   2.774   1.972  1.00  0.00    -0.352 N 
ATOM      4  C   UNL     1       0.555   2.356   1.343  1.00  0.00     0.254 C 
ATOM      5  O   UNL     1       1.105   1.419   1.938  1.00  0.00    -0.269 OA
ATOM      6  H   UNL     1      -0.952   2.103   2.593  1.00  0.00     0.163 HD
BRANCH   4   7
ATOM      7  C   UNL     1       1.162   2.968   0.139  1.00  0.00     0.078 A 
ATOM      8  C   UNL     1       2.301   2.372  -0.423  1.00  0.00     0.108 A 
ATOM      9  S   UNL     1       3.140   3.319  -1.566  1.00  0.00    -0.122 S 
ATOM     10  C   UNL     1       1.878   4.402  -1.576  1.00  0.00     0.011 A 
ATOM     11  C   UNL     1       0.895   4.154  -0.645  1.00  0.00    -0.019 A 
ATOM     12  C   UNL     1       1.690   5.619  -2.401  1.00  0.00     0.047 C 
ATOM     13  C   UNL     1      -0.107   5.257  -0.732  1.00  0.00     0.038 C 
ATOM     14  C   UNL     1       0.219   5.964  -2.079  1.00  0.00     0.010 C 
BRANCH   8  15
ATOM     15  N   UNL     1       2.924   1.162  -0.220  1.00  0.00    -0.317 N 
ATOM     16  O   UNL     1       1.019  -0.141  -0.515  1.00  0.00    -0.274 OA
ATOM     17  C   UNL     1       2.206  -0.027  -0.218  1.00  0.00     0.230 C 
ATOM     18  H   UNL     1       3.897   1.139  -0.072  1.00  0.00     0.170 HD
BRANCH  17  19
ATOM     19  C   UNL     1       3.074  -1.232   0.106  1.00  0.00     0.155 C 
BRANCH  19  20
ATOM     20  C   UNL     1       3.834  -1.728  -1.085  1.00  0.00     0.044 A 
ATOM     21  C   UNL     1       4.088  -3.014  -1.516  1.00  0.00     0.045 A 
ATOM     22  N   UNL     1       4.465  -0.917  -1.993  1.00  0.00    -0.282 N 
ATOM     23  C   UNL     1       4.912  -2.865  -2.646  1.00  0.00     0.135 A 
ATOM     24  N   UNL     1       5.164  -1.585  -2.921  1.00  0.00    -0.184 NA
ATOM     25  H   UNL     1       4.410   0.066  -1.966  1.00  0.00     0.190 HD
ENDBRANCH  19  20
ENDBRANCH  17  19
ENDBRANCH   8  15
ENDBRANCH   4   7
ENDBRANCH   2   3
ENDBRANCH   1   2
BRANCH   1  26
ATOM     26  C   UNL     1      -3.839   3.221   1.813  1.00  0.00     0.023 C 
BRANCH  26  27
ATOM     27  C   UNL     1      -4.410   4.052   2.961  1.00  0.00     0.116 C 
BRANCH  27  28
ATOM     28  N   UNL     1      -4.868   5.386   2.550  1.00  0.00    -0.352 N 
ATOM     29  C   UNL     1      -5.128   6.494   3.347  1.00  0.00     0.251 C 
ATOM     30  H   UNL     1      -5.009   5.511   1.584  1.00  0.00     0.163 HD
ATOM     31  O   UNL     1      -5.866   7.391   2.974  1.00  0.00    -0.269 OA
BRANCH  29  32
ATOM     32  C   UNL     1      -4.438   6.588   4.644  1.00  0.00     0.039 A 
ATOM     33  C   UNL     1      -5.047   7.053   5.814  1.00  0.00     0.014 A 
ATOM     34  C   UNL     1      -3.125   6.141   4.654  1.00  0.00     0.014 A 
ATOM     35  C   UNL     1      -4.320   7.007   7.005  1.00  0.00     0.010 A 
ATOM     36  C   UNL     1      -2.521   5.863   5.840  1.00  0.00     0.010 A 
ATOM     37  C   UNL     1      -3.054   6.406   6.999  1.00  0.00    -0.014 A 
BRANCH  37  38
ATOM     38  C   UNL     1      -2.242   6.226   8.191  1.00  0.00     0.031 A 
ATOM     39  C   UNL     1      -2.836   5.298   9.184  1.00  0.00     0.074 A 
ATOM     40  C   UNL     1      -0.940   6.594   8.207  1.00  0.00     0.049 A 
ATOM     41  N   UNL     1      -3.333   5.588  10.340  1.00  0.00    -0.248 NA
ATOM     42  C   UNL     1      -3.079   3.905   8.768  1.00  0.00     0.031 C 
ATOM     43  C   UNL     1      -0.144   7.184   7.119  1.00  0.00     0.029 A 
ATOM     44  N   UNL     1      -0.006   6.399   9.175  1.00  0.00    -0.354 N 
ATOM     45  C   UNL     1      -3.711   4.369  10.898  1.00  0.00     0.074 A 
ATOM     46  C   UNL     1      -3.783   3.443   9.803  1.00  0.00     0.031 C 
ATOM     47  C   UNL     1       1.173   7.082   7.407  1.00  0.00     0.029 A 
ATOM     48  C   UNL     1       1.313   6.577   8.758  1.00  0.00     0.049 A 
ATOM     49  H   UNL     1      -0.242   6.151  10.098  1.00  0.00     0.167 HD
ATOM     50  C   UNL     1      -3.612   4.160  12.242  1.00  0.00     0.037 A 
ATOM     51  C   UNL     1       2.424   6.283   9.482  1.00  0.00     0.037 A 
ATOM     52  C   UNL     1      -3.428   5.419  12.933  1.00  0.00     0.049 A 
ATOM     53  C   UNL     1       1.996   6.168  10.901  1.00  0.00     0.074 A 
ATOM     54  C   UNL     1      -4.132   6.606  13.009  1.00  0.00     0.029 A 
ATOM     55  N   UNL     1      -2.158   5.716  13.369  1.00  0.00    -0.354 N 
ATOM     56  N   UNL     1       1.564   7.176  11.608  1.00  0.00    -0.248 NA
ATOM     57  C   UNL     1       1.572   4.853  11.360  1.00  0.00     0.031 C 
ATOM     58  C   UNL     1      -3.134   7.627  13.000  1.00  0.00     0.029 A 
ATOM     59  C   UNL     1      -1.884   7.009  13.011  1.00  0.00     0.049 A 
ATOM     60  H   UNL     1      -1.554   5.108  13.853  1.00  0.00     0.167 HD
ATOM     61  C   UNL     1       0.481   6.672  12.315  1.00  0.00     0.074 A 
ATOM     62  C   UNL     1       0.574   5.219  12.170  1.00  0.00     0.031 C 
ATOM     63  C   UNL     1      -0.558   7.480  12.684  1.00  0.00     0.037 A 
BRANCH  50  64
ATOM     64  C   UNL     1      -3.223   2.842  12.892  1.00  0.00     0.057 A 
ATOM     65  C   UNL     1      -3.129   2.800  14.298  1.00  0.00     0.134 A 
ATOM     66  C   UNL     1      -2.645   1.737  12.234  1.00  0.00     0.134 A 
ATOM     67  F   UNL     1      -3.670   3.766  15.056  1.00  0.00    -0.206 F 
ATOM     68  C   UNL     1      -2.391   1.824  14.978  1.00  0.00     0.040 A 
ATOM     69  C   UNL     1      -1.946   0.731  12.908  1.00  0.00     0.040 A 
ATOM     70  F   UNL     1      -2.638   1.594  10.906  1.00  0.00    -0.206 F 
ATOM     71  C   UNL     1      -1.776   0.796  14.279  1.00  0.00     0.006 A 
ENDBRANCH  50  64
BRANCH  51  72
ATOM     72  C   UNL     1       3.743   5.786   9.019  1.00  0.00     0.057 A 
ATOM     73  C   UNL     1       4.866   5.811   9.860  1.00  0.00     0.134 A 
ATOM     74  C   UNL     1       3.868   5.012   7.852  1.00  0.00     0.134 A 
ATOM     75  F   UNL     1       4.833   6.490  11.017  1.00  0.00    -0.206 F 
ATOM     76  C   UNL     1       6.032   5.086   9.575  1.00  0.00     0.040 A 
ATOM     77  C   UNL     1       5.027   4.285   7.554  1.00  0.00     0.040 A 
ATOM     78  F   UNL     1       2.837   4.860   7.010  1.00  0.00    -0.206 F 
ATOM     79  C   UNL     1       6.110   4.308   8.424  1.00  0.00     0.006 A 
ENDBRANCH  51  72
BRANCH  63  80
ATOM     80  C   UNL     1      -0.395   8.967  12.524  1.00  0.00     0.057 A 
ATOM     81  C   UNL     1      -0.242   9.621  11.292  1.00  0.00     0.134 A 
ATOM     82  C   UNL     1      -0.571   9.778  13.649  1.00  0.00     0.134 A 
ATOM     83  F   UNL     1      -0.161   8.934  10.147  1.00  0.00    -0.206 F 
ATOM     84  C   UNL     1      -0.232  11.016  11.191  1.00  0.00     0.040 A 
ATOM     85  C   UNL     1      -0.596  11.171  13.559  1.00  0.00     0.040 A 
ATOM     86  F   UNL     1      -0.778   9.224  14.854  1.00  0.00    -0.206 F 
ATOM     87  C   UNL     1      -0.417  11.796  12.328  1.00  0.00     0.006 A 
ENDBRANCH  63  80
ENDBRANCH  37  38
ENDBRANCH  29  32
ENDBRANCH  27  28
ENDBRANCH  26  27
ENDBRANCH   1  26
TORSDOF 14
