REMARK SMILES [NH3+][C@H](C(=O)NCCCCNC(=O)c1ccc(-c2c3nc(c(-c4c(F)cccc4F)c4ccc([nH]4)c(-c4c(F)cccc4F)c4nc(c(-c5c(F)cccc5F)c5ccc2[nH]5)C=C4)C=C3)cc1)c1ccc(OCC(=O)N2CCCC2)cc1
REMARK SMILES IDX 6 1 5 2 3 3 4 4 2 6 1 7 67 11 68 12 81 13 69 14 80 15 70 16
REMARK SMILES IDX 71 17 72 18 73 19 74 20 75 21 76 22 79 23 77 24 78 25 7 26
REMARK SMILES IDX 8 27 9 28 10 29 11 30 12 32 13 33 14 34 66 35 15 36 65 37
REMARK SMILES IDX 16 38 17 39 18 40 59 41 19 42 64 43 58 44 60 45 20 46 63 47
REMARK SMILES IDX 57 48 56 49 21 51 47 52 30 53 46 54 31 55 34 56 45 57 61 58
REMARK SMILES IDX 32 59 33 60 44 62 62 63 35 64 22 65 23 66 28 67 24 68 25 69
REMARK SMILES IDX 27 70 29 71 26 72 48 73 49 74 54 75 50 76 51 77 53 78 55 79
REMARK SMILES IDX 52 80 36 81 37 82 42 83 38 84 39 85 41 86 43 87 40 88
REMARK H PARENT 5 5 1 8 1 9 1 10 10 31 60 50 34 61
REMARK Flexibility Score: inf
ROOT
ATOM      1  C   UNL     1      -1.147   0.467  -1.133  1.00  0.00     0.116 C 
ENDROOT
BRANCH   1   2
ATOM      2  N   UNL     1       0.268   0.531  -0.821  1.00  0.00    -0.351 N 
ATOM      3  C   UNL     1       0.998   0.116   0.246  1.00  0.00     0.283 C 
ATOM      4  O   UNL     1       2.189   0.471   0.229  1.00  0.00    -0.268 OA
ATOM      5  H   UNL     1       0.806   0.963  -1.523  1.00  0.00     0.163 HD
BRANCH   3   6
ATOM      6  C   UNL     1       0.502  -0.789   1.421  1.00  0.00     0.302 C 
BRANCH   6   7
ATOM      7  N   UNL     1       1.211  -0.374   2.656  1.00  0.00    -0.343 N 
ATOM      8  H   UNL     1       0.902  -0.953   3.437  1.00  0.00     0.345 HD
ATOM      9  H   UNL     1       1.004   0.605   2.855  1.00  0.00     0.345 HD
ATOM     10  H   UNL     1       2.216  -0.489   2.525  1.00  0.00     0.345 HD
ENDBRANCH   6   7
BRANCH   6  11
ATOM     11  C   UNL     1      -0.984  -0.913   1.674  1.00  0.00     0.019 A 
ATOM     12  C   UNL     1      -1.760   0.160   2.127  1.00  0.00     0.014 A 
ATOM     13  C   UNL     1      -1.636  -2.125   1.387  1.00  0.00     0.014 A 
ATOM     14  C   UNL     1      -3.155   0.077   2.107  1.00  0.00     0.047 A 
ATOM     15  C   UNL     1      -3.032  -2.217   1.399  1.00  0.00     0.047 A 
ATOM     16  C   UNL     1      -3.796  -1.093   1.692  1.00  0.00     0.120 A 
BRANCH  16  17
ATOM     17  O   UNL     1      -5.148  -0.979   1.557  1.00  0.00    -0.484 OA
BRANCH  17  18
ATOM     18  C   UNL     1      -5.903  -2.151   1.333  1.00  0.00     0.329 C 
BRANCH  18  19
ATOM     19  C   UNL     1      -5.855  -2.907  -0.010  1.00  0.00     0.260 C 
ATOM     20  O   UNL     1      -5.781  -4.140  -0.015  1.00  0.00    -0.271 OA
ATOM     21  N   UNL     1      -6.003  -2.200  -1.180  1.00  0.00    -0.340 N 
ATOM     22  C   UNL     1      -5.967  -0.763  -1.374  1.00  0.00     0.119 C 
ATOM     23  C   UNL     1      -6.271  -2.892  -2.431  1.00  0.00     0.119 C 
ATOM     24  C   UNL     1      -6.789  -0.556  -2.633  1.00  0.00     0.023 C 
ATOM     25  C   UNL     1      -6.486  -1.796  -3.466  1.00  0.00     0.023 C 
ENDBRANCH  18  19
ENDBRANCH  17  18
ENDBRANCH  16  17
ENDBRANCH   6  11
ENDBRANCH   3   6
ENDBRANCH   1   2
BRANCH   1  26
ATOM     26  C   UNL     1      -1.866   1.743  -0.687  1.00  0.00     0.023 C 
BRANCH  26  27
ATOM     27  C   UNL     1      -1.692   2.938  -1.623  1.00  0.00     0.023 C 
BRANCH  27  28
ATOM     28  C   UNL     1      -2.274   2.745  -3.015  1.00  0.00     0.116 C 
BRANCH  28  29
ATOM     29  N   UNL     1      -3.701   2.462  -3.007  1.00  0.00    -0.352 N 
ATOM     30  C   UNL     1      -4.656   2.856  -3.911  1.00  0.00     0.251 C 
ATOM     31  H   UNL     1      -4.024   1.917  -2.254  1.00  0.00     0.163 HD
ATOM     32  O   UNL     1      -5.845   2.664  -3.674  1.00  0.00    -0.269 OA
BRANCH  30  33
ATOM     33  C   UNL     1      -4.255   3.557  -5.147  1.00  0.00     0.039 A 
ATOM     34  C   UNL     1      -5.004   4.662  -5.558  1.00  0.00     0.014 A 
ATOM     35  C   UNL     1      -3.136   3.152  -5.880  1.00  0.00     0.014 A 
ATOM     36  C   UNL     1      -4.590   5.402  -6.663  1.00  0.00     0.010 A 
ATOM     37  C   UNL     1      -2.673   3.943  -6.924  1.00  0.00     0.010 A 
ATOM     38  C   UNL     1      -3.400   5.071  -7.330  1.00  0.00    -0.014 A 
BRANCH  38  39
ATOM     39  C   UNL     1      -2.910   5.888  -8.465  1.00  0.00     0.031 A 
ATOM     40  C   UNL     1      -2.805   5.284  -9.837  1.00  0.00     0.074 A 
ATOM     41  C   UNL     1      -2.513   7.156  -8.246  1.00  0.00     0.049 A 
ATOM     42  N   UNL     1      -2.380   5.827 -10.949  1.00  0.00    -0.248 NA
ATOM     43  C   UNL     1      -3.201   3.872  -9.972  1.00  0.00     0.031 C 
ATOM     44  C   UNL     1      -2.512   7.832  -6.947  1.00  0.00     0.029 A 
ATOM     45  N   UNL     1      -2.032   8.103  -9.113  1.00  0.00    -0.354 N 
ATOM     46  C   UNL     1      -2.440   4.821 -11.905  1.00  0.00     0.074 A 
ATOM     47  C   UNL     1      -2.882   3.621 -11.232  1.00  0.00     0.031 C 
ATOM     48  C   UNL     1      -2.094   9.098  -7.110  1.00  0.00     0.029 A 
ATOM     49  C   UNL     1      -1.765   9.311  -8.516  1.00  0.00     0.049 A 
ATOM     50  H   UNL     1      -1.892   7.934 -10.073  1.00  0.00     0.167 HD
ATOM     51  C   UNL     1      -2.177   4.899 -13.231  1.00  0.00     0.037 A 
ATOM     52  C   UNL     1      -1.314  10.462  -9.047  1.00  0.00     0.037 A 
ATOM     53  C   UNL     1      -1.770   6.105 -13.900  1.00  0.00     0.049 A 
ATOM     54  C   UNL     1      -1.042  10.526 -10.524  1.00  0.00     0.074 A 
ATOM     55  C   UNL     1      -1.546   6.311 -15.250  1.00  0.00     0.029 A 
ATOM     56  N   UNL     1      -1.524   7.314 -13.264  1.00  0.00    -0.354 N 
ATOM     57  N   UNL     1      -1.180   9.590 -11.432  1.00  0.00    -0.248 NA
ATOM     58  C   UNL     1      -0.559  11.810 -11.051  1.00  0.00     0.031 C 
ATOM     59  C   UNL     1      -1.124   7.633 -15.425  1.00  0.00     0.029 A 
ATOM     60  C   UNL     1      -1.131   8.264 -14.191  1.00  0.00     0.049 A 
ATOM     61  H   UNL     1      -1.616   7.472 -12.297  1.00  0.00     0.167 HD
ATOM     62  C   UNL     1      -0.834  10.180 -12.641  1.00  0.00     0.074 A 
ATOM     63  C   UNL     1      -0.492  11.558 -12.350  1.00  0.00     0.031 C 
ATOM     64  C   UNL     1      -0.804   9.633 -13.881  1.00  0.00     0.037 A 
BRANCH  51  65
ATOM     65  C   UNL     1      -2.329   3.641 -14.037  1.00  0.00     0.057 A 
ATOM     66  C   UNL     1      -3.582   3.063 -14.280  1.00  0.00     0.134 A 
ATOM     67  C   UNL     1      -1.208   3.005 -14.586  1.00  0.00     0.134 A 
ATOM     68  F   UNL     1      -4.695   3.613 -13.771  1.00  0.00    -0.206 F 
ATOM     69  C   UNL     1      -3.712   1.879 -15.009  1.00  0.00     0.040 A 
ATOM     70  C   UNL     1      -1.329   1.837 -15.341  1.00  0.00     0.040 A 
ATOM     71  F   UNL     1       0.022   3.506 -14.396  1.00  0.00    -0.206 F 
ATOM     72  C   UNL     1      -2.583   1.266 -15.547  1.00  0.00     0.006 A 
ENDBRANCH  51  65
BRANCH  52  73
ATOM     73  C   UNL     1      -1.138  11.661  -8.190  1.00  0.00     0.057 A 
ATOM     74  C   UNL     1      -1.993  12.763  -8.313  1.00  0.00     0.134 A 
ATOM     75  C   UNL     1      -0.117  11.741  -7.237  1.00  0.00     0.134 A 
ATOM     76  F   UNL     1      -2.982  12.751  -9.220  1.00  0.00    -0.206 F 
ATOM     77  C   UNL     1      -1.826  13.910  -7.536  1.00  0.00     0.040 A 
ATOM     78  C   UNL     1       0.047  12.872  -6.435  1.00  0.00     0.040 A 
ATOM     79  F   UNL     1       0.730  10.715  -7.063  1.00  0.00    -0.206 F 
ATOM     80  C   UNL     1      -0.805  13.964  -6.590  1.00  0.00     0.006 A 
ENDBRANCH  52  73
BRANCH  64  81
ATOM     81  C   UNL     1      -0.429  10.538 -15.018  1.00  0.00     0.057 A 
ATOM     82  C   UNL     1       0.883  10.991 -15.201  1.00  0.00     0.134 A 
ATOM     83  C   UNL     1      -1.390  10.936 -15.955  1.00  0.00     0.134 A 
ATOM     84  F   UNL     1       1.847  10.656 -14.330  1.00  0.00    -0.206 F 
ATOM     85  C   UNL     1       1.221  11.832 -16.263  1.00  0.00     0.040 A 
ATOM     86  C   UNL     1      -1.059  11.753 -17.037  1.00  0.00     0.040 A 
ATOM     87  F   UNL     1      -2.663  10.529 -15.842  1.00  0.00    -0.206 F 
ATOM     88  C   UNL     1       0.249  12.210 -17.188  1.00  0.00     0.006 A 
ENDBRANCH  64  81
ENDBRANCH  38  39
ENDBRANCH  30  33
ENDBRANCH  28  29
ENDBRANCH  27  28
ENDBRANCH  26  27
ENDBRANCH   1  26
TORSDOF 16
