REMARK SMILES Cc1noc(C)c1[C@@H](C)NC(=O)N[C@H](CO)C(=O)NCCCCNC(=O)c1ccc(-c2c3nc(c(-c4c(F)cccc4F)c4ccc([nH]4)c(-c4c(F)cccc4F)c4nc(c(-c5c(F)cccc5F)c5ccc2[nH]5)C=C4)C=C3)cc1
REMARK SMILES IDX 21 1 20 2 19 3 17 4 18 5 14 7 13 8 10 9 11 10 12 12 8 14
REMARK SMILES IDX 9 15 7 16 1 17 2 18 3 19 4 20 5 21 6 22 15 23 16 24 22 26
REMARK SMILES IDX 23 27 24 28 25 29 26 31 27 32 28 33 80 34 29 35 79 36 30 37
REMARK SMILES IDX 31 38 32 39 73 40 33 41 78 42 72 43 74 44 34 45 77 46 71 47
REMARK SMILES IDX 70 48 35 50 61 51 44 52 60 53 45 54 48 55 59 56 75 57 46 58
REMARK SMILES IDX 47 59 58 61 76 62 49 63 36 64 37 65 42 66 38 67 39 68 41 69
REMARK SMILES IDX 43 70 40 71 62 72 63 73 68 74 64 75 65 76 67 77 69 78 66 79
REMARK SMILES IDX 50 80 51 81 56 82 52 83 53 84 55 85 57 86 54 87
REMARK H PARENT 19 6 10 11 13 13 16 25 24 30 74 49 48 60
REMARK Flexibility Score: inf
ROOT
ATOM      1  C   UNL     1       5.428   5.292   2.196  1.00  0.00     0.023 C 
ENDROOT
BRANCH   1   2
ATOM      2  C   UNL     1       5.312   4.606   0.843  1.00  0.00     0.116 C 
BRANCH   2   3
ATOM      3  N   UNL     1       4.574   3.358   0.926  1.00  0.00    -0.354 N 
ATOM      4  C   UNL     1       3.249   3.073   0.788  1.00  0.00     0.245 C 
ATOM      5  O   UNL     1       2.954   1.871   0.801  1.00  0.00    -0.273 OA
ATOM      6  H   UNL     1       5.135   2.572   1.116  1.00  0.00     0.163 HD
BRANCH   4   7
ATOM      7  C   UNL     1       2.170   4.124   0.425  1.00  0.00     0.198 C 
BRANCH   7   8
ATOM      8  N   UNL     1       2.383   5.546   0.707  1.00  0.00    -0.324 N 
ATOM      9  N   UNL     1       2.360   5.979   3.041  1.00  0.00    -0.331 N 
ATOM     10  C   UNL     1       2.482   6.341   1.768  1.00  0.00     0.315 C 
ATOM     11  H   UNL     1       2.703   6.672   3.651  1.00  0.00     0.165 HD
ATOM     12  O   UNL     1       2.783   7.515   1.538  1.00  0.00    -0.249 OA
ATOM     13  H   UNL     1       2.479   6.060  -0.128  1.00  0.00     0.166 HD
BRANCH   9  14
ATOM     14  C   UNL     1       1.850   4.825   3.769  1.00  0.00     0.116 C 
ATOM     15  C   UNL     1       0.642   5.289   4.582  1.00  0.00     0.036 C 
BRANCH  14  16
ATOM     16  C   UNL     1       2.906   4.206   4.649  1.00  0.00     0.040 A 
ATOM     17  C   UNL     1       3.771   6.180   6.181  1.00  0.00     0.071 C 
ATOM     18  C   UNL     1       3.690   4.781   5.702  1.00  0.00     0.086 A 
ATOM     19  N   UNL     1       4.470   3.868   6.293  1.00  0.00    -0.085 NA
ATOM     20  O   UNL     1       4.251   2.692   5.624  1.00  0.00    -0.361 OA
ATOM     21  C   UNL     1       3.327   2.884   4.650  1.00  0.00     0.139 A 
ATOM     22  C   UNL     1       3.025   1.673   3.863  1.00  0.00     0.091 C 
ENDBRANCH  14  16
ENDBRANCH   9  14
ENDBRANCH   7   8
BRANCH   7  23
ATOM     23  C   UNL     1       0.740   3.616   0.734  1.00  0.00     0.191 C 
BRANCH  23  24
ATOM     24  O   UNL     1      -0.134   4.633   1.226  1.00  0.00    -0.394 OA
ATOM     25  H   UNL     1       0.211   4.978   2.065  1.00  0.00     0.210 HD
ENDBRANCH  23  24
ENDBRANCH   7  23
ENDBRANCH   4   7
ENDBRANCH   2   3
ENDBRANCH   1   2
BRANCH   1  26
ATOM     26  C   UNL     1       6.412   4.667   3.170  1.00  0.00     0.023 C 
BRANCH  26  27
ATOM     27  C   UNL     1       7.683   5.471   3.317  1.00  0.00     0.116 C 
BRANCH  27  28
ATOM     28  N   UNL     1       7.480   6.793   3.907  1.00  0.00    -0.352 N 
ATOM     29  C   UNL     1       8.244   7.460   4.847  1.00  0.00     0.251 C 
ATOM     30  H   UNL     1       6.685   7.278   3.590  1.00  0.00     0.163 HD
ATOM     31  O   UNL     1       7.876   8.527   5.301  1.00  0.00    -0.269 OA
BRANCH  29  32
ATOM     32  C   UNL     1       9.496   6.829   5.331  1.00  0.00     0.039 A 
ATOM     33  C   UNL     1       9.822   6.895   6.687  1.00  0.00     0.014 A 
ATOM     34  C   UNL     1      10.302   6.105   4.456  1.00  0.00     0.014 A 
ATOM     35  C   UNL     1      10.902   6.151   7.170  1.00  0.00     0.010 A 
ATOM     36  C   UNL     1      11.255   5.239   4.960  1.00  0.00     0.010 A 
ATOM     37  C   UNL     1      11.592   5.273   6.319  1.00  0.00    -0.014 A 
BRANCH  37  38
ATOM     38  C   UNL     1      12.703   4.410   6.793  1.00  0.00     0.031 A 
ATOM     39  C   UNL     1      14.047   4.496   6.112  1.00  0.00     0.074 A 
ATOM     40  C   UNL     1      12.481   3.489   7.752  1.00  0.00     0.049 A 
ATOM     41  N   UNL     1      15.105   3.743   6.267  1.00  0.00    -0.248 NA
ATOM     42  C   UNL     1      14.203   5.528   5.070  1.00  0.00     0.031 C 
ATOM     43  C   UNL     1      11.201   3.245   8.422  1.00  0.00     0.029 A 
ATOM     44  N   UNL     1      13.329   2.574   8.323  1.00  0.00    -0.354 N 
ATOM     45  C   UNL     1      16.021   4.182   5.318  1.00  0.00     0.074 A 
ATOM     46  C   UNL     1      15.372   5.209   4.539  1.00  0.00     0.031 C 
ATOM     47  C   UNL     1      11.359   2.279   9.340  1.00  0.00     0.029 A 
ATOM     48  C   UNL     1      12.737   1.803   9.295  1.00  0.00     0.049 A 
ATOM     49  H   UNL     1      14.273   2.478   8.061  1.00  0.00     0.167 HD
ATOM     50  C   UNL     1      17.304   3.795   5.138  1.00  0.00     0.037 A 
ATOM     51  C   UNL     1      13.253   0.823  10.061  1.00  0.00     0.037 A 
ATOM     52  C   UNL     1      17.968   2.834   5.974  1.00  0.00     0.049 A 
ATOM     53  C   UNL     1      14.703   0.461   9.889  1.00  0.00     0.074 A 
ATOM     54  C   UNL     1      19.294   2.442   5.953  1.00  0.00     0.029 A 
ATOM     55  N   UNL     1      17.352   2.127   6.996  1.00  0.00    -0.354 N 
ATOM     56  N   UNL     1      15.582   0.945   9.043  1.00  0.00    -0.248 NA
ATOM     57  C   UNL     1      15.237  -0.575  10.783  1.00  0.00     0.031 C 
ATOM     58  C   UNL     1      19.473   1.469   6.940  1.00  0.00     0.029 A 
ATOM     59  C   UNL     1      18.269   1.289   7.604  1.00  0.00     0.049 A 
ATOM     60  H   UNL     1      16.405   2.209   7.250  1.00  0.00     0.167 HD
ATOM     61  C   UNL     1      16.775   0.292   9.320  1.00  0.00     0.074 A 
ATOM     62  C   UNL     1      16.513  -0.606  10.426  1.00  0.00     0.031 C 
ATOM     63  C   UNL     1      17.980   0.416   8.712  1.00  0.00     0.037 A 
BRANCH  50  64
ATOM     64  C   UNL     1      18.079   4.433   4.020  1.00  0.00     0.057 A 
ATOM     65  C   UNL     1      18.453   5.784   4.053  1.00  0.00     0.134 A 
ATOM     66  C   UNL     1      18.486   3.679   2.913  1.00  0.00     0.134 A 
ATOM     67  F   UNL     1      18.081   6.568   5.076  1.00  0.00    -0.206 F 
ATOM     68  C   UNL     1      19.179   6.367   3.014  1.00  0.00     0.040 A 
ATOM     69  C   UNL     1      19.240   4.243   1.882  1.00  0.00     0.040 A 
ATOM     70  F   UNL     1      18.166   2.380   2.817  1.00  0.00    -0.206 F 
ATOM     71  C   UNL     1      19.584   5.593   1.928  1.00  0.00     0.006 A 
ENDBRANCH  50  64
BRANCH  51  72
ATOM     72  C   UNL     1      12.411   0.140  11.077  1.00  0.00     0.057 A 
ATOM     73  C   UNL     1      12.640   0.324  12.447  1.00  0.00     0.134 A 
ATOM     74  C   UNL     1      11.372  -0.724  10.710  1.00  0.00     0.134 A 
ATOM     75  F   UNL     1      13.631   1.126  12.863  1.00  0.00    -0.206 F 
ATOM     76  C   UNL     1      11.888  -0.347  13.413  1.00  0.00     0.040 A 
ATOM     77  C   UNL     1      10.593  -1.379  11.666  1.00  0.00     0.040 A 
ATOM     78  F   UNL     1      11.093  -0.936   9.416  1.00  0.00    -0.206 F 
ATOM     79  C   UNL     1      10.857  -1.199  13.023  1.00  0.00     0.006 A 
ENDBRANCH  51  72
BRANCH  63  80
ATOM     80  C   UNL     1      19.107  -0.411   9.254  1.00  0.00     0.057 A 
ATOM     81  C   UNL     1      19.168  -1.795   9.052  1.00  0.00     0.134 A 
ATOM     82  C   UNL     1      20.163   0.193   9.947  1.00  0.00     0.134 A 
ATOM     83  F   UNL     1      18.181  -2.433   8.405  1.00  0.00    -0.206 F 
ATOM     84  C   UNL     1      20.229  -2.555   9.544  1.00  0.00     0.040 A 
ATOM     85  C   UNL     1      21.244  -0.552  10.418  1.00  0.00     0.040 A 
ATOM     86  F   UNL     1      20.170   1.517  10.161  1.00  0.00    -0.206 F 
ATOM     87  C   UNL     1      21.275  -1.931  10.223  1.00  0.00     0.006 A 
ENDBRANCH  63  80
ENDBRANCH  37  38
ENDBRANCH  29  32
ENDBRANCH  27  28
ENDBRANCH  26  27
ENDBRANCH   1  26
TORSDOF 16
