REMARK SMILES O=C(Cn1c2ccccc2c(=O)c2ccccc21)N[C@@H](Cc1ccccc1)C(=O)NCCCCNC(=O)c1ccc(-c2c3nc(c(-c4c(F)cccc4F)c4ccc([nH]4)c(-c4c(F)cccc4F)c4nc(c(-c5c(F)cccc5F)c5ccc2[nH]5)C=C4)C=C3)cc1
REMARK SMILES IDX 32 1 31 2 30 3 28 4 29 5 20 7 19 8 1 9 2 10 3 12 4 13 5 14
REMARK SMILES IDX 18 15 6 16 10 17 13 18 17 19 7 20 9 21 11 22 14 23 16 24
REMARK SMILES IDX 8 25 12 26 15 27 21 28 22 29 23 30 27 31 24 32 26 33 25 34
REMARK SMILES IDX 33 35 34 36 35 37 36 38 37 40 38 41 39 42 91 43 40 44 90 45
REMARK SMILES IDX 41 46 42 47 43 48 84 49 44 50 89 51 83 52 85 53 45 54 88 55
REMARK SMILES IDX 82 56 81 57 46 59 72 60 55 61 71 62 56 63 59 64 70 65 86 66
REMARK SMILES IDX 57 67 58 68 69 70 87 71 60 72 47 73 48 74 53 75 49 76 50 77
REMARK SMILES IDX 52 78 54 79 51 80 73 81 74 82 79 83 75 84 76 85 78 86 80 87
REMARK SMILES IDX 77 88 61 89 62 90 67 91 63 92 64 93 66 94 68 95 65 96
REMARK H PARENT 30 6 19 11 35 39 85 58 59 69
REMARK Flexibility Score: inf
ROOT
ATOM      1  C   UNL     1       5.993  -1.667  -2.509  1.00  0.00     0.023 C 
ENDROOT
BRANCH   1   2
ATOM      2  C   UNL     1       5.070  -0.566  -2.997  1.00  0.00     0.116 C 
BRANCH   2   3
ATOM      3  N   UNL     1       3.761  -1.036  -3.387  1.00  0.00    -0.354 N 
ATOM      4  C   UNL     1       2.552  -0.408  -3.297  1.00  0.00     0.242 C 
ATOM      5  O   UNL     1       1.703  -0.739  -4.133  1.00  0.00    -0.273 OA
ATOM      6  H   UNL     1       3.737  -1.942  -3.774  1.00  0.00     0.163 HD
BRANCH   4   7
ATOM      7  C   UNL     1       2.269   0.762  -2.322  1.00  0.00     0.175 C 
BRANCH   7   8
ATOM      8  N   UNL     1       2.888   0.635  -0.997  1.00  0.00    -0.342 N 
ATOM      9  O   UNL     1       1.027  -0.282  -0.028  1.00  0.00    -0.273 OA
ATOM     10  C   UNL     1       2.217   0.020   0.044  1.00  0.00     0.240 C 
ATOM     11  H   UNL     1       3.793   0.993  -0.848  1.00  0.00     0.164 HD
BRANCH  10  12
ATOM     12  C   UNL     1       3.033  -0.231   1.321  1.00  0.00     0.222 C 
BRANCH  12  13
ATOM     13  N   UNL     1       3.910  -1.422   1.199  1.00  0.00    -0.331 N 
ATOM     14  C   UNL     1       5.305  -1.264   1.018  1.00  0.00     0.053 A 
ATOM     15  C   UNL     1       3.297  -2.705   1.290  1.00  0.00     0.053 A 
ATOM     16  C   UNL     1       5.961  -0.021   0.939  1.00  0.00     0.027 A 
ATOM     17  C   UNL     1       6.130  -2.402   0.898  1.00  0.00     0.046 A 
ATOM     18  C   UNL     1       4.075  -3.870   1.148  1.00  0.00     0.046 A 
ATOM     19  C   UNL     1       1.925  -2.911   1.530  1.00  0.00     0.027 A 
ATOM     20  C   UNL     1       7.349   0.079   0.750  1.00  0.00     0.002 A 
ATOM     21  C   UNL     1       7.521  -2.309   0.714  1.00  0.00     0.014 A 
ATOM     22  C   UNL     1       5.525  -3.748   0.915  1.00  0.00     0.197 A 
ATOM     23  C   UNL     1       3.521  -5.160   1.225  1.00  0.00     0.014 A 
ATOM     24  C   UNL     1       1.365  -4.195   1.613  1.00  0.00     0.002 A 
ATOM     25  C   UNL     1       8.130  -1.064   0.639  1.00  0.00     0.001 A 
ATOM     26  O   UNL     1       6.217  -4.745   0.728  1.00  0.00    -0.288 OA
ATOM     27  C   UNL     1       2.162  -5.321   1.459  1.00  0.00     0.001 A 
ENDBRANCH  12  13
ENDBRANCH  10  12
ENDBRANCH   7   8
BRANCH   7  28
ATOM     28  C   UNL     1       2.408   2.154  -2.971  1.00  0.00     0.070 C 
BRANCH  28  29
ATOM     29  C   UNL     1       3.793   2.680  -3.264  1.00  0.00    -0.045 A 
ATOM     30  C   UNL     1       4.388   3.636  -2.429  1.00  0.00     0.004 A 
ATOM     31  C   UNL     1       4.483   2.272  -4.414  1.00  0.00     0.004 A 
ATOM     32  C   UNL     1       5.657   4.143  -2.720  1.00  0.00     0.000 A 
ATOM     33  C   UNL     1       5.766   2.754  -4.686  1.00  0.00     0.000 A 
ATOM     34  C   UNL     1       6.353   3.688  -3.838  1.00  0.00     0.000 A 
ENDBRANCH  28  29
ENDBRANCH   7  28
ENDBRANCH   4   7
ENDBRANCH   2   3
ENDBRANCH   1   2
BRANCH   1  35
ATOM     35  C   UNL     1       6.721  -2.454  -3.591  1.00  0.00     0.023 C 
BRANCH  35  36
ATOM     36  C   UNL     1       7.474  -1.627  -4.629  1.00  0.00     0.116 C 
BRANCH  36  37
ATOM     37  N   UNL     1       8.386  -0.622  -4.087  1.00  0.00    -0.352 N 
ATOM     38  C   UNL     1       9.620  -0.244  -4.578  1.00  0.00     0.251 C 
ATOM     39  H   UNL     1       8.083  -0.157  -3.274  1.00  0.00     0.163 HD
ATOM     40  O   UNL     1      10.290   0.622  -4.030  1.00  0.00    -0.269 OA
BRANCH  38  41
ATOM     41  C   UNL     1      10.144  -0.973  -5.751  1.00  0.00     0.039 A 
ATOM     42  C   UNL     1       9.372  -1.048  -6.911  1.00  0.00     0.014 A 
ATOM     43  C   UNL     1      11.279  -1.770  -5.588  1.00  0.00     0.014 A 
ATOM     44  C   UNL     1       9.594  -2.097  -7.795  1.00  0.00     0.010 A 
ATOM     45  C   UNL     1      11.548  -2.768  -6.524  1.00  0.00     0.010 A 
ATOM     46  C   UNL     1      10.648  -3.002  -7.577  1.00  0.00    -0.014 A 
BRANCH  46  47
ATOM     47  C   UNL     1      10.707  -4.257  -8.371  1.00  0.00     0.031 A 
ATOM     48  C   UNL     1      10.492  -5.593  -7.701  1.00  0.00     0.074 A 
ATOM     49  C   UNL     1      10.863  -4.199  -9.706  1.00  0.00     0.049 A 
ATOM     50  N   UNL     1      10.517  -6.795  -8.223  1.00  0.00    -0.248 NA
ATOM     51  C   UNL     1      10.215  -5.580  -6.255  1.00  0.00     0.031 C 
ATOM     52  C   UNL     1      11.045  -2.972 -10.481  1.00  0.00     0.029 A 
ATOM     53  N   UNL     1      10.866  -5.196 -10.646  1.00  0.00    -0.354 N 
ATOM     54  C   UNL     1      10.295  -7.675  -7.170  1.00  0.00     0.074 A 
ATOM     55  C   UNL     1      10.156  -6.873  -5.974  1.00  0.00     0.031 C 
ATOM     56  C   UNL     1      11.098  -3.284 -11.784  1.00  0.00     0.029 A 
ATOM     57  C   UNL     1      11.011  -4.734 -11.930  1.00  0.00     0.049 A 
ATOM     58  H   UNL     1      10.773  -6.150 -10.423  1.00  0.00     0.167 HD
ATOM     59  C   UNL     1      10.203  -9.027  -7.194  1.00  0.00     0.037 A 
ATOM     60  C   UNL     1      11.082  -5.402 -13.095  1.00  0.00     0.037 A 
ATOM     61  C   UNL     1      10.296  -9.829  -8.386  1.00  0.00     0.049 A 
ATOM     62  C   UNL     1      11.002  -6.900 -13.095  1.00  0.00     0.074 A 
ATOM     63  C   UNL     1      10.194 -11.204  -8.514  1.00  0.00     0.029 A 
ATOM     64  N   UNL     1      10.501  -9.323  -9.660  1.00  0.00    -0.354 N 
ATOM     65  N   UNL     1      10.826  -7.717 -12.086  1.00  0.00    -0.248 NA
ATOM     66  C   UNL     1      11.145  -7.567 -14.396  1.00  0.00     0.031 C 
ATOM     67  C   UNL     1      10.364 -11.532  -9.865  1.00  0.00     0.029 A 
ATOM     68  C   UNL     1      10.543 -10.359 -10.579  1.00  0.00     0.049 A 
ATOM     69  H   UNL     1      10.602  -8.369  -9.879  1.00  0.00     0.167 HD
ATOM     70  C   UNL     1      10.847  -8.995 -12.627  1.00  0.00     0.074 A 
ATOM     71  C   UNL     1      11.021  -8.842 -14.057  1.00  0.00     0.031 C 
ATOM     72  C   UNL     1      10.741 -10.189 -11.994  1.00  0.00     0.037 A 
BRANCH  59  73
ATOM     73  C   UNL     1      10.006  -9.726  -5.881  1.00  0.00     0.057 A 
ATOM     74  C   UNL     1      11.060 -10.432  -5.286  1.00  0.00     0.134 A 
ATOM     75  C   UNL     1       8.774  -9.719  -5.215  1.00  0.00     0.134 A 
ATOM     76  F   UNL     1      12.264 -10.482  -5.874  1.00  0.00    -0.206 F 
ATOM     77  C   UNL     1      10.896 -11.102  -4.072  1.00  0.00     0.040 A 
ATOM     78  C   UNL     1       8.604 -10.368  -3.991  1.00  0.00     0.040 A 
ATOM     79  F   UNL     1       7.731  -9.048  -5.726  1.00  0.00    -0.206 F 
ATOM     80  C   UNL     1       9.666 -11.066  -3.418  1.00  0.00     0.006 A 
ENDBRANCH  59  73
BRANCH  60  81
ATOM     81  C   UNL     1      11.265  -4.648 -14.356  1.00  0.00     0.057 A 
ATOM     82  C   UNL     1      12.484  -4.030 -14.659  1.00  0.00     0.134 A 
ATOM     83  C   UNL     1      10.217  -4.504 -15.270  1.00  0.00     0.134 A 
ATOM     84  F   UNL     1      13.522  -4.131 -13.816  1.00  0.00    -0.206 F 
ATOM     85  C   UNL     1      12.650  -3.279 -15.822  1.00  0.00     0.040 A 
ATOM     86  C   UNL     1      10.375  -3.772 -16.447  1.00  0.00     0.040 A 
ATOM     87  F   UNL     1       9.033  -5.090 -15.038  1.00  0.00    -0.206 F 
ATOM     88  C   UNL     1      11.593  -3.151 -16.721  1.00  0.00     0.006 A 
ENDBRANCH  60  81
BRANCH  72  89
ATOM     89  C   UNL     1      10.827 -11.414 -12.851  1.00  0.00     0.057 A 
ATOM     90  C   UNL     1       9.680 -12.147 -13.176  1.00  0.00     0.134 A 
ATOM     91  C   UNL     1      12.054 -11.868 -13.350  1.00  0.00     0.134 A 
ATOM     92  F   UNL     1       8.476 -11.764 -12.726  1.00  0.00    -0.206 F 
ATOM     93  C   UNL     1       9.751 -13.290 -13.974  1.00  0.00     0.040 A 
ATOM     94  C   UNL     1      12.135 -12.999 -14.163  1.00  0.00     0.040 A 
ATOM     95  F   UNL     1      13.185 -11.197 -13.085  1.00  0.00    -0.206 F 
ATOM     96  C   UNL     1      10.980 -13.715 -14.474  1.00  0.00     0.006 A 
ENDBRANCH  72  89
ENDBRANCH  46  47
ENDBRANCH  38  41
ENDBRANCH  36  37
ENDBRANCH  35  36
ENDBRANCH   1  35
TORSDOF 16
