REMARK SMILES CN1N=C(CC(=O)NCCCCNC(=O)c2ccc(-c3c4nc(c(-c5c(F)cccc5F)c5ccc([nH]5)c(-c5c(F)cccc5F)c5nc(c(-c6c(F)cccc6F)c6ccc3[nH]6)C=C5)C=C4)cc2)CC1=O
REMARK SMILES IDX 11 1 10 2 9 3 8 4 6 5 7 6 5 8 4 9 1 10 2 11 3 12 71 13 70 14
REMARK SMILES IDX 72 15 12 16 13 17 14 18 15 20 16 21 17 22 69 23 18 24 68 25
REMARK SMILES IDX 19 26 20 27 21 28 62 29 22 30 67 31 61 32 63 33 23 34 66 35
REMARK SMILES IDX 60 36 59 37 24 39 50 40 33 41 49 42 34 43 37 44 48 45 64 46
REMARK SMILES IDX 35 47 36 48 47 50 65 51 38 52 25 53 26 54 31 55 27 56 28 57
REMARK SMILES IDX 30 58 32 59 29 60 51 61 52 62 57 63 53 64 54 65 56 66 58 67
REMARK SMILES IDX 55 68 39 69 40 70 45 71 41 72 42 73 44 74 46 75 43 76
REMARK H PARENT 8 7 13 19 63 38 37 49
REMARK Flexibility Score: inf
ROOT
ATOM      1  C   UNL     1       4.939   3.756   0.805  1.00  0.00     0.023 C 
ENDROOT
BRANCH   1   2
ATOM      2  C   UNL     1       3.524   3.730   1.386  1.00  0.00     0.023 C 
BRANCH   2   3
ATOM      3  C   UNL     1       2.795   5.071   1.327  1.00  0.00     0.116 C 
BRANCH   3   4
ATOM      4  N   UNL     1       2.458   5.441  -0.032  1.00  0.00    -0.356 N 
ATOM      5  C   UNL     1       1.265   5.319  -0.685  1.00  0.00     0.225 C 
ATOM      6  O   UNL     1       1.195   5.692  -1.856  1.00  0.00    -0.275 OA
ATOM      7  H   UNL     1       3.191   5.836  -0.558  1.00  0.00     0.163 HD
BRANCH   5   8
ATOM      8  C   UNL     1       0.053   4.824   0.062  1.00  0.00     0.153 C 
BRANCH   8   9
ATOM      9  C   UNL     1       0.119   3.401   0.499  1.00  0.00     0.057 C 
ATOM     10  C   UNL     1       0.737  -0.009  -0.020  1.00  0.00     0.177 C 
ATOM     11  N   UNL     1       0.377   1.280   0.513  1.00  0.00    -0.237 N 
ATOM     12  N   UNL     1       0.455   2.409  -0.268  1.00  0.00    -0.179 NA
ATOM     13  C   UNL     1      -0.017   1.512   1.826  1.00  0.00     0.248 C 
ATOM     14  C   UNL     1      -0.237   2.990   1.899  1.00  0.00     0.156 C 
ATOM     15  O   UNL     1      -0.145   0.719   2.744  1.00  0.00    -0.273 OA
ENDBRANCH   8   9
ENDBRANCH   5   8
ENDBRANCH   3   4
ENDBRANCH   2   3
ENDBRANCH   1   2
BRANCH   1  16
ATOM     16  C   UNL     1       5.880   4.766   1.449  1.00  0.00     0.116 C 
BRANCH  16  17
ATOM     17  N   UNL     1       6.059   4.549   2.877  1.00  0.00    -0.352 N 
ATOM     18  C   UNL     1       7.217   4.603   3.615  1.00  0.00     0.251 C 
ATOM     19  H   UNL     1       5.241   4.335   3.382  1.00  0.00     0.163 HD
ATOM     20  O   UNL     1       7.219   4.266   4.794  1.00  0.00    -0.269 OA
BRANCH  18  21
ATOM     21  C   UNL     1       8.470   5.037   2.963  1.00  0.00     0.039 A 
ATOM     22  C   UNL     1       9.623   4.268   3.137  1.00  0.00     0.014 A 
ATOM     23  C   UNL     1       8.494   6.174   2.152  1.00  0.00     0.014 A 
ATOM     24  C   UNL     1      10.784   4.602   2.439  1.00  0.00     0.010 A 
ATOM     25  C   UNL     1       9.626   6.456   1.395  1.00  0.00     0.010 A 
ATOM     26  C   UNL     1      10.783   5.674   1.531  1.00  0.00    -0.014 A 
BRANCH  26  27
ATOM     27  C   UNL     1      11.979   5.992   0.711  1.00  0.00     0.031 A 
ATOM     28  C   UNL     1      12.668   7.319   0.863  1.00  0.00     0.074 A 
ATOM     29  C   UNL     1      12.403   5.115  -0.220  1.00  0.00     0.049 A 
ATOM     30  N   UNL     1      13.673   7.813   0.185  1.00  0.00    -0.248 NA
ATOM     31  C   UNL     1      12.137   8.223   1.895  1.00  0.00     0.031 C 
ATOM     32  C   UNL     1      11.790   3.816  -0.501  1.00  0.00     0.029 A 
ATOM     33  N   UNL     1      13.441   5.193  -1.115  1.00  0.00    -0.354 N 
ATOM     34  C   UNL     1      13.889   9.082   0.704  1.00  0.00     0.074 A 
ATOM     35  C   UNL     1      12.868   9.310   1.704  1.00  0.00     0.031 C 
ATOM     36  C   UNL     1      12.472   3.212  -1.487  1.00  0.00     0.029 A 
ATOM     37  C   UNL     1      13.541   4.097  -1.938  1.00  0.00     0.049 A 
ATOM     38  H   UNL     1      14.055   5.961  -1.163  1.00  0.00     0.167 HD
ATOM     39  C   UNL     1      14.867   9.969   0.397  1.00  0.00     0.037 A 
ATOM     40  C   UNL     1      14.389   3.841  -2.953  1.00  0.00     0.037 A 
ATOM     41  C   UNL     1      15.883   9.737  -0.596  1.00  0.00     0.049 A 
ATOM     42  C   UNL     1      15.449   4.850  -3.297  1.00  0.00     0.074 A 
ATOM     43  C   UNL     1      16.941  10.553  -0.954  1.00  0.00     0.029 A 
ATOM     44  N   UNL     1      15.961   8.607  -1.398  1.00  0.00    -0.354 N 
ATOM     45  N   UNL     1      15.685   6.019  -2.753  1.00  0.00    -0.248 NA
ATOM     46  C   UNL     1      16.366   4.501  -4.391  1.00  0.00     0.031 C 
ATOM     47  C   UNL     1      17.627   9.943  -2.009  1.00  0.00     0.029 A 
ATOM     48  C   UNL     1      17.035   8.717  -2.266  1.00  0.00     0.049 A 
ATOM     49  H   UNL     1      15.345   7.840  -1.355  1.00  0.00     0.167 HD
ATOM     50  C   UNL     1      16.791   6.534  -3.417  1.00  0.00     0.074 A 
ATOM     51  C   UNL     1      17.188   5.541  -4.395  1.00  0.00     0.031 C 
ATOM     52  C   UNL     1      17.422   7.720  -3.233  1.00  0.00     0.037 A 
BRANCH  39  53
ATOM     53  C   UNL     1      14.875  11.270   1.148  1.00  0.00     0.057 A 
ATOM     54  C   UNL     1      15.162  11.331   2.519  1.00  0.00     0.134 A 
ATOM     55  C   UNL     1      14.607  12.479   0.493  1.00  0.00     0.134 A 
ATOM     56  F   UNL     1      15.416  10.210   3.212  1.00  0.00    -0.206 F 
ATOM     57  C   UNL     1      15.143  12.540   3.218  1.00  0.00     0.040 A 
ATOM     58  C   UNL     1      14.619  13.698   1.175  1.00  0.00     0.040 A 
ATOM     59  F   UNL     1      14.333  12.497  -0.820  1.00  0.00    -0.206 F 
ATOM     60  C   UNL     1      14.876  13.729   2.543  1.00  0.00     0.006 A 
ENDBRANCH  39  53
BRANCH  40  61
ATOM     61  C   UNL     1      14.272   2.568  -3.709  1.00  0.00     0.057 A 
ATOM     62  C   UNL     1      15.249   1.571  -3.611  1.00  0.00     0.134 A 
ATOM     63  C   UNL     1      13.178   2.316  -4.547  1.00  0.00     0.134 A 
ATOM     64  F   UNL     1      16.330   1.760  -2.839  1.00  0.00    -0.206 F 
ATOM     65  C   UNL     1      15.154   0.379  -4.330  1.00  0.00     0.040 A 
ATOM     66  C   UNL     1      13.055   1.117  -5.250  1.00  0.00     0.040 A 
ATOM     67  F   UNL     1      12.202   3.226  -4.678  1.00  0.00    -0.206 F 
ATOM     68  C   UNL     1      14.050   0.147  -5.149  1.00  0.00     0.006 A 
ENDBRANCH  40  61
BRANCH  52  69
ATOM     69  C   UNL     1      18.632   7.997  -4.079  1.00  0.00     0.057 A 
ATOM     70  C   UNL     1      18.535   8.268  -5.450  1.00  0.00     0.134 A 
ATOM     71  C   UNL     1      19.908   8.040  -3.501  1.00  0.00     0.134 A 
ATOM     72  F   UNL     1      17.345   8.230  -6.068  1.00  0.00    -0.206 F 
ATOM     73  C   UNL     1      19.666   8.548  -6.220  1.00  0.00     0.040 A 
ATOM     74  C   UNL     1      21.041   8.350  -4.254  1.00  0.00     0.040 A 
ATOM     75  F   UNL     1      20.071   7.800  -2.191  1.00  0.00    -0.206 F 
ATOM     76  C   UNL     1      20.922   8.599  -5.619  1.00  0.00     0.006 A 
ENDBRANCH  52  69
ENDBRANCH  26  27
ENDBRANCH  18  21
ENDBRANCH  16  17
ENDBRANCH   1  16
TORSDOF 12
