REMARK SMILES O=C(NCCCCNC(=O)c1cccc(Nc2ccnc3ccc(F)cc23)c1)c1ccc(-c2c3nc(c(-c4c(F)cccc4F)c4ccc([nH]4)c(-c4c(F)cccc4F)c4nc(c(-c5c(F)cccc5F)c5ccc2[nH]5)C=C4)C=C3)cc1
REMARK SMILES IDX 5 1 4 2 3 3 1 4 2 5 29 7 30 8 82 9 31 10 81 11 32 12 33 13
REMARK SMILES IDX 34 14 75 15 35 16 80 17 74 18 76 19 36 20 79 21 73 22 72 23
REMARK SMILES IDX 37 25 63 26 46 27 62 28 47 29 50 30 61 31 77 32 48 33 49 34
REMARK SMILES IDX 60 36 78 37 51 38 38 39 39 40 44 41 40 42 41 43 43 44 45 45
REMARK SMILES IDX 42 46 64 47 65 48 70 49 66 50 67 51 69 52 71 53 68 54 52 55
REMARK SMILES IDX 53 56 58 57 54 58 55 59 57 60 59 61 56 62 6 63 7 64 8 65
REMARK SMILES IDX 9 66 10 68 11 69 12 70 28 71 13 72 15 73 14 74 16 75 17 77
REMARK SMILES IDX 18 78 27 79 19 80 21 81 26 82 20 83 22 84 24 85 23 86 25 87
REMARK H PARENT 3 6 76 24 50 35 8 67 16 76
REMARK Flexibility Score: inf
ROOT
ATOM      1  C   UNL     1       5.062  -1.521   2.158  1.00  0.00     0.023 C 
ENDROOT
BRANCH   1   2
ATOM      2  C   UNL     1       4.676  -1.190   0.720  1.00  0.00     0.116 C 
BRANCH   2   3
ATOM      3  N   UNL     1       3.239  -1.122   0.509  1.00  0.00    -0.352 N 
ATOM      4  O   UNL     1       1.244  -0.215  -0.003  1.00  0.00    -0.269 OA
ATOM      5  C   UNL     1       2.463  -0.110  -0.006  1.00  0.00     0.251 C 
ATOM      6  H   UNL     1       2.742  -1.929   0.776  1.00  0.00     0.163 HD
BRANCH   5   7
ATOM      7  C   UNL     1       3.095   1.121  -0.531  1.00  0.00     0.039 A 
ATOM      8  C   UNL     1       4.211   1.065  -1.369  1.00  0.00     0.014 A 
ATOM      9  C   UNL     1       2.543   2.357  -0.183  1.00  0.00     0.014 A 
ATOM     10  C   UNL     1       4.862   2.240  -1.735  1.00  0.00     0.010 A 
ATOM     11  C   UNL     1       3.151   3.537  -0.618  1.00  0.00     0.010 A 
ATOM     12  C   UNL     1       4.336   3.488  -1.367  1.00  0.00    -0.014 A 
BRANCH  12  13
ATOM     13  C   UNL     1       5.014   4.737  -1.799  1.00  0.00     0.031 A 
ATOM     14  C   UNL     1       5.616   5.675  -0.791  1.00  0.00     0.074 A 
ATOM     15  C   UNL     1       5.080   5.026  -3.112  1.00  0.00     0.049 A 
ATOM     16  N   UNL     1       6.201   6.831  -0.984  1.00  0.00    -0.248 NA
ATOM     17  C   UNL     1       5.545   5.268   0.620  1.00  0.00     0.031 C 
ATOM     18  C   UNL     1       4.532   4.196  -4.186  1.00  0.00     0.029 A 
ATOM     19  N   UNL     1       5.633   6.096  -3.767  1.00  0.00    -0.354 N 
ATOM     20  C   UNL     1       6.549   7.298   0.277  1.00  0.00     0.074 A 
ATOM     21  C   UNL     1       6.085   6.313   1.232  1.00  0.00     0.031 C 
ATOM     22  C   UNL     1       4.795   4.776  -5.366  1.00  0.00     0.029 A 
ATOM     23  C   UNL     1       5.474   6.045  -5.130  1.00  0.00     0.049 A 
ATOM     24  H   UNL     1       6.099   6.830  -3.305  1.00  0.00     0.167 HD
ATOM     25  C   UNL     1       7.200   8.440   0.607  1.00  0.00     0.037 A 
ATOM     26  C   UNL     1       5.812   6.931  -6.084  1.00  0.00     0.037 A 
ATOM     27  C   UNL     1       7.667   9.412  -0.349  1.00  0.00     0.049 A 
ATOM     28  C   UNL     1       6.497   8.207  -5.691  1.00  0.00     0.074 A 
ATOM     29  C   UNL     1       8.367  10.584  -0.116  1.00  0.00     0.029 A 
ATOM     30  N   UNL     1       7.473   9.330  -1.720  1.00  0.00    -0.354 N 
ATOM     31  N   UNL     1       6.847   8.622  -4.498  1.00  0.00    -0.248 NA
ATOM     32  C   UNL     1       6.834   9.138  -6.776  1.00  0.00     0.031 C 
ATOM     33  C   UNL     1       8.552  11.235  -1.341  1.00  0.00     0.029 A 
ATOM     34  C   UNL     1       8.017  10.442  -2.344  1.00  0.00     0.049 A 
ATOM     35  H   UNL     1       7.015   8.591  -2.183  1.00  0.00     0.167 HD
ATOM     36  C   UNL     1       7.467   9.849  -4.689  1.00  0.00     0.074 A 
ATOM     37  C   UNL     1       7.454  10.106  -6.114  1.00  0.00     0.031 C 
ATOM     38  C   UNL     1       8.003  10.684  -3.765  1.00  0.00     0.037 A 
BRANCH  25  39
ATOM     39  C   UNL     1       7.423   8.714   2.067  1.00  0.00     0.057 A 
ATOM     40  C   UNL     1       8.330   7.971   2.834  1.00  0.00     0.134 A 
ATOM     41  C   UNL     1       6.739   9.755   2.709  1.00  0.00     0.134 A 
ATOM     42  F   UNL     1       9.011   6.954   2.285  1.00  0.00    -0.206 F 
ATOM     43  C   UNL     1       8.528   8.234   4.191  1.00  0.00     0.040 A 
ATOM     44  C   UNL     1       6.948  10.045   4.059  1.00  0.00     0.040 A 
ATOM     45  F   UNL     1       5.862  10.513   2.034  1.00  0.00    -0.206 F 
ATOM     46  C   UNL     1       7.839   9.278   4.806  1.00  0.00     0.006 A 
ENDBRANCH  25  39
BRANCH  26  47
ATOM     47  C   UNL     1       5.495   6.633  -7.502  1.00  0.00     0.057 A 
ATOM     48  C   UNL     1       6.504   6.326  -8.420  1.00  0.00     0.134 A 
ATOM     49  C   UNL     1       4.173   6.619  -7.964  1.00  0.00     0.134 A 
ATOM     50  F   UNL     1       7.790   6.339  -8.039  1.00  0.00    -0.206 F 
ATOM     51  C   UNL     1       6.212   6.021  -9.750  1.00  0.00     0.040 A 
ATOM     52  C   UNL     1       3.864   6.290  -9.284  1.00  0.00     0.040 A 
ATOM     53  F   UNL     1       3.160   6.895  -7.130  1.00  0.00    -0.206 F 
ATOM     54  C   UNL     1       4.887   5.995 -10.183  1.00  0.00     0.006 A 
ENDBRANCH  26  47
BRANCH  38  55
ATOM     55  C   UNL     1       8.658  11.936  -4.270  1.00  0.00     0.057 A 
ATOM     56  C   UNL     1       7.915  13.015  -4.764  1.00  0.00     0.134 A 
ATOM     57  C   UNL     1      10.051  12.076  -4.221  1.00  0.00     0.134 A 
ATOM     58  F   UNL     1       6.579  12.938  -4.851  1.00  0.00    -0.206 F 
ATOM     59  C   UNL     1       8.537  14.183  -5.209  1.00  0.00     0.040 A 
ATOM     60  C   UNL     1      10.681  13.249  -4.638  1.00  0.00     0.040 A 
ATOM     61  F   UNL     1      10.820  11.082  -3.752  1.00  0.00    -0.206 F 
ATOM     62  C   UNL     1       9.924  14.305  -5.139  1.00  0.00     0.006 A 
ENDBRANCH  38  55
ENDBRANCH  12  13
ENDBRANCH   5   7
ENDBRANCH   2   3
ENDBRANCH   1   2
BRANCH   1  63
ATOM     63  C   UNL     1       4.481  -2.815   2.727  1.00  0.00     0.023 C 
BRANCH  63  64
ATOM     64  C   UNL     1       4.631  -4.049   1.844  1.00  0.00     0.116 C 
BRANCH  64  65
ATOM     65  N   UNL     1       6.014  -4.405   1.591  1.00  0.00    -0.352 N 
ATOM     66  C   UNL     1       6.821  -5.356   2.158  1.00  0.00     0.251 C 
ATOM     67  H   UNL     1       6.449  -3.870   0.888  1.00  0.00     0.163 HD
ATOM     68  O   UNL     1       8.007  -5.393   1.836  1.00  0.00    -0.269 OA
BRANCH  66  69
ATOM     69  C   UNL     1       6.315  -6.323   3.157  1.00  0.00     0.041 A 
ATOM     70  C   UNL     1       7.141  -6.620   4.248  1.00  0.00     0.014 A 
ATOM     71  C   UNL     1       5.133  -7.049   2.965  1.00  0.00     0.039 A 
ATOM     72  C   UNL     1       6.767  -7.596   5.168  1.00  0.00     0.003 A 
ATOM     73  C   UNL     1       4.748  -8.031   3.887  1.00  0.00     0.039 A 
ATOM     74  C   UNL     1       5.576  -8.297   4.985  1.00  0.00     0.026 A 
BRANCH  73  75
ATOM     75  N   UNL     1       3.693  -8.929   3.583  1.00  0.00    -0.355 N 
ATOM     76  H   UNL     1       2.756  -8.658   3.717  1.00  0.00     0.167 HD
BRANCH  75  77
ATOM     77  C   UNL     1       4.003 -10.224   3.083  1.00  0.00     0.050 A 
ATOM     78  C   UNL     1       4.698 -10.320   1.874  1.00  0.00     0.047 A 
ATOM     79  C   UNL     1       3.645 -11.403   3.773  1.00  0.00     0.027 A 
ATOM     80  C   UNL     1       5.099 -11.562   1.441  1.00  0.00     0.114 A 
ATOM     81  C   UNL     1       4.096 -12.627   3.224  1.00  0.00     0.072 A 
ATOM     82  C   UNL     1       2.893 -11.422   4.969  1.00  0.00     0.051 A 
ATOM     83  N   UNL     1       4.817 -12.704   2.094  1.00  0.00    -0.256 NA
ATOM     84  C   UNL     1       3.786 -13.812   3.875  1.00  0.00     0.032 A 
ATOM     85  C   UNL     1       2.586 -12.631   5.582  1.00  0.00     0.124 A 
ATOM     86  C   UNL     1       3.026 -13.829   5.044  1.00  0.00     0.041 A 
ATOM     87  F   UNL     1       1.854 -12.641   6.703  1.00  0.00    -0.207 F 
ENDBRANCH  75  77
ENDBRANCH  73  75
ENDBRANCH  66  69
ENDBRANCH  64  65
ENDBRANCH  63  64
ENDBRANCH   1  63
TORSDOF 13
