REMARK SMILES O=C(/C=C/[C@@]12C=C(O)C(=O)C=C1C(=O)C1=Cc3cc(O)c(O)cc3O[C@@H](c3ccc(O)c(O)c3)[C@@H]12)NCCCCNC(=O)c1ccc(-c2c3nc(c(-c4c(F)cccc4F)c4ccc([nH]4)c(-c4c(F)cccc4F)c4nc(c(-c5c(F)cccc5F)c5ccc2[nH]5)C=C4)C=C3)cc1
REMARK SMILES IDX 1 1 2 2 36 3 3 5 4 6 5 7 6 8 12 9 35 10 7 11 11 12 13 13
REMARK SMILES IDX 15 14 9 16 14 17 16 18 10 19 8 20 17 22 18 23 24 24 19 25
REMARK SMILES IDX 23 26 21 27 25 28 26 29 27 31 28 32 34 33 29 34 32 35 30 36
REMARK SMILES IDX 33 37 31 39 20 41 22 43 37 45 38 46 39 47 40 48 41 49 42 50
REMARK SMILES IDX 43 52 44 53 45 54 97 55 46 56 96 57 47 58 48 59 49 60 90 61
REMARK SMILES IDX 50 62 95 63 89 64 91 65 51 66 94 67 88 68 87 69 52 71 78 72
REMARK SMILES IDX 61 73 77 74 62 75 65 76 76 77 92 78 63 79 64 80 75 82 93 83
REMARK SMILES IDX 66 84 53 85 54 86 59 87 55 88 56 89 58 90 60 91 57 92 79 93
REMARK SMILES IDX 80 94 85 95 81 96 82 97 84 98 86 99 83 100 67 101 68 102
REMARK SMILES IDX 73 103 69 104 70 105 72 106 74 107 71 108
REMARK H PARENT 36 4 8 21 33 38 31 40 20 42 22 44 41 51 91 70 65 81
REMARK Flexibility Score: 80.00
ROOT
ATOM      1  O   UNL     1       0.572  -0.482  -0.502  1.00  0.00    -0.270 OA
ATOM      2  C   UNL     1       1.757  -0.253  -0.287  1.00  0.00     0.243 C 
ATOM      3  N   UNL     1       2.412  -0.608   0.869  1.00  0.00    -0.353 N 
ATOM      4  H   UNL     1       3.367  -0.385   0.952  1.00  0.00     0.163 HD
ENDROOT
BRANCH   2   5
ATOM      5  C   UNL     1       2.553   0.482  -1.328  1.00  0.00     0.068 C 
ATOM      6  C   UNL     1       3.880   0.677  -1.280  1.00  0.00    -0.005 C 
BRANCH   6   7
ATOM      7  C   UNL     1       4.827   1.419  -2.247  1.00  0.00     0.051 C 
ATOM      8  C   UNL     1       4.956   2.803  -1.674  1.00  0.00     0.040 C 
ATOM      9  C   UNL     1       6.133   0.657  -2.167  1.00  0.00     0.018 C 
ATOM     10  C   UNL     1       4.538   1.294  -3.786  1.00  0.00     0.087 CG0
ATOM     11  C   UNL     1       6.018   3.206  -0.964  1.00  0.00     0.160 C 
ATOM     12  C   UNL     1       7.229   1.016  -1.494  1.00  0.00     0.065 C 
ATOM     13  C   UNL     1       5.996  -0.526  -3.056  1.00  0.00     0.186 C 
ATOM     14  C   UNL     1       4.939  -0.150  -4.037  1.00  0.00     0.009 C 
ATOM     15  G   UNL     1       5.422   2.111  -4.800  1.00  0.00     0.000 G0
ATOM     16  C   UNL     1       7.209   2.315  -0.780  1.00  0.00     0.220 C 
ATOM     17  O   UNL     1       6.644  -1.540  -3.016  1.00  0.00    -0.289 OA
ATOM     18  C   UNL     1       4.559  -0.880  -5.088  1.00  0.00     0.020 C 
ATOM     19  O   UNL     1       8.149   2.699  -0.094  1.00  0.00    -0.286 OA
BRANCH  11  20
ATOM     20  O   UNL     1       6.052   4.465  -0.398  1.00  0.00    -0.504 OA
ATOM     21  H   UNL     1       5.321   5.043  -0.497  1.00  0.00     0.293 HD
ENDBRANCH  11  20
BRANCH  18  22
ATOM     22  C   UNL     1       3.815  -0.203  -6.158  1.00  0.00     0.021 A 
ATOM     23  C   UNL     1       2.691  -0.819  -6.727  1.00  0.00     0.062 A 
ATOM     24  C   UNL     1       4.254   1.041  -6.666  1.00  0.00     0.131 A 
ATOM     25  C   UNL     1       2.040  -0.201  -7.794  1.00  0.00     0.158 A 
ATOM     26  C   UNL     1       3.638   1.608  -7.782  1.00  0.00     0.097 A 
ATOM     27  C   UNL     1       2.522   0.993  -8.323  1.00  0.00     0.161 A 
BRANCH  24  28
ATOM     28  O   UNL     1       5.351   1.719  -6.200  1.00  0.00    -0.484 OA
BRANCH  28  29
ATOM     29  C   UNL     1       5.422   2.111  -4.800  1.00  0.00     0.213 CG0
ATOM     30  G   UNL     1       4.538   1.294  -3.786  1.00  0.00     0.000 G0
BRANCH  29  31
ATOM     31  C   UNL     1       5.249   3.620  -4.737  1.00  0.00    -0.003 A 
ATOM     32  C   UNL     1       6.188   4.400  -4.038  1.00  0.00     0.011 A 
ATOM     33  C   UNL     1       4.169   4.270  -5.348  1.00  0.00     0.057 A 
ATOM     34  C   UNL     1       5.975   5.763  -3.825  1.00  0.00     0.050 A 
ATOM     35  C   UNL     1       4.004   5.647  -5.202  1.00  0.00     0.157 A 
ATOM     36  C   UNL     1       4.866   6.378  -4.392  1.00  0.00     0.157 A 
BRANCH  35  37
ATOM     37  O   UNL     1       2.974   6.279  -5.839  1.00  0.00    -0.504 OA
ATOM     38  H   UNL     1       2.861   7.204  -5.743  1.00  0.00     0.293 HD
ENDBRANCH  35  37
BRANCH  36  39
ATOM     39  O   UNL     1       4.623   7.700  -4.160  1.00  0.00    -0.504 OA
ATOM     40  H   UNL     1       5.203   8.194  -3.615  1.00  0.00     0.293 HD
ENDBRANCH  36  39
ENDBRANCH  29  31
ENDBRANCH  28  29
ENDBRANCH  24  28
BRANCH  25  41
ATOM     41  O   UNL     1       0.920  -0.735  -8.370  1.00  0.00    -0.504 OA
ATOM     42  H   UNL     1       0.563  -1.537  -8.044  1.00  0.00     0.293 HD
ENDBRANCH  25  41
BRANCH  27  43
ATOM     43  O   UNL     1       1.893   1.580  -9.383  1.00  0.00    -0.504 OA
ATOM     44  H   UNL     1       1.136   1.177  -9.761  1.00  0.00     0.293 HD
ENDBRANCH  27  43
ENDBRANCH  18  22
ENDBRANCH   6   7
ENDBRANCH   2   5
BRANCH   3  45
ATOM     45  C   UNL     1       1.765  -1.295   1.973  1.00  0.00     0.116 C 
BRANCH  45  46
ATOM     46  C   UNL     1       2.173  -2.766   2.081  1.00  0.00     0.023 C 
BRANCH  46  47
ATOM     47  C   UNL     1       3.668  -3.032   2.281  1.00  0.00     0.023 C 
BRANCH  47  48
ATOM     48  C   UNL     1       4.310  -2.397   3.513  1.00  0.00     0.116 C 
BRANCH  48  49
ATOM     49  N   UNL     1       3.794  -2.905   4.775  1.00  0.00    -0.352 N 
ATOM     50  C   UNL     1       4.466  -3.381   5.880  1.00  0.00     0.251 C 
ATOM     51  H   UNL     1       2.812  -2.910   4.851  1.00  0.00     0.163 HD
ATOM     52  O   UNL     1       3.837  -3.853   6.822  1.00  0.00    -0.269 OA
BRANCH  50  53
ATOM     53  C   UNL     1       5.948  -3.374   5.921  1.00  0.00     0.039 A 
ATOM     54  C   UNL     1       6.680  -2.264   5.498  1.00  0.00     0.014 A 
ATOM     55  C   UNL     1       6.618  -4.515   6.377  1.00  0.00     0.014 A 
ATOM     56  C   UNL     1       8.061  -2.364   5.346  1.00  0.00     0.010 A 
ATOM     57  C   UNL     1       8.014  -4.583   6.303  1.00  0.00     0.010 A 
ATOM     58  C   UNL     1       8.743  -3.533   5.725  1.00  0.00    -0.014 A 
BRANCH  58  59
ATOM     59  C   UNL     1      10.204  -3.646   5.470  1.00  0.00     0.031 A 
ATOM     60  C   UNL     1      10.737  -4.655   4.485  1.00  0.00     0.074 A 
ATOM     61  C   UNL     1      11.054  -2.788   6.067  1.00  0.00     0.049 A 
ATOM     62  N   UNL     1      11.972  -4.859   4.098  1.00  0.00    -0.248 NA
ATOM     63  C   UNL     1       9.758  -5.552   3.854  1.00  0.00     0.031 C 
ATOM     64  C   UNL     1      10.667  -1.753   7.026  1.00  0.00     0.029 A 
ATOM     65  N   UNL     1      12.410  -2.629   5.931  1.00  0.00    -0.354 N 
ATOM     66  C   UNL     1      11.918  -5.909   3.189  1.00  0.00     0.074 A 
ATOM     67  C   UNL     1      10.535  -6.328   3.113  1.00  0.00     0.031 C 
ATOM     68  C   UNL     1      11.749  -1.026   7.343  1.00  0.00     0.029 A 
ATOM     69  C   UNL     1      12.914  -1.578   6.658  1.00  0.00     0.049 A 
ATOM     70  H   UNL     1      12.969  -3.212   5.368  1.00  0.00     0.167 HD
ATOM     71  C   UNL     1      12.923  -6.464   2.469  1.00  0.00     0.037 A 
ATOM     72  C   UNL     1      14.171  -1.109   6.766  1.00  0.00     0.037 A 
ATOM     73  C   UNL     1      14.299  -6.042   2.531  1.00  0.00     0.049 A 
ATOM     74  C   UNL     1      15.279  -1.779   6.007  1.00  0.00     0.074 A 
ATOM     75  C   UNL     1      15.384  -6.535   1.827  1.00  0.00     0.029 A 
ATOM     76  N   UNL     1      14.779  -5.027   3.345  1.00  0.00    -0.354 N 
ATOM     77  N   UNL     1      15.211  -2.770   5.153  1.00  0.00    -0.248 NA
ATOM     78  C   UNL     1      16.640  -1.273   6.238  1.00  0.00     0.031 C 
ATOM     79  C   UNL     1      16.528  -5.848   2.246  1.00  0.00     0.029 A 
ATOM     80  C   UNL     1      16.149  -4.895   3.178  1.00  0.00     0.049 A 
ATOM     81  H   UNL     1      14.229  -4.481   3.951  1.00  0.00     0.167 HD
ATOM     82  C   UNL     1      16.515  -3.004   4.738  1.00  0.00     0.074 A 
ATOM     83  C   UNL     1      17.352  -2.038   5.420  1.00  0.00     0.031 C 
ATOM     84  C   UNL     1      16.975  -3.939   3.871  1.00  0.00     0.037 A 
BRANCH  71  85
ATOM     85  C   UNL     1      12.572  -7.601   1.553  1.00  0.00     0.057 A 
ATOM     86  C   UNL     1      11.851  -7.399   0.368  1.00  0.00     0.134 A 
ATOM     87  C   UNL     1      12.988  -8.908   1.840  1.00  0.00     0.134 A 
ATOM     88  F   UNL     1      11.413  -6.174   0.041  1.00  0.00    -0.206 F 
ATOM     89  C   UNL     1      11.535  -8.458  -0.485  1.00  0.00     0.040 A 
ATOM     90  C   UNL     1      12.700  -9.971   0.982  1.00  0.00     0.040 A 
ATOM     91  F   UNL     1      13.688  -9.171   2.953  1.00  0.00    -0.206 F 
ATOM     92  C   UNL     1      11.965  -9.748  -0.181  1.00  0.00     0.006 A 
ENDBRANCH  71  85
BRANCH  72  93
ATOM     93  C   UNL     1      14.432   0.075   7.620  1.00  0.00     0.057 A 
ATOM     94  C   UNL     1      14.729   1.318   7.052  1.00  0.00     0.134 A 
ATOM     95  C   UNL     1      14.335   0.006   9.015  1.00  0.00     0.134 A 
ATOM     96  F   UNL     1      14.852   1.441   5.723  1.00  0.00    -0.206 F 
ATOM     97  C   UNL     1      14.912   2.455   7.841  1.00  0.00     0.040 A 
ATOM     98  C   UNL     1      14.493   1.138   9.814  1.00  0.00     0.040 A 
ATOM     99  F   UNL     1      14.047  -1.158   9.617  1.00  0.00    -0.206 F 
ATOM    100  C   UNL     1      14.783   2.368   9.226  1.00  0.00     0.006 A 
ENDBRANCH  72  93
BRANCH  84 101
ATOM    101  C   UNL     1      18.451  -3.968   3.604  1.00  0.00     0.057 A 
ATOM    102  C   UNL     1      19.356  -4.473   4.546  1.00  0.00     0.134 A 
ATOM    103  C   UNL     1      18.966  -3.547   2.372  1.00  0.00     0.134 A 
ATOM    104  F   UNL     1      18.927  -4.881   5.750  1.00  0.00    -0.206 F 
ATOM    105  C   UNL     1      20.723  -4.547   4.276  1.00  0.00     0.040 A 
ATOM    106  C   UNL     1      20.328  -3.637   2.082  1.00  0.00     0.040 A 
ATOM    107  F   UNL     1      18.151  -3.061   1.423  1.00  0.00    -0.206 F 
ATOM    108  C   UNL     1      21.211  -4.136   3.037  1.00  0.00     0.006 A 
ENDBRANCH  84 101
ENDBRANCH  58  59
ENDBRANCH  50  53
ENDBRANCH  48  49
ENDBRANCH  47  48
ENDBRANCH  46  47
ENDBRANCH  45  46
ENDBRANCH   3  45
TORSDOF 18
