REMARK SMILES Cc1cccc(-c2cc(OCC(=O)NCCCCNC(=O)c3ccc(-c4c5nc(c(-c6c(F)cccc6F)c6ccc([nH]6)c(-c6c(F)cccc6F)c6nc(c(-c7c(F)cccc7F)c7ccc4[nH]7)C=C6)C=C5)cc3)ncn2)c1
REMARK SMILES IDX 16 1 15 2 14 3 12 4 13 5 11 7 10 8 9 9 7 10 8 11 78 12 77 13
REMARK SMILES IDX 76 14 6 15 1 16 2 17 3 18 79 19 4 20 5 21 17 22 18 23 19 24
REMARK SMILES IDX 20 25 21 27 22 28 23 29 75 30 24 31 74 32 25 33 26 34 27 35
REMARK SMILES IDX 68 36 28 37 73 38 67 39 69 40 29 41 72 42 66 43 65 44 30 46
REMARK SMILES IDX 56 47 39 48 55 49 40 50 43 51 54 52 70 53 41 54 42 55 53 57
REMARK SMILES IDX 71 58 44 59 31 60 32 61 37 62 33 63 34 64 36 65 38 66 35 67
REMARK SMILES IDX 57 68 58 69 63 70 59 71 60 72 62 73 64 74 61 75 45 76 46 77
REMARK SMILES IDX 51 78 47 79 48 80 50 81 52 82 49 83
REMARK H PARENT 14 6 19 26 69 45 43 56
REMARK Flexibility Score: inf
ROOT
ATOM      1  C   UNL     1      -0.531   7.524  -0.025  1.00  0.00     0.023 C 
ENDROOT
BRANCH   1   2
ATOM      2  C   UNL     1      -0.078   7.546  -1.490  1.00  0.00     0.116 C 
BRANCH   2   3
ATOM      3  N   UNL     1       0.614   6.338  -1.901  1.00  0.00    -0.353 N 
ATOM      4  C   UNL     1       0.135   5.270  -2.601  1.00  0.00     0.258 C 
ATOM      5  O   UNL     1       0.900   4.335  -2.847  1.00  0.00    -0.271 OA
ATOM      6  H   UNL     1       1.561   6.281  -1.638  1.00  0.00     0.163 HD
BRANCH   4   7
ATOM      7  C   UNL     1      -1.322   5.251  -3.078  1.00  0.00     0.331 C 
BRANCH   7   8
ATOM      8  O   UNL     1      -2.320   5.377  -2.082  1.00  0.00    -0.467 OA
BRANCH   8   9
ATOM      9  C   UNL     1      -2.404   4.401  -1.131  1.00  0.00     0.217 A 
ATOM     10  C   UNL     1      -1.894   2.374  -0.062  1.00  0.00     0.077 A 
ATOM     11  C   UNL     1      -1.732   3.202  -1.158  1.00  0.00     0.097 A 
ATOM     12  N   UNL     1      -2.704   2.684   0.968  1.00  0.00    -0.236 NA
ATOM     13  C   UNL     1      -3.328   3.864   0.883  1.00  0.00     0.226 A 
ATOM     14  N   UNL     1      -3.212   4.747  -0.116  1.00  0.00    -0.202 NA
BRANCH  10  15
ATOM     15  C   UNL     1      -1.156   1.111   0.041  1.00  0.00     0.001 A 
ATOM     16  C   UNL     1       2.471  -0.100  -0.004  1.00  0.00     0.044 C 
ATOM     17  C   UNL     1       0.972  -0.102   0.047  1.00  0.00    -0.050 A 
ATOM     18  C   UNL     1       0.272  -1.310   0.128  1.00  0.00     0.003 A 
ATOM     19  C   UNL     1       0.251   1.098  -0.002  1.00  0.00     0.013 A 
ATOM     20  C   UNL     1      -1.122  -1.316   0.184  1.00  0.00     0.001 A 
ATOM     21  C   UNL     1      -1.830  -0.113   0.151  1.00  0.00     0.010 A 
ENDBRANCH  10  15
ENDBRANCH   8   9
ENDBRANCH   7   8
ENDBRANCH   4   7
ENDBRANCH   2   3
ENDBRANCH   1   2
BRANCH   1  22
ATOM     22  C   UNL     1       0.547   7.166   1.001  1.00  0.00     0.023 C 
BRANCH  22  23
ATOM     23  C   UNL     1       1.687   8.170   1.103  1.00  0.00     0.116 C 
BRANCH  23  24
ATOM     24  N   UNL     1       1.440   9.284   2.006  1.00  0.00    -0.352 N 
ATOM     25  C   UNL     1       2.198  10.421   2.249  1.00  0.00     0.251 C 
ATOM     26  H   UNL     1       0.606   9.221   2.525  1.00  0.00     0.163 HD
ATOM     27  O   UNL     1       1.844  11.210   3.105  1.00  0.00    -0.269 OA
BRANCH  25  28
ATOM     28  C   UNL     1       3.354  10.752   1.368  1.00  0.00     0.039 A 
ATOM     29  C   UNL     1       3.516  12.092   0.990  1.00  0.00     0.014 A 
ATOM     30  C   UNL     1       4.131   9.768   0.764  1.00  0.00     0.014 A 
ATOM     31  C   UNL     1       4.235  12.399  -0.163  1.00  0.00     0.010 A 
ATOM     32  C   UNL     1       4.763  10.052  -0.430  1.00  0.00     0.010 A 
ATOM     33  C   UNL     1       4.746  11.355  -0.930  1.00  0.00    -0.014 A 
BRANCH  33  34
ATOM     34  C   UNL     1       5.140  11.511  -2.323  1.00  0.00     0.031 A 
ATOM     35  C   UNL     1       6.561  11.542  -2.713  1.00  0.00     0.074 A 
ATOM     36  C   UNL     1       4.179  11.550  -3.273  1.00  0.00     0.049 A 
ATOM     37  N   UNL     1       7.001  12.132  -3.772  1.00  0.00    -0.248 NA
ATOM     38  C   UNL     1       7.612  10.925  -1.915  1.00  0.00     0.031 C 
ATOM     39  C   UNL     1       4.354  11.446  -4.718  1.00  0.00     0.029 A 
ATOM     40  N   UNL     1       2.833  11.903  -3.109  1.00  0.00    -0.354 N 
ATOM     41  C   UNL     1       8.312  11.756  -3.945  1.00  0.00     0.074 A 
ATOM     42  C   UNL     1       8.664  11.056  -2.730  1.00  0.00     0.031 C 
ATOM     43  C   UNL     1       3.286  11.991  -5.323  1.00  0.00     0.029 A 
ATOM     44  C   UNL     1       2.459  12.583  -4.286  1.00  0.00     0.049 A 
ATOM     45  H   UNL     1       2.263  11.714  -2.329  1.00  0.00     0.167 HD
ATOM     46  C   UNL     1       8.915  11.959  -5.152  1.00  0.00     0.037 A 
ATOM     47  C   UNL     1       2.057  13.886  -4.256  1.00  0.00     0.037 A 
ATOM     48  C   UNL     1       8.004  12.598  -6.098  1.00  0.00     0.049 A 
ATOM     49  C   UNL     1       2.918  14.811  -5.083  1.00  0.00     0.074 A 
ATOM     50  C   UNL     1       7.192  12.088  -7.098  1.00  0.00     0.029 A 
ATOM     51  N   UNL     1       7.592  13.908  -5.886  1.00  0.00    -0.354 N 
ATOM     52  N   UNL     1       4.124  14.518  -5.484  1.00  0.00    -0.248 NA
ATOM     53  C   UNL     1       2.499  16.142  -5.511  1.00  0.00     0.031 C 
ATOM     54  C   UNL     1       6.262  13.088  -7.466  1.00  0.00     0.029 A 
ATOM     55  C   UNL     1       6.520  14.213  -6.702  1.00  0.00     0.049 A 
ATOM     56  H   UNL     1       8.005  14.530  -5.245  1.00  0.00     0.167 HD
ATOM     57  C   UNL     1       4.649  15.576  -6.184  1.00  0.00     0.074 A 
ATOM     58  C   UNL     1       3.582  16.558  -6.192  1.00  0.00     0.031 C 
ATOM     59  C   UNL     1       5.920  15.539  -6.685  1.00  0.00     0.037 A 
BRANCH  46  60
ATOM     60  C   UNL     1      10.213  11.300  -5.556  1.00  0.00     0.057 A 
ATOM     61  C   UNL     1      10.451  10.911  -6.890  1.00  0.00     0.134 A 
ATOM     62  C   UNL     1      11.253  10.984  -4.667  1.00  0.00     0.134 A 
ATOM     63  F   UNL     1       9.614  11.239  -7.883  1.00  0.00    -0.206 F 
ATOM     64  C   UNL     1      11.565  10.155  -7.277  1.00  0.00     0.040 A 
ATOM     65  C   UNL     1      12.348  10.184  -5.028  1.00  0.00     0.040 A 
ATOM     66  F   UNL     1      11.277  11.475  -3.420  1.00  0.00    -0.206 F 
ATOM     67  C   UNL     1      12.498   9.751  -6.337  1.00  0.00     0.006 A 
ENDBRANCH  46  60
BRANCH  47  68
ATOM     68  C   UNL     1       1.355  14.254  -3.000  1.00  0.00     0.057 A 
ATOM     69  C   UNL     1       0.111  13.654  -2.729  1.00  0.00     0.134 A 
ATOM     70  C   UNL     1       2.026  14.840  -1.924  1.00  0.00     0.134 A 
ATOM     71  F   UNL     1      -0.583  13.069  -3.719  1.00  0.00    -0.206 F 
ATOM     72  C   UNL     1      -0.388  13.540  -1.429  1.00  0.00     0.040 A 
ATOM     73  C   UNL     1       1.530  14.741  -0.618  1.00  0.00     0.040 A 
ATOM     74  F   UNL     1       3.227  15.410  -2.098  1.00  0.00    -0.206 F 
ATOM     75  C   UNL     1       0.342  14.055  -0.363  1.00  0.00     0.006 A 
ENDBRANCH  47  68
BRANCH  59  76
ATOM     76  C   UNL     1       6.707  16.687  -7.284  1.00  0.00     0.057 A 
ATOM     77  C   UNL     1       6.475  18.043  -7.015  1.00  0.00     0.134 A 
ATOM     78  C   UNL     1       7.860  16.430  -8.067  1.00  0.00     0.134 A 
ATOM     79  F   UNL     1       5.489  18.442  -6.203  1.00  0.00    -0.206 F 
ATOM     80  C   UNL     1       7.293  19.064  -7.524  1.00  0.00     0.040 A 
ATOM     81  C   UNL     1       8.714  17.435  -8.530  1.00  0.00     0.040 A 
ATOM     82  F   UNL     1       8.229  15.184  -8.400  1.00  0.00    -0.206 F 
ATOM     83  C   UNL     1       8.425  18.762  -8.271  1.00  0.00     0.006 A 
ENDBRANCH  59  76
ENDBRANCH  33  34
ENDBRANCH  25  28
ENDBRANCH  23  24
ENDBRANCH  22  23
ENDBRANCH   1  22
TORSDOF 14
