REMARK SMILES Cc1ccc(C)c(-n2nc(C)c(/C=C(/C#N)C(=O)NCCCCNC(=O)c3ccc(-c4c5nc(c(-c6c(F)cccc6F)c6ccc([nH]6)c(-c6c(F)cccc6F)c6nc(c(-c7c(F)cccc7F)c7ccc4[nH]7)C=C6)C=C5)cc3)c2Cl)c1
REMARK SMILES IDX 21 1 20 2 19 3 17 4 18 5 14 7 13 8 12 9 8 10 9 11 81 12
REMARK SMILES IDX 10 13 82 14 11 15 7 16 1 17 2 18 3 19 83 20 4 21 5 22 6 23
REMARK SMILES IDX 15 24 16 25 22 26 23 27 24 28 25 29 26 31 27 32 28 33 80 34
REMARK SMILES IDX 29 35 79 36 30 37 31 38 32 39 73 40 33 41 78 42 72 43 74 44
REMARK SMILES IDX 34 45 77 46 71 47 70 48 35 50 61 51 44 52 60 53 45 54 48 55
REMARK SMILES IDX 59 56 75 57 46 58 47 59 58 61 76 62 49 63 36 64 37 65 42 66
REMARK SMILES IDX 38 67 39 68 41 69 43 70 40 71 62 72 63 73 68 74 64 75 65 76
REMARK SMILES IDX 67 77 69 78 66 79 50 80 51 81 56 82 52 83 53 84 55 85 57 86
REMARK SMILES IDX 54 87
REMARK H PARENT 19 6 24 30 74 49 48 60
REMARK Flexibility Score: inf
ROOT
ATOM      1  C   UNL     1      -6.235   9.349  -1.467  1.00  0.00     0.023 C 
ENDROOT
BRANCH   1   2
ATOM      2  C   UNL     1      -5.152   9.002  -0.429  1.00  0.00     0.116 C 
BRANCH   2   3
ATOM      3  N   UNL     1      -5.093   7.566  -0.204  1.00  0.00    -0.351 N 
ATOM      4  C   UNL     1      -4.346   6.567  -0.752  1.00  0.00     0.261 C 
ATOM      5  O   UNL     1      -4.804   5.428  -0.661  1.00  0.00    -0.268 OA
ATOM      6  H   UNL     1      -5.723   7.252   0.484  1.00  0.00     0.163 HD
BRANCH   4   7
ATOM      7  C   UNL     1      -3.024   6.816  -1.421  1.00  0.00     0.117 C 
ATOM      8  C   UNL     1      -1.992   5.957  -1.325  1.00  0.00     0.038 C 
BRANCH   8   9
ATOM      9  C   UNL     1      -1.887   4.723  -0.581  1.00  0.00     0.036 A 
ATOM     10  N   UNL     1      -1.344   2.598  -0.132  1.00  0.00    -0.221 N 
ATOM     11  N   UNL     1      -2.114   2.986   0.912  1.00  0.00    -0.171 NA
ATOM     12  C   UNL     1      -1.162   3.635  -1.020  1.00  0.00     0.140 A 
ATOM     13  C   UNL     1      -2.422   4.269   0.667  1.00  0.00     0.069 A 
ATOM     14  Cl  UNL     1      -0.292   3.401  -2.478  1.00  0.00    -0.061 Cl
ATOM     15  C   UNL     1      -3.223   4.967   1.711  1.00  0.00     0.069 C 
BRANCH  10  16
ATOM     16  C   UNL     1      -0.716   1.327  -0.088  1.00  0.00     0.069 A 
ATOM     17  C   UNL     1       2.873   0.030  -0.031  1.00  0.00     0.044 C 
ATOM     18  C   UNL     1       1.374   0.074  -0.024  1.00  0.00    -0.049 A 
ATOM     19  C   UNL     1       0.640  -1.108   0.096  1.00  0.00     0.004 A 
ATOM     20  C   UNL     1       0.690   1.290  -0.131  1.00  0.00     0.032 A 
ATOM     21  C   UNL     1      -0.756  -1.075   0.138  1.00  0.00     0.006 A 
ATOM     22  C   UNL     1      -1.459   0.140   0.059  1.00  0.00    -0.025 A 
ATOM     23  C   UNL     1      -2.962   0.063   0.063  1.00  0.00     0.047 C 
ENDBRANCH  10  16
ENDBRANCH   8   9
BRANCH   7  24
ATOM     24  C   UNL     1      -3.058   7.979  -2.401  1.00  0.00     0.105 C 
ATOM     25  N   UNL     1      -3.086   8.943  -3.213  1.00  0.00    -0.192 NA
ENDBRANCH   7  24
ENDBRANCH   4   7
ENDBRANCH   2   3
ENDBRANCH   1   2
BRANCH   1  26
ATOM     26  C   UNL     1      -7.688   9.333  -0.950  1.00  0.00     0.023 C 
BRANCH  26  27
ATOM     27  C   UNL     1      -8.175  10.560  -0.160  1.00  0.00     0.116 C 
BRANCH  27  28
ATOM     28  N   UNL     1      -8.048  11.835  -0.889  1.00  0.00    -0.352 N 
ATOM     29  C   UNL     1      -7.522  13.086  -0.573  1.00  0.00     0.251 C 
ATOM     30  H   UNL     1      -8.416  11.793  -1.801  1.00  0.00     0.163 HD
ATOM     31  O   UNL     1      -7.778  14.045  -1.279  1.00  0.00    -0.269 OA
BRANCH  29  32
ATOM     32  C   UNL     1      -6.616  13.266   0.586  1.00  0.00     0.039 A 
ATOM     33  C   UNL     1      -6.059  14.483   0.992  1.00  0.00     0.014 A 
ATOM     34  C   UNL     1      -6.129  12.127   1.170  1.00  0.00     0.014 A 
ATOM     35  C   UNL     1      -4.961  14.462   1.876  1.00  0.00     0.010 A 
ATOM     36  C   UNL     1      -5.436  12.169   2.331  1.00  0.00     0.010 A 
ATOM     37  C   UNL     1      -4.608  13.256   2.479  1.00  0.00    -0.014 A 
BRANCH  37  38
ATOM     38  C   UNL     1      -3.435  12.978   3.292  1.00  0.00     0.031 A 
ATOM     39  C   UNL     1      -3.643  13.104   4.755  1.00  0.00     0.074 A 
ATOM     40  C   UNL     1      -2.436  12.178   2.852  1.00  0.00     0.049 A 
ATOM     41  N   UNL     1      -3.243  14.051   5.536  1.00  0.00    -0.248 NA
ATOM     42  C   UNL     1      -4.563  12.149   5.400  1.00  0.00     0.031 C 
ATOM     43  C   UNL     1      -2.314  11.463   1.574  1.00  0.00     0.029 A 
ATOM     44  N   UNL     1      -1.348  11.740   3.544  1.00  0.00    -0.354 N 
ATOM     45  C   UNL     1      -3.710  13.698   6.800  1.00  0.00     0.074 A 
ATOM     46  C   UNL     1      -4.752  12.739   6.579  1.00  0.00     0.031 C 
ATOM     47  C   UNL     1      -1.311  10.555   1.660  1.00  0.00     0.029 A 
ATOM     48  C   UNL     1      -0.646  10.704   2.944  1.00  0.00     0.049 A 
ATOM     49  H   UNL     1      -1.080  12.129   4.407  1.00  0.00     0.167 HD
ATOM     50  C   UNL     1      -3.009  13.974   7.936  1.00  0.00     0.037 A 
ATOM     51  C   UNL     1       0.372  10.002   3.505  1.00  0.00     0.037 A 
ATOM     52  C   UNL     1      -1.909  14.866   7.649  1.00  0.00     0.049 A 
ATOM     53  C   UNL     1       0.839  10.769   4.694  1.00  0.00     0.074 A 
ATOM     54  C   UNL     1      -1.788  16.113   7.064  1.00  0.00     0.029 A 
ATOM     55  N   UNL     1      -0.644  14.326   7.626  1.00  0.00    -0.354 N 
ATOM     56  N   UNL     1       1.451  11.919   4.639  1.00  0.00    -0.248 NA
ATOM     57  C   UNL     1       0.239  10.449   5.982  1.00  0.00     0.031 C 
ATOM     58  C   UNL     1      -0.592  16.042   6.289  1.00  0.00     0.029 A 
ATOM     59  C   UNL     1      -0.027  14.782   6.491  1.00  0.00     0.049 A 
ATOM     60  H   UNL     1      -0.254  13.724   8.300  1.00  0.00     0.167 HD
ATOM     61  C   UNL     1       0.971  12.636   5.728  1.00  0.00     0.074 A 
ATOM     62  C   UNL     1       0.308  11.646   6.571  1.00  0.00     0.031 C 
ATOM     63  C   UNL     1       0.898  13.999   5.701  1.00  0.00     0.037 A 
BRANCH  50  64
ATOM     64  C   UNL     1      -3.061  13.163   9.218  1.00  0.00     0.057 A 
ATOM     65  C   UNL     1      -2.354  13.641  10.338  1.00  0.00     0.134 A 
ATOM     66  C   UNL     1      -3.543  11.843   9.352  1.00  0.00     0.134 A 
ATOM     67  F   UNL     1      -1.850  14.884  10.356  1.00  0.00    -0.206 F 
ATOM     68  C   UNL     1      -2.062  12.841  11.449  1.00  0.00     0.040 A 
ATOM     69  C   UNL     1      -3.309  11.056  10.483  1.00  0.00     0.040 A 
ATOM     70  F   UNL     1      -4.184  11.192   8.377  1.00  0.00    -0.206 F 
ATOM     71  C   UNL     1      -2.532  11.538  11.520  1.00  0.00     0.006 A 
ENDBRANCH  50  64
BRANCH  51  72
ATOM     72  C   UNL     1       0.820   8.612   3.252  1.00  0.00     0.057 A 
ATOM     73  C   UNL     1       2.095   8.176   3.647  1.00  0.00     0.134 A 
ATOM     74  C   UNL     1      -0.076   7.605   2.852  1.00  0.00     0.134 A 
ATOM     75  F   UNL     1       3.010   9.055   4.079  1.00  0.00    -0.206 F 
ATOM     76  C   UNL     1       2.451   6.820   3.666  1.00  0.00     0.040 A 
ATOM     77  C   UNL     1       0.270   6.248   2.863  1.00  0.00     0.040 A 
ATOM     78  F   UNL     1      -1.341   7.896   2.516  1.00  0.00    -0.206 F 
ATOM     79  C   UNL     1       1.532   5.849   3.283  1.00  0.00     0.006 A 
ENDBRANCH  51  72
BRANCH  63  80
ATOM     80  C   UNL     1       1.613  14.728   4.598  1.00  0.00     0.057 A 
ATOM     81  C   UNL     1       1.283  14.610   3.240  1.00  0.00     0.134 A 
ATOM     82  C   UNL     1       2.544  15.715   4.938  1.00  0.00     0.134 A 
ATOM     83  F   UNL     1       0.332  13.763   2.828  1.00  0.00    -0.206 F 
ATOM     84  C   UNL     1       1.878  15.413   2.263  1.00  0.00     0.040 A 
ATOM     85  C   UNL     1       3.121  16.547   3.977  1.00  0.00     0.040 A 
ATOM     86  F   UNL     1       2.868  15.924   6.225  1.00  0.00    -0.206 F 
ATOM     87  C   UNL     1       2.794  16.393   2.632  1.00  0.00     0.006 A 
ENDBRANCH  63  80
ENDBRANCH  37  38
ENDBRANCH  29  32
ENDBRANCH  27  28
ENDBRANCH  26  27
ENDBRANCH   1  26
TORSDOF 14
