REMARK SMILES Cc1ccc(-c2cc(C(=O)NCCCCNC(=O)c3ccc(-c4c5nc(c(-c6c(F)cccc6F)c6ccc([nH]6)c(-c6c(F)cccc6F)c6nc(c(-c7c(F)cccc7F)c7ccc4[nH]7)C=C6)C=C5)cc3)ccc2F)cc1O
REMARK SMILES IDX 13 1 12 2 11 3 9 4 10 5 8 7 6 8 7 9 75 10 74 11 76 12 73 13
REMARK SMILES IDX 5 14 1 15 2 16 3 17 78 18 4 19 77 20 79 21 14 23 15 24 16 25
REMARK SMILES IDX 17 26 18 28 19 29 20 30 72 31 21 32 71 33 22 34 23 35 24 36
REMARK SMILES IDX 65 37 25 38 70 39 64 40 66 41 26 42 69 43 63 44 62 45 27 47
REMARK SMILES IDX 53 48 36 49 52 50 37 51 40 52 51 53 67 54 38 55 39 56 50 58
REMARK SMILES IDX 68 59 41 60 28 61 29 62 34 63 30 64 31 65 33 66 35 67 32 68
REMARK SMILES IDX 54 69 55 70 60 71 56 72 57 73 59 74 61 75 58 76 42 77 43 78
REMARK SMILES IDX 48 79 44 80 45 81 47 82 49 83 46 84
REMARK H PARENT 11 6 79 22 16 27 66 46 40 57
REMARK Flexibility Score: inf
ROOT
ATOM      1  C   UNL     1       7.208   5.968   0.598  1.00  0.00     0.023 C 
ENDROOT
BRANCH   1   2
ATOM      2  C   UNL     1       7.181   4.727   1.494  1.00  0.00     0.116 C 
BRANCH   2   3
ATOM      3  N   UNL     1       5.935   4.668   2.226  1.00  0.00    -0.352 N 
ATOM      4  C   UNL     1       4.735   4.056   1.980  1.00  0.00     0.251 C 
ATOM      5  O   UNL     1       3.845   4.244   2.812  1.00  0.00    -0.269 OA
ATOM      6  H   UNL     1       5.954   5.170   3.072  1.00  0.00     0.163 HD
BRANCH   4   7
ATOM      7  C   UNL     1       4.461   3.157   0.817  1.00  0.00     0.040 A 
ATOM      8  C   UNL     1       2.974   1.411  -0.082  1.00  0.00     0.018 A 
ATOM      9  C   UNL     1       3.334   2.318   0.931  1.00  0.00     0.025 A 
ATOM     10  C   UNL     1       3.798   1.330  -1.208  1.00  0.00     0.131 A 
ATOM     11  C   UNL     1       4.893   2.171  -1.362  1.00  0.00     0.041 A 
ATOM     12  F   UNL     1       3.522   0.462  -2.194  1.00  0.00    -0.206 F 
ATOM     13  C   UNL     1       5.199   3.106  -0.369  1.00  0.00     0.017 A 
BRANCH   8  14
ATOM     14  C   UNL     1       1.743   0.621   0.016  1.00  0.00    -0.012 A 
ATOM     15  C   UNL     1      -1.915  -1.704   0.043  1.00  0.00     0.048 C 
ATOM     16  C   UNL     1      -0.662  -0.879   0.060  1.00  0.00    -0.009 A 
ATOM     17  C   UNL     1       0.585  -1.519   0.048  1.00  0.00     0.008 A 
ATOM     18  C   UNL     1      -0.687   0.518   0.069  1.00  0.00     0.119 A 
ATOM     19  C   UNL     1       1.772  -0.779   0.024  1.00  0.00     0.009 A 
ATOM     20  C   UNL     1       0.495   1.259   0.055  1.00  0.00     0.055 A 
BRANCH  18  21
ATOM     21  O   UNL     1      -1.846   1.242   0.073  1.00  0.00    -0.508 OA
ATOM     22  H   UNL     1      -2.673   0.802   0.082  1.00  0.00     0.293 HD
ENDBRANCH  18  21
ENDBRANCH   8  14
ENDBRANCH   4   7
ENDBRANCH   2   3
ENDBRANCH   1   2
BRANCH   1  23
ATOM     23  C   UNL     1       7.578   7.257   1.340  1.00  0.00     0.023 C 
BRANCH  23  24
ATOM     24  C   UNL     1       8.950   7.238   2.005  1.00  0.00     0.116 C 
BRANCH  24  25
ATOM     25  N   UNL     1      10.025   6.896   1.087  1.00  0.00    -0.352 N 
ATOM     26  C   UNL     1      11.330   7.324   1.094  1.00  0.00     0.251 C 
ATOM     27  H   UNL     1       9.785   6.274   0.362  1.00  0.00     0.163 HD
ATOM     28  O   UNL     1      12.079   7.036   0.171  1.00  0.00    -0.269 OA
BRANCH  26  29
ATOM     29  C   UNL     1      11.810   8.160   2.212  1.00  0.00     0.039 A 
ATOM     30  C   UNL     1      12.572   9.292   1.920  1.00  0.00     0.014 A 
ATOM     31  C   UNL     1      11.509   7.832   3.536  1.00  0.00     0.014 A 
ATOM     32  C   UNL     1      13.003  10.116   2.960  1.00  0.00     0.010 A 
ATOM     33  C   UNL     1      11.862   8.700   4.562  1.00  0.00     0.010 A 
ATOM     34  C   UNL     1      12.634   9.837   4.287  1.00  0.00    -0.014 A 
BRANCH  34  35
ATOM     35  C   UNL     1      13.089  10.708   5.397  1.00  0.00     0.031 A 
ATOM     36  C   UNL     1      14.019  10.165   6.447  1.00  0.00     0.074 A 
ATOM     37  C   UNL     1      12.662  11.983   5.463  1.00  0.00     0.049 A 
ATOM     38  N   UNL     1      14.553  10.778   7.472  1.00  0.00    -0.248 NA
ATOM     39  C   UNL     1      14.380   8.742   6.346  1.00  0.00     0.031 C 
ATOM     40  C   UNL     1      11.726  12.608   4.527  1.00  0.00     0.029 A 
ATOM     41  N   UNL     1      12.972  12.986   6.345  1.00  0.00    -0.354 N 
ATOM     42  C   UNL     1      15.313   9.819   8.129  1.00  0.00     0.074 A 
ATOM     43  C   UNL     1      15.106   8.566   7.439  1.00  0.00     0.031 C 
ATOM     44  C   UNL     1      11.584  13.903   4.851  1.00  0.00     0.029 A 
ATOM     45  C   UNL     1      12.390  14.190   6.034  1.00  0.00     0.049 A 
ATOM     46  H   UNL     1      13.556  12.855   7.127  1.00  0.00     0.167 HD
ATOM     47  C   UNL     1      16.143   9.975   9.188  1.00  0.00     0.037 A 
ATOM     48  C   UNL     1      12.511  15.394   6.624  1.00  0.00     0.037 A 
ATOM     49  C   UNL     1      16.353  11.226   9.866  1.00  0.00     0.049 A 
ATOM     50  C   UNL     1      13.420  15.541   7.811  1.00  0.00     0.074 A 
ATOM     51  C   UNL     1      17.181  11.494  10.941  1.00  0.00     0.029 A 
ATOM     52  N   UNL     1      15.732  12.420   9.530  1.00  0.00    -0.354 N 
ATOM     53  N   UNL     1      14.165  14.635   8.400  1.00  0.00    -0.248 NA
ATOM     54  C   UNL     1      13.517  16.879   8.410  1.00  0.00     0.031 C 
ATOM     55  C   UNL     1      17.028  12.841  11.283  1.00  0.00     0.029 A 
ATOM     56  C   UNL     1      16.152  13.427  10.383  1.00  0.00     0.049 A 
ATOM     57  H   UNL     1      15.088  12.534   8.794  1.00  0.00     0.167 HD
ATOM     58  C   UNL     1      14.846  15.300   9.411  1.00  0.00     0.074 A 
ATOM     59  C   UNL     1      14.430  16.686   9.352  1.00  0.00     0.031 C 
ATOM     60  C   UNL     1      15.739  14.806  10.303  1.00  0.00     0.037 A 
BRANCH  47  61
ATOM     61  C   UNL     1      16.896   8.764   9.659  1.00  0.00     0.057 A 
ATOM     62  C   UNL     1      16.635   8.193  10.910  1.00  0.00     0.134 A 
ATOM     63  C   UNL     1      17.909   8.181   8.884  1.00  0.00     0.134 A 
ATOM     64  F   UNL     1      15.682   8.700  11.707  1.00  0.00    -0.206 F 
ATOM     65  C   UNL     1      17.356   7.091  11.375  1.00  0.00     0.040 A 
ATOM     66  C   UNL     1      18.615   7.061   9.324  1.00  0.00     0.040 A 
ATOM     67  F   UNL     1      18.201   8.669   7.668  1.00  0.00    -0.206 F 
ATOM     68  C   UNL     1      18.345   6.518  10.578  1.00  0.00     0.006 A 
ENDBRANCH  47  61
BRANCH  48  69
ATOM     69  C   UNL     1      11.809  16.567   6.045  1.00  0.00     0.057 A 
ATOM     70  C   UNL     1      10.416  16.694   6.101  1.00  0.00     0.134 A 
ATOM     71  C   UNL     1      12.522  17.574   5.382  1.00  0.00     0.134 A 
ATOM     72  F   UNL     1       9.675  15.758   6.712  1.00  0.00    -0.206 F 
ATOM     73  C   UNL     1       9.756  17.770   5.505  1.00  0.00     0.040 A 
ATOM     74  C   UNL     1      11.877  18.667   4.803  1.00  0.00     0.040 A 
ATOM     75  F   UNL     1      13.860  17.515   5.307  1.00  0.00    -0.206 F 
ATOM     76  C   UNL     1      10.488  18.763   4.856  1.00  0.00     0.006 A 
ENDBRANCH  48  69
BRANCH  60  77
ATOM     77  C   UNL     1      16.371  15.773  11.263  1.00  0.00     0.057 A 
ATOM     78  C   UNL     1      17.736  16.078  11.165  1.00  0.00     0.134 A 
ATOM     79  C   UNL     1      15.655  16.350  12.319  1.00  0.00     0.134 A 
ATOM     80  F   UNL     1      18.484  15.548  10.185  1.00  0.00    -0.206 F 
ATOM     81  C   UNL     1      18.366  16.913  12.087  1.00  0.00     0.040 A 
ATOM     82  C   UNL     1      16.268  17.212  13.230  1.00  0.00     0.040 A 
ATOM     83  F   UNL     1      14.344  16.106  12.465  1.00  0.00    -0.206 F 
ATOM     84  C   UNL     1      17.630  17.488  13.120  1.00  0.00     0.006 A 
ENDBRANCH  60  77
ENDBRANCH  34  35
ENDBRANCH  26  29
ENDBRANCH  24  25
ENDBRANCH  23  24
ENDBRANCH   1  23
TORSDOF 13
