REMARK SMILES CSc1ccc([C@H]2[NH2+][C@@H](C(=O)NCCCCNC(=O)c3ccc(-c4c5nc(c(-c6c(F)cccc6F)c6ccc([nH]6)c(-c6c(F)cccc6F)c6nc(c(-c7c(F)cccc7F)c7ccc4[nH]7)C=C6)C=C5)cc3)C(C)(C)S2)cc1
REMARK SMILES IDX 14 1 13 2 12 3 10 4 11 5 9 7 7 8 8 9 77 10 74 13 75 14 76 15
REMARK SMILES IDX 6 16 3 17 4 18 79 19 5 20 78 21 2 22 1 23 15 24 16 25 17 26
REMARK SMILES IDX 18 27 19 29 20 30 21 31 73 32 22 33 72 34 23 35 24 36 25 37
REMARK SMILES IDX 66 38 26 39 71 40 65 41 67 42 27 43 70 44 64 45 63 46 28 48
REMARK SMILES IDX 54 49 37 50 53 51 38 52 41 53 52 54 68 55 39 56 40 57 51 59
REMARK SMILES IDX 69 60 42 61 29 62 30 63 35 64 31 65 32 66 34 67 36 68 33 69
REMARK SMILES IDX 55 70 56 71 61 72 57 73 58 74 60 75 62 76 59 77 43 78 44 79
REMARK SMILES IDX 49 80 45 81 46 82 48 83 50 84 47 85
REMARK H PARENT 12 6 8 11 8 12 17 28 67 47 41 58
REMARK Flexibility Score: inf
ROOT
ATOM      1  C   UNL     1       1.754   8.933   2.796  1.00  0.00     0.023 C 
ENDROOT
BRANCH   1   2
ATOM      2  C   UNL     1       2.638   7.776   3.259  1.00  0.00     0.116 C 
BRANCH   2   3
ATOM      3  N   UNL     1       3.361   8.091   4.475  1.00  0.00    -0.351 N 
ATOM      4  C   UNL     1       3.333   7.563   5.732  1.00  0.00     0.279 C 
ATOM      5  O   UNL     1       4.021   8.145   6.580  1.00  0.00    -0.268 OA
ATOM      6  H   UNL     1       3.999   8.834   4.373  1.00  0.00     0.163 HD
BRANCH   4   7
ATOM      7  C   UNL     1       2.481   6.341   6.141  1.00  0.00     0.289 C 
ATOM      8  C   UNL     1       1.600   4.226   5.439  1.00  0.00     0.274 C 
ATOM      9  N   UNL     1       2.674   5.195   5.229  1.00  0.00    -0.320 N 
ATOM     10  S   UNL     1       0.204   5.005   6.289  1.00  0.00    -0.081 SA
ATOM     11  H   UNL     1       2.654   5.521   4.263  1.00  0.00     0.348 HD
ATOM     12  H   UNL     1       3.574   4.755   5.418  1.00  0.00     0.348 HD
ATOM     13  C   UNL     1       0.999   6.643   6.450  1.00  0.00     0.077 C 
ATOM     14  C   UNL     1       0.243   7.590   5.522  1.00  0.00     0.030 C 
ATOM     15  C   UNL     1       0.843   7.161   7.886  1.00  0.00     0.030 C 
BRANCH   8  16
ATOM     16  C   UNL     1       1.213   3.553   4.131  1.00  0.00     0.020 A 
ATOM     17  C   UNL     1       0.692   2.288   1.637  1.00  0.00     0.007 A 
ATOM     18  C   UNL     1       1.201   1.562   2.715  1.00  0.00     0.015 A 
ATOM     19  C   UNL     1       0.419   3.647   1.824  1.00  0.00     0.015 A 
ATOM     20  C   UNL     1       1.466   2.187   3.943  1.00  0.00     0.012 A 
ATOM     21  C   UNL     1       0.664   4.268   3.054  1.00  0.00     0.012 A 
BRANCH  17  22
ATOM     22  S   UNL     1       0.345   1.619   0.015  1.00  0.00    -0.130 SA
ATOM     23  C   UNL     1       0.972  -0.077   0.114  1.00  0.00     0.091 C 
ENDBRANCH  17  22
ENDBRANCH   8  16
ENDBRANCH   4   7
ENDBRANCH   2   3
ENDBRANCH   1   2
BRANCH   1  24
ATOM     24  C   UNL     1       2.496  10.066   2.105  1.00  0.00     0.023 C 
BRANCH  24  25
ATOM     25  C   UNL     1       3.211   9.661   0.826  1.00  0.00     0.116 C 
BRANCH  25  26
ATOM     26  N   UNL     1       2.325   9.073  -0.171  1.00  0.00    -0.352 N 
ATOM     27  C   UNL     1       2.219   9.376  -1.509  1.00  0.00     0.251 C 
ATOM     28  H   UNL     1       1.723   8.366   0.157  1.00  0.00     0.163 HD
ATOM     29  O   UNL     1       1.343   8.879  -2.200  1.00  0.00    -0.269 OA
BRANCH  27  30
ATOM     30  C   UNL     1       3.167  10.350  -2.084  1.00  0.00     0.039 A 
ATOM     31  C   UNL     1       2.672  11.438  -2.805  1.00  0.00     0.014 A 
ATOM     32  C   UNL     1       4.534  10.223  -1.827  1.00  0.00     0.014 A 
ATOM     33  C   UNL     1       3.548  12.449  -3.200  1.00  0.00     0.010 A 
ATOM     34  C   UNL     1       5.385  11.273  -2.138  1.00  0.00     0.010 A 
ATOM     35  C   UNL     1       4.902  12.394  -2.831  1.00  0.00    -0.014 A 
BRANCH  35  36
ATOM     36  C   UNL     1       5.853  13.474  -3.186  1.00  0.00     0.031 A 
ATOM     37  C   UNL     1       7.025  13.156  -4.073  1.00  0.00     0.074 A 
ATOM     38  C   UNL     1       5.715  14.703  -2.651  1.00  0.00     0.049 A 
ATOM     39  N   UNL     1       8.053  13.901  -4.387  1.00  0.00    -0.248 NA
ATOM     40  C   UNL     1       7.064  11.803  -4.653  1.00  0.00     0.031 C 
ATOM     41  C   UNL     1       4.645  15.123  -1.744  1.00  0.00     0.029 A 
ATOM     42  N   UNL     1       6.492  15.825  -2.788  1.00  0.00    -0.354 N 
ATOM     43  C   UNL     1       8.868  13.100  -5.176  1.00  0.00     0.074 A 
ATOM     44  C   UNL     1       8.248  11.796  -5.244  1.00  0.00     0.031 C 
ATOM     45  C   UNL     1       4.818  16.417  -1.428  1.00  0.00     0.029 A 
ATOM     46  C   UNL     1       6.030  16.907  -2.077  1.00  0.00     0.049 A 
ATOM     47  H   UNL     1       7.304  15.854  -3.344  1.00  0.00     0.167 HD
ATOM     48  C   UNL     1      10.015  13.430  -5.813  1.00  0.00     0.037 A 
ATOM     49  C   UNL     1       6.535  18.149  -1.962  1.00  0.00     0.037 A 
ATOM     50  C   UNL     1      10.604  14.740  -5.781  1.00  0.00     0.049 A 
ATOM     51  C   UNL     1       7.804  18.494  -2.693  1.00  0.00     0.074 A 
ATOM     52  C   UNL     1      11.748  15.188  -6.417  1.00  0.00     0.029 A 
ATOM     53  N   UNL     1      10.080  15.819  -5.087  1.00  0.00    -0.354 N 
ATOM     54  N   UNL     1       8.549  17.735  -3.459  1.00  0.00    -0.248 NA
ATOM     55  C   UNL     1       8.300  19.870  -2.546  1.00  0.00     0.031 C 
ATOM     56  C   UNL     1      11.924  16.538  -6.095  1.00  0.00     0.029 A 
ATOM     57  C   UNL     1      10.873  16.935  -5.284  1.00  0.00     0.049 A 
ATOM     58  H   UNL     1       9.264  15.795  -4.536  1.00  0.00     0.167 HD
ATOM     59  C   UNL     1       9.578  18.548  -3.914  1.00  0.00     0.074 A 
ATOM     60  C   UNL     1       9.358  19.861  -3.343  1.00  0.00     0.031 C 
ATOM     61  C   UNL     1      10.614  18.238  -4.730  1.00  0.00     0.037 A 
BRANCH  48  62
ATOM     62  C   UNL     1      10.687  12.357  -6.617  1.00  0.00     0.057 A 
ATOM     63  C   UNL     1      10.141  11.896  -7.822  1.00  0.00     0.134 A 
ATOM     64  C   UNL     1      11.896  11.792  -6.195  1.00  0.00     0.134 A 
ATOM     65  F   UNL     1       8.975  12.384  -8.271  1.00  0.00    -0.206 F 
ATOM     66  C   UNL     1      10.761  10.893  -8.568  1.00  0.00     0.040 A 
ATOM     67  C   UNL     1      12.539  10.806  -6.945  1.00  0.00     0.040 A 
ATOM     68  F   UNL     1      12.472  12.190  -5.051  1.00  0.00    -0.206 F 
ATOM     69  C   UNL     1      11.969  10.350  -8.132  1.00  0.00     0.006 A 
ENDBRANCH  48  62
BRANCH  49  70
ATOM     70  C   UNL     1       5.832  19.175  -1.152  1.00  0.00     0.057 A 
ATOM     71  C   UNL     1       5.191  20.258  -1.768  1.00  0.00     0.134 A 
ATOM     72  C   UNL     1       5.808  19.122   0.246  1.00  0.00     0.134 A 
ATOM     73  F   UNL     1       5.196  20.372  -3.104  1.00  0.00    -0.206 F 
ATOM     74  C   UNL     1       4.575  21.265  -1.023  1.00  0.00     0.040 A 
ATOM     75  C   UNL     1       5.177  20.111   1.003  1.00  0.00     0.040 A 
ATOM     76  F   UNL     1       6.398  18.108   0.895  1.00  0.00    -0.206 F 
ATOM     77  C   UNL     1       4.566  21.191   0.369  1.00  0.00     0.006 A 
ENDBRANCH  49  70
BRANCH  61  78
ATOM     78  C   UNL     1      11.550  19.347  -5.100  1.00  0.00     0.057 A 
ATOM     79  C   UNL     1      12.502  19.841  -4.201  1.00  0.00     0.134 A 
ATOM     80  C   UNL     1      11.526  19.893  -6.390  1.00  0.00     0.134 A 
ATOM     81  F   UNL     1      12.564  19.366  -2.948  1.00  0.00    -0.206 F 
ATOM     82  C   UNL     1      13.389  20.853  -4.568  1.00  0.00     0.040 A 
ATOM     83  C   UNL     1      12.422  20.890  -6.774  1.00  0.00     0.040 A 
ATOM     84  F   UNL     1      10.641  19.455  -7.299  1.00  0.00    -0.206 F 
ATOM     85  C   UNL     1      13.355  21.375  -5.860  1.00  0.00     0.006 A 
ENDBRANCH  61  78
ENDBRANCH  35  36
ENDBRANCH  27  30
ENDBRANCH  25  26
ENDBRANCH  24  25
ENDBRANCH   1  24
TORSDOF 13
