REMARK SMILES CC(=O)NS(=O)(=O)c1cc(-c2ccn(C(F)F)c(=O)c2)ccc1C(=O)NCCCCNC(=O)c1ccc(-c2c3nc(c(-c4c(F)cccc4F)c4ccc([nH]4)c(-c4c(F)cccc4F)c4nc(c(-c5c(F)cccc5F)c5ccc2[nH]5)C=C4)C=C3)cc1
REMARK SMILES IDX 28 1 27 2 26 3 24 4 25 5 23 7 8 8 9 9 10 10 22 11 21 12 5 13
REMARK SMILES IDX 6 14 7 15 4 16 1 17 2 18 3 19 11 21 12 22 20 23 13 24 18 25
REMARK SMILES IDX 14 26 19 27 15 28 16 29 17 30 29 31 30 32 31 33 32 34 33 36
REMARK SMILES IDX 34 37 35 38 87 39 36 40 86 41 37 42 38 43 39 44 80 45 40 46
REMARK SMILES IDX 85 47 79 48 81 49 41 50 84 51 78 52 77 53 42 55 68 56 51 57
REMARK SMILES IDX 67 58 52 59 55 60 66 61 82 62 53 63 54 64 65 66 83 67 56 68
REMARK SMILES IDX 43 69 44 70 49 71 45 72 46 73 48 74 50 75 47 76 69 77 70 78
REMARK SMILES IDX 75 79 71 80 72 81 74 82 76 83 73 84 57 85 58 86 63 87 59 88
REMARK SMILES IDX 60 89 62 90 64 91 61 92
REMARK H PARENT 26 6 4 20 31 35 81 54 55 65
REMARK Flexibility Score: inf
ROOT
ATOM      1  C   UNL     1       1.191   4.350  -2.571  1.00  0.00     0.023 C 
ENDROOT
BRANCH   1   2
ATOM      2  C   UNL     1       2.204   4.430  -1.419  1.00  0.00     0.116 C 
BRANCH   2   3
ATOM      3  N   UNL     1       1.487   4.596  -0.170  1.00  0.00    -0.352 N 
ATOM      4  C   UNL     1       1.277   3.772   0.895  1.00  0.00     0.252 C 
ATOM      5  O   UNL     1       0.510   4.146   1.784  1.00  0.00    -0.269 OA
ATOM      6  H   UNL     1       1.068   5.481  -0.071  1.00  0.00     0.163 HD
BRANCH   4   7
ATOM      7  C   UNL     1       1.992   2.498   1.133  1.00  0.00     0.060 A 
ATOM      8  C   UNL     1       1.772   1.291   0.460  1.00  0.00     0.101 A 
ATOM      9  C   UNL     1       2.194   0.081   1.038  1.00  0.00     0.031 A 
ATOM     10  C   UNL     1       2.771   0.056   2.313  1.00  0.00    -0.017 A 
ATOM     11  C   UNL     1       2.694   2.468   2.357  1.00  0.00     0.016 A 
ATOM     12  C   UNL     1       3.073   1.258   2.949  1.00  0.00     0.009 A 
BRANCH   8  13
ATOM     13  S   UNL     1       0.865   1.207  -1.047  1.00  0.00     0.264 S 
ATOM     14  O   UNL     1       1.823   1.382  -2.104  1.00  0.00    -0.201 OA
ATOM     15  O   UNL     1      -0.328   2.022  -0.928  1.00  0.00    -0.201 OA
BRANCH  13  16
ATOM     16  N   UNL     1       0.374  -0.375  -1.189  1.00  0.00    -0.249 N 
ATOM     17  C   UNL     1      -1.457  -0.482   0.507  1.00  0.00     0.115 C 
ATOM     18  C   UNL     1      -0.861  -0.914  -0.802  1.00  0.00     0.230 C 
ATOM     19  O   UNL     1      -1.323  -1.839  -1.453  1.00  0.00    -0.274 OA
ATOM     20  H   UNL     1       1.021  -1.001  -1.588  1.00  0.00     0.183 HD
ENDBRANCH  13  16
ENDBRANCH   8  13
BRANCH  10  21
ATOM     21  C   UNL     1       2.766  -1.222   3.049  1.00  0.00    -0.011 A 
ATOM     22  C   UNL     1       1.749  -1.480   4.054  1.00  0.00     0.027 A 
ATOM     23  C   UNL     1       3.587  -2.219   2.679  1.00  0.00     0.080 A 
ATOM     24  C   UNL     1       1.564  -2.712   4.538  1.00  0.00     0.095 A 
ATOM     25  C   UNL     1       3.423  -3.590   3.249  1.00  0.00     0.255 A 
ATOM     26  N   UNL     1       2.365  -3.760   4.128  1.00  0.00    -0.258 N 
ATOM     27  O   UNL     1       4.191  -4.470   2.877  1.00  0.00    -0.269 OA
BRANCH  26  28
ATOM     28  C   UNL     1       2.105  -5.097   4.598  1.00  0.00     0.451 C 
ATOM     29  F   UNL     1       1.837  -5.928   3.561  1.00  0.00    -0.185 F 
ATOM     30  F   UNL     1       3.166  -5.595   5.275  1.00  0.00    -0.185 F 
ENDBRANCH  26  28
ENDBRANCH  10  21
ENDBRANCH   4   7
ENDBRANCH   2   3
ENDBRANCH   1   2
BRANCH   1  31
ATOM     31  C   UNL     1       1.063   5.626  -3.401  1.00  0.00     0.023 C 
BRANCH  31  32
ATOM     32  C   UNL     1       2.209   5.838  -4.386  1.00  0.00     0.116 C 
BRANCH  32  33
ATOM     33  N   UNL     1       2.289   4.784  -5.390  1.00  0.00    -0.352 N 
ATOM     34  C   UNL     1       2.379   4.871  -6.757  1.00  0.00     0.251 C 
ATOM     35  H   UNL     1       2.277   3.867  -5.032  1.00  0.00     0.163 HD
ATOM     36  O   UNL     1       2.298   3.862  -7.450  1.00  0.00    -0.269 OA
BRANCH  34  37
ATOM     37  C   UNL     1       2.544   6.188  -7.402  1.00  0.00     0.039 A 
ATOM     38  C   UNL     1       1.725   6.513  -8.487  1.00  0.00     0.014 A 
ATOM     39  C   UNL     1       3.497   7.097  -6.936  1.00  0.00     0.014 A 
ATOM     40  C   UNL     1       1.795   7.789  -9.048  1.00  0.00     0.010 A 
ATOM     41  C   UNL     1       3.537   8.382  -7.467  1.00  0.00     0.010 A 
ATOM     42  C   UNL     1       2.671   8.744  -8.509  1.00  0.00    -0.014 A 
BRANCH  42  43
ATOM     43  C   UNL     1       2.673  10.148  -8.977  1.00  0.00     0.031 A 
ATOM     44  C   UNL     1       3.877  10.706  -9.669  1.00  0.00     0.074 A 
ATOM     45  C   UNL     1       1.641  10.952  -8.661  1.00  0.00     0.049 A 
ATOM     46  N   UNL     1       4.193  11.955  -9.887  1.00  0.00    -0.248 NA
ATOM     47  C   UNL     1       4.873   9.734 -10.145  1.00  0.00     0.031 C 
ATOM     48  C   UNL     1       0.428  10.544  -7.951  1.00  0.00     0.029 A 
ATOM     49  N   UNL     1       1.466  12.294  -8.878  1.00  0.00    -0.354 N 
ATOM     50  C   UNL     1       5.465  11.927 -10.438  1.00  0.00     0.074 A 
ATOM     51  C   UNL     1       5.837  10.534 -10.581  1.00  0.00     0.031 C 
ATOM     52  C   UNL     1      -0.371  11.613  -7.800  1.00  0.00     0.029 A 
ATOM     53  C   UNL     1       0.288  12.781  -8.372  1.00  0.00     0.049 A 
ATOM     54  H   UNL     1       2.123  12.854  -9.352  1.00  0.00     0.167 HD
ATOM     55  C   UNL     1       6.263  12.973 -10.752  1.00  0.00     0.037 A 
ATOM     56  C   UNL     1      -0.197  14.035  -8.357  1.00  0.00     0.037 A 
ATOM     57  C   UNL     1       5.870  14.353 -10.662  1.00  0.00     0.049 A 
ATOM     58  C   UNL     1       0.617  15.150  -8.934  1.00  0.00     0.074 A 
ATOM     59  C   UNL     1       6.622  15.491 -10.896  1.00  0.00     0.029 A 
ATOM     60  N   UNL     1       4.589  14.777 -10.347  1.00  0.00    -0.354 N 
ATOM     61  N   UNL     1       1.853  15.123  -9.367  1.00  0.00    -0.248 NA
ATOM     62  C   UNL     1      -0.027  16.468  -9.022  1.00  0.00     0.031 C 
ATOM     63  C   UNL     1       5.784  16.606 -10.754  1.00  0.00     0.029 A 
ATOM     64  C   UNL     1       4.514  16.157 -10.431  1.00  0.00     0.049 A 
ATOM     65  H   UNL     1       3.843  14.185 -10.100  1.00  0.00     0.167 HD
ATOM     66  C   UNL     1       2.143  16.420  -9.762  1.00  0.00     0.074 A 
ATOM     67  C   UNL     1       0.945  17.206  -9.542  1.00  0.00     0.031 C 
ATOM     68  C   UNL     1       3.308  16.917 -10.240  1.00  0.00     0.037 A 
BRANCH  55  69
ATOM     69  C   UNL     1       7.660  12.651 -11.170  1.00  0.00     0.057 A 
ATOM     70  C   UNL     1       7.983  12.357 -12.498  1.00  0.00     0.134 A 
ATOM     71  C   UNL     1       8.692  12.630 -10.224  1.00  0.00     0.134 A 
ATOM     72  F   UNL     1       7.030  12.341 -13.442  1.00  0.00    -0.206 F 
ATOM     73  C   UNL     1       9.291  12.045 -12.871  1.00  0.00     0.040 A 
ATOM     74  C   UNL     1      10.004  12.327 -10.586  1.00  0.00     0.040 A 
ATOM     75  F   UNL     1       8.437  12.894  -8.933  1.00  0.00    -0.206 F 
ATOM     76  C   UNL     1      10.306  12.032 -11.914  1.00  0.00     0.006 A 
ENDBRANCH  55  69
BRANCH  56  77
ATOM     77  C   UNL     1      -1.531  14.292  -7.777  1.00  0.00     0.057 A 
ATOM     78  C   UNL     1      -2.674  14.277  -8.582  1.00  0.00     0.134 A 
ATOM     79  C   UNL     1      -1.695  14.527  -6.409  1.00  0.00     0.134 A 
ATOM     80  F   UNL     1      -2.567  14.065  -9.902  1.00  0.00    -0.206 F 
ATOM     81  C   UNL     1      -3.943  14.489  -8.045  1.00  0.00     0.040 A 
ATOM     82  C   UNL     1      -2.959  14.736  -5.857  1.00  0.00     0.040 A 
ATOM     83  F   UNL     1      -0.632  14.547  -5.593  1.00  0.00    -0.206 F 
ATOM     84  C   UNL     1      -4.088  14.717  -6.677  1.00  0.00     0.006 A 
ENDBRANCH  56  77
BRANCH  68  85
ATOM     85  C   UNL     1       3.332  18.372 -10.570  1.00  0.00     0.057 A 
ATOM     86  C   UNL     1       3.695  19.324  -9.611  1.00  0.00     0.134 A 
ATOM     87  C   UNL     1       3.001  18.824 -11.851  1.00  0.00     0.134 A 
ATOM     88  F   UNL     1       4.013  18.947  -8.364  1.00  0.00    -0.206 F 
ATOM     89  C   UNL     1       3.725  20.685  -9.917  1.00  0.00     0.040 A 
ATOM     90  C   UNL     1       3.026  20.182 -12.169  1.00  0.00     0.040 A 
ATOM     91  F   UNL     1       2.633  17.955 -12.805  1.00  0.00    -0.206 F 
ATOM     92  C   UNL     1       3.389  21.116 -11.200  1.00  0.00     0.006 A 
ENDBRANCH  68  85
ENDBRANCH  42  43
ENDBRANCH  34  37
ENDBRANCH  32  33
ENDBRANCH  31  32
ENDBRANCH   1  31
TORSDOF 15
