REMARK SMILES Cc1noc(C)c1C[NH2+][C@H](C)[C@H](C)C(=O)NCCCCNC(=O)c1ccc(-c2c3nc(c(-c4c(F)cccc4F)c4ccc([nH]4)c(-c4c(F)cccc4F)c4nc(c(-c5c(F)cccc5F)c5ccc2[nH]5)C=C4)C=C3)cc1
REMARK SMILES IDX 17 1 16 2 14 3 15 4 12 6 13 7 10 8 11 9 9 10 8 13 7 14 1 15
REMARK SMILES IDX 2 16 3 17 4 18 5 19 6 20 18 21 19 22 20 23 21 24 22 25 23 27
REMARK SMILES IDX 24 28 25 29 77 30 26 31 76 32 27 33 28 34 29 35 70 36 30 37
REMARK SMILES IDX 75 38 69 39 71 40 31 41 74 42 68 43 67 44 32 46 58 47 41 48
REMARK SMILES IDX 57 49 42 50 45 51 56 52 72 53 43 54 44 55 55 57 73 58 46 59
REMARK SMILES IDX 33 60 34 61 39 62 35 63 36 64 38 65 40 66 37 67 59 68 60 69
REMARK SMILES IDX 65 70 61 71 62 72 64 73 66 74 63 75 47 76 48 77 53 78 49 79
REMARK SMILES IDX 50 80 52 81 54 82 51 83
REMARK H PARENT 16 5 9 11 9 12 21 26 71 45 45 56
REMARK Flexibility Score: inf
ROOT
ATOM      1  C   UNL     1      -2.583   6.470  -0.027  1.00  0.00     0.116 C 
ENDROOT
BRANCH   1   2
ATOM      2  N   UNL     1      -1.962   7.063  -1.196  1.00  0.00    -0.356 N 
ATOM      3  C   UNL     1      -1.445   6.492  -2.317  1.00  0.00     0.228 C 
ATOM      4  O   UNL     1      -0.980   7.244  -3.178  1.00  0.00    -0.275 OA
ATOM      5  H   UNL     1      -1.906   8.046  -1.174  1.00  0.00     0.163 HD
BRANCH   3   6
ATOM      6  C   UNL     1      -1.439   4.977  -2.528  1.00  0.00     0.133 C 
ATOM      7  C   UNL     1      -0.557   4.340  -1.444  1.00  0.00     0.024 C 
BRANCH   6   8
ATOM      8  C   UNL     1      -2.880   4.403  -2.689  1.00  0.00     0.191 C 
ATOM      9  C   UNL     1      -3.704   5.253  -3.680  1.00  0.00     0.076 C 
BRANCH   8  10
ATOM     10  N   UNL     1      -3.059   3.010  -3.136  1.00  0.00    -0.339 N 
ATOM     11  H   UNL     1      -3.933   2.675  -2.732  1.00  0.00     0.346 HD
ATOM     12  H   UNL     1      -3.026   3.069  -4.154  1.00  0.00     0.346 HD
BRANCH  10  13
ATOM     13  C   UNL     1      -2.037   2.039  -2.805  1.00  0.00     0.303 C 
BRANCH  13  14
ATOM     14  C   UNL     1      -2.555   0.697  -3.168  1.00  0.00     0.071 A 
ATOM     15  C   UNL     1      -4.208   0.246  -1.202  1.00  0.00     0.071 C 
ATOM     16  C   UNL     1      -3.499  -0.094  -2.458  1.00  0.00     0.090 A 
ATOM     17  N   UNL     1      -3.717  -1.265  -3.066  1.00  0.00    -0.085 NA
ATOM     18  O   UNL     1      -2.921  -1.254  -4.196  1.00  0.00    -0.361 OA
ATOM     19  C   UNL     1      -2.231  -0.086  -4.256  1.00  0.00     0.142 A 
ATOM     20  C   UNL     1      -1.329   0.086  -5.410  1.00  0.00     0.091 C 
ENDBRANCH  13  14
ENDBRANCH  10  13
ENDBRANCH   8  10
ENDBRANCH   6   8
ENDBRANCH   3   6
ENDBRANCH   1   2
BRANCH   1  21
ATOM     21  C   UNL     1      -1.887   6.882   1.267  1.00  0.00     0.023 C 
BRANCH  21  22
ATOM     22  C   UNL     1      -1.977   8.371   1.597  1.00  0.00     0.023 C 
BRANCH  22  23
ATOM     23  C   UNL     1      -3.389   8.947   1.623  1.00  0.00     0.116 C 
BRANCH  23  24
ATOM     24  N   UNL     1      -4.257   8.289   2.588  1.00  0.00    -0.352 N 
ATOM     25  C   UNL     1      -5.038   8.847   3.571  1.00  0.00     0.251 C 
ATOM     26  H   UNL     1      -4.289   7.306   2.528  1.00  0.00     0.163 HD
ATOM     27  O   UNL     1      -5.618   8.136   4.385  1.00  0.00    -0.269 OA
BRANCH  25  28
ATOM     28  C   UNL     1      -5.143  10.317   3.665  1.00  0.00     0.039 A 
ATOM     29  C   UNL     1      -4.904  10.934   4.894  1.00  0.00     0.014 A 
ATOM     30  C   UNL     1      -5.422  11.082   2.529  1.00  0.00     0.014 A 
ATOM     31  C   UNL     1      -4.857  12.327   4.967  1.00  0.00     0.010 A 
ATOM     32  C   UNL     1      -5.303  12.467   2.588  1.00  0.00     0.010 A 
ATOM     33  C   UNL     1      -5.008  13.102   3.805  1.00  0.00    -0.014 A 
BRANCH  33  34
ATOM     34  C   UNL     1      -4.837  14.576   3.835  1.00  0.00     0.031 A 
ATOM     35  C   UNL     1      -5.991  15.479   3.504  1.00  0.00     0.074 A 
ATOM     36  C   UNL     1      -3.620  15.099   4.082  1.00  0.00     0.049 A 
ATOM     37  N   UNL     1      -6.016  16.783   3.398  1.00  0.00    -0.248 NA
ATOM     38  C   UNL     1      -7.281  14.828   3.226  1.00  0.00     0.031 C 
ATOM     39  C   UNL     1      -2.406  14.328   4.361  1.00  0.00     0.029 A 
ATOM     40  N   UNL     1      -3.199  16.404   4.123  1.00  0.00    -0.354 N 
ATOM     41  C   UNL     1      -7.314  17.106   3.027  1.00  0.00     0.074 A 
ATOM     42  C   UNL     1      -8.034  15.860   2.877  1.00  0.00     0.031 C 
ATOM     43  C   UNL     1      -1.384  15.174   4.566  1.00  0.00     0.029 A 
ATOM     44  C   UNL     1      -1.860  16.544   4.399  1.00  0.00     0.049 A 
ATOM     45  H   UNL     1      -3.800  17.169   3.971  1.00  0.00     0.167 HD
ATOM     46  C   UNL     1      -7.862  18.331   2.850  1.00  0.00     0.037 A 
ATOM     47  C   UNL     1      -1.100  17.651   4.498  1.00  0.00     0.037 A 
ATOM     48  C   UNL     1      -7.154  19.570   3.031  1.00  0.00     0.049 A 
ATOM     49  C   UNL     1      -1.734  18.999   4.299  1.00  0.00     0.074 A 
ATOM     50  C   UNL     1      -7.643  20.862   2.950  1.00  0.00     0.029 A 
ATOM     51  N   UNL     1      -5.803  19.670   3.328  1.00  0.00    -0.354 N 
ATOM     52  N   UNL     1      -2.981  19.292   4.022  1.00  0.00    -0.248 NA
ATOM     53  C   UNL     1      -0.854  20.170   4.427  1.00  0.00     0.031 C 
ATOM     54  C   UNL     1      -6.579  21.746   3.160  1.00  0.00     0.029 A 
ATOM     55  C   UNL     1      -5.436  21.003   3.410  1.00  0.00     0.049 A 
ATOM     56  H   UNL     1      -5.196  18.907   3.460  1.00  0.00     0.167 HD
ATOM     57  C   UNL     1      -3.041  20.678   3.964  1.00  0.00     0.074 A 
ATOM     58  C   UNL     1      -1.708  21.168   4.249  1.00  0.00     0.031 C 
ATOM     59  C   UNL     1      -4.105  21.473   3.697  1.00  0.00     0.037 A 
BRANCH  46  60
ATOM     60  C   UNL     1      -9.306  18.388   2.448  1.00  0.00     0.057 A 
ATOM     61  C   UNL     1     -10.333  18.058   3.343  1.00  0.00     0.134 A 
ATOM     62  C   UNL     1      -9.677  18.807   1.164  1.00  0.00     0.134 A 
ATOM     63  F   UNL     1     -10.044  17.637   4.583  1.00  0.00    -0.206 F 
ATOM     64  C   UNL     1     -11.676  18.117   2.966  1.00  0.00     0.040 A 
ATOM     65  C   UNL     1     -11.017  18.894   0.784  1.00  0.00     0.040 A 
ATOM     66  F   UNL     1      -8.743  19.142   0.261  1.00  0.00    -0.206 F 
ATOM     67  C   UNL     1     -12.021  18.542   1.685  1.00  0.00     0.006 A 
ENDBRANCH  46  60
BRANCH  47  68
ATOM     68  C   UNL     1       0.343  17.534   4.824  1.00  0.00     0.057 A 
ATOM     69  C   UNL     1       0.831  17.925   6.075  1.00  0.00     0.134 A 
ATOM     70  C   UNL     1       1.266  17.039   3.896  1.00  0.00     0.134 A 
ATOM     71  F   UNL     1      -0.003  18.425   6.999  1.00  0.00    -0.206 F 
ATOM     72  C   UNL     1       2.189  17.845   6.388  1.00  0.00     0.040 A 
ATOM     73  C   UNL     1       2.624  16.932   4.202  1.00  0.00     0.040 A 
ATOM     74  F   UNL     1       0.859  16.642   2.681  1.00  0.00    -0.206 F 
ATOM     75  C   UNL     1       3.089  17.342   5.450  1.00  0.00     0.006 A 
ENDBRANCH  47  68
BRANCH  59  76
ATOM     76  C   UNL     1      -3.877  22.955   3.721  1.00  0.00     0.057 A 
ATOM     77  C   UNL     1      -3.194  23.610   2.690  1.00  0.00     0.134 A 
ATOM     78  C   UNL     1      -4.385  23.739   4.765  1.00  0.00     0.134 A 
ATOM     79  F   UNL     1      -2.671  22.913   1.670  1.00  0.00    -0.206 F 
ATOM     80  C   UNL     1      -3.010  24.994   2.703  1.00  0.00     0.040 A 
ATOM     81  C   UNL     1      -4.227  25.125   4.777  1.00  0.00     0.040 A 
ATOM     82  F   UNL     1      -5.055  23.172   5.779  1.00  0.00    -0.206 F 
ATOM     83  C   UNL     1      -3.534  25.756   3.746  1.00  0.00     0.006 A 
ENDBRANCH  59  76
ENDBRANCH  33  34
ENDBRANCH  25  28
ENDBRANCH  23  24
ENDBRANCH  22  23
ENDBRANCH  21  22
ENDBRANCH   1  21
TORSDOF 15
