REMARK SMILES O=C(NCCCCNC(=O)c1ccc(-c2c3nc(c(-c4c(F)cccc4F)c4ccc([nH]4)c(-c4c(F)cccc4F)c4nc(c(-c5c(F)cccc5F)c5ccc2[nH]5)C=C4)C=C3)cc1)c1ccc(Cn2cc(Cl)c(=O)[nH]c2=O)cc1
REMARK SMILES IDX 5 1 4 2 3 3 1 4 2 5 65 7 66 8 80 9 67 10 79 11 68 12 69 13
REMARK SMILES IDX 70 14 71 15 77 16 72 17 76 18 78 19 73 20 74 21 75 23 6 24
REMARK SMILES IDX 7 25 8 26 9 27 10 29 11 30 12 31 64 32 13 33 63 34 14 35
REMARK SMILES IDX 15 36 16 37 57 38 17 39 62 40 56 41 58 42 18 43 61 44 55 45
REMARK SMILES IDX 54 46 19 48 45 49 28 50 44 51 29 52 32 53 43 54 59 55 30 56
REMARK SMILES IDX 31 57 42 59 60 60 33 61 20 62 21 63 26 64 22 65 23 66 25 67
REMARK SMILES IDX 27 68 24 69 46 70 47 71 52 72 48 73 49 74 51 75 53 76 50 77
REMARK SMILES IDX 34 78 35 79 40 80 36 81 37 82 39 83 41 84 38 85
REMARK H PARENT 3 6 76 22 8 28 58 47 32 58
REMARK Flexibility Score: inf
ROOT
ATOM      1  C   UNL     1       4.999  -2.254   0.802  1.00  0.00     0.023 C 
ENDROOT
BRANCH   1   2
ATOM      2  C   UNL     1       4.592  -1.129  -0.146  1.00  0.00     0.116 C 
BRANCH   2   3
ATOM      3  N   UNL     1       3.149  -0.967  -0.230  1.00  0.00    -0.352 N 
ATOM      4  O   UNL     1       1.159   0.051   0.139  1.00  0.00    -0.269 OA
ATOM      5  C   UNL     1       2.384   0.111   0.145  1.00  0.00     0.251 C 
ATOM      6  H   UNL     1       2.654  -1.731  -0.605  1.00  0.00     0.163 HD
BRANCH   5   7
ATOM      7  C   UNL     1       3.062   1.348   0.573  1.00  0.00     0.039 A 
ATOM      8  C   UNL     1       3.884   2.037  -0.323  1.00  0.00     0.014 A 
ATOM      9  C   UNL     1       2.909   1.790   1.887  1.00  0.00     0.014 A 
ATOM     10  C   UNL     1       4.622   3.129   0.126  1.00  0.00     0.006 A 
ATOM     11  C   UNL     1       3.661   2.878   2.336  1.00  0.00     0.006 A 
ATOM     12  C   UNL     1       4.544   3.541   1.467  1.00  0.00    -0.028 A 
BRANCH  12  13
ATOM     13  C   UNL     1       5.443   4.646   1.982  1.00  0.00     0.162 C 
BRANCH  13  14
ATOM     14  N   UNL     1       6.719   4.135   2.500  1.00  0.00    -0.295 N 
ATOM     15  C   UNL     1       7.662   3.624   1.623  1.00  0.00     0.117 A 
ATOM     16  C   UNL     1       6.953   4.179   3.870  1.00  0.00     0.328 A 
ATOM     17  C   UNL     1       8.836   3.133   2.031  1.00  0.00     0.122 A 
ATOM     18  N   UNL     1       8.172   3.694   4.277  1.00  0.00    -0.273 N 
ATOM     19  O   UNL     1       6.157   4.615   4.697  1.00  0.00    -0.248 OA
ATOM     20  Cl  UNL     1       9.980   2.479   0.933  1.00  0.00    -0.077 Cl
ATOM     21  C   UNL     1       9.150   3.162   3.478  1.00  0.00     0.272 A 
ATOM     22  H   UNL     1       8.363   3.733   5.242  1.00  0.00     0.175 HD
ATOM     23  O   UNL     1      10.204   2.746   3.946  1.00  0.00    -0.268 OA
ENDBRANCH  13  14
ENDBRANCH  12  13
ENDBRANCH   5   7
ENDBRANCH   2   3
ENDBRANCH   1   2
BRANCH   1  24
ATOM     24  C   UNL     1       4.536  -3.651   0.390  1.00  0.00     0.023 C 
BRANCH  24  25
ATOM     25  C   UNL     1       4.923  -4.083  -1.020  1.00  0.00     0.116 C 
BRANCH  25  26
ATOM     26  N   UNL     1       6.361  -4.119  -1.238  1.00  0.00    -0.352 N 
ATOM     27  C   UNL     1       7.126  -5.106  -1.813  1.00  0.00     0.251 C 
ATOM     28  H   UNL     1       6.855  -3.326  -0.929  1.00  0.00     0.163 HD
ATOM     29  O   UNL     1       8.350  -5.014  -1.819  1.00  0.00    -0.269 OA
BRANCH  27  30
ATOM     30  C   UNL     1       6.473  -6.298  -2.396  1.00  0.00     0.039 A 
ATOM     31  C   UNL     1       6.963  -7.566  -2.066  1.00  0.00     0.014 A 
ATOM     32  C   UNL     1       5.373  -6.170  -3.246  1.00  0.00     0.014 A 
ATOM     33  C   UNL     1       6.301  -8.706  -2.528  1.00  0.00     0.010 A 
ATOM     34  C   UNL     1       4.675  -7.305  -3.649  1.00  0.00     0.010 A 
ATOM     35  C   UNL     1       5.130  -8.585  -3.292  1.00  0.00    -0.014 A 
BRANCH  35  36
ATOM     36  C   UNL     1       4.360  -9.775  -3.737  1.00  0.00     0.031 A 
ATOM     37  C   UNL     1       4.215 -10.065  -5.205  1.00  0.00     0.074 A 
ATOM     38  C   UNL     1       3.719 -10.540  -2.832  1.00  0.00     0.049 A 
ATOM     39  N   UNL     1       3.472 -10.961  -5.803  1.00  0.00    -0.248 NA
ATOM     40  C   UNL     1       4.986  -9.213  -6.125  1.00  0.00     0.031 C 
ATOM     41  C   UNL     1       3.747 -10.344  -1.381  1.00  0.00     0.029 A 
ATOM     42  N   UNL     1       2.898 -11.627  -3.003  1.00  0.00    -0.354 N 
ATOM     43  C   UNL     1       3.663 -10.761  -7.164  1.00  0.00     0.074 A 
ATOM     44  C   UNL     1       4.562  -9.637  -7.306  1.00  0.00     0.031 C 
ATOM     45  C   UNL     1       2.986 -11.284  -0.796  1.00  0.00     0.029 A 
ATOM     46  C   UNL     1       2.386 -12.123  -1.828  1.00  0.00     0.049 A 
ATOM     47  H   UNL     1       2.695 -12.015  -3.885  1.00  0.00     0.167 HD
ATOM     48  C   UNL     1       3.149 -11.463  -8.202  1.00  0.00     0.037 A 
ATOM     49  C   UNL     1       1.518 -13.130  -1.610  1.00  0.00     0.037 A 
ATOM     50  C   UNL     1       2.291 -12.609  -8.060  1.00  0.00     0.049 A 
ATOM     51  C   UNL     1       0.974 -13.902  -2.780  1.00  0.00     0.074 A 
ATOM     52  C   UNL     1       1.769 -13.422  -9.051  1.00  0.00     0.029 A 
ATOM     53  N   UNL     1       1.835 -13.107  -6.850  1.00  0.00    -0.354 N 
ATOM     54  N   UNL     1       1.204 -13.735  -4.060  1.00  0.00    -0.248 NA
ATOM     55  C   UNL     1       0.051 -15.005  -2.477  1.00  0.00     0.031 C 
ATOM     56  C   UNL     1       0.972 -14.396  -8.441  1.00  0.00     0.029 A 
ATOM     57  C   UNL     1       1.030 -14.212  -7.070  1.00  0.00     0.049 A 
ATOM     58  H   UNL     1       2.051 -12.732  -5.965  1.00  0.00     0.167 HD
ATOM     59  C   UNL     1       0.487 -14.732  -4.709  1.00  0.00     0.074 A 
ATOM     60  C   UNL     1      -0.183 -15.502  -3.683  1.00  0.00     0.031 C 
ATOM     61  C   UNL     1       0.395 -14.986  -6.036  1.00  0.00     0.037 A 
BRANCH  48  62
ATOM     62  C   UNL     1       3.509 -11.017  -9.588  1.00  0.00     0.057 A 
ATOM     63  C   UNL     1       4.791 -11.215 -10.116  1.00  0.00     0.134 A 
ATOM     64  C   UNL     1       2.549 -10.428 -10.420  1.00  0.00     0.134 A 
ATOM     65  F   UNL     1       5.758 -11.763  -9.365  1.00  0.00    -0.206 F 
ATOM     66  C   UNL     1       5.112 -10.825 -11.417  1.00  0.00     0.040 A 
ATOM     67  C   UNL     1       2.851 -10.057 -11.731  1.00  0.00     0.040 A 
ATOM     68  F   UNL     1       1.301 -10.216  -9.978  1.00  0.00    -0.206 F 
ATOM     69  C   UNL     1       4.137 -10.251 -12.231  1.00  0.00     0.006 A 
ENDBRANCH  48  62
BRANCH  49  70
ATOM     70  C   UNL     1       1.115 -13.482  -0.225  1.00  0.00     0.057 A 
ATOM     71  C   UNL     1       1.544 -14.676   0.367  1.00  0.00     0.134 A 
ATOM     72  C   UNL     1       0.274 -12.654   0.527  1.00  0.00     0.134 A 
ATOM     73  F   UNL     1       2.334 -15.520  -0.312  1.00  0.00    -0.206 F 
ATOM     74  C   UNL     1       1.132 -15.046   1.649  1.00  0.00     0.040 A 
ATOM     75  C   UNL     1      -0.126 -13.000   1.819  1.00  0.00     0.040 A 
ATOM     76  F   UNL     1      -0.166 -11.494   0.018  1.00  0.00    -0.206 F 
ATOM     77  C   UNL     1       0.296 -14.204   2.379  1.00  0.00     0.006 A 
ENDBRANCH  49  70
BRANCH  61  78
ATOM     78  C   UNL     1      -0.412 -16.178  -6.456  1.00  0.00     0.057 A 
ATOM     79  C   UNL     1      -1.811 -16.172  -6.430  1.00  0.00     0.134 A 
ATOM     80  C   UNL     1       0.225 -17.326  -6.946  1.00  0.00     0.134 A 
ATOM     81  F   UNL     1      -2.478 -15.107  -5.960  1.00  0.00    -0.206 F 
ATOM     82  C   UNL     1      -2.550 -17.274  -6.864  1.00  0.00     0.040 A 
ATOM     83  C   UNL     1      -0.504 -18.424  -7.403  1.00  0.00     0.040 A 
ATOM     84  F   UNL     1       1.564 -17.390  -7.004  1.00  0.00    -0.206 F 
ATOM     85  C   UNL     1      -1.896 -18.401  -7.359  1.00  0.00     0.006 A 
ENDBRANCH  61  78
ENDBRANCH  35  36
ENDBRANCH  27  30
ENDBRANCH  25  26
ENDBRANCH  24  25
ENDBRANCH   1  24
TORSDOF 13
