REMARK SMILES C/C(=N\Nc1ccccc1C(=O)NCCCCNC(=O)c1ccc(-c2c3nc(c(-c4c(F)cccc4F)c4ccc([nH]4)c(-c4c(F)cccc4F)c4nc(c(-c5c(F)cccc5F)c5ccc2[nH]5)C=C4)C=C3)cc1)c1ccc(S(C)(=O)=O)cc1
REMARK SMILES IDX 14 1 13 2 11 3 12 4 10 6 5 7 6 8 7 9 9 10 8 11 4 12 3 14
REMARK SMILES IDX 1 15 2 16 75 17 76 18 84 19 77 20 83 21 78 22 79 23 80 24
REMARK SMILES IDX 81 25 82 26 15 27 16 28 17 29 18 30 19 31 20 33 21 34 22 35
REMARK SMILES IDX 74 36 23 37 73 38 24 39 25 40 26 41 67 42 27 43 72 44 66 45
REMARK SMILES IDX 68 46 28 47 71 48 65 49 64 50 29 52 55 53 38 54 54 55 39 56
REMARK SMILES IDX 42 57 53 58 69 59 40 60 41 61 52 63 70 64 43 65 30 66 31 67
REMARK SMILES IDX 36 68 32 69 33 70 35 71 37 72 34 73 56 74 57 75 62 76 58 77
REMARK SMILES IDX 59 78 61 79 63 80 60 81 44 82 45 83 50 84 46 85 47 86 49 87
REMARK SMILES IDX 51 88 48 89
REMARK H PARENT 13 5 4 13 18 32 68 51 42 62
REMARK Flexibility Score: inf
ROOT
ATOM      1  C   UNL     1      -2.127   1.090  -1.655  1.00  0.00     0.116 C 
ENDROOT
BRANCH   1   2
ATOM      2  N   UNL     1      -1.883   0.802  -0.253  1.00  0.00    -0.352 N 
ATOM      3  C   UNL     1      -1.079  -0.175   0.300  1.00  0.00     0.253 C 
ATOM      4  O   UNL     1      -0.938  -0.192   1.524  1.00  0.00    -0.269 OA
ATOM      5  H   UNL     1      -2.354   1.380   0.389  1.00  0.00     0.163 HD
BRANCH   3   6
ATOM      6  C   UNL     1      -0.483  -1.277  -0.509  1.00  0.00     0.064 A 
ATOM      7  C   UNL     1       0.221  -1.128  -1.715  1.00  0.00     0.069 A 
ATOM      8  C   UNL     1       0.549  -2.300  -2.438  1.00  0.00     0.028 A 
ATOM      9  C   UNL     1       0.314  -3.575  -1.927  1.00  0.00     0.002 A 
ATOM     10  C   UNL     1      -0.662  -2.571   0.027  1.00  0.00     0.016 A 
ATOM     11  C   UNL     1      -0.249  -3.710  -0.667  1.00  0.00     0.001 A 
BRANCH   7  12
ATOM     12  N   UNL     1       0.822   0.053  -2.201  1.00  0.00    -0.277 N 
ATOM     13  H   UNL     1       1.142   0.037  -3.132  1.00  0.00     0.190 HD
BRANCH  12  14
ATOM     14  N   UNL     1       1.003   1.201  -1.519  1.00  0.00    -0.180 NA
ATOM     15  C   UNL     1       2.467   0.091   0.205  1.00  0.00     0.069 C 
ATOM     16  C   UNL     1       1.755   1.247  -0.458  1.00  0.00     0.065 C 
BRANCH  16  17
ATOM     17  C   UNL     1       1.945   2.585   0.159  1.00  0.00    -0.002 A 
ATOM     18  C   UNL     1       0.827   3.340   0.530  1.00  0.00     0.011 A 
ATOM     19  C   UNL     1       3.230   3.123   0.268  1.00  0.00     0.011 A 
ATOM     20  C   UNL     1       0.987   4.650   0.984  1.00  0.00     0.021 A 
ATOM     21  C   UNL     1       3.397   4.427   0.735  1.00  0.00     0.021 A 
ATOM     22  C   UNL     1       2.272   5.191   1.065  1.00  0.00     0.067 A 
BRANCH  22  23
ATOM     23  S   UNL     1       2.501   6.858   1.639  1.00  0.00     0.175 S 
ATOM     24  C   UNL     1       2.718   7.788   0.145  1.00  0.00     0.163 C 
ATOM     25  O   UNL     1       1.249   7.285   2.241  1.00  0.00    -0.224 OA
ATOM     26  O   UNL     1       3.743   6.893   2.379  1.00  0.00    -0.224 OA
ENDBRANCH  22  23
ENDBRANCH  16  17
ENDBRANCH  12  14
ENDBRANCH   7  12
ENDBRANCH   3   6
ENDBRANCH   1   2
BRANCH   1  27
ATOM     27  C   UNL     1      -3.304   2.023  -1.926  1.00  0.00     0.023 C 
BRANCH  27  28
ATOM     28  C   UNL     1      -3.187   3.447  -1.371  1.00  0.00     0.023 C 
BRANCH  28  29
ATOM     29  C   UNL     1      -1.930   4.242  -1.721  1.00  0.00     0.116 C 
BRANCH  29  30
ATOM     30  N   UNL     1      -1.815   4.647  -3.111  1.00  0.00    -0.352 N 
ATOM     31  C   UNL     1      -1.626   5.890  -3.673  1.00  0.00     0.251 C 
ATOM     32  H   UNL     1      -1.882   3.910  -3.760  1.00  0.00     0.163 HD
ATOM     33  O   UNL     1      -1.521   5.990  -4.894  1.00  0.00    -0.269 OA
BRANCH  31  34
ATOM     34  C   UNL     1      -1.597   7.125  -2.848  1.00  0.00     0.039 A 
ATOM     35  C   UNL     1      -2.300   8.243  -3.308  1.00  0.00     0.014 A 
ATOM     36  C   UNL     1      -0.887   7.212  -1.648  1.00  0.00     0.014 A 
ATOM     37  C   UNL     1      -2.359   9.406  -2.533  1.00  0.00     0.010 A 
ATOM     38  C   UNL     1      -1.017   8.340  -0.834  1.00  0.00     0.010 A 
ATOM     39  C   UNL     1      -1.751   9.452  -1.269  1.00  0.00    -0.014 A 
BRANCH  39  40
ATOM     40  C   UNL     1      -1.909  10.643  -0.392  1.00  0.00     0.031 A 
ATOM     41  C   UNL     1      -0.729  11.506  -0.036  1.00  0.00     0.074 A 
ATOM     42  C   UNL     1      -3.122  10.926   0.121  1.00  0.00     0.049 A 
ATOM     43  N   UNL     1      -0.689  12.595   0.691  1.00  0.00    -0.248 NA
ATOM     44  C   UNL     1       0.582  11.080  -0.546  1.00  0.00     0.031 C 
ATOM     45  C   UNL     1      -4.333  10.131  -0.090  1.00  0.00     0.029 A 
ATOM     46  N   UNL     1      -3.538  11.959   0.923  1.00  0.00    -0.354 N 
ATOM     47  C   UNL     1       0.646  12.977   0.733  1.00  0.00     0.074 A 
ATOM     48  C   UNL     1       1.392  11.973   0.005  1.00  0.00     0.031 C 
ATOM     49  C   UNL     1      -5.361  10.721   0.539  1.00  0.00     0.029 A 
ATOM     50  C   UNL     1      -4.879  11.919   1.220  1.00  0.00     0.049 A 
ATOM     51  H   UNL     1      -2.933  12.661   1.256  1.00  0.00     0.167 HD
ATOM     52  C   UNL     1       1.196  14.078   1.302  1.00  0.00     0.037 A 
ATOM     53  C   UNL     1      -5.638  12.758   1.950  1.00  0.00     0.037 A 
ATOM     54  C   UNL     1       0.446  15.084   2.012  1.00  0.00     0.049 A 
ATOM     55  C   UNL     1      -5.009  13.982   2.556  1.00  0.00     0.074 A 
ATOM     56  C   UNL     1       0.901  16.269   2.566  1.00  0.00     0.029 A 
ATOM     57  N   UNL     1      -0.914  15.019   2.274  1.00  0.00    -0.354 N 
ATOM     58  N   UNL     1      -3.761  14.381   2.507  1.00  0.00    -0.248 NA
ATOM     59  C   UNL     1      -5.899  14.883   3.301  1.00  0.00     0.031 C 
ATOM     60  C   UNL     1      -0.174  16.897   3.204  1.00  0.00     0.029 A 
ATOM     61  C   UNL     1      -1.312  16.135   2.994  1.00  0.00     0.049 A 
ATOM     62  H   UNL     1      -1.510  14.289   1.991  1.00  0.00     0.167 HD
ATOM     63  C   UNL     1      -3.723  15.595   3.182  1.00  0.00     0.074 A 
ATOM     64  C   UNL     1      -5.076  15.872   3.617  1.00  0.00     0.031 C 
ATOM     65  C   UNL     1      -2.663  16.407   3.417  1.00  0.00     0.037 A 
BRANCH  52  66
ATOM     66  C   UNL     1       2.683  14.263   1.173  1.00  0.00     0.057 A 
ATOM     67  C   UNL     1       3.290  14.545  -0.058  1.00  0.00     0.134 A 
ATOM     68  C   UNL     1       3.514  14.214   2.301  1.00  0.00     0.134 A 
ATOM     69  F   UNL     1       2.557  14.601  -1.181  1.00  0.00    -0.206 F 
ATOM     70  C   UNL     1       4.668  14.744  -0.169  1.00  0.00     0.040 A 
ATOM     71  C   UNL     1       4.889  14.440   2.208  1.00  0.00     0.040 A 
ATOM     72  F   UNL     1       3.002  13.961   3.515  1.00  0.00    -0.206 F 
ATOM     73  C   UNL     1       5.471  14.699   0.969  1.00  0.00     0.006 A 
ENDBRANCH  52  66
BRANCH  53  74
ATOM     74  C   UNL     1      -7.092  12.494   2.107  1.00  0.00     0.057 A 
ATOM     75  C   UNL     1      -8.046  13.313   1.493  1.00  0.00     0.134 A 
ATOM     76  C   UNL     1      -7.561  11.421   2.874  1.00  0.00     0.134 A 
ATOM     77  F   UNL     1      -7.660  14.366   0.758  1.00  0.00    -0.206 F 
ATOM     78  C   UNL     1      -9.415  13.089   1.652  1.00  0.00     0.040 A 
ATOM     79  C   UNL     1      -8.926  11.168   3.019  1.00  0.00     0.040 A 
ATOM     80  F   UNL     1      -6.698  10.592   3.480  1.00  0.00    -0.206 F 
ATOM     81  C   UNL     1      -9.857  12.009   2.414  1.00  0.00     0.006 A 
ENDBRANCH  53  74
BRANCH  65  82
ATOM     82  C   UNL     1      -2.934  17.700   4.133  1.00  0.00     0.057 A 
ATOM     83  C   UNL     1      -3.288  17.744   5.487  1.00  0.00     0.134 A 
ATOM     84  C   UNL     1      -2.821  18.922   3.456  1.00  0.00     0.134 A 
ATOM     85  F   UNL     1      -3.425  16.611   6.192  1.00  0.00    -0.206 F 
ATOM     86  C   UNL     1      -3.554  18.954   6.133  1.00  0.00     0.040 A 
ATOM     87  C   UNL     1      -3.053  20.139   4.099  1.00  0.00     0.040 A 
ATOM     88  F   UNL     1      -2.475  18.955   2.160  1.00  0.00    -0.206 F 
ATOM     89  C   UNL     1      -3.431  20.156   5.440  1.00  0.00     0.006 A 
ENDBRANCH  65  82
ENDBRANCH  39  40
ENDBRANCH  31  34
ENDBRANCH  29  30
ENDBRANCH  28  29
ENDBRANCH  27  28
ENDBRANCH   1  27
TORSDOF 15
