REMARK SMILES C[C@H]1[C@@H](C(=O)NCCCCNC(=O)c2ccc(-c3c4nc(c(-c5c(F)cccc5F)c5ccc([nH]5)c(-c5c(F)cccc5F)c5nc(c(-c6c(F)cccc6F)c6ccc3[nH]6)C=C5)C=C4)cc2)CC[N@@H+]1CC(=O)NNC(=O)c1cccs1
REMARK SMILES IDX 7 1 6 2 4 3 5 4 3 6 1 7 2 8 70 9 68 10 69 11 71 13 72 14
REMARK SMILES IDX 73 15 74 16 75 18 76 19 77 21 78 22 79 23 82 24 80 25 81 26
REMARK SMILES IDX 8 27 9 28 10 29 11 30 12 31 13 33 14 34 15 35 67 36 16 37
REMARK SMILES IDX 66 38 17 39 18 40 19 41 60 42 20 43 65 44 59 45 61 46 21 47
REMARK SMILES IDX 64 48 58 49 57 50 22 52 48 53 31 54 47 55 32 56 35 57 46 58
REMARK SMILES IDX 62 59 33 60 34 61 45 63 63 64 36 65 23 66 24 67 29 68 25 69
REMARK SMILES IDX 26 70 28 71 30 72 27 73 49 74 50 75 55 76 51 77 52 78 54 79
REMARK SMILES IDX 56 80 53 81 37 82 38 83 43 84 39 85 40 86 42 87 44 88 41 89
REMARK H PARENT 6 5 70 12 74 17 75 20 11 32 61 51 35 62
REMARK Flexibility Score: inf
ROOT
ATOM      1  C   UNL     1       2.758   1.410  -1.149  1.00  0.00     0.116 C 
ENDROOT
BRANCH   1   2
ATOM      2  N   UNL     1       1.532   1.686  -1.867  1.00  0.00    -0.356 N 
ATOM      3  C   UNL     1       0.267   1.253  -1.608  1.00  0.00     0.229 C 
ATOM      4  O   UNL     1      -0.552   1.353  -2.524  1.00  0.00    -0.275 OA
ATOM      5  H   UNL     1       1.626   2.269  -2.654  1.00  0.00     0.163 HD
BRANCH   3   6
ATOM      6  C   UNL     1      -0.116   0.780  -0.205  1.00  0.00     0.142 C 
ATOM      7  C   UNL     1       1.074  -1.536  -0.669  1.00  0.00     0.076 C 
ATOM      8  C   UNL     1       0.369  -0.596   0.300  1.00  0.00     0.194 C 
ATOM      9  N   UNL     1      -0.819  -1.329   0.750  1.00  0.00    -0.324 N 
ATOM     10  C   UNL     1      -1.645   0.728  -0.037  1.00  0.00     0.081 C 
ATOM     11  C   UNL     1      -1.969  -0.748   0.069  1.00  0.00     0.263 C 
ATOM     12  H   UNL     1      -0.733  -2.306   0.471  1.00  0.00     0.348 HD
BRANCH   9  13
ATOM     13  C   UNL     1      -0.944  -1.563   2.192  1.00  0.00     0.365 C 
BRANCH  13  14
ATOM     14  C   UNL     1      -1.524  -0.408   3.006  1.00  0.00     0.293 C 
ATOM     15  O   UNL     1      -2.743  -0.247   3.117  1.00  0.00    -0.267 OA
ATOM     16  N   UNL     1      -0.698   0.472   3.655  1.00  0.00    -0.262 N 
ATOM     17  H   UNL     1      -1.121   1.125   4.258  1.00  0.00     0.191 HD
BRANCH  16  18
ATOM     18  N   UNL     1       0.690   0.524   3.535  1.00  0.00    -0.263 N 
ATOM     19  C   UNL     1       1.395   1.710   3.367  1.00  0.00     0.279 C 
ATOM     20  H   UNL     1       1.196  -0.320   3.570  1.00  0.00     0.191 HD
ATOM     21  O   UNL     1       2.484   1.650   2.794  1.00  0.00    -0.266 OA
BRANCH  19  22
ATOM     22  C   UNL     1       0.815   2.936   3.893  1.00  0.00     0.094 A 
ATOM     23  C   UNL     1       0.128   3.147   5.076  1.00  0.00     0.026 A 
ATOM     24  S   UNL     1       1.020   4.401   3.027  1.00  0.00    -0.139 S 
ATOM     25  C   UNL     1      -0.272   4.504   5.243  1.00  0.00     0.012 A 
ATOM     26  C   UNL     1       0.150   5.294   4.198  1.00  0.00     0.065 A 
ENDBRANCH  19  22
ENDBRANCH  16  18
ENDBRANCH  13  14
ENDBRANCH   9  13
ENDBRANCH   3   6
ENDBRANCH   1   2
BRANCH   1  27
ATOM     27  C   UNL     1       3.519   0.295  -1.870  1.00  0.00     0.023 C 
BRANCH  27  28
ATOM     28  C   UNL     1       4.315   0.739  -3.085  1.00  0.00     0.023 C 
BRANCH  28  29
ATOM     29  C   UNL     1       5.511   1.608  -2.754  1.00  0.00     0.116 C 
BRANCH  29  30
ATOM     30  N   UNL     1       6.466   0.960  -1.864  1.00  0.00    -0.352 N 
ATOM     31  C   UNL     1       7.829   0.808  -2.014  1.00  0.00     0.251 C 
ATOM     32  H   UNL     1       6.085   0.576  -1.041  1.00  0.00     0.163 HD
ATOM     33  O   UNL     1       8.477   0.135  -1.236  1.00  0.00    -0.269 OA
BRANCH  31  34
ATOM     34  C   UNL     1       8.475   1.454  -3.174  1.00  0.00     0.039 A 
ATOM     35  C   UNL     1       9.308   0.695  -3.998  1.00  0.00     0.014 A 
ATOM     36  C   UNL     1       8.166   2.776  -3.494  1.00  0.00     0.014 A 
ATOM     37  C   UNL     1       9.755   1.240  -5.202  1.00  0.00     0.010 A 
ATOM     38  C   UNL     1       8.513   3.272  -4.741  1.00  0.00     0.010 A 
ATOM     39  C   UNL     1       9.317   2.513  -5.604  1.00  0.00    -0.014 A 
BRANCH  39  40
ATOM     40  C   UNL     1       9.698   3.092  -6.915  1.00  0.00     0.031 A 
ATOM     41  C   UNL     1      10.457   4.390  -6.954  1.00  0.00     0.074 A 
ATOM     42  C   UNL     1       9.284   2.509  -8.056  1.00  0.00     0.049 A 
ATOM     43  N   UNL     1      10.776   5.131  -7.983  1.00  0.00    -0.248 NA
ATOM     44  C   UNL     1      10.866   4.956  -5.658  1.00  0.00     0.031 C 
ATOM     45  C   UNL     1       8.479   1.289  -8.148  1.00  0.00     0.029 A 
ATOM     46  N   UNL     1       9.477   2.877  -9.364  1.00  0.00    -0.354 N 
ATOM     47  C   UNL     1      11.383   6.262  -7.455  1.00  0.00     0.074 A 
ATOM     48  C   UNL     1      11.335   6.140  -6.015  1.00  0.00     0.031 C 
ATOM     49  C   UNL     1       8.276   0.991  -9.442  1.00  0.00     0.029 A 
ATOM     50  C   UNL     1       8.906   2.015 -10.269  1.00  0.00     0.049 A 
ATOM     51  H   UNL     1       9.976   3.683  -9.629  1.00  0.00     0.167 HD
ATOM     52  C   UNL     1      11.960   7.296  -8.109  1.00  0.00     0.037 A 
ATOM     53  C   UNL     1       8.898   2.049 -11.614  1.00  0.00     0.037 A 
ATOM     54  C   UNL     1      12.068   7.379  -9.540  1.00  0.00     0.049 A 
ATOM     55  C   UNL     1       9.601   3.174 -12.320  1.00  0.00     0.074 A 
ATOM     56  C   UNL     1      12.708   8.338 -10.303  1.00  0.00     0.029 A 
ATOM     57  N   UNL     1      11.531   6.453 -10.421  1.00  0.00    -0.354 N 
ATOM     58  N   UNL     1      10.230   4.205 -11.809  1.00  0.00    -0.248 NA
ATOM     59  C   UNL     1       9.600   3.138 -13.790  1.00  0.00     0.031 C 
ATOM     60  C   UNL     1      12.541   8.003 -11.651  1.00  0.00     0.029 A 
ATOM     61  C   UNL     1      11.822   6.820 -11.723  1.00  0.00     0.049 A 
ATOM     62  H   UNL     1      11.019   5.654 -10.160  1.00  0.00     0.167 HD
ATOM     63  C   UNL     1      10.720   4.926 -12.890  1.00  0.00     0.074 A 
ATOM     64  C   UNL     1      10.325   4.208 -14.085  1.00  0.00     0.031 C 
ATOM     65  C   UNL     1      11.429   6.080 -12.894  1.00  0.00     0.037 A 
BRANCH  52  66
ATOM     66  C   UNL     1      12.536   8.401  -7.275  1.00  0.00     0.057 A 
ATOM     67  C   UNL     1      13.692   8.217  -6.504  1.00  0.00     0.134 A 
ATOM     68  C   UNL     1      11.931   9.663  -7.242  1.00  0.00     0.134 A 
ATOM     69  F   UNL     1      14.309   7.026  -6.477  1.00  0.00    -0.206 F 
ATOM     70  C   UNL     1      14.207   9.239  -5.705  1.00  0.00     0.040 A 
ATOM     71  C   UNL     1      12.452  10.701  -6.468  1.00  0.00     0.040 A 
ATOM     72  F   UNL     1      10.823   9.907  -7.958  1.00  0.00    -0.206 F 
ATOM     73  C   UNL     1      13.589  10.487  -5.690  1.00  0.00     0.006 A 
ENDBRANCH  52  66
BRANCH  53  74
ATOM     74  C   UNL     1       8.242   0.963 -12.383  1.00  0.00     0.057 A 
ATOM     75  C   UNL     1       9.005   0.013 -13.073  1.00  0.00     0.134 A 
ATOM     76  C   UNL     1       6.850   0.847 -12.451  1.00  0.00     0.134 A 
ATOM     77  F   UNL     1      10.344   0.084 -13.058  1.00  0.00    -0.206 F 
ATOM     78  C   UNL     1       8.407  -1.003 -13.820  1.00  0.00     0.040 A 
ATOM     79  C   UNL     1       6.238  -0.177 -13.177  1.00  0.00     0.040 A 
ATOM     80  F   UNL     1       6.065   1.720 -11.805  1.00  0.00    -0.206 F 
ATOM     81  C   UNL     1       7.018  -1.102 -13.870  1.00  0.00     0.006 A 
ENDBRANCH  53  74
BRANCH  65  82
ATOM     82  C   UNL     1      11.850   6.617 -14.227  1.00  0.00     0.057 A 
ATOM     83  C   UNL     1      10.943   7.253 -15.084  1.00  0.00     0.134 A 
ATOM     84  C   UNL     1      13.187   6.540 -14.636  1.00  0.00     0.134 A 
ATOM     85  F   UNL     1       9.647   7.346 -14.752  1.00  0.00    -0.206 F 
ATOM     86  C   UNL     1      11.349   7.779 -16.310  1.00  0.00     0.040 A 
ATOM     87  C   UNL     1      13.609   7.081 -15.850  1.00  0.00     0.040 A 
ATOM     88  F   UNL     1      14.105   5.950 -13.855  1.00  0.00    -0.206 F 
ATOM     89  C   UNL     1      12.688   7.699 -16.693  1.00  0.00     0.006 A 
ENDBRANCH  65  82
ENDBRANCH  39  40
ENDBRANCH  31  34
ENDBRANCH  29  30
ENDBRANCH  28  29
ENDBRANCH  27  28
ENDBRANCH   1  27
TORSDOF 15
