REMARK SMILES CC[C@@H](C(=O)NCCCCNC(=O)c1ccc(-c2c3nc(c(-c4c(F)cccc4F)c4ccc([nH]4)c(-c4c(F)cccc4F)c4nc(c(-c5c(F)cccc5F)c5ccc2[nH]5)C=C4)C=C3)cc1)N1C(=O)/C(=C\c2ccc(C(=O)OC)cc2)SC1=S
REMARK SMILES IDX 7 1 6 2 4 3 5 4 3 6 2 7 1 8 68 9 69 10 84 11 70 12 71 13
REMARK SMILES IDX 83 14 85 15 72 16 73 17 74 18 82 19 75 20 81 21 76 22 77 23
REMARK SMILES IDX 78 24 79 25 80 26 8 27 9 28 10 29 11 30 12 31 13 33 14 34
REMARK SMILES IDX 15 35 67 36 16 37 66 38 17 39 18 40 19 41 60 42 20 43 65 44
REMARK SMILES IDX 59 45 61 46 21 47 64 48 58 49 57 50 22 52 48 53 31 54 47 55
REMARK SMILES IDX 32 56 35 57 46 58 62 59 33 60 34 61 45 63 63 64 36 65 23 66
REMARK SMILES IDX 24 67 29 68 25 69 26 70 28 71 30 72 27 73 49 74 50 75 55 76
REMARK SMILES IDX 51 77 52 78 54 79 56 80 53 81 37 82 38 83 43 84 39 85 40 86
REMARK SMILES IDX 42 87 44 88 41 89
REMARK H PARENT 6 5 11 32 61 51 35 62
REMARK Flexibility Score: inf
ROOT
ATOM      1  C   UNL     1       1.651  -0.669   1.976  1.00  0.00     0.116 C 
ENDROOT
BRANCH   1   2
ATOM      2  N   UNL     1       0.603  -1.663   1.840  1.00  0.00    -0.354 N 
ATOM      3  C   UNL     1       0.128  -2.318   0.739  1.00  0.00     0.243 C 
ATOM      4  O   UNL     1      -0.873  -3.024   0.901  1.00  0.00    -0.273 OA
ATOM      5  H   UNL     1       0.159  -1.907   2.684  1.00  0.00     0.163 HD
BRANCH   3   6
ATOM      6  C   UNL     1       0.832  -2.211  -0.640  1.00  0.00     0.181 C 
BRANCH   6   7
ATOM      7  C   UNL     1       0.449  -0.969  -1.464  1.00  0.00     0.032 C 
ATOM      8  C   UNL     1       1.104   0.360  -1.137  1.00  0.00     0.006 C 
ENDBRANCH   6   7
BRANCH   6   9
ATOM      9  N   UNL     1       0.548  -3.512  -1.347  1.00  0.00    -0.280 N 
ATOM     10  C   UNL     1       1.249  -4.626  -0.886  1.00  0.00     0.266 C 
ATOM     11  C   UNL     1      -0.421  -3.790  -2.297  1.00  0.00     0.149 C 
ATOM     12  O   UNL     1       2.125  -4.600  -0.032  1.00  0.00    -0.268 OA
ATOM     13  C   UNL     1       0.778  -5.869  -1.570  1.00  0.00     0.081 C 
ATOM     14  S   UNL     1      -0.218  -5.437  -2.897  1.00  0.00    -0.054 SA
ATOM     15  S   UNL     1      -1.655  -2.865  -2.935  1.00  0.00    -0.052 S 
ATOM     16  C   UNL     1       0.961  -7.150  -1.222  1.00  0.00     0.029 C 
BRANCH  16  17
ATOM     17  C   UNL     1       1.594  -7.592   0.016  1.00  0.00    -0.024 A 
ATOM     18  C   UNL     1       2.841  -8.219  -0.008  1.00  0.00     0.009 A 
ATOM     19  C   UNL     1       0.936  -7.392   1.236  1.00  0.00     0.009 A 
ATOM     20  C   UNL     1       3.455  -8.591   1.190  1.00  0.00     0.016 A 
ATOM     21  C   UNL     1       1.547  -7.764   2.432  1.00  0.00     0.016 A 
ATOM     22  C   UNL     1       2.822  -8.344   2.417  1.00  0.00     0.060 A 
BRANCH  22  23
ATOM     23  C   UNL     1       3.549  -8.680   3.669  1.00  0.00     0.337 C 
ATOM     24  O   UNL     1       4.633  -9.244   3.694  1.00  0.00    -0.246 OA
BRANCH  23  25
ATOM     25  O   UNL     1       2.860  -8.232   4.748  1.00  0.00    -0.465 OA
ATOM     26  C   UNL     1       3.530  -8.429   5.992  1.00  0.00     0.282 C 
ENDBRANCH  23  25
ENDBRANCH  22  23
ENDBRANCH  16  17
ENDBRANCH   6   9
ENDBRANCH   3   6
ENDBRANCH   1   2
BRANCH   1  27
ATOM     27  C   UNL     1       1.039   0.717   2.204  1.00  0.00     0.023 C 
BRANCH  27  28
ATOM     28  C   UNL     1       0.656   1.028   3.644  1.00  0.00     0.023 C 
BRANCH  28  29
ATOM     29  C   UNL     1       1.829   1.150   4.602  1.00  0.00     0.116 C 
BRANCH  29  30
ATOM     30  N   UNL     1       2.749   2.227   4.259  1.00  0.00    -0.352 N 
ATOM     31  C   UNL     1       3.257   3.220   5.065  1.00  0.00     0.251 C 
ATOM     32  H   UNL     1       3.049   2.246   3.322  1.00  0.00     0.163 HD
ATOM     33  O   UNL     1       3.932   4.125   4.588  1.00  0.00    -0.269 OA
BRANCH  31  34
ATOM     34  C   UNL     1       2.943   3.205   6.509  1.00  0.00     0.039 A 
ATOM     35  C   UNL     1       2.507   4.380   7.124  1.00  0.00     0.014 A 
ATOM     36  C   UNL     1       3.016   2.013   7.233  1.00  0.00     0.014 A 
ATOM     37  C   UNL     1       2.061   4.337   8.446  1.00  0.00     0.010 A 
ATOM     38  C   UNL     1       2.468   1.951   8.507  1.00  0.00     0.010 A 
ATOM     39  C   UNL     1       1.993   3.113   9.132  1.00  0.00    -0.014 A 
BRANCH  39  40
ATOM     40  C   UNL     1       1.446   3.024  10.509  1.00  0.00     0.031 A 
ATOM     41  C   UNL     1       2.317   2.525  11.629  1.00  0.00     0.074 A 
ATOM     42  C   UNL     1       0.152   3.324  10.738  1.00  0.00     0.049 A 
ATOM     43  N   UNL     1       2.011   2.310  12.883  1.00  0.00    -0.248 NA
ATOM     44  C   UNL     1       3.710   2.190  11.288  1.00  0.00     0.031 C 
ATOM     45  C   UNL     1      -0.810   3.763   9.726  1.00  0.00     0.029 A 
ATOM     46  N   UNL     1      -0.579   3.299  11.899  1.00  0.00    -0.354 N 
ATOM     47  C   UNL     1       3.164   1.804  13.470  1.00  0.00     0.074 A 
ATOM     48  C   UNL     1       4.152   1.673  12.423  1.00  0.00     0.031 C 
ATOM     49  C   UNL     1      -1.993   4.000  10.316  1.00  0.00     0.029 A 
ATOM     50  C   UNL     1      -1.887   3.689  11.737  1.00  0.00     0.049 A 
ATOM     51  H   UNL     1      -0.202   3.028  12.767  1.00  0.00     0.167 HD
ATOM     52  C   UNL     1       3.391   1.505  14.771  1.00  0.00     0.037 A 
ATOM     53  C   UNL     1      -2.887   3.781  12.634  1.00  0.00     0.037 A 
ATOM     54  C   UNL     1       2.413   1.659  15.813  1.00  0.00     0.049 A 
ATOM     55  C   UNL     1      -2.613   3.430  14.071  1.00  0.00     0.074 A 
ATOM     56  C   UNL     1       2.558   1.440  17.171  1.00  0.00     0.029 A 
ATOM     57  N   UNL     1       1.103   2.069  15.611  1.00  0.00    -0.354 N 
ATOM     58  N   UNL     1      -1.497   3.023  14.626  1.00  0.00    -0.248 NA
ATOM     59  C   UNL     1      -3.738   3.558  15.009  1.00  0.00     0.031 C 
ATOM     60  C   UNL     1       1.321   1.665  17.784  1.00  0.00     0.029 A 
ATOM     61  C   UNL     1       0.422   2.085  16.816  1.00  0.00     0.049 A 
ATOM     62  H   UNL     1       0.716   2.313  14.739  1.00  0.00     0.167 HD
ATOM     63  C   UNL     1      -1.775   2.878  15.980  1.00  0.00     0.074 A 
ATOM     64  C   UNL     1      -3.161   3.255  16.163  1.00  0.00     0.031 C 
ATOM     65  C   UNL     1      -0.957   2.471  16.981  1.00  0.00     0.037 A 
BRANCH  52  66
ATOM     66  C   UNL     1       4.754   0.986  15.133  1.00  0.00     0.057 A 
ATOM     67  C   UNL     1       5.897   1.794  15.063  1.00  0.00     0.134 A 
ATOM     68  C   UNL     1       4.924  -0.332  15.576  1.00  0.00     0.134 A 
ATOM     69  F   UNL     1       5.809   3.062  14.633  1.00  0.00    -0.206 F 
ATOM     70  C   UNL     1       7.162   1.303  15.389  1.00  0.00     0.040 A 
ATOM     71  C   UNL     1       6.179  -0.825  15.936  1.00  0.00     0.040 A 
ATOM     72  F   UNL     1       3.873  -1.160  15.671  1.00  0.00    -0.206 F 
ATOM     73  C   UNL     1       7.304  -0.010  15.835  1.00  0.00     0.006 A 
ENDBRANCH  52  66
BRANCH  53  74
ATOM     74  C   UNL     1      -4.232   4.248  12.209  1.00  0.00     0.057 A 
ATOM     75  C   UNL     1      -4.736   5.483  12.634  1.00  0.00     0.134 A 
ATOM     76  C   UNL     1      -5.051   3.471  11.381  1.00  0.00     0.134 A 
ATOM     77  F   UNL     1      -4.007   6.266  13.443  1.00  0.00    -0.206 F 
ATOM     78  C   UNL     1      -6.012   5.918  12.273  1.00  0.00     0.040 A 
ATOM     79  C   UNL     1      -6.318   3.906  10.988  1.00  0.00     0.040 A 
ATOM     80  F   UNL     1      -4.625   2.281  10.930  1.00  0.00    -0.206 F 
ATOM     81  C   UNL     1      -6.805   5.130  11.442  1.00  0.00     0.006 A 
ENDBRANCH  53  74
BRANCH  65  82
ATOM     82  C   UNL     1      -1.526   2.451  18.370  1.00  0.00     0.057 A 
ATOM     83  C   UNL     1      -2.483   1.509  18.768  1.00  0.00     0.134 A 
ATOM     84  C   UNL     1      -1.078   3.363  19.334  1.00  0.00     0.134 A 
ATOM     85  F   UNL     1      -2.963   0.615  17.890  1.00  0.00    -0.206 F 
ATOM     86  C   UNL     1      -2.993   1.492  20.067  1.00  0.00     0.040 A 
ATOM     87  C   UNL     1      -1.556   3.336  20.644  1.00  0.00     0.040 A 
ATOM     88  F   UNL     1      -0.154   4.285  19.023  1.00  0.00    -0.206 F 
ATOM     89  C   UNL     1      -2.523   2.403  21.012  1.00  0.00     0.006 A 
ENDBRANCH  65  82
ENDBRANCH  39  40
ENDBRANCH  31  34
ENDBRANCH  29  30
ENDBRANCH  28  29
ENDBRANCH  27  28
ENDBRANCH   1  27
TORSDOF 16
