REMARK SMILES Cc1cc(-c2cc(C(=O)NCCCCNC(=O)c3ccc(-c4c5nc(c(-c6c(F)cccc6F)c6ccc([nH]6)c(-c6c(F)cccc6F)c6nc(c(-c7c(F)cccc7F)c7ccc4[nH]7)C=C6)C=C5)cc3)c[nH]c2=O)ccc1Cl
REMARK SMILES IDX 13 1 12 2 11 3 10 4 8 5 9 6 7 8 5 9 6 10 74 11 73 12 75 13
REMARK SMILES IDX 72 14 4 16 1 17 2 18 3 19 78 20 77 21 79 22 76 23 14 24
REMARK SMILES IDX 15 25 16 26 17 28 18 29 19 30 71 31 20 32 70 33 21 34 22 35
REMARK SMILES IDX 23 36 64 37 24 38 69 39 63 40 65 41 25 42 68 43 62 44 61 45
REMARK SMILES IDX 26 47 52 48 35 49 51 50 36 51 39 52 50 53 66 54 37 55 38 56
REMARK SMILES IDX 49 58 67 59 40 60 27 61 28 62 33 63 29 64 30 65 32 66 34 67
REMARK SMILES IDX 31 68 53 69 54 70 59 71 55 72 56 73 58 74 60 75 57 76 41 77
REMARK SMILES IDX 42 78 47 79 43 80 44 81 46 82 48 83 45 84
REMARK H PARENT 10 7 73 15 15 27 65 46 39 57
REMARK Flexibility Score: inf
ROOT
ATOM      1  C   UNL     1      -4.742  -1.451   5.700  1.00  0.00     0.023 C 
ENDROOT
BRANCH   1   2
ATOM      2  C   UNL     1      -4.340  -1.212   4.240  1.00  0.00     0.023 C 
BRANCH   2   3
ATOM      3  C   UNL     1      -5.094  -2.086   3.233  1.00  0.00     0.116 C 
BRANCH   3   4
ATOM      4  N   UNL     1      -6.407  -1.535   2.964  1.00  0.00    -0.352 N 
ATOM      5  C   UNL     1      -6.879  -0.671   2.024  1.00  0.00     0.252 C 
ATOM      6  O   UNL     1      -8.076  -0.380   2.098  1.00  0.00    -0.269 OA
ATOM      7  H   UNL     1      -7.100  -1.851   3.588  1.00  0.00     0.163 HD
BRANCH   5   8
ATOM      8  C   UNL     1      -6.036  -0.131   0.905  1.00  0.00     0.056 A 
ATOM      9  C   UNL     1      -3.908   0.282  -0.235  1.00  0.00     0.048 A 
ATOM     10  C   UNL     1      -4.591  -0.056   0.875  1.00  0.00     0.029 A 
ATOM     11  C   UNL     1      -4.672   0.764  -1.429  1.00  0.00     0.255 A 
ATOM     12  N   UNL     1      -6.042   0.768  -1.288  1.00  0.00    -0.328 N 
ATOM     13  O   UNL     1      -4.126   1.143  -2.459  1.00  0.00    -0.269 OA
ATOM     14  C   UNL     1      -6.707   0.319  -0.172  1.00  0.00     0.099 A 
ATOM     15  H   UNL     1      -6.580   1.115  -2.036  1.00  0.00     0.169 HD
BRANCH   9  16
ATOM     16  C   UNL     1      -2.444   0.156  -0.227  1.00  0.00    -0.012 A 
ATOM     17  C   UNL     1       0.645   2.373  -0.043  1.00  0.00     0.046 C 
ATOM     18  C   UNL     1      -0.216   1.144  -0.099  1.00  0.00    -0.032 A 
ATOM     19  C   UNL     1      -1.614   1.282  -0.189  1.00  0.00     0.014 A 
ATOM     20  C   UNL     1       0.337  -0.146  -0.063  1.00  0.00     0.044 A 
ATOM     21  C   UNL     1      -0.484  -1.273  -0.116  1.00  0.00     0.021 A 
ATOM     22  Cl  UNL     1       2.042  -0.399   0.057  1.00  0.00    -0.084 Cl
ATOM     23  C   UNL     1      -1.868  -1.123  -0.197  1.00  0.00     0.010 A 
ENDBRANCH   9  16
ENDBRANCH   5   8
ENDBRANCH   3   4
ENDBRANCH   2   3
ENDBRANCH   1   2
BRANCH   1  24
ATOM     24  C   UNL     1      -4.448  -2.852   6.223  1.00  0.00     0.116 C 
BRANCH  24  25
ATOM     25  N   UNL     1      -3.047  -3.224   6.119  1.00  0.00    -0.352 N 
ATOM     26  C   UNL     1      -2.326  -4.083   6.916  1.00  0.00     0.251 C 
ATOM     27  H   UNL     1      -2.547  -2.805   5.381  1.00  0.00     0.163 HD
ATOM     28  O   UNL     1      -1.123  -4.210   6.757  1.00  0.00    -0.269 OA
BRANCH  26  29
ATOM     29  C   UNL     1      -3.019  -4.821   7.995  1.00  0.00     0.039 A 
ATOM     30  C   UNL     1      -2.446  -4.835   9.268  1.00  0.00     0.014 A 
ATOM     31  C   UNL     1      -4.225  -5.484   7.756  1.00  0.00     0.014 A 
ATOM     32  C   UNL     1      -3.110  -5.473  10.316  1.00  0.00     0.010 A 
ATOM     33  C   UNL     1      -4.922  -6.054   8.816  1.00  0.00     0.010 A 
ATOM     34  C   UNL     1      -4.366  -6.065  10.104  1.00  0.00    -0.014 A 
BRANCH  34  35
ATOM     35  C   UNL     1      -5.095  -6.728  11.213  1.00  0.00     0.031 A 
ATOM     36  C   UNL     1      -5.353  -8.209  11.164  1.00  0.00     0.074 A 
ATOM     37  C   UNL     1      -5.559  -5.993  12.242  1.00  0.00     0.049 A 
ATOM     38  N   UNL     1      -6.005  -8.964  12.012  1.00  0.00    -0.248 NA
ATOM     39  C   UNL     1      -4.835  -8.933   9.992  1.00  0.00     0.031 C 
ATOM     40  C   UNL     1      -5.423  -4.542  12.377  1.00  0.00     0.029 A 
ATOM     41  N   UNL     1      -6.248  -6.368  13.368  1.00  0.00    -0.354 N 
ATOM     42  C   UNL     1      -5.977 -10.245  11.475  1.00  0.00     0.074 A 
ATOM     43  C   UNL     1      -5.306 -10.153  10.196  1.00  0.00     0.031 C 
ATOM     44  C   UNL     1      -5.991  -4.153  13.530  1.00  0.00     0.029 A 
ATOM     45  C   UNL     1      -6.554  -5.320  14.201  1.00  0.00     0.049 A 
ATOM     46  H   UNL     1      -6.499  -7.301  13.560  1.00  0.00     0.167 HD
ATOM     47  C   UNL     1      -6.437 -11.400  12.011  1.00  0.00     0.037 A 
ATOM     48  C   UNL     1      -7.215  -5.305  15.374  1.00  0.00     0.037 A 
ATOM     49  C   UNL     1      -7.089 -11.492  13.291  1.00  0.00     0.049 A 
ATOM     50  C   UNL     1      -7.703  -6.603  15.957  1.00  0.00     0.074 A 
ATOM     51  C   UNL     1      -7.574 -12.617  13.934  1.00  0.00     0.029 A 
ATOM     52  N   UNL     1      -7.339 -10.414  14.126  1.00  0.00    -0.354 N 
ATOM     53  N   UNL     1      -7.622  -7.815  15.462  1.00  0.00    -0.248 NA
ATOM     54  C   UNL     1      -8.356  -6.534  17.271  1.00  0.00     0.031 C 
ATOM     55  C   UNL     1      -8.144 -12.216  15.147  1.00  0.00     0.029 A 
ATOM     56  C   UNL     1      -7.971 -10.847  15.280  1.00  0.00     0.049 A 
ATOM     57  H   UNL     1      -7.102  -9.479  13.929  1.00  0.00     0.167 HD
ATOM     58  C   UNL     1      -8.181  -8.654  16.417  1.00  0.00     0.074 A 
ATOM     59  C   UNL     1      -8.582  -7.814  17.527  1.00  0.00     0.031 C 
ATOM     60  C   UNL     1      -8.348  -9.999  16.381  1.00  0.00     0.037 A 
BRANCH  47  61
ATOM     61  C   UNL     1      -6.229 -12.657  11.218  1.00  0.00     0.057 A 
ATOM     62  C   UNL     1      -4.952 -13.209  11.038  1.00  0.00     0.134 A 
ATOM     63  C   UNL     1      -7.311 -13.337  10.646  1.00  0.00     0.134 A 
ATOM     64  F   UNL     1      -3.871 -12.599  11.546  1.00  0.00    -0.206 F 
ATOM     65  C   UNL     1      -4.757 -14.375  10.296  1.00  0.00     0.040 A 
ATOM     66  C   UNL     1      -7.131 -14.520   9.926  1.00  0.00     0.040 A 
ATOM     67  F   UNL     1      -8.560 -12.868  10.782  1.00  0.00    -0.206 F 
ATOM     68  C   UNL     1      -5.850 -15.038   9.744  1.00  0.00     0.006 A 
ENDBRANCH  47  61
BRANCH  48  69
ATOM     69  C   UNL     1      -7.428  -4.024  16.095  1.00  0.00     0.057 A 
ATOM     70  C   UNL     1      -6.764  -3.748  17.296  1.00  0.00     0.134 A 
ATOM     71  C   UNL     1      -8.316  -3.056  15.612  1.00  0.00     0.134 A 
ATOM     72  F   UNL     1      -5.913  -4.644  17.817  1.00  0.00    -0.206 F 
ATOM     73  C   UNL     1      -6.998  -2.571  18.008  1.00  0.00     0.040 A 
ATOM     74  C   UNL     1      -8.539  -1.862  16.300  1.00  0.00     0.040 A 
ATOM     75  F   UNL     1      -8.974  -3.253  14.461  1.00  0.00    -0.206 F 
ATOM     76  C   UNL     1      -7.887  -1.622  17.508  1.00  0.00     0.006 A 
ENDBRANCH  48  69
BRANCH  60  77
ATOM     77  C   UNL     1      -8.940 -10.647  17.598  1.00  0.00     0.057 A 
ATOM     78  C   UNL     1     -10.289 -10.494  17.941  1.00  0.00     0.134 A 
ATOM     79  C   UNL     1      -8.149 -11.452  18.427  1.00  0.00     0.134 A 
ATOM     80  F   UNL     1     -11.098  -9.727  17.194  1.00  0.00    -0.206 F 
ATOM     81  C   UNL     1     -10.823 -11.092  19.084  1.00  0.00     0.040 A 
ATOM     82  C   UNL     1      -8.677 -12.078  19.557  1.00  0.00     0.040 A 
ATOM     83  F   UNL     1      -6.851 -11.649  18.150  1.00  0.00    -0.206 F 
ATOM     84  C   UNL     1     -10.016 -11.890  19.893  1.00  0.00     0.006 A 
ENDBRANCH  60  77
ENDBRANCH  34  35
ENDBRANCH  26  29
ENDBRANCH  24  25
ENDBRANCH   1  24
TORSDOF 12
