REMARK SMILES Cc1ccc(Cl)c(Nc2ccccc2C(=O)NCC(=O)NCCCCNC(=O)c2ccc(-c3c4nc(c(-c5c(F)cccc5F)c5ccc([nH]5)c(-c5c(F)cccc5F)c5nc(c(-c6c(F)cccc6F)c6ccc3[nH]6)C=C5)C=C4)cc2)c1Cl
REMARK SMILES IDX 22 1 21 2 19 3 20 4 18 6 17 7 15 8 16 9 14 11 9 12 10 13
REMARK SMILES IDX 11 14 13 15 12 16 8 17 7 19 1 20 2 21 3 22 83 23 4 24 84 25
REMARK SMILES IDX 5 26 6 27 23 28 24 29 25 30 26 31 27 32 28 34 29 35 30 36
REMARK SMILES IDX 82 37 31 38 81 39 32 40 33 41 34 42 75 43 35 44 80 45 74 46
REMARK SMILES IDX 76 47 36 48 79 49 73 50 72 51 37 53 63 54 46 55 62 56 47 57
REMARK SMILES IDX 50 58 61 59 77 60 48 61 49 62 60 64 78 65 51 66 38 67 39 68
REMARK SMILES IDX 44 69 40 70 41 71 43 72 45 73 42 74 64 75 65 76 70 77 66 78
REMARK SMILES IDX 67 79 69 80 71 81 68 82 52 83 53 84 58 85 54 86 55 87 57 88
REMARK SMILES IDX 59 89 56 90
REMARK H PARENT 21 5 17 10 8 18 26 33 76 52 50 63
REMARK Flexibility Score: inf
ROOT
ATOM      1  C   UNL     1      -1.631  -3.550   2.539  1.00  0.00     0.116 C 
ENDROOT
BRANCH   1   2
ATOM      2  N   UNL     1      -2.543  -2.436   2.479  1.00  0.00    -0.355 N 
ATOM      3  C   UNL     1      -2.206  -1.120   2.372  1.00  0.00     0.239 C 
ATOM      4  O   UNL     1      -3.095  -0.276   2.497  1.00  0.00    -0.273 OA
ATOM      5  H   UNL     1      -3.504  -2.647   2.518  1.00  0.00     0.163 HD
BRANCH   3   6
ATOM      6  C   UNL     1      -0.829  -0.753   1.825  1.00  0.00     0.216 C 
BRANCH   6   7
ATOM      7  N   UNL     1       0.429  -1.200   2.384  1.00  0.00    -0.343 N 
ATOM      8  C   UNL     1       1.515  -1.841   1.835  1.00  0.00     0.253 C 
ATOM      9  O   UNL     1       2.576  -1.673   2.449  1.00  0.00    -0.269 OA
ATOM     10  H   UNL     1       0.527  -1.007   3.344  1.00  0.00     0.164 HD
BRANCH   8  11
ATOM     11  C   UNL     1       1.499  -2.863   0.724  1.00  0.00     0.063 A 
ATOM     12  C   UNL     1       0.805  -2.902  -0.508  1.00  0.00     0.051 A 
ATOM     13  C   UNL     1       0.915  -4.078  -1.299  1.00  0.00     0.027 A 
ATOM     14  C   UNL     1       1.734  -5.151  -0.949  1.00  0.00     0.002 A 
ATOM     15  C   UNL     1       2.337  -3.969   1.044  1.00  0.00     0.016 A 
ATOM     16  C   UNL     1       2.467  -5.086   0.219  1.00  0.00     0.001 A 
BRANCH  12  17
ATOM     17  N   UNL     1       0.101  -1.865  -1.157  1.00  0.00    -0.352 N 
ATOM     18  H   UNL     1      -0.646  -2.191  -1.710  1.00  0.00     0.167 HD
BRANCH  17  19
ATOM     19  C   UNL     1       0.240  -0.455  -1.184  1.00  0.00     0.077 A 
ATOM     20  C   UNL     1       2.699   2.287  -0.148  1.00  0.00     0.046 C 
ATOM     21  C   UNL     1       1.440   1.589  -0.582  1.00  0.00    -0.030 A 
ATOM     22  C   UNL     1       0.232   2.302  -0.606  1.00  0.00     0.006 A 
ATOM     23  C   UNL     1       1.444   0.221  -0.917  1.00  0.00     0.069 A 
ATOM     24  C   UNL     1      -0.950   1.681  -0.996  1.00  0.00     0.023 A 
ATOM     25  Cl  UNL     1       2.972  -0.590  -1.106  1.00  0.00    -0.082 Cl
ATOM     26  C   UNL     1      -0.942   0.321  -1.294  1.00  0.00     0.066 A 
ATOM     27  Cl  UNL     1      -2.462  -0.431  -1.669  1.00  0.00    -0.082 Cl
ENDBRANCH  17  19
ENDBRANCH  12  17
ENDBRANCH   8  11
ENDBRANCH   6   7
ENDBRANCH   3   6
ENDBRANCH   1   2
BRANCH   1  28
ATOM     28  C   UNL     1      -1.121  -3.720   3.966  1.00  0.00     0.023 C 
BRANCH  28  29
ATOM     29  C   UNL     1      -2.239  -4.074   4.948  1.00  0.00     0.023 C 
BRANCH  29  30
ATOM     30  C   UNL     1      -3.008  -5.331   4.573  1.00  0.00     0.116 C 
BRANCH  30  31
ATOM     31  N   UNL     1      -2.145  -6.498   4.489  1.00  0.00    -0.352 N 
ATOM     32  C   UNL     1      -2.402  -7.770   4.937  1.00  0.00     0.251 C 
ATOM     33  H   UNL     1      -1.271  -6.359   4.058  1.00  0.00     0.163 HD
ATOM     34  O   UNL     1      -1.530  -8.623   4.957  1.00  0.00    -0.269 OA
BRANCH  32  35
ATOM     35  C   UNL     1      -3.761  -8.069   5.425  1.00  0.00     0.039 A 
ATOM     36  C   UNL     1      -3.916  -8.609   6.701  1.00  0.00     0.014 A 
ATOM     37  C   UNL     1      -4.871  -7.743   4.640  1.00  0.00     0.014 A 
ATOM     38  C   UNL     1      -5.200  -8.777   7.216  1.00  0.00     0.010 A 
ATOM     39  C   UNL     1      -6.145  -7.843   5.185  1.00  0.00     0.010 A 
ATOM     40  C   UNL     1      -6.321  -8.367   6.475  1.00  0.00    -0.014 A 
BRANCH  40  41
ATOM     41  C   UNL     1      -7.691  -8.489   7.028  1.00  0.00     0.031 A 
ATOM     42  C   UNL     1      -8.685  -9.402   6.365  1.00  0.00     0.074 A 
ATOM     43  C   UNL     1      -8.055  -7.734   8.083  1.00  0.00     0.049 A 
ATOM     44  N   UNL     1      -9.946  -9.599   6.655  1.00  0.00    -0.248 NA
ATOM     45  C   UNL     1      -8.210 -10.173   5.204  1.00  0.00     0.031 C 
ATOM     46  C   UNL     1      -7.195  -6.772   8.776  1.00  0.00     0.029 A 
ATOM     47  N   UNL     1      -9.251  -7.649   8.750  1.00  0.00    -0.354 N 
ATOM     48  C   UNL     1     -10.416 -10.494   5.703  1.00  0.00     0.074 A 
ATOM     49  C   UNL     1      -9.322 -10.770   4.799  1.00  0.00     0.031 C 
ATOM     50  C   UNL     1      -7.885  -6.211   9.783  1.00  0.00     0.029 A 
ATOM     51  C   UNL     1      -9.243  -6.743   9.784  1.00  0.00     0.049 A 
ATOM     52  H   UNL     1     -10.041  -8.186   8.511  1.00  0.00     0.167 HD
ATOM     53  C   UNL     1     -11.644 -11.053   5.607  1.00  0.00     0.037 A 
ATOM     54  C   UNL     1     -10.226  -6.380  10.630  1.00  0.00     0.037 A 
ATOM     55  C   UNL     1     -12.715 -10.813   6.537  1.00  0.00     0.049 A 
ATOM     56  C   UNL     1     -11.577  -7.030  10.503  1.00  0.00     0.074 A 
ATOM     57  C   UNL     1     -13.967 -11.401   6.576  1.00  0.00     0.029 A 
ATOM     58  N   UNL     1     -12.659  -9.913   7.589  1.00  0.00    -0.354 N 
ATOM     59  N   UNL     1     -11.979  -7.946   9.655  1.00  0.00    -0.248 NA
ATOM     60  C   UNL     1     -12.610  -6.601  11.457  1.00  0.00     0.031 C 
ATOM     61  C   UNL     1     -14.687 -10.822   7.625  1.00  0.00     0.029 A 
ATOM     62  C   UNL     1     -13.865  -9.911   8.269  1.00  0.00     0.049 A 
ATOM     63  H   UNL     1     -11.878  -9.359   7.819  1.00  0.00     0.167 HD
ATOM     64  C   UNL     1     -13.296  -8.227   9.996  1.00  0.00     0.074 A 
ATOM     65  C   UNL     1     -13.620  -7.396  11.136  1.00  0.00     0.031 C 
ATOM     66  C   UNL     1     -14.161  -9.093   9.416  1.00  0.00     0.037 A 
BRANCH  53  67
ATOM     67  C   UNL     1     -11.903 -11.989   4.464  1.00  0.00     0.057 A 
ATOM     68  C   UNL     1     -11.343 -13.272   4.418  1.00  0.00     0.134 A 
ATOM     69  C   UNL     1     -12.782 -11.629   3.435  1.00  0.00     0.134 A 
ATOM     70  F   UNL     1     -10.483 -13.674   5.366  1.00  0.00    -0.206 F 
ATOM     71  C   UNL     1     -11.640 -14.160   3.382  1.00  0.00     0.040 A 
ATOM     72  C   UNL     1     -13.106 -12.516   2.408  1.00  0.00     0.040 A 
ATOM     73  F   UNL     1     -13.354 -10.415   3.422  1.00  0.00    -0.206 F 
ATOM     74  C   UNL     1     -12.533 -13.786   2.379  1.00  0.00     0.006 A 
ENDBRANCH  53  67
BRANCH  54  75
ATOM     75  C   UNL     1      -9.980  -5.360  11.682  1.00  0.00     0.057 A 
ATOM     76  C   UNL     1      -9.989  -5.704  13.039  1.00  0.00     0.134 A 
ATOM     77  C   UNL     1      -9.781  -4.012  11.361  1.00  0.00     0.134 A 
ATOM     78  F   UNL     1     -10.193  -6.976  13.411  1.00  0.00    -0.206 F 
ATOM     79  C   UNL     1      -9.847  -4.741  14.040  1.00  0.00     0.040 A 
ATOM     80  C   UNL     1      -9.609  -3.042  12.351  1.00  0.00     0.040 A 
ATOM     81  F   UNL     1      -9.752  -3.616  10.080  1.00  0.00    -0.206 F 
ATOM     82  C   UNL     1      -9.655  -3.405  13.696  1.00  0.00     0.006 A 
ENDBRANCH  54  75
BRANCH  66  83
ATOM     83  C   UNL     1     -15.522  -9.224  10.034  1.00  0.00     0.057 A 
ATOM     84  C   UNL     1     -16.487  -8.216   9.921  1.00  0.00     0.134 A 
ATOM     85  C   UNL     1     -15.882 -10.394  10.716  1.00  0.00     0.134 A 
ATOM     86  F   UNL     1     -16.200  -7.067   9.291  1.00  0.00    -0.206 F 
ATOM     87  C   UNL     1     -17.756  -8.357  10.485  1.00  0.00     0.040 A 
ATOM     88  C   UNL     1     -17.156 -10.557  11.259  1.00  0.00     0.040 A 
ATOM     89  F   UNL     1     -15.007 -11.402  10.850  1.00  0.00    -0.206 F 
ATOM     90  C   UNL     1     -18.095  -9.534  11.150  1.00  0.00     0.006 A 
ENDBRANCH  66  83
ENDBRANCH  40  41
ENDBRANCH  32  35
ENDBRANCH  30  31
ENDBRANCH  29  30
ENDBRANCH  28  29
ENDBRANCH   1  28
TORSDOF 15
