REMARK SMILES O=C(NCCCCNC(=O)[C@H]1[C@H]2CC[C@H](C2)[C@@H]1C(=O)N1CCN(c2cccc(Cl)c2)CC1)c1ccc(-c2c3nc(c(-c4c(F)cccc4F)c4ccc([nH]4)c(-c4c(F)cccc4F)c4nc(c(-c5c(F)cccc5F)c5ccc2[nH]5)C=C4)C=C3)cc1
REMARK SMILES IDX 5 1 4 2 3 3 1 4 2 5 33 7 34 8 86 9 35 10 85 11 36 12 37 13
REMARK SMILES IDX 38 14 79 15 39 16 84 17 78 18 80 19 40 20 83 21 77 22 76 23
REMARK SMILES IDX 41 25 67 26 50 27 66 28 51 29 54 30 65 31 81 32 52 33 53 34
REMARK SMILES IDX 64 36 82 37 55 38 42 39 43 40 48 41 44 42 45 43 47 44 49 45
REMARK SMILES IDX 46 46 68 47 69 48 74 49 70 50 71 51 73 52 75 53 72 54 56 55
REMARK SMILES IDX 57 56 62 57 58 58 59 59 61 60 63 61 60 62 6 63 7 64 8 65
REMARK SMILES IDX 9 66 10 68 11 69 12 70 17 71 13 72 16 73 15 74 14 75 18 76
REMARK SMILES IDX 19 77 20 78 21 79 32 80 22 81 31 82 23 83 24 84 25 85 30 86
REMARK SMILES IDX 26 87 28 88 27 89 29 90
REMARK H PARENT 3 6 80 24 54 35 8 67
REMARK Flexibility Score: inf
ROOT
ATOM      1  C   UNL     1       9.562   0.175   7.662  1.00  0.00     0.023 C 
ENDROOT
BRANCH   1   2
ATOM      2  C   UNL     1      10.969  -0.004   7.108  1.00  0.00     0.116 C 
BRANCH   2   3
ATOM      3  N   UNL     1      11.272   0.940   6.044  1.00  0.00    -0.352 N 
ATOM      4  O   UNL     1      12.318   2.684   5.065  1.00  0.00    -0.269 OA
ATOM      5  C   UNL     1      12.300   1.844   5.960  1.00  0.00     0.251 C 
ATOM      6  H   UNL     1      10.654   0.928   5.278  1.00  0.00     0.163 HD
BRANCH   5   7
ATOM      7  C   UNL     1      13.378   1.817   6.970  1.00  0.00     0.039 A 
ATOM      8  C   UNL     1      13.980   0.611   7.338  1.00  0.00     0.014 A 
ATOM      9  C   UNL     1      13.788   3.018   7.553  1.00  0.00     0.014 A 
ATOM     10  C   UNL     1      14.902   0.588   8.378  1.00  0.00     0.010 A 
ATOM     11  C   UNL     1      14.774   3.003   8.541  1.00  0.00     0.010 A 
ATOM     12  C   UNL     1      15.321   1.785   8.976  1.00  0.00    -0.014 A 
BRANCH  12  13
ATOM     13  C   UNL     1      16.384   1.766  10.010  1.00  0.00     0.031 A 
ATOM     14  C   UNL     1      16.104   2.209  11.415  1.00  0.00     0.074 A 
ATOM     15  C   UNL     1      17.624   1.379   9.655  1.00  0.00     0.049 A 
ATOM     16  N   UNL     1      16.933   2.340  12.419  1.00  0.00    -0.248 NA
ATOM     17  C   UNL     1      14.713   2.566  11.731  1.00  0.00     0.031 C 
ATOM     18  C   UNL     1      18.015   0.937   8.315  1.00  0.00     0.029 A 
ATOM     19  N   UNL     1      18.784   1.310  10.382  1.00  0.00    -0.354 N 
ATOM     20  C   UNL     1      16.173   2.815  13.480  1.00  0.00     0.074 A 
ATOM     21  C   UNL     1      14.820   2.973  12.988  1.00  0.00     0.031 C 
ATOM     22  C   UNL     1      19.322   0.641   8.316  1.00  0.00     0.029 A 
ATOM     23  C   UNL     1      19.872   0.933   9.635  1.00  0.00     0.049 A 
ATOM     24  H   UNL     1      18.832   1.512  11.344  1.00  0.00     0.167 HD
ATOM     25  C   UNL     1      16.570   3.090  14.746  1.00  0.00     0.037 A 
ATOM     26  C   UNL     1      21.176   0.869   9.958  1.00  0.00     0.037 A 
ATOM     27  C   UNL     1      17.921   2.926  15.221  1.00  0.00     0.049 A 
ATOM     28  C   UNL     1      21.602   1.217  11.353  1.00  0.00     0.074 A 
ATOM     29  C   UNL     1      18.416   3.128  16.498  1.00  0.00     0.029 A 
ATOM     30  N   UNL     1      18.997   2.540  14.433  1.00  0.00    -0.354 N 
ATOM     31  N   UNL     1      20.867   1.616  12.362  1.00  0.00    -0.248 NA
ATOM     32  C   UNL     1      23.035   1.106  11.657  1.00  0.00     0.031 C 
ATOM     33  C   UNL     1      19.799   2.923  16.468  1.00  0.00     0.029 A 
ATOM     34  C   UNL     1      20.159   2.531  15.188  1.00  0.00     0.049 A 
ATOM     35  H   UNL     1      18.942   2.305  13.479  1.00  0.00     0.167 HD
ATOM     36  C   UNL     1      21.740   1.783  13.427  1.00  0.00     0.074 A 
ATOM     37  C   UNL     1      23.061   1.436  12.942  1.00  0.00     0.031 C 
ATOM     38  C   UNL     1      21.468   2.181  14.694  1.00  0.00     0.037 A 
BRANCH  25  39
ATOM     39  C   UNL     1      15.538   3.634  15.693  1.00  0.00     0.057 A 
ATOM     40  C   UNL     1      14.472   2.856  16.165  1.00  0.00     0.134 A 
ATOM     41  C   UNL     1      15.620   4.956  16.151  1.00  0.00     0.134 A 
ATOM     42  F   UNL     1      14.328   1.584  15.762  1.00  0.00    -0.206 F 
ATOM     43  C   UNL     1      13.506   3.383  17.024  1.00  0.00     0.040 A 
ATOM     44  C   UNL     1      14.678   5.485  17.034  1.00  0.00     0.040 A 
ATOM     45  F   UNL     1      16.621   5.755  15.751  1.00  0.00    -0.206 F 
ATOM     46  C   UNL     1      13.610   4.701  17.464  1.00  0.00     0.006 A 
ENDBRANCH  25  39
BRANCH  26  47
ATOM     47  C   UNL     1      22.158   0.477   8.918  1.00  0.00     0.057 A 
ATOM     48  C   UNL     1      22.789  -0.770   8.948  1.00  0.00     0.134 A 
ATOM     49  C   UNL     1      22.438   1.319   7.833  1.00  0.00     0.134 A 
ATOM     50  F   UNL     1      22.569  -1.614   9.967  1.00  0.00    -0.206 F 
ATOM     51  C   UNL     1      23.667  -1.167   7.938  1.00  0.00     0.040 A 
ATOM     52  C   UNL     1      23.292   0.925   6.803  1.00  0.00     0.040 A 
ATOM     53  F   UNL     1      21.851   2.522   7.741  1.00  0.00    -0.206 F 
ATOM     54  C   UNL     1      23.912  -0.322   6.856  1.00  0.00     0.006 A 
ENDBRANCH  26  47
BRANCH  38  55
ATOM     55  C   UNL     1      22.611   2.231  15.664  1.00  0.00     0.057 A 
ATOM     56  C   UNL     1      23.584   3.237  15.614  1.00  0.00     0.134 A 
ATOM     57  C   UNL     1      22.697   1.299  16.707  1.00  0.00     0.134 A 
ATOM     58  F   UNL     1      23.568   4.151  14.631  1.00  0.00    -0.206 F 
ATOM     59  C   UNL     1      24.605   3.311  16.563  1.00  0.00     0.040 A 
ATOM     60  C   UNL     1      23.697   1.378  17.676  1.00  0.00     0.040 A 
ATOM     61  F   UNL     1      21.793   0.313  16.814  1.00  0.00    -0.206 F 
ATOM     62  C   UNL     1      24.656   2.386  17.605  1.00  0.00     0.006 A 
ENDBRANCH  38  55
ENDBRANCH  12  13
ENDBRANCH   5   7
ENDBRANCH   2   3
ENDBRANCH   1   2
BRANCH   1  63
ATOM     63  C   UNL     1       8.440  -0.065   6.654  1.00  0.00     0.023 C 
BRANCH  63  64
ATOM     64  C   UNL     1       8.494  -1.420   5.955  1.00  0.00     0.116 C 
BRANCH  64  65
ATOM     65  N   UNL     1       8.346  -2.516   6.886  1.00  0.00    -0.356 N 
ATOM     66  C   UNL     1       7.446  -3.535   6.912  1.00  0.00     0.224 C 
ATOM     67  H   UNL     1       9.003  -2.526   7.620  1.00  0.00     0.163 HD
ATOM     68  O   UNL     1       7.612  -4.388   7.783  1.00  0.00    -0.275 OA
BRANCH  66  69
ATOM     69  C   UNL     1       6.330  -3.600   5.874  1.00  0.00     0.094 C 
ATOM     70  C   UNL     1       5.686  -5.011   5.735  1.00  0.00     0.002 C 
ATOM     71  C   UNL     1       5.103  -2.701   6.184  1.00  0.00     0.094 C 
ATOM     72  C   UNL     1       5.016  -5.533   7.020  1.00  0.00     0.005 C 
ATOM     73  C   UNL     1       4.441  -4.661   4.927  1.00  0.00     0.009 C 
ATOM     74  C   UNL     1       3.917  -3.671   5.974  1.00  0.00     0.002 C 
ATOM     75  C   UNL     1       3.821  -4.590   7.206  1.00  0.00     0.005 C 
BRANCH  71  76
ATOM     76  C   UNL     1       5.094  -1.389   5.377  1.00  0.00     0.226 C 
ATOM     77  O   UNL     1       5.343  -0.329   5.958  1.00  0.00    -0.275 OA
ATOM     78  N   UNL     1       5.046  -1.429   4.000  1.00  0.00    -0.339 N 
ATOM     79  C   UNL     1       5.886  -0.489   3.242  1.00  0.00     0.141 C 
ATOM     80  C   UNL     1       3.851  -1.827   3.245  1.00  0.00     0.141 C 
ATOM     81  C   UNL     1       6.347  -1.136   1.923  1.00  0.00     0.138 C 
ATOM     82  C   UNL     1       4.208  -2.425   1.871  1.00  0.00     0.138 C 
ATOM     83  N   UNL     1       5.164  -1.557   1.161  1.00  0.00    -0.368 N 
BRANCH  83  84
ATOM     84  C   UNL     1       5.211  -1.676  -0.216  1.00  0.00     0.038 A 
ATOM     85  C   UNL     1       4.103  -1.254  -0.967  1.00  0.00     0.026 A 
ATOM     86  C   UNL     1       6.311  -2.200  -0.900  1.00  0.00     0.046 A 
ATOM     87  C   UNL     1       4.089  -1.339  -2.358  1.00  0.00     0.004 A 
ATOM     88  C   UNL     1       6.292  -2.301  -2.294  1.00  0.00     0.043 A 
ATOM     89  C   UNL     1       5.188  -1.868  -3.026  1.00  0.00     0.020 A 
ATOM     90  Cl  UNL     1       7.645  -2.975  -3.120  1.00  0.00    -0.084 Cl
ENDBRANCH  83  84
ENDBRANCH  71  76
ENDBRANCH  66  69
ENDBRANCH  64  65
ENDBRANCH  63  64
ENDBRANCH   1  63
TORSDOF 13
