REMARK SMILES CC[C@@H](C)S(=O)(=O)c1cc(C(=O)NCCCCNC(=O)c2ccc(-c3c4nc(c(-c5c(F)cccc5F)c5ccc([nH]5)c(-c5c(F)cccc5F)c5nc(c(-c6c(F)cccc6F)c6ccc3[nH]6)C=C5)C=C4)cc2)c(C)cc1C
REMARK SMILES IDX 15 1 14 2 13 3 11 4 12 5 10 7 8 8 9 9 78 10 77 11 79 12
REMARK SMILES IDX 75 13 76 14 5 15 6 16 7 17 3 18 4 19 2 20 1 21 16 22 17 23
REMARK SMILES IDX 18 24 19 25 20 27 21 28 22 29 74 30 23 31 73 32 24 33 25 34
REMARK SMILES IDX 26 35 67 36 27 37 72 38 66 39 68 40 28 41 71 42 65 43 64 44
REMARK SMILES IDX 29 46 55 47 38 48 54 49 39 50 42 51 53 52 69 53 40 54 41 55
REMARK SMILES IDX 52 57 70 58 43 59 30 60 31 61 36 62 32 63 33 64 35 65 37 66
REMARK SMILES IDX 34 67 56 68 57 69 62 70 58 71 59 72 61 73 63 74 60 75 44 76
REMARK SMILES IDX 45 77 50 78 46 79 47 80 49 81 51 82 48 83
REMARK H PARENT 13 6 18 26 68 45 42 56
REMARK Flexibility Score: inf
ROOT
ATOM      1  C   UNL     1      -7.315   0.985  -3.223  1.00  0.00     0.023 C 
ENDROOT
BRANCH   1   2
ATOM      2  C   UNL     1      -6.507   1.288  -4.491  1.00  0.00     0.116 C 
BRANCH   2   3
ATOM      3  N   UNL     1      -5.310   2.003  -4.127  1.00  0.00    -0.352 N 
ATOM      4  C   UNL     1      -4.043   1.623  -3.784  1.00  0.00     0.251 C 
ATOM      5  O   UNL     1      -3.330   2.539  -3.358  1.00  0.00    -0.269 OA
ATOM      6  H   UNL     1      -5.432   2.980  -4.125  1.00  0.00     0.163 HD
BRANCH   4   7
ATOM      7  C   UNL     1      -3.421   0.261  -3.950  1.00  0.00     0.044 A 
ATOM      8  C   UNL     1      -1.197  -0.812  -4.218  1.00  0.00     0.071 A 
ATOM      9  C   UNL     1      -2.019   0.329  -4.137  1.00  0.00     0.034 A 
ATOM     10  C   UNL     1      -1.780  -2.077  -4.292  1.00  0.00    -0.032 A 
ATOM     11  C   UNL     1      -3.167  -2.150  -4.105  1.00  0.00     0.009 A 
ATOM     12  C   UNL     1      -1.093  -3.400  -4.471  1.00  0.00     0.046 C 
ATOM     13  C   UNL     1      -3.975  -1.024  -3.831  1.00  0.00    -0.038 A 
ATOM     14  C   UNL     1      -5.333  -1.381  -3.319  1.00  0.00     0.045 C 
BRANCH   8  15
ATOM     15  S   UNL     1       0.572  -0.527  -4.148  1.00  0.00     0.181 S 
ATOM     16  O   UNL     1       0.796   0.872  -4.460  1.00  0.00    -0.223 OA
ATOM     17  O   UNL     1       1.228  -1.530  -4.967  1.00  0.00    -0.223 OA
BRANCH  15  18
ATOM     18  C   UNL     1       1.037  -0.787  -2.416  1.00  0.00     0.110 C 
ATOM     19  C   UNL     1       0.699  -2.191  -1.922  1.00  0.00     0.025 C 
BRANCH  18  20
ATOM     20  C   UNL     1       0.462   0.307  -1.499  1.00  0.00     0.016 C 
ATOM     21  C   UNL     1       0.946   0.205  -0.057  1.00  0.00     0.005 C 
ENDBRANCH  18  20
ENDBRANCH  15  18
ENDBRANCH   8  15
ENDBRANCH   4   7
ENDBRANCH   2   3
ENDBRANCH   1   2
BRANCH   1  22
ATOM     22  C   UNL     1      -8.384   2.005  -2.867  1.00  0.00     0.023 C 
BRANCH  22  23
ATOM     23  C   UNL     1      -9.527   2.072  -3.860  1.00  0.00     0.116 C 
BRANCH  23  24
ATOM     24  N   UNL     1     -10.225   0.805  -4.042  1.00  0.00    -0.352 N 
ATOM     25  C   UNL     1     -11.564   0.612  -4.286  1.00  0.00     0.251 C 
ATOM     26  H   UNL     1      -9.672  -0.008  -3.983  1.00  0.00     0.163 HD
ATOM     27  O   UNL     1     -12.045  -0.513  -4.334  1.00  0.00    -0.269 OA
BRANCH  25  28
ATOM     28  C   UNL     1     -12.418   1.805  -4.435  1.00  0.00     0.039 A 
ATOM     29  C   UNL     1     -13.546   1.935  -3.627  1.00  0.00     0.014 A 
ATOM     30  C   UNL     1     -12.017   2.844  -5.279  1.00  0.00     0.014 A 
ATOM     31  C   UNL     1     -14.232   3.149  -3.608  1.00  0.00     0.010 A 
ATOM     32  C   UNL     1     -12.633   4.081  -5.175  1.00  0.00     0.010 A 
ATOM     33  C   UNL     1     -13.752   4.245  -4.346  1.00  0.00    -0.014 A 
BRANCH  33  34
ATOM     34  C   UNL     1     -14.415   5.570  -4.278  1.00  0.00     0.031 A 
ATOM     35  C   UNL     1     -14.999   6.174  -5.526  1.00  0.00     0.074 A 
ATOM     36  C   UNL     1     -14.435   6.252  -3.117  1.00  0.00     0.049 A 
ATOM     37  N   UNL     1     -15.565   7.341  -5.691  1.00  0.00    -0.248 NA
ATOM     38  C   UNL     1     -14.904   5.373  -6.758  1.00  0.00     0.031 C 
ATOM     39  C   UNL     1     -13.852   5.797  -1.853  1.00  0.00     0.029 A 
ATOM     40  N   UNL     1     -14.964   7.482  -2.812  1.00  0.00    -0.354 N 
ATOM     41  C   UNL     1     -15.879   7.417  -7.042  1.00  0.00     0.074 A 
ATOM     42  C   UNL     1     -15.378   6.213  -7.665  1.00  0.00     0.031 C 
ATOM     43  C   UNL     1     -14.084   6.718  -0.903  1.00  0.00     0.029 A 
ATOM     44  C   UNL     1     -14.792   7.846  -1.498  1.00  0.00     0.049 A 
ATOM     45  H   UNL     1     -15.422   8.049  -3.473  1.00  0.00     0.167 HD
ATOM     46  C   UNL     1     -16.553   8.388  -7.700  1.00  0.00     0.037 A 
ATOM     47  C   UNL     1     -15.160   8.968  -0.851  1.00  0.00     0.037 A 
ATOM     48  C   UNL     1     -17.070   9.574  -7.071  1.00  0.00     0.049 A 
ATOM     49  C   UNL     1     -15.896  10.040  -1.608  1.00  0.00     0.074 A 
ATOM     50  C   UNL     1     -17.816  10.592  -7.635  1.00  0.00     0.029 A 
ATOM     51  N   UNL     1     -16.888   9.901  -5.735  1.00  0.00    -0.354 N 
ATOM     52  N   UNL     1     -16.255  10.065  -2.869  1.00  0.00    -0.248 NA
ATOM     53  C   UNL     1     -16.284  11.238  -0.851  1.00  0.00     0.031 C 
ATOM     54  C   UNL     1     -18.039  11.563  -6.655  1.00  0.00     0.029 A 
ATOM     55  C   UNL     1     -17.486  11.119  -5.463  1.00  0.00     0.049 A 
ATOM     56  H   UNL     1     -16.405   9.349  -5.079  1.00  0.00     0.167 HD
ATOM     57  C   UNL     1     -16.940  11.260  -3.048  1.00  0.00     0.074 A 
ATOM     58  C   UNL     1     -16.957  11.926  -1.762  1.00  0.00     0.031 C 
ATOM     59  C   UNL     1     -17.504  11.762  -4.174  1.00  0.00     0.037 A 
BRANCH  46  60
ATOM     60  C   UNL     1     -16.773   8.203  -9.174  1.00  0.00     0.057 A 
ATOM     61  C   UNL     1     -17.623   7.208  -9.677  1.00  0.00     0.134 A 
ATOM     62  C   UNL     1     -16.151   9.048 -10.101  1.00  0.00     0.134 A 
ATOM     63  F   UNL     1     -18.239   6.354  -8.845  1.00  0.00    -0.206 F 
ATOM     64  C   UNL     1     -17.825   7.044 -11.049  1.00  0.00     0.040 A 
ATOM     65  C   UNL     1     -16.370   8.914 -11.473  1.00  0.00     0.040 A 
ATOM     66  F   UNL     1     -15.327  10.024  -9.689  1.00  0.00    -0.206 F 
ATOM     67  C   UNL     1     -17.203   7.905 -11.950  1.00  0.00     0.006 A 
ENDBRANCH  46  60
BRANCH  47  68
ATOM     68  C   UNL     1     -14.861   9.131   0.596  1.00  0.00     0.057 A 
ATOM     69  C   UNL     1     -15.885   9.151   1.550  1.00  0.00     0.134 A 
ATOM     70  C   UNL     1     -13.549   9.291   1.059  1.00  0.00     0.134 A 
ATOM     71  F   UNL     1     -17.165   9.020   1.169  1.00  0.00    -0.206 F 
ATOM     72  C   UNL     1     -15.620   9.352   2.906  1.00  0.00     0.040 A 
ATOM     73  C   UNL     1     -13.267   9.463   2.415  1.00  0.00     0.040 A 
ATOM     74  F   UNL     1     -12.520   9.272   0.199  1.00  0.00    -0.206 F 
ATOM     75  C   UNL     1     -14.306   9.504   3.342  1.00  0.00     0.006 A 
ENDBRANCH  47  68
BRANCH  59  76
ATOM     76  C   UNL     1     -18.230  13.071  -4.058  1.00  0.00     0.057 A 
ATOM     77  C   UNL     1     -17.554  14.282  -3.859  1.00  0.00     0.134 A 
ATOM     78  C   UNL     1     -19.623  13.123  -4.194  1.00  0.00     0.134 A 
ATOM     79  F   UNL     1     -16.221  14.300  -3.709  1.00  0.00    -0.206 F 
ATOM     80  C   UNL     1     -18.241  15.494  -3.775  1.00  0.00     0.040 A 
ATOM     81  C   UNL     1     -20.317  14.332  -4.144  1.00  0.00     0.040 A 
ATOM     82  F   UNL     1     -20.331  12.002  -4.398  1.00  0.00    -0.206 F 
ATOM     83  C   UNL     1     -19.626  15.522  -3.927  1.00  0.00     0.006 A 
ENDBRANCH  59  76
ENDBRANCH  33  34
ENDBRANCH  25  28
ENDBRANCH  23  24
ENDBRANCH  22  23
ENDBRANCH   1  22
TORSDOF 14
