REMARK SMILES O=C(NCCCCNC(=O)[C@H](CO)NC(=O)[C@H](Cc1ccc(O)cc1)NC(=O)c1ccc(F)cc1)c1ccc(-c2c3nc(c(-c4c(F)cccc4F)c4ccc([nH]4)c(-c4c(F)cccc4F)c4nc(c(-c5c(F)cccc5F)c5ccc2[nH]5)C=C4)C=C3)cc1
REMARK SMILES IDX 7 1 6 2 5 3 4 4 3 5 1 6 2 7 36 9 37 10 89 11 38 12 88 13
REMARK SMILES IDX 39 14 40 15 41 16 82 17 42 18 87 19 81 20 83 21 43 22 86 23
REMARK SMILES IDX 80 24 79 25 44 27 70 28 53 29 69 30 54 31 57 32 68 33 84 34
REMARK SMILES IDX 55 35 56 36 67 38 85 39 58 40 45 41 46 42 51 43 47 44 48 45
REMARK SMILES IDX 50 46 52 47 49 48 71 49 72 50 77 51 73 52 74 53 76 54 78 55
REMARK SMILES IDX 75 56 59 57 60 58 65 59 61 60 62 61 64 62 66 63 63 64 8 65
REMARK SMILES IDX 9 66 10 68 11 69 14 70 15 71 16 73 17 74 26 75 27 76 28 78
REMARK SMILES IDX 29 79 30 80 35 81 31 82 34 83 32 84 33 85 18 86 19 87 20 88
REMARK SMILES IDX 25 89 21 90 24 91 22 92 23 93 12 95 13 96
REMARK H PARENT 3 8 83 26 57 37 8 67 14 72 26 77 23 94 13 97
REMARK Flexibility Score: inf
ROOT
ATOM      1  C   UNL     1       9.990  -5.725   9.655  1.00  0.00     0.116 C 
ENDROOT
BRANCH   1   2
ATOM      2  C   UNL     1       9.312  -6.611  10.692  1.00  0.00     0.023 C 
BRANCH   2   3
ATOM      3  C   UNL     1      10.235  -7.339  11.655  1.00  0.00     0.023 C 
BRANCH   3   4
ATOM      4  C   UNL     1      11.272  -6.456  12.317  1.00  0.00     0.116 C 
BRANCH   4   5
ATOM      5  N   UNL     1      10.721  -5.297  13.007  1.00  0.00    -0.352 N 
ATOM      6  O   UNL     1      10.615  -3.776  14.689  1.00  0.00    -0.269 OA
ATOM      7  C   UNL     1      11.187  -4.715  14.168  1.00  0.00     0.251 C 
ATOM      8  H   UNL     1       9.927  -4.882  12.598  1.00  0.00     0.163 HD
BRANCH   7   9
ATOM      9  C   UNL     1      12.385  -5.312  14.789  1.00  0.00     0.039 A 
ATOM     10  C   UNL     1      13.511  -5.557  14.003  1.00  0.00     0.014 A 
ATOM     11  C   UNL     1      12.316  -5.756  16.110  1.00  0.00     0.014 A 
ATOM     12  C   UNL     1      14.489  -6.414  14.477  1.00  0.00     0.010 A 
ATOM     13  C   UNL     1      13.366  -6.515  16.627  1.00  0.00     0.010 A 
ATOM     14  C   UNL     1      14.441  -6.879  15.803  1.00  0.00    -0.014 A 
BRANCH  14  15
ATOM     15  C   UNL     1      15.582  -7.668  16.320  1.00  0.00     0.031 A 
ATOM     16  C   UNL     1      15.413  -9.079  16.801  1.00  0.00     0.074 A 
ATOM     17  C   UNL     1      16.795  -7.082  16.323  1.00  0.00     0.049 A 
ATOM     18  N   UNL     1      16.313  -9.882  17.310  1.00  0.00    -0.248 NA
ATOM     19  C   UNL     1      14.068  -9.667  16.712  1.00  0.00     0.031 C 
ATOM     20  C   UNL     1      17.063  -5.711  15.878  1.00  0.00     0.029 A 
ATOM     21  N   UNL     1      18.026  -7.560  16.681  1.00  0.00    -0.354 N 
ATOM     22  C   UNL     1      15.639 -11.050  17.640  1.00  0.00     0.074 A 
ATOM     23  C   UNL     1      14.252 -10.855  17.275  1.00  0.00     0.031 C 
ATOM     24  C   UNL     1      18.380  -5.482  15.926  1.00  0.00     0.029 A 
ATOM     25  C   UNL     1      19.037  -6.650  16.495  1.00  0.00     0.049 A 
ATOM     26  H   UNL     1      18.172  -8.466  17.037  1.00  0.00     0.167 HD
ATOM     27  C   UNL     1      16.142 -12.176  18.201  1.00  0.00     0.037 A 
ATOM     28  C   UNL     1      20.347  -6.727  16.782  1.00  0.00     0.037 A 
ATOM     29  C   UNL     1      17.534 -12.361  18.526  1.00  0.00     0.049 A 
ATOM     30  C   UNL     1      20.873  -7.977  17.411  1.00  0.00     0.074 A 
ATOM     31  C   UNL     1      18.153 -13.485  19.045  1.00  0.00     0.029 A 
ATOM     32  N   UNL     1      18.520 -11.398  18.365  1.00  0.00    -0.354 N 
ATOM     33  N   UNL     1      20.226  -9.076  17.712  1.00  0.00    -0.248 NA
ATOM     34  C   UNL     1      22.297  -7.995  17.760  1.00  0.00     0.031 C 
ATOM     35  C   UNL     1      19.504 -13.186  19.243  1.00  0.00     0.029 A 
ATOM     36  C   UNL     1      19.738 -11.892  18.803  1.00  0.00     0.049 A 
ATOM     37  H   UNL     1      18.376 -10.498  17.995  1.00  0.00     0.167 HD
ATOM     38  C   UNL     1      21.160  -9.919  18.291  1.00  0.00     0.074 A 
ATOM     39  C   UNL     1      22.426  -9.210  18.277  1.00  0.00     0.031 C 
ATOM     40  C   UNL     1      20.983 -11.164  18.794  1.00  0.00     0.037 A 
BRANCH  27  41
ATOM     41  C   UNL     1      15.188 -13.288  18.528  1.00  0.00     0.057 A 
ATOM     42  C   UNL     1      14.886 -13.591  19.863  1.00  0.00     0.134 A 
ATOM     43  C   UNL     1      14.627 -14.105  17.539  1.00  0.00     0.134 A 
ATOM     44  F   UNL     1      15.397 -12.854  20.860  1.00  0.00    -0.206 F 
ATOM     45  C   UNL     1      14.069 -14.671  20.202  1.00  0.00     0.040 A 
ATOM     46  C   UNL     1      13.790 -15.175  17.865  1.00  0.00     0.040 A 
ATOM     47  F   UNL     1      14.867 -13.865  16.241  1.00  0.00    -0.206 F 
ATOM     48  C   UNL     1      13.517 -15.466  19.201  1.00  0.00     0.006 A 
ENDBRANCH  27  41
BRANCH  28  49
ATOM     49  C   UNL     1      21.212  -5.562  16.484  1.00  0.00     0.057 A 
ATOM     50  C   UNL     1      21.083  -4.362  17.196  1.00  0.00     0.134 A 
ATOM     51  C   UNL     1      22.104  -5.584  15.408  1.00  0.00     0.134 A 
ATOM     52  F   UNL     1      20.228  -4.275  18.226  1.00  0.00    -0.206 F 
ATOM     53  C   UNL     1      21.779  -3.213  16.823  1.00  0.00     0.040 A 
ATOM     54  C   UNL     1      22.827  -4.448  15.039  1.00  0.00     0.040 A 
ATOM     55  F   UNL     1      22.273  -6.706  14.694  1.00  0.00    -0.206 F 
ATOM     56  C   UNL     1      22.654  -3.254  15.739  1.00  0.00     0.006 A 
ENDBRANCH  28  49
BRANCH  40  57
ATOM     57  C   UNL     1      22.185 -11.843  19.373  1.00  0.00     0.057 A 
ATOM     58  C   UNL     1      22.802 -12.902  18.697  1.00  0.00     0.134 A 
ATOM     59  C   UNL     1      22.689 -11.489  20.630  1.00  0.00     0.134 A 
ATOM     60  F   UNL     1      22.361 -13.291  17.492  1.00  0.00    -0.206 F 
ATOM     61  C   UNL     1      23.871 -13.599  19.261  1.00  0.00     0.040 A 
ATOM     62  C   UNL     1      23.771 -12.164  21.195  1.00  0.00     0.040 A 
ATOM     63  F   UNL     1      22.147 -10.472  21.318  1.00  0.00    -0.206 F 
ATOM     64  C   UNL     1      24.358 -13.229  20.513  1.00  0.00     0.006 A 
ENDBRANCH  40  57
ENDBRANCH  14  15
ENDBRANCH   7   9
ENDBRANCH   4   5
ENDBRANCH   3   4
ENDBRANCH   2   3
ENDBRANCH   1   2
BRANCH   1  65
ATOM     65  N   UNL     1      10.743  -6.512   8.707  1.00  0.00    -0.354 N 
ATOM     66  C   UNL     1      10.495  -6.780   7.399  1.00  0.00     0.244 C 
ATOM     67  H   UNL     1      11.566  -6.918   9.065  1.00  0.00     0.163 HD
ATOM     68  O   UNL     1      11.157  -7.695   6.895  1.00  0.00    -0.273 OA
BRANCH  66  69
ATOM     69  C   UNL     1       9.318  -6.127   6.633  1.00  0.00     0.197 C 
BRANCH  69  70
ATOM     70  N   UNL     1       9.174  -4.671   6.810  1.00  0.00    -0.340 N 
ATOM     71  C   UNL     1       8.101  -3.888   7.131  1.00  0.00     0.243 C 
ATOM     72  H   UNL     1      10.009  -4.168   6.670  1.00  0.00     0.164 HD
ATOM     73  O   UNL     1       8.254  -2.666   7.022  1.00  0.00    -0.273 OA
BRANCH  71  74
ATOM     74  C   UNL     1       6.794  -4.463   7.737  1.00  0.00     0.176 C 
BRANCH  74  75
ATOM     75  N   UNL     1       6.633  -3.710   8.998  1.00  0.00    -0.340 N 
ATOM     76  C   UNL     1       6.099  -3.928  10.236  1.00  0.00     0.251 C 
ATOM     77  H   UNL     1       7.014  -2.805   8.926  1.00  0.00     0.164 HD
ATOM     78  O   UNL     1       5.986  -2.930  10.953  1.00  0.00    -0.269 OA
BRANCH  76  79
ATOM     79  C   UNL     1       5.700  -5.248  10.813  1.00  0.00     0.040 A 
ATOM     80  C   UNL     1       6.071  -6.499  10.315  1.00  0.00     0.017 A 
ATOM     81  C   UNL     1       5.017  -5.215  12.048  1.00  0.00     0.017 A 
ATOM     82  C   UNL     1       5.816  -7.672  11.040  1.00  0.00     0.040 A 
ATOM     83  C   UNL     1       4.750  -6.385  12.769  1.00  0.00     0.040 A 
ATOM     84  C   UNL     1       5.167  -7.604  12.262  1.00  0.00     0.123 A 
ATOM     85  F   UNL     1       4.965  -8.725  12.966  1.00  0.00    -0.207 F 
ENDBRANCH  76  79
ENDBRANCH  74  75
BRANCH  74  86
ATOM     86  C   UNL     1       5.579  -4.209   6.810  1.00  0.00     0.070 C 
BRANCH  86  87
ATOM     87  C   UNL     1       5.105  -5.468   6.115  1.00  0.00    -0.045 A 
ATOM     88  C   UNL     1       6.006  -6.242   5.380  1.00  0.00     0.007 A 
ATOM     89  C   UNL     1       3.776  -5.897   6.192  1.00  0.00     0.007 A 
ATOM     90  C   UNL     1       5.653  -7.484   4.862  1.00  0.00     0.046 A 
ATOM     91  C   UNL     1       3.398  -7.121   5.630  1.00  0.00     0.046 A 
ATOM     92  C   UNL     1       4.348  -7.923   5.007  1.00  0.00     0.115 A 
BRANCH  92  93
ATOM     93  O   UNL     1       3.962  -9.144   4.542  1.00  0.00    -0.508 OA
ATOM     94  H   UNL     1       4.585  -9.703   4.119  1.00  0.00     0.293 HD
ENDBRANCH  92  93
ENDBRANCH  86  87
ENDBRANCH  74  86
ENDBRANCH  71  74
ENDBRANCH  69  70
BRANCH  69  95
ATOM     95  C   UNL     1       9.557  -6.434   5.133  1.00  0.00     0.191 C 
BRANCH  95  96
ATOM     96  O   UNL     1       9.188  -7.777   4.820  1.00  0.00    -0.394 OA
ATOM     97  H   UNL     1       9.727  -8.390   5.343  1.00  0.00     0.210 HD
ENDBRANCH  95  96
ENDBRANCH  69  95
ENDBRANCH  66  69
ENDBRANCH   1  65
TORSDOF 20
