REMARK SMILES O=C(NCCCCNC(=O)[C@@H](Cc1cccc(F)c1)[C@H]1CCOC2(CCC2)C1)c1ccc(-c2c3nc(c(-c4c(F)cccc4F)c4ccc([nH]4)c(-c4c(F)cccc4F)c4nc(c(-c5c(F)cccc5F)c5ccc2[nH]5)C=C4)C=C3)cc1
REMARK SMILES IDX 5 1 4 2 3 3 1 4 2 5 29 7 30 8 82 9 31 10 81 11 32 12 33 13
REMARK SMILES IDX 34 14 75 15 35 16 80 17 74 18 76 19 36 20 79 21 73 22 72 23
REMARK SMILES IDX 37 25 63 26 46 27 62 28 47 29 50 30 61 31 77 32 48 33 49 34
REMARK SMILES IDX 60 36 78 37 51 38 38 39 39 40 44 41 40 42 41 43 43 44 45 45
REMARK SMILES IDX 42 46 64 47 65 48 70 49 66 50 67 51 69 52 71 53 68 54 52 55
REMARK SMILES IDX 53 56 58 57 54 58 55 59 57 60 59 61 56 62 6 63 7 64 8 65
REMARK SMILES IDX 9 66 10 68 11 69 12 70 13 71 14 72 19 73 15 74 17 75 16 76
REMARK SMILES IDX 18 77 20 78 21 79 28 80 22 81 24 82 23 83 25 84 27 85 26 86
REMARK H PARENT 3 6 76 24 50 35 8 67
REMARK Flexibility Score: inf
ROOT
ATOM      1  C   UNL     1       6.189  -3.159  -6.825  1.00  0.00     0.023 C 
ENDROOT
BRANCH   1   2
ATOM      2  C   UNL     1       5.382  -2.183  -5.984  1.00  0.00     0.116 C 
BRANCH   2   3
ATOM      3  N   UNL     1       6.154  -1.305  -5.117  1.00  0.00    -0.352 N 
ATOM      4  O   UNL     1       6.878   0.668  -4.261  1.00  0.00    -0.269 OA
ATOM      5  C   UNL     1       6.199   0.078  -5.089  1.00  0.00     0.251 C 
ATOM      6  H   UNL     1       6.726  -1.760  -4.457  1.00  0.00     0.163 HD
BRANCH   5   7
ATOM      7  C   UNL     1       5.476   0.843  -6.132  1.00  0.00     0.039 A 
ATOM      8  C   UNL     1       4.151   0.546  -6.436  1.00  0.00     0.014 A 
ATOM      9  C   UNL     1       6.182   1.768  -6.907  1.00  0.00     0.014 A 
ATOM     10  C   UNL     1       3.639   0.937  -7.665  1.00  0.00     0.010 A 
ATOM     11  C   UNL     1       5.604   2.280  -8.074  1.00  0.00     0.010 A 
ATOM     12  C   UNL     1       4.358   1.805  -8.508  1.00  0.00    -0.014 A 
BRANCH  12  13
ATOM     13  C   UNL     1       3.777   2.182  -9.828  1.00  0.00     0.031 A 
ATOM     14  C   UNL     1       4.494   1.882 -11.122  1.00  0.00     0.074 A 
ATOM     15  C   UNL     1       2.544   2.725  -9.862  1.00  0.00     0.049 A 
ATOM     16  N   UNL     1       4.117   2.144 -12.350  1.00  0.00    -0.248 NA
ATOM     17  C   UNL     1       5.802   1.213 -11.035  1.00  0.00     0.031 C 
ATOM     18  C   UNL     1       1.740   3.054  -8.682  1.00  0.00     0.029 A 
ATOM     19  N   UNL     1       1.730   3.050 -10.916  1.00  0.00    -0.354 N 
ATOM     20  C   UNL     1       5.153   1.717 -13.172  1.00  0.00     0.074 A 
ATOM     21  C   UNL     1       6.181   1.181 -12.306  1.00  0.00     0.031 C 
ATOM     22  C   UNL     1       0.517   3.431  -9.075  1.00  0.00     0.029 A 
ATOM     23  C   UNL     1       0.481   3.472 -10.531  1.00  0.00     0.049 A 
ATOM     24  H   UNL     1       2.013   2.987 -11.857  1.00  0.00     0.167 HD
ATOM     25  C   UNL     1       5.239   1.769 -14.524  1.00  0.00     0.037 A 
ATOM     26  C   UNL     1      -0.578   3.869 -11.261  1.00  0.00     0.037 A 
ATOM     27  C   UNL     1       4.193   2.259 -15.386  1.00  0.00     0.049 A 
ATOM     28  C   UNL     1      -0.459   3.918 -12.751  1.00  0.00     0.074 A 
ATOM     29  C   UNL     1       4.182   2.335 -16.769  1.00  0.00     0.029 A 
ATOM     30  N   UNL     1       2.969   2.743 -14.951  1.00  0.00    -0.354 N 
ATOM     31  N   UNL     1       0.549   3.556 -13.507  1.00  0.00    -0.248 NA
ATOM     32  C   UNL     1      -1.606   4.460 -13.490  1.00  0.00     0.031 C 
ATOM     33  C   UNL     1       2.964   2.895 -17.168  1.00  0.00     0.029 A 
ATOM     34  C   UNL     1       2.201   3.132 -16.036  1.00  0.00     0.049 A 
ATOM     35  H   UNL     1       2.687   2.801 -14.009  1.00  0.00     0.167 HD
ATOM     36  C   UNL     1       0.165   3.837 -14.809  1.00  0.00     0.074 A 
ATOM     37  C   UNL     1      -1.181   4.371 -14.743  1.00  0.00     0.031 C 
ATOM     38  C   UNL     1       0.871   3.677 -15.953  1.00  0.00     0.037 A 
BRANCH  25  39
ATOM     39  C   UNL     1       6.512   1.303 -15.169  1.00  0.00     0.057 A 
ATOM     40  C   UNL     1       7.394   2.228 -15.747  1.00  0.00     0.134 A 
ATOM     41  C   UNL     1       6.832  -0.054 -15.290  1.00  0.00     0.134 A 
ATOM     42  F   UNL     1       7.143   3.543 -15.676  1.00  0.00    -0.206 F 
ATOM     43  C   UNL     1       8.540   1.818 -16.431  1.00  0.00     0.040 A 
ATOM     44  C   UNL     1       7.986  -0.476 -15.954  1.00  0.00     0.040 A 
ATOM     45  F   UNL     1       6.036  -0.990 -14.751  1.00  0.00    -0.206 F 
ATOM     46  C   UNL     1       8.839   0.461 -16.535  1.00  0.00     0.006 A 
ENDBRANCH  25  39
BRANCH  26  47
ATOM     47  C   UNL     1      -1.827   4.261 -10.565  1.00  0.00     0.057 A 
ATOM     48  C   UNL     1      -1.892   5.419  -9.780  1.00  0.00     0.134 A 
ATOM     49  C   UNL     1      -2.958   3.439 -10.601  1.00  0.00     0.134 A 
ATOM     50  F   UNL     1      -0.834   6.240  -9.698  1.00  0.00    -0.206 F 
ATOM     51  C   UNL     1      -3.022   5.727  -9.024  1.00  0.00     0.040 A 
ATOM     52  C   UNL     1      -4.106   3.749  -9.870  1.00  0.00     0.040 A 
ATOM     53  F   UNL     1      -2.961   2.325 -11.348  1.00  0.00    -0.206 F 
ATOM     54  C   UNL     1      -4.134   4.888  -9.067  1.00  0.00     0.006 A 
ENDBRANCH  26  47
BRANCH  38  55
ATOM     55  C   UNL     1       0.204   4.093 -17.227  1.00  0.00     0.057 A 
ATOM     56  C   UNL     1      -0.285   3.139 -18.126  1.00  0.00     0.134 A 
ATOM     57  C   UNL     1       0.091   5.443 -17.583  1.00  0.00     0.134 A 
ATOM     58  F   UNL     1      -0.200   1.830 -17.844  1.00  0.00    -0.206 F 
ATOM     59  C   UNL     1      -0.861   3.513 -19.341  1.00  0.00     0.040 A 
ATOM     60  C   UNL     1      -0.499   5.830 -18.786  1.00  0.00     0.040 A 
ATOM     61  F   UNL     1       0.531   6.403 -16.756  1.00  0.00    -0.206 F 
ATOM     62  C   UNL     1      -0.971   4.862 -19.672  1.00  0.00     0.006 A 
ENDBRANCH  38  55
ENDBRANCH  12  13
ENDBRANCH   5   7
ENDBRANCH   2   3
ENDBRANCH   1   2
BRANCH   1  63
ATOM     63  C   UNL     1       6.788  -4.369  -6.117  1.00  0.00     0.023 C 
BRANCH  63  64
ATOM     64  C   UNL     1       5.942  -4.972  -4.994  1.00  0.00     0.116 C 
BRANCH  64  65
ATOM     65  N   UNL     1       5.970  -6.419  -5.005  1.00  0.00    -0.356 N 
ATOM     66  C   UNL     1       6.062  -7.367  -4.049  1.00  0.00     0.223 C 
ATOM     67  H   UNL     1       5.907  -6.795  -5.912  1.00  0.00     0.163 HD
ATOM     68  O   UNL     1       5.761  -8.511  -4.419  1.00  0.00    -0.275 OA
BRANCH  66  69
ATOM     69  C   UNL     1       6.553  -7.165  -2.611  1.00  0.00     0.086 C 
BRANCH  69  70
ATOM     70  C   UNL     1       8.070  -6.865  -2.511  1.00  0.00     0.049 C 
BRANCH  70  71
ATOM     71  C   UNL     1       8.521  -5.465  -2.198  1.00  0.00    -0.044 A 
ATOM     72  C   UNL     1       8.632  -5.008  -0.876  1.00  0.00     0.004 A 
ATOM     73  C   UNL     1       8.856  -4.592  -3.232  1.00  0.00     0.043 A 
ATOM     74  C   UNL     1       8.987  -3.682  -0.609  1.00  0.00     0.003 A 
ATOM     75  C   UNL     1       9.161  -3.264  -2.964  1.00  0.00     0.123 A 
ATOM     76  C   UNL     1       9.223  -2.797  -1.659  1.00  0.00     0.039 A 
ATOM     77  F   UNL     1       9.374  -2.423  -3.984  1.00  0.00    -0.207 F 
ENDBRANCH  70  71
ENDBRANCH  69  70
BRANCH  69  78
ATOM     78  C   UNL     1       5.599  -6.531  -1.564  1.00  0.00     0.007 C 
ATOM     79  C   UNL     1       5.173  -5.070  -1.768  1.00  0.00     0.033 C 
ATOM     80  C   UNL     1       4.313  -7.375  -1.395  1.00  0.00     0.040 C 
ATOM     81  C   UNL     1       4.337  -4.585  -0.588  1.00  0.00     0.161 C 
ATOM     82  C   UNL     1       3.501  -6.845  -0.208  1.00  0.00     0.069 C 
ATOM     83  O   UNL     1       3.209  -5.437  -0.410  1.00  0.00    -0.375 OA
ATOM     84  C   UNL     1       2.249  -7.705   0.135  1.00  0.00     0.035 C 
ATOM     85  C   UNL     1       4.033  -7.233   1.207  1.00  0.00     0.035 C 
ATOM     86  C   UNL     1       2.571  -7.473   1.623  1.00  0.00     0.006 C 
ENDBRANCH  69  78
ENDBRANCH  66  69
ENDBRANCH  64  65
ENDBRANCH  63  64
ENDBRANCH   1  63
TORSDOF 14
