REMARK SMILES COc1ccc(-c2ccc(S(=O)(=O)NC(C)(C)C)cc2)c(C(=O)NCCCCNC(=O)c2ccc(-c3c4nc(c(-c5c(F)cccc5F)c5ccc([nH]5)c(-c5c(F)cccc5F)c5nc(c(-c6c(F)cccc6F)c6ccc3[nH]6)C=C5)C=C4)cc2)c1
REMARK SMILES IDX 25 1 24 2 22 3 23 4 21 6 3 7 4 8 86 9 5 10 6 11 2 12 1 13
REMARK SMILES IDX 7 14 8 15 20 16 9 17 19 18 10 19 11 20 12 21 13 22 14 23
REMARK SMILES IDX 15 25 16 26 17 27 18 28 26 29 27 30 28 31 29 32 30 33 31 35
REMARK SMILES IDX 32 36 33 37 85 38 34 39 84 40 35 41 36 42 37 43 78 44 38 45
REMARK SMILES IDX 83 46 77 47 79 48 39 49 82 50 76 51 75 52 40 54 66 55 49 56
REMARK SMILES IDX 65 57 50 58 53 59 64 60 80 61 51 62 52 63 63 65 81 66 54 67
REMARK SMILES IDX 41 68 42 69 47 70 43 71 44 72 46 73 48 74 45 75 67 76 68 77
REMARK SMILES IDX 73 78 69 79 70 80 72 81 74 82 71 83 55 84 56 85 61 86 57 87
REMARK SMILES IDX 58 88 60 89 62 90 59 91
REMARK H PARENT 24 5 14 24 29 34 79 53 53 64
REMARK Flexibility Score: inf
ROOT
ATOM      1  C   UNL     1       4.406  -1.868  -0.894  1.00  0.00     0.116 C 
ENDROOT
BRANCH   1   2
ATOM      2  N   UNL     1       4.513  -2.212  -2.304  1.00  0.00    -0.352 N 
ATOM      3  C   UNL     1       3.530  -2.389  -3.262  1.00  0.00     0.252 C 
ATOM      4  O   UNL     1       3.877  -2.449  -4.437  1.00  0.00    -0.269 OA
ATOM      5  H   UNL     1       5.433  -2.340  -2.629  1.00  0.00     0.163 HD
BRANCH   3   6
ATOM      6  C   UNL     1       2.097  -2.539  -2.872  1.00  0.00     0.051 A 
ATOM      7  C   UNL     1       0.294  -1.775  -1.416  1.00  0.00     0.119 A 
ATOM      8  C   UNL     1      -0.475  -2.857  -1.822  1.00  0.00     0.047 A 
ATOM      9  C   UNL     1       1.560  -1.602  -1.969  1.00  0.00     0.060 A 
ATOM     10  C   UNL     1      -0.006  -3.720  -2.814  1.00  0.00     0.013 A 
ATOM     11  C   UNL     1       1.271  -3.560  -3.396  1.00  0.00    -0.005 A 
BRANCH   7  12
ATOM     12  O   UNL     1      -0.284  -0.971  -0.474  1.00  0.00    -0.497 OA
ATOM     13  C   UNL     1       0.492   0.121   0.004  1.00  0.00     0.278 C 
ENDBRANCH   7  12
BRANCH  11  14
ATOM     14  C   UNL     1       1.595  -4.392  -4.576  1.00  0.00    -0.018 A 
ATOM     15  C   UNL     1       0.725  -4.359  -5.687  1.00  0.00     0.010 A 
ATOM     16  C   UNL     1       2.736  -5.203  -4.662  1.00  0.00     0.010 A 
ATOM     17  C   UNL     1       0.973  -5.114  -6.833  1.00  0.00     0.022 A 
ATOM     18  C   UNL     1       3.019  -5.927  -5.829  1.00  0.00     0.022 A 
ATOM     19  C   UNL     1       2.124  -5.896  -6.900  1.00  0.00     0.082 A 
BRANCH  19  20
ATOM     20  S   UNL     1       2.389  -6.857  -8.364  1.00  0.00     0.241 S 
ATOM     21  O   UNL     1       1.109  -7.357  -8.809  1.00  0.00    -0.207 OA
ATOM     22  O   UNL     1       3.226  -6.056  -9.232  1.00  0.00    -0.207 OA
BRANCH  20  23
ATOM     23  N   UNL     1       3.350  -8.149  -7.905  1.00  0.00    -0.206 NA
ATOM     24  H   UNL     1       4.034  -7.752  -7.261  1.00  0.00     0.141 HD
BRANCH  23  25
ATOM     25  C   UNL     1       2.906  -9.405  -7.261  1.00  0.00     0.025 C 
ATOM     26  C   UNL     1       1.798 -10.107  -8.048  1.00  0.00     0.028 C 
ATOM     27  C   UNL     1       4.143 -10.326  -7.240  1.00  0.00     0.028 C 
ATOM     28  C   UNL     1       2.460  -9.164  -5.819  1.00  0.00     0.028 C 
ENDBRANCH  23  25
ENDBRANCH  20  23
ENDBRANCH  19  20
ENDBRANCH  11  14
ENDBRANCH   3   6
ENDBRANCH   1   2
BRANCH   1  29
ATOM     29  C   UNL     1       5.456  -2.487   0.021  1.00  0.00     0.023 C 
BRANCH  29  30
ATOM     30  C   UNL     1       6.920  -2.299  -0.361  1.00  0.00     0.023 C 
BRANCH  30  31
ATOM     31  C   UNL     1       7.355  -0.894  -0.756  1.00  0.00     0.116 C 
BRANCH  31  32
ATOM     32  N   UNL     1       7.126   0.112   0.269  1.00  0.00    -0.352 N 
ATOM     33  C   UNL     1       7.994   1.025   0.823  1.00  0.00     0.251 C 
ATOM     34  H   UNL     1       6.207   0.145   0.621  1.00  0.00     0.163 HD
ATOM     35  O   UNL     1       7.606   1.765   1.723  1.00  0.00    -0.269 OA
BRANCH  33  36
ATOM     36  C   UNL     1       9.405   1.085   0.381  1.00  0.00     0.039 A 
ATOM     37  C   UNL     1      10.409   1.135   1.354  1.00  0.00     0.014 A 
ATOM     38  C   UNL     1       9.748   1.072  -0.973  1.00  0.00     0.014 A 
ATOM     39  C   UNL     1      11.751   1.071   0.973  1.00  0.00     0.010 A 
ATOM     40  C   UNL     1      11.082   0.930  -1.348  1.00  0.00     0.010 A 
ATOM     41  C   UNL     1      12.097   0.916  -0.379  1.00  0.00    -0.014 A 
BRANCH  41  42
ATOM     42  C   UNL     1      13.509   0.718  -0.798  1.00  0.00     0.031 A 
ATOM     43  C   UNL     1      14.187   1.726  -1.682  1.00  0.00     0.074 A 
ATOM     44  C   UNL     1      14.156  -0.412  -0.449  1.00  0.00     0.049 A 
ATOM     45  N   UNL     1      15.375   1.681  -2.230  1.00  0.00    -0.248 NA
ATOM     46  C   UNL     1      13.415   2.933  -2.019  1.00  0.00     0.031 C 
ATOM     47  C   UNL     1      13.595  -1.496   0.359  1.00  0.00     0.029 A 
ATOM     48  N   UNL     1      15.425  -0.844  -0.746  1.00  0.00    -0.354 N 
ATOM     49  C   UNL     1      15.486   2.840  -2.988  1.00  0.00     0.074 A 
ATOM     50  C   UNL     1      14.227   3.544  -2.869  1.00  0.00     0.031 C 
ATOM     51  C   UNL     1      14.518  -2.460   0.506  1.00  0.00     0.029 A 
ATOM     52  C   UNL     1      15.723  -2.080  -0.224  1.00  0.00     0.049 A 
ATOM     53  H   UNL     1      16.062  -0.318  -1.282  1.00  0.00     0.167 HD
ATOM     54  C   UNL     1      16.547   3.289  -3.700  1.00  0.00     0.037 A 
ATOM     55  C   UNL     1      16.839  -2.827  -0.329  1.00  0.00     0.037 A 
ATOM     56  C   UNL     1      17.808   2.603  -3.797  1.00  0.00     0.049 A 
ATOM     57  C   UNL     1      18.008  -2.301  -1.112  1.00  0.00     0.074 A 
ATOM     58  C   UNL     1      18.960   3.004  -4.450  1.00  0.00     0.029 A 
ATOM     59  N   UNL     1      18.083   1.372  -3.220  1.00  0.00    -0.354 N 
ATOM     60  N   UNL     1      18.119  -1.175  -1.774  1.00  0.00    -0.248 NA
ATOM     61  C   UNL     1      19.210  -3.146  -1.158  1.00  0.00     0.031 C 
ATOM     62  C   UNL     1      19.924   2.002  -4.295  1.00  0.00     0.029 A 
ATOM     63  C   UNL     1      19.383   0.994  -3.512  1.00  0.00     0.049 A 
ATOM     64  H   UNL     1      17.448   0.845  -2.683  1.00  0.00     0.167 HD
ATOM     65  C   UNL     1      19.406  -1.165  -2.295  1.00  0.00     0.074 A 
ATOM     66  C   UNL     1      20.044  -2.390  -1.860  1.00  0.00     0.031 C 
ATOM     67  C   UNL     1      20.006  -0.225  -3.065  1.00  0.00     0.037 A 
BRANCH  54  68
ATOM     68  C   UNL     1      16.387   4.594  -4.422  1.00  0.00     0.057 A 
ATOM     69  C   UNL     1      16.330   5.813  -3.733  1.00  0.00     0.134 A 
ATOM     70  C   UNL     1      16.316   4.638  -5.819  1.00  0.00     0.134 A 
ATOM     71  F   UNL     1      16.379   5.838  -2.392  1.00  0.00    -0.206 F 
ATOM     72  C   UNL     1      16.180   7.026  -4.406  1.00  0.00     0.040 A 
ATOM     73  C   UNL     1      16.192   5.847  -6.506  1.00  0.00     0.040 A 
ATOM     74  F   UNL     1      16.372   3.508  -6.541  1.00  0.00    -0.206 F 
ATOM     75  C   UNL     1      16.116   7.045  -5.798  1.00  0.00     0.006 A 
ENDBRANCH  54  68
BRANCH  55  76
ATOM     76  C   UNL     1      16.913  -4.147   0.345  1.00  0.00     0.057 A 
ATOM     77  C   UNL     1      17.718  -4.336   1.474  1.00  0.00     0.134 A 
ATOM     78  C   UNL     1      16.189  -5.250  -0.124  1.00  0.00     0.134 A 
ATOM     79  F   UNL     1      18.449  -3.322   1.958  1.00  0.00    -0.206 F 
ATOM     80  C   UNL     1      17.816  -5.579   2.102  1.00  0.00     0.040 A 
ATOM     81  C   UNL     1      16.260  -6.492   0.507  1.00  0.00     0.040 A 
ATOM     82  F   UNL     1      15.394  -5.131  -1.198  1.00  0.00    -0.206 F 
ATOM     83  C   UNL     1      17.081  -6.661   1.621  1.00  0.00     0.006 A 
ENDBRANCH  55  76
BRANCH  67  84
ATOM     84  C   UNL     1      21.431  -0.470  -3.459  1.00  0.00     0.057 A 
ATOM     85  C   UNL     1      21.775  -1.414  -4.435  1.00  0.00     0.134 A 
ATOM     86  C   UNL     1      22.468   0.276  -2.884  1.00  0.00     0.134 A 
ATOM     87  F   UNL     1      20.828  -2.169  -5.013  1.00  0.00    -0.206 F 
ATOM     88  C   UNL     1      23.102  -1.620  -4.812  1.00  0.00     0.040 A 
ATOM     89  C   UNL     1      23.796   0.094  -3.268  1.00  0.00     0.040 A 
ATOM     90  F   UNL     1      22.204   1.200  -1.948  1.00  0.00    -0.206 F 
ATOM     91  C   UNL     1      24.117  -0.860  -4.232  1.00  0.00     0.006 A 
ENDBRANCH  67  84
ENDBRANCH  41  42
ENDBRANCH  33  36
ENDBRANCH  31  32
ENDBRANCH  30  31
ENDBRANCH  29  30
ENDBRANCH   1  29
TORSDOF 16
