REMARK SMILES COc1cccc(C(=O)NCc2ccc(OC)c(C(=O)NCCCCNC(=O)c3ccc(-c4c5nc(c(-c6c(F)cccc6F)c6ccc([nH]6)c(-c6c(F)cccc6F)c6nc(c(-c7c(F)cccc7F)c7ccc4[nH]7)C=C6)C=C5)cc3)c2)c1
REMARK SMILES IDX 22 1 21 2 19 3 20 4 18 6 12 7 13 8 83 9 14 10 15 11 11 12
REMARK SMILES IDX 10 13 8 14 9 15 7 17 3 18 4 19 84 20 5 21 6 22 2 23 1 24
REMARK SMILES IDX 16 25 17 26 23 27 24 28 25 29 26 30 27 31 28 33 29 34 30 35
REMARK SMILES IDX 82 36 31 37 81 38 32 39 33 40 34 41 75 42 35 43 80 44 74 45
REMARK SMILES IDX 76 46 36 47 79 48 73 49 72 50 37 52 63 53 46 54 62 55 47 56
REMARK SMILES IDX 50 57 61 58 77 59 48 60 49 61 60 63 78 64 51 65 38 66 39 67
REMARK SMILES IDX 44 68 40 69 41 70 43 71 45 72 42 73 64 74 65 75 70 76 66 77
REMARK SMILES IDX 67 78 69 79 71 80 68 81 52 82 53 83 58 84 54 85 55 86 57 87
REMARK SMILES IDX 59 88 56 89
REMARK H PARENT 21 5 10 16 26 32 76 51 50 62
REMARK Flexibility Score: inf
ROOT
ATOM      1  C   UNL     1       7.644   3.898  -1.730  1.00  0.00     0.116 C 
ENDROOT
BRANCH   1   2
ATOM      2  N   UNL     1       7.888   3.337  -3.050  1.00  0.00    -0.352 N 
ATOM      3  C   UNL     1       7.389   2.202  -3.659  1.00  0.00     0.255 C 
ATOM      4  O   UNL     1       7.599   2.064  -4.861  1.00  0.00    -0.269 OA
ATOM      5  H   UNL     1       8.517   3.854  -3.603  1.00  0.00     0.163 HD
BRANCH   3   6
ATOM      6  C   UNL     1       6.617   1.185  -2.890  1.00  0.00     0.082 A 
ATOM      7  C   UNL     1       5.220   0.806  -0.931  1.00  0.00    -0.028 A 
ATOM      8  C   UNL     1       5.458  -0.568  -1.039  1.00  0.00     0.009 A 
ATOM      9  C   UNL     1       5.671   1.640  -1.957  1.00  0.00     0.023 A 
ATOM     10  C   UNL     1       6.259  -1.064  -2.067  1.00  0.00     0.047 A 
ATOM     11  C   UNL     1       6.885  -0.192  -2.966  1.00  0.00     0.131 A 
BRANCH   7  12
ATOM     12  C   UNL     1       4.615   1.334   0.346  1.00  0.00     0.152 C 
BRANCH  12  13
ATOM     13  N   UNL     1       4.716   2.774   0.527  1.00  0.00    -0.348 N 
ATOM     14  C   UNL     1       3.868   3.836   0.363  1.00  0.00     0.251 C 
ATOM     15  O   UNL     1       4.361   4.959   0.479  1.00  0.00    -0.269 OA
ATOM     16  H   UNL     1       5.607   3.050   0.841  1.00  0.00     0.164 HD
BRANCH  14  17
ATOM     17  C   UNL     1       2.429   3.710   0.005  1.00  0.00     0.043 A 
ATOM     18  C   UNL     1       0.348   2.475  -0.189  1.00  0.00     0.119 A 
ATOM     19  C   UNL     1      -0.255   3.574  -0.795  1.00  0.00     0.046 A 
ATOM     20  C   UNL     1       1.657   2.582   0.281  1.00  0.00     0.060 A 
ATOM     21  C   UNL     1       0.464   4.754  -0.977  1.00  0.00     0.005 A 
ATOM     22  C   UNL     1       1.807   4.814  -0.599  1.00  0.00     0.014 A 
BRANCH  18  23
ATOM     23  O   UNL     1      -0.425   1.351  -0.073  1.00  0.00    -0.497 OA
ATOM     24  C   UNL     1       0.293   0.123   0.041  1.00  0.00     0.278 C 
ENDBRANCH  18  23
ENDBRANCH  14  17
ENDBRANCH  12  13
ENDBRANCH   7  12
BRANCH  11  25
ATOM     25  O   UNL     1       7.869  -0.785  -3.710  1.00  0.00    -0.496 OA
ATOM     26  C   UNL     1       7.709  -0.687  -5.122  1.00  0.00     0.278 C 
ENDBRANCH  11  25
ENDBRANCH   3   6
ENDBRANCH   1   2
BRANCH   1  27
ATOM     27  C   UNL     1       8.848   4.546  -1.064  1.00  0.00     0.023 C 
BRANCH  27  28
ATOM     28  C   UNL     1       9.587   5.599  -1.875  1.00  0.00     0.023 C 
BRANCH  28  29
ATOM     29  C   UNL     1       8.722   6.666  -2.531  1.00  0.00     0.116 C 
BRANCH  29  30
ATOM     30  N   UNL     1       7.958   7.470  -1.589  1.00  0.00    -0.352 N 
ATOM     31  C   UNL     1       7.944   8.839  -1.421  1.00  0.00     0.251 C 
ATOM     32  H   UNL     1       7.365   6.965  -0.987  1.00  0.00     0.163 HD
ATOM     33  O   UNL     1       7.297   9.354  -0.524  1.00  0.00    -0.269 OA
BRANCH  31  34
ATOM     34  C   UNL     1       8.765   9.685  -2.314  1.00  0.00     0.039 A 
ATOM     35  C   UNL     1       9.634  10.620  -1.744  1.00  0.00     0.014 A 
ATOM     36  C   UNL     1       8.716   9.520  -3.700  1.00  0.00     0.014 A 
ATOM     37  C   UNL     1      10.527  11.318  -2.559  1.00  0.00     0.010 A 
ATOM     38  C   UNL     1       9.661  10.154  -4.499  1.00  0.00     0.010 A 
ATOM     39  C   UNL     1      10.582  11.051  -3.936  1.00  0.00    -0.014 A 
BRANCH  39  40
ATOM     40  C   UNL     1      11.592  11.691  -4.816  1.00  0.00     0.031 A 
ATOM     41  C   UNL     1      11.143  12.588  -5.935  1.00  0.00     0.074 A 
ATOM     42  C   UNL     1      12.899  11.395  -4.669  1.00  0.00     0.049 A 
ATOM     43  N   UNL     1      11.845  13.120  -6.902  1.00  0.00    -0.248 NA
ATOM     44  C   UNL     1       9.706  12.901  -5.990  1.00  0.00     0.031 C 
ATOM     45  C   UNL     1      13.460  10.510  -3.647  1.00  0.00     0.029 A 
ATOM     46  N   UNL     1      13.992  11.794  -5.397  1.00  0.00    -0.354 N 
ATOM     47  C   UNL     1      10.933  13.806  -7.694  1.00  0.00     0.074 A 
ATOM     48  C   UNL     1       9.623  13.588  -7.120  1.00  0.00     0.031 C 
ATOM     49  C   UNL     1      14.793  10.447  -3.802  1.00  0.00     0.029 A 
ATOM     50  C   UNL     1      15.176  11.251  -4.958  1.00  0.00     0.049 A 
ATOM     51  H   UNL     1      13.933  12.411  -6.162  1.00  0.00     0.167 HD
ATOM     52  C   UNL     1      11.169  14.566  -8.789  1.00  0.00     0.037 A 
ATOM     53  C   UNL     1      16.426  11.378  -5.443  1.00  0.00     0.037 A 
ATOM     54  C   UNL     1      12.475  14.814  -9.336  1.00  0.00     0.049 A 
ATOM     55  C   UNL     1      16.661  12.231  -6.659  1.00  0.00     0.074 A 
ATOM     56  C   UNL     1      12.822  15.609 -10.414  1.00  0.00     0.029 A 
ATOM     57  N   UNL     1      13.652  14.275  -8.839  1.00  0.00    -0.354 N 
ATOM     58  N   UNL     1      15.794  12.907  -7.373  1.00  0.00    -0.248 NA
ATOM     59  C   UNL     1      18.047  12.340  -7.135  1.00  0.00     0.031 C 
ATOM     60  C   UNL     1      14.208  15.532 -10.585  1.00  0.00     0.029 A 
ATOM     61  C   UNL     1      14.726  14.716  -9.593  1.00  0.00     0.049 A 
ATOM     62  H   UNL     1      13.714  13.669  -8.066  1.00  0.00     0.167 HD
ATOM     63  C   UNL     1      16.532  13.546  -8.361  1.00  0.00     0.074 A 
ATOM     64  C   UNL     1      17.918  13.181  -8.152  1.00  0.00     0.031 C 
ATOM     65  C   UNL     1      16.101  14.362  -9.352  1.00  0.00     0.037 A 
BRANCH  52  66
ATOM     66  C   UNL     1       9.983  15.194  -9.459  1.00  0.00     0.057 A 
ATOM     67  C   UNL     1       9.288  16.260  -8.875  1.00  0.00     0.134 A 
ATOM     68  C   UNL     1       9.547  14.745 -10.712  1.00  0.00     0.134 A 
ATOM     69  F   UNL     1       9.647  16.726  -7.669  1.00  0.00    -0.206 F 
ATOM     70  C   UNL     1       8.185  16.842  -9.501  1.00  0.00     0.040 A 
ATOM     71  C   UNL     1       8.461  15.336 -11.359  1.00  0.00     0.040 A 
ATOM     72  F   UNL     1      10.172  13.731 -11.328  1.00  0.00    -0.206 F 
ATOM     73  C   UNL     1       7.773  16.384 -10.751  1.00  0.00     0.006 A 
ENDBRANCH  52  66
BRANCH  53  74
ATOM     74  C   UNL     1      17.560  10.698  -4.770  1.00  0.00     0.057 A 
ATOM     75  C   UNL     1      18.512  11.432  -4.052  1.00  0.00     0.134 A 
ATOM     76  C   UNL     1      17.733   9.311  -4.840  1.00  0.00     0.134 A 
ATOM     77  F   UNL     1      18.411  12.767  -3.968  1.00  0.00    -0.206 F 
ATOM     78  C   UNL     1      19.607  10.815  -3.445  1.00  0.00     0.040 A 
ATOM     79  C   UNL     1      18.811   8.678  -4.218  1.00  0.00     0.040 A 
ATOM     80  F   UNL     1      16.853   8.552  -5.507  1.00  0.00    -0.206 F 
ATOM     81  C   UNL     1      19.756   9.431  -3.525  1.00  0.00     0.006 A 
ENDBRANCH  53  74
BRANCH  65  82
ATOM     82  C   UNL     1      17.139  14.958 -10.254  1.00  0.00     0.057 A 
ATOM     83  C   UNL     1      17.765  14.209 -11.256  1.00  0.00     0.134 A 
ATOM     84  C   UNL     1      17.471  16.315 -10.151  1.00  0.00     0.134 A 
ATOM     85  F   UNL     1      17.498  12.902 -11.395  1.00  0.00    -0.206 F 
ATOM     86  C   UNL     1      18.697  14.786 -12.119  1.00  0.00     0.040 A 
ATOM     87  C   UNL     1      18.385  16.908 -11.022  1.00  0.00     0.040 A 
ATOM     88  F   UNL     1      16.899  17.088  -9.215  1.00  0.00    -0.206 F 
ATOM     89  C   UNL     1      19.003  16.142 -12.008  1.00  0.00     0.006 A 
ENDBRANCH  65  82
ENDBRANCH  39  40
ENDBRANCH  31  34
ENDBRANCH  29  30
ENDBRANCH  28  29
ENDBRANCH  27  28
ENDBRANCH   1  27
TORSDOF 16
