REMARK SMILES O=C(NCCCCNC(=O)[C@H]1CC=CC[C@@H]1C(=O)NC1CCCCC1)c1ccc(-c2c3nc(c(-c4c(F)cccc4F)c4ccc([nH]4)c(-c4c(F)cccc4F)c4nc(c(-c5c(F)cccc5F)c5ccc2[nH]5)C=C4)C=C3)cc1
REMARK SMILES IDX 5 1 4 2 3 3 1 4 2 5 26 7 27 8 79 9 28 10 78 11 29 12 30 13
REMARK SMILES IDX 31 14 72 15 32 16 77 17 71 18 73 19 33 20 76 21 70 22 69 23
REMARK SMILES IDX 34 25 60 26 43 27 59 28 44 29 47 30 58 31 74 32 45 33 46 34
REMARK SMILES IDX 57 36 75 37 48 38 35 39 36 40 41 41 37 42 38 43 40 44 42 45
REMARK SMILES IDX 39 46 61 47 62 48 67 49 63 50 64 51 66 52 68 53 65 54 49 55
REMARK SMILES IDX 50 56 55 57 51 58 52 59 54 60 56 61 53 62 6 63 7 64 8 65
REMARK SMILES IDX 9 66 10 68 11 69 12 70 16 71 13 72 15 73 14 74 17 75 18 76
REMARK SMILES IDX 19 77 20 79 21 80 25 81 22 82 24 83 23 84
REMARK H PARENT 3 6 73 24 47 35 8 67 19 78
REMARK Flexibility Score: inf
ROOT
ATOM      1  C   UNL     1       5.676   1.689  -1.143  1.00  0.00     0.023 C 
ENDROOT
BRANCH   1   2
ATOM      2  C   UNL     1       4.831   0.721  -0.340  1.00  0.00     0.116 C 
BRANCH   2   3
ATOM      3  N   UNL     1       3.402   1.000  -0.287  1.00  0.00    -0.352 N 
ATOM      4  O   UNL     1       1.206   0.364  -0.326  1.00  0.00    -0.269 OA
ATOM      5  C   UNL     1       2.391   0.055  -0.367  1.00  0.00     0.251 C 
ATOM      6  H   UNL     1       3.132   1.941  -0.187  1.00  0.00     0.163 HD
BRANCH   5   7
ATOM      7  C   UNL     1       2.800  -1.354  -0.569  1.00  0.00     0.039 A 
ATOM      8  C   UNL     1       3.727  -1.917   0.309  1.00  0.00     0.014 A 
ATOM      9  C   UNL     1       2.464  -1.997  -1.763  1.00  0.00     0.014 A 
ATOM     10  C   UNL     1       4.490  -2.993  -0.123  1.00  0.00     0.010 A 
ATOM     11  C   UNL     1       3.146  -3.162  -2.129  1.00  0.00     0.010 A 
ATOM     12  C   UNL     1       4.207  -3.637  -1.343  1.00  0.00    -0.014 A 
BRANCH  12  13
ATOM     13  C   UNL     1       5.012  -4.826  -1.736  1.00  0.00     0.031 A 
ATOM     14  C   UNL     1       5.808  -4.869  -3.016  1.00  0.00     0.074 A 
ATOM     15  C   UNL     1       5.052  -5.873  -0.888  1.00  0.00     0.049 A 
ATOM     16  N   UNL     1       6.520  -5.854  -3.507  1.00  0.00    -0.248 NA
ATOM     17  C   UNL     1       5.803  -3.664  -3.862  1.00  0.00     0.031 C 
ATOM     18  C   UNL     1       4.321  -5.955   0.380  1.00  0.00     0.029 A 
ATOM     19  N   UNL     1       5.748  -7.052  -0.943  1.00  0.00    -0.354 N 
ATOM     20  C   UNL     1       7.004  -5.410  -4.732  1.00  0.00     0.074 A 
ATOM     21  C   UNL     1       6.513  -4.061  -4.912  1.00  0.00     0.031 C 
ATOM     22  C   UNL     1       4.660  -7.083   1.014  1.00  0.00     0.029 A 
ATOM     23  C   UNL     1       5.551  -7.852   0.156  1.00  0.00     0.049 A 
ATOM     24  H   UNL     1       6.331  -7.301  -1.696  1.00  0.00     0.167 HD
ATOM     25  C   UNL     1       7.782  -6.073  -5.622  1.00  0.00     0.037 A 
ATOM     26  C   UNL     1       6.002  -9.086   0.436  1.00  0.00     0.037 A 
ATOM     27  C   UNL     1       8.310  -7.399  -5.415  1.00  0.00     0.049 A 
ATOM     28  C   UNL     1       6.864  -9.788  -0.564  1.00  0.00     0.074 A 
ATOM     29  C   UNL     1       9.149  -8.132  -6.240  1.00  0.00     0.029 A 
ATOM     30  N   UNL     1       8.058  -8.188  -4.304  1.00  0.00    -0.354 N 
ATOM     31  N   UNL     1       7.302  -9.355  -1.720  1.00  0.00    -0.248 NA
ATOM     32  C   UNL     1       7.276 -11.158  -0.234  1.00  0.00     0.031 C 
ATOM     33  C   UNL     1       9.375  -9.377  -5.643  1.00  0.00     0.029 A 
ATOM     34  C   UNL     1       8.707  -9.406  -4.430  1.00  0.00     0.049 A 
ATOM     35  H   UNL     1       7.499  -7.922  -3.538  1.00  0.00     0.167 HD
ATOM     36  C   UNL     1       8.033 -10.400  -2.261  1.00  0.00     0.074 A 
ATOM     37  C   UNL     1       8.009 -11.476  -1.291  1.00  0.00     0.031 C 
ATOM     38  C   UNL     1       8.658 -10.468  -3.461  1.00  0.00     0.037 A 
BRANCH  25  39
ATOM     39  C   UNL     1       8.107  -5.398  -6.924  1.00  0.00     0.057 A 
ATOM     40  C   UNL     1       9.076  -4.393  -7.019  1.00  0.00     0.134 A 
ATOM     41  C   UNL     1       7.511  -5.836  -8.115  1.00  0.00     0.134 A 
ATOM     42  F   UNL     1       9.681  -3.925  -5.917  1.00  0.00    -0.206 F 
ATOM     43  C   UNL     1       9.440  -3.845  -8.252  1.00  0.00     0.040 A 
ATOM     44  C   UNL     1       7.878  -5.309  -9.355  1.00  0.00     0.040 A 
ATOM     45  F   UNL     1       6.582  -6.804  -8.095  1.00  0.00    -0.206 F 
ATOM     46  C   UNL     1       8.846  -4.310  -9.426  1.00  0.00     0.006 A 
ENDBRANCH  25  39
BRANCH  26  47
ATOM     47  C   UNL     1       5.599  -9.741   1.704  1.00  0.00     0.057 A 
ATOM     48  C   UNL     1       6.519  -9.949   2.735  1.00  0.00     0.134 A 
ATOM     49  C   UNL     1       4.274 -10.137   1.925  1.00  0.00     0.134 A 
ATOM     50  F   UNL     1       7.805  -9.604   2.574  1.00  0.00    -0.206 F 
ATOM     51  C   UNL     1       6.137 -10.533   3.943  1.00  0.00     0.040 A 
ATOM     52  C   UNL     1       3.872 -10.695   3.138  1.00  0.00     0.040 A 
ATOM     53  F   UNL     1       3.344  -9.952   0.976  1.00  0.00    -0.206 F 
ATOM     54  C   UNL     1       4.807 -10.899   4.150  1.00  0.00     0.006 A 
ENDBRANCH  26  47
BRANCH  38  55
ATOM     55  C   UNL     1       9.361 -11.751  -3.776  1.00  0.00     0.057 A 
ATOM     56  C   UNL     1       8.650 -12.901  -4.143  1.00  0.00     0.134 A 
ATOM     57  C   UNL     1      10.756 -11.840  -3.712  1.00  0.00     0.134 A 
ATOM     58  F   UNL     1       7.309 -12.880  -4.204  1.00  0.00    -0.206 F 
ATOM     59  C   UNL     1       9.303 -14.103  -4.413  1.00  0.00     0.040 A 
ATOM     60  C   UNL     1      11.421 -13.032  -3.999  1.00  0.00     0.040 A 
ATOM     61  F   UNL     1      11.491 -10.772  -3.369  1.00  0.00    -0.206 F 
ATOM     62  C   UNL     1      10.693 -14.170  -4.344  1.00  0.00     0.006 A 
ENDBRANCH  38  55
ENDBRANCH  12  13
ENDBRANCH   5   7
ENDBRANCH   2   3
ENDBRANCH   1   2
BRANCH   1  63
ATOM     63  C   UNL     1       6.044   2.981  -0.433  1.00  0.00     0.023 C 
BRANCH  63  64
ATOM     64  C   UNL     1       6.444   2.831   1.038  1.00  0.00     0.116 C 
BRANCH  64  65
ATOM     65  N   UNL     1       7.408   3.803   1.525  1.00  0.00    -0.356 N 
ATOM     66  C   UNL     1       7.316   5.021   2.109  1.00  0.00     0.224 C 
ATOM     67  H   UNL     1       8.340   3.510   1.403  1.00  0.00     0.163 HD
ATOM     68  O   UNL     1       8.341   5.421   2.677  1.00  0.00    -0.275 OA
BRANCH  66  69
ATOM     69  C   UNL     1       6.080   5.925   2.100  1.00  0.00     0.095 C 
ATOM     70  C   UNL     1       5.240   5.830   0.828  1.00  0.00     0.041 C 
ATOM     71  C   UNL     1       5.281   5.871   3.409  1.00  0.00     0.095 C 
ATOM     72  C   UNL     1       3.906   5.159   0.984  1.00  0.00    -0.030 C 
ATOM     73  C   UNL     1       4.247   4.730   3.413  1.00  0.00     0.041 C 
ATOM     74  C   UNL     1       3.465   4.646   2.139  1.00  0.00    -0.030 C 
BRANCH  71  75
ATOM     75  C   UNL     1       4.583   7.129   3.977  1.00  0.00     0.224 C 
ATOM     76  O   UNL     1       4.255   7.114   5.175  1.00  0.00    -0.275 OA
ATOM     77  N   UNL     1       4.175   8.232   3.301  1.00  0.00    -0.353 N 
ATOM     78  H   UNL     1       3.474   8.736   3.774  1.00  0.00     0.163 HD
BRANCH  77  79
ATOM     79  C   UNL     1       4.548   8.832   2.034  1.00  0.00     0.082 C 
ATOM     80  C   UNL     1       3.411   8.830   1.005  1.00  0.00     0.025 C 
ATOM     81  C   UNL     1       5.065  10.261   2.206  1.00  0.00     0.025 C 
ATOM     82  C   UNL     1       3.929   9.311  -0.355  1.00  0.00     0.002 C 
ATOM     83  C   UNL     1       5.656  10.738   0.878  1.00  0.00     0.002 C 
ATOM     84  C   UNL     1       4.644  10.660  -0.267  1.00  0.00     0.000 C 
ENDBRANCH  77  79
ENDBRANCH  71  75
ENDBRANCH  66  69
ENDBRANCH  64  65
ENDBRANCH  63  64
ENDBRANCH   1  63
TORSDOF 13
