REMARK SMILES Cc1cc(C)c(C(N)=O)c(N[C@H]2C=C[C@H](C(=O)NCCCCNC(=O)c3ccc(-c4c5nc(c(-c6c(F)cccc6F)c6ccc([nH]6)c(-c6c(F)cccc6F)c6nc(c(-c7c(F)cccc7F)c7ccc4[nH]7)C=C6)C=C5)cc3)C2)n1
REMARK SMILES IDX 20 1 19 2 18 3 16 4 17 5 15 7 12 8 13 9 80 10 14 11 11 12
REMARK SMILES IDX 10 14 1 15 2 16 3 17 81 18 4 19 5 20 6 21 7 22 8 23 9 24
REMARK SMILES IDX 21 27 22 28 23 29 24 30 25 32 26 33 27 34 79 35 28 36 78 37
REMARK SMILES IDX 29 38 30 39 31 40 72 41 32 42 77 43 71 44 73 45 33 46 76 47
REMARK SMILES IDX 70 48 69 49 34 51 60 52 43 53 59 54 44 55 47 56 58 57 74 58
REMARK SMILES IDX 45 59 46 60 57 62 75 63 48 64 35 65 36 66 41 67 37 68 38 69
REMARK SMILES IDX 40 70 42 71 39 72 61 73 62 74 67 75 63 76 64 77 66 78 68 79
REMARK SMILES IDX 65 80 49 81 50 82 55 83 51 84 52 85 54 86 56 87 53 88
REMARK H PARENT 18 6 11 13 8 25 8 26 23 31 73 50 47 61
REMARK Flexibility Score: inf
ROOT
ATOM      1  C   UNL     1      -7.821  -2.207  -1.006  1.00  0.00     0.023 C 
ENDROOT
BRANCH   1   2
ATOM      2  C   UNL     1      -6.628  -2.811  -0.273  1.00  0.00     0.116 C 
BRANCH   2   3
ATOM      3  N   UNL     1      -6.030  -3.918  -0.995  1.00  0.00    -0.356 N 
ATOM      4  C   UNL     1      -4.705  -4.175  -1.218  1.00  0.00     0.227 C 
ATOM      5  O   UNL     1      -4.405  -5.253  -1.731  1.00  0.00    -0.274 OA
ATOM      6  H   UNL     1      -6.661  -4.571  -1.375  1.00  0.00     0.163 HD
BRANCH   4   7
ATOM      7  C   UNL     1      -3.674  -3.121  -0.816  1.00  0.00     0.103 C 
ATOM      8  C   UNL     1      -1.382  -3.800  -0.262  1.00  0.00     0.104 C 
ATOM      9  C   UNL     1      -2.187  -3.547   0.966  1.00  0.00    -0.006 C 
ATOM     10  C   UNL     1      -2.287  -3.390  -1.427  1.00  0.00     0.046 C 
ATOM     11  C   UNL     1      -3.436  -3.179   0.668  1.00  0.00    -0.016 C 
BRANCH   8  12
ATOM     12  N   UNL     1      -0.108  -3.103  -0.240  1.00  0.00    -0.363 N 
ATOM     13  H   UNL     1       0.710  -3.645  -0.313  1.00  0.00     0.162 HD
BRANCH  12  14
ATOM     14  C   UNL     1       0.038  -1.722  -0.123  1.00  0.00     0.139 A 
ATOM     15  C   UNL     1      -2.279   1.141   0.074  1.00  0.00     0.067 C 
ATOM     16  C   UNL     1      -0.994   0.370   0.048  1.00  0.00     0.040 A 
ATOM     17  C   UNL     1       0.224   1.027   0.093  1.00  0.00     0.028 A 
ATOM     18  N   UNL     1      -1.086  -0.972  -0.045  1.00  0.00    -0.236 NA
ATOM     19  C   UNL     1       1.407   0.280   0.058  1.00  0.00    -0.033 A 
ATOM     20  C   UNL     1       2.705   1.038   0.106  1.00  0.00     0.045 C 
ATOM     21  C   UNL     1       1.313  -1.123  -0.061  1.00  0.00     0.084 A 
BRANCH  21  22
ATOM     22  C   UNL     1       2.547  -1.953  -0.169  1.00  0.00     0.252 C 
ATOM     23  N   UNL     1       2.547  -3.159   0.476  1.00  0.00    -0.365 N 
ATOM     24  O   UNL     1       3.529  -1.592  -0.808  1.00  0.00    -0.269 OA
ATOM     25  H   UNL     1       1.756  -3.444   0.988  1.00  0.00     0.159 HD
ATOM     26  H   UNL     1       3.339  -3.743   0.428  1.00  0.00     0.159 HD
ENDBRANCH  21  22
ENDBRANCH  12  14
ENDBRANCH   8  12
ENDBRANCH   4   7
ENDBRANCH   2   3
ENDBRANCH   1   2
BRANCH   1  27
ATOM     27  C   UNL     1      -8.963  -3.178  -1.310  1.00  0.00     0.023 C 
BRANCH  27  28
ATOM     28  C   UNL     1      -9.470  -3.990  -0.123  1.00  0.00     0.116 C 
BRANCH  28  29
ATOM     29  N   UNL     1      -9.992  -3.162   0.953  1.00  0.00    -0.352 N 
ATOM     30  C   UNL     1     -11.239  -3.157   1.535  1.00  0.00     0.251 C 
ATOM     31  H   UNL     1      -9.357  -2.506   1.321  1.00  0.00     0.163 HD
ATOM     32  O   UNL     1     -11.537  -2.290   2.345  1.00  0.00    -0.269 OA
BRANCH  30  33
ATOM     33  C   UNL     1     -12.236  -4.178   1.145  1.00  0.00     0.039 A 
ATOM     34  C   UNL     1     -13.527  -3.760   0.809  1.00  0.00     0.014 A 
ATOM     35  C   UNL     1     -11.894  -5.530   1.079  1.00  0.00     0.014 A 
ATOM     36  C   UNL     1     -14.443  -4.686   0.306  1.00  0.00     0.010 A 
ATOM     37  C   UNL     1     -12.783  -6.439   0.512  1.00  0.00     0.010 A 
ATOM     38  C   UNL     1     -14.058  -6.021   0.100  1.00  0.00    -0.014 A 
BRANCH  38  39
ATOM     39  C   UNL     1     -14.946  -6.979  -0.606  1.00  0.00     0.031 A 
ATOM     40  C   UNL     1     -15.473  -8.195   0.099  1.00  0.00     0.074 A 
ATOM     41  C   UNL     1     -15.201  -6.797  -1.916  1.00  0.00     0.049 A 
ATOM     42  N   UNL     1     -16.182  -9.185  -0.381  1.00  0.00    -0.248 NA
ATOM     43  C   UNL     1     -15.140  -8.326   1.525  1.00  0.00     0.031 C 
ATOM     44  C   UNL     1     -14.713  -5.678  -2.725  1.00  0.00     0.029 A 
ATOM     45  N   UNL     1     -15.921  -7.558  -2.803  1.00  0.00    -0.354 N 
ATOM     46  C   UNL     1     -16.372 -10.061   0.679  1.00  0.00     0.074 A 
ATOM     47  C   UNL     1     -15.662  -9.510   1.814  1.00  0.00     0.031 C 
ATOM     48  C   UNL     1     -15.166  -5.814  -3.981  1.00  0.00     0.029 A 
ATOM     49  C   UNL     1     -15.936  -7.049  -4.079  1.00  0.00     0.049 A 
ATOM     50  H   UNL     1     -16.384  -8.389  -2.548  1.00  0.00     0.167 HD
ATOM     51  C   UNL     1     -17.088 -11.211   0.708  1.00  0.00     0.037 A 
ATOM     52  C   UNL     1     -16.492  -7.531  -5.206  1.00  0.00     0.037 A 
ATOM     53  C   UNL     1     -17.800 -11.752  -0.421  1.00  0.00     0.049 A 
ATOM     54  C   UNL     1     -17.237  -8.834  -5.161  1.00  0.00     0.074 A 
ATOM     55  C   UNL     1     -18.617 -12.868  -0.472  1.00  0.00     0.029 A 
ATOM     56  N   UNL     1     -17.768 -11.222  -1.703  1.00  0.00    -0.354 N 
ATOM     57  N   UNL     1     -17.472  -9.615  -4.135  1.00  0.00    -0.248 NA
ATOM     58  C   UNL     1     -17.785  -9.327  -6.432  1.00  0.00     0.031 C 
ATOM     59  C   UNL     1     -19.036 -13.044  -1.796  1.00  0.00     0.029 A 
ATOM     60  C   UNL     1     -18.516 -12.013  -2.561  1.00  0.00     0.049 A 
ATOM     61  H   UNL     1     -17.285 -10.405  -1.965  1.00  0.00     0.167 HD
ATOM     62  C   UNL     1     -18.205 -10.685  -4.632  1.00  0.00     0.074 A 
ATOM     63  C   UNL     1     -18.390 -10.443  -6.048  1.00  0.00     0.031 C 
ATOM     64  C   UNL     1     -18.678 -11.770  -3.973  1.00  0.00     0.037 A 
BRANCH  51  65
ATOM     65  C   UNL     1     -17.127 -11.963   2.006  1.00  0.00     0.057 A 
ATOM     66  C   UNL     1     -17.819 -11.474   3.123  1.00  0.00     0.134 A 
ATOM     67  C   UNL     1     -16.477 -13.196   2.139  1.00  0.00     0.134 A 
ATOM     68  F   UNL     1     -18.455 -10.294   3.065  1.00  0.00    -0.206 F 
ATOM     69  C   UNL     1     -17.834 -12.167   4.334  1.00  0.00     0.040 A 
ATOM     70  C   UNL     1     -16.507 -13.911   3.338  1.00  0.00     0.040 A 
ATOM     71  F   UNL     1     -15.802 -13.725   1.108  1.00  0.00    -0.206 F 
ATOM     72  C   UNL     1     -17.180 -13.393   4.442  1.00  0.00     0.006 A 
ENDBRANCH  51  65
BRANCH  52  73
ATOM     73  C   UNL     1     -16.373  -6.765  -6.471  1.00  0.00     0.057 A 
ATOM     74  C   UNL     1     -17.481  -6.107  -7.016  1.00  0.00     0.134 A 
ATOM     75  C   UNL     1     -15.155  -6.654  -7.152  1.00  0.00     0.134 A 
ATOM     76  F   UNL     1     -18.678  -6.194  -6.419  1.00  0.00    -0.206 F 
ATOM     77  C   UNL     1     -17.384  -5.370  -8.197  1.00  0.00     0.040 A 
ATOM     78  C   UNL     1     -15.039  -5.903  -8.322  1.00  0.00     0.040 A 
ATOM     79  F   UNL     1     -14.056  -7.258  -6.676  1.00  0.00    -0.206 F 
ATOM     80  C   UNL     1     -16.157  -5.260  -8.849  1.00  0.00     0.006 A 
ENDBRANCH  52  73
BRANCH  64  81
ATOM     81  C   UNL     1     -19.442 -12.780  -4.777  1.00  0.00     0.057 A 
ATOM     82  C   UNL     1     -18.797 -13.648  -5.667  1.00  0.00     0.134 A 
ATOM     83  C   UNL     1     -20.829 -12.913  -4.633  1.00  0.00     0.134 A 
ATOM     84  F   UNL     1     -17.473 -13.560  -5.863  1.00  0.00    -0.206 F 
ATOM     85  C   UNL     1     -19.507 -14.604  -6.396  1.00  0.00     0.040 A 
ATOM     86  C   UNL     1     -21.546 -13.881  -5.338  1.00  0.00     0.040 A 
ATOM     87  F   UNL     1     -21.506 -12.116  -3.793  1.00  0.00    -0.206 F 
ATOM     88  C   UNL     1     -20.884 -14.728  -6.225  1.00  0.00     0.006 A 
ENDBRANCH  64  81
ENDBRANCH  38  39
ENDBRANCH  30  33
ENDBRANCH  28  29
ENDBRANCH  27  28
ENDBRANCH   1  27
TORSDOF 14
