REMARK SMILES COc1cnc(F)c(C(=O)NCCCCNC(=O)c2ccc(-c3c4nc(c(-c5c(F)cccc5F)c5ccc([nH]5)c(-c5c(F)cccc5F)c5nc(c(-c6c(F)cccc6F)c6ccc3[nH]6)C=C5)C=C4)cc2)c1
REMARK SMILES IDX 14 1 13 2 12 3 11 4 9 5 10 6 8 8 3 9 4 10 73 11 5 12 6 13
REMARK SMILES IDX 7 14 2 15 1 16 15 17 16 18 17 19 18 21 19 22 20 23 72 24
REMARK SMILES IDX 21 25 71 26 22 27 23 28 24 29 65 30 25 31 70 32 64 33 66 34
REMARK SMILES IDX 26 35 69 36 63 37 62 38 27 40 53 41 36 42 52 43 37 44 40 45
REMARK SMILES IDX 51 46 67 47 38 48 39 49 50 51 68 52 41 53 28 54 29 55 34 56
REMARK SMILES IDX 30 57 31 58 33 59 35 60 32 61 54 62 55 63 60 64 56 65 57 66
REMARK SMILES IDX 59 67 61 68 58 69 42 70 43 71 48 72 44 73 45 74 47 75 49 76
REMARK SMILES IDX 46 77
REMARK H PARENT 11 7 16 20 66 39 40 50
REMARK Flexibility Score: inf
ROOT
ATOM      1  C   UNL     1       3.595   2.606   8.219  1.00  0.00     0.023 C 
ENDROOT
BRANCH   1   2
ATOM      2  C   UNL     1       2.494   2.848   7.184  1.00  0.00     0.023 C 
BRANCH   2   3
ATOM      3  C   UNL     1       2.933   3.643   5.952  1.00  0.00     0.116 C 
BRANCH   3   4
ATOM      4  N   UNL     1       3.677   2.797   5.040  1.00  0.00    -0.352 N 
ATOM      5  C   UNL     1       3.315   2.091   3.925  1.00  0.00     0.256 C 
ATOM      6  O   UNL     1       4.205   1.436   3.377  1.00  0.00    -0.269 OA
ATOM      7  H   UNL     1       4.631   2.714   5.268  1.00  0.00     0.163 HD
BRANCH   5   8
ATOM      8  C   UNL     1       1.974   2.098   3.295  1.00  0.00     0.098 A 
ATOM      9  C   UNL     1       0.704   1.727   1.265  1.00  0.00     0.138 A 
ATOM     10  C   UNL     1      -0.448   2.005   1.978  1.00  0.00     0.160 A 
ATOM     11  C   UNL     1       1.928   1.814   1.920  1.00  0.00     0.066 A 
ATOM     12  N   UNL     1      -0.452   2.262   3.301  1.00  0.00    -0.224 NA
ATOM     13  C   UNL     1       0.752   2.267   3.930  1.00  0.00     0.225 A 
ATOM     14  F   UNL     1       0.672   2.380   5.259  1.00  0.00    -0.184 F 
BRANCH   9  15
ATOM     15  O   UNL     1       0.604   1.395  -0.054  1.00  0.00    -0.495 OA
ATOM     16  C   UNL     1       1.028   0.045  -0.265  1.00  0.00     0.278 C 
ENDBRANCH   9  15
ENDBRANCH   5   8
ENDBRANCH   3   4
ENDBRANCH   2   3
ENDBRANCH   1   2
BRANCH   1  17
ATOM     17  C   UNL     1       4.130   3.861   8.897  1.00  0.00     0.116 C 
BRANCH  17  18
ATOM     18  N   UNL     1       3.100   4.633   9.576  1.00  0.00    -0.352 N 
ATOM     19  C   UNL     1       3.209   5.401  10.710  1.00  0.00     0.251 C 
ATOM     20  H   UNL     1       2.205   4.600   9.168  1.00  0.00     0.163 HD
ATOM     21  O   UNL     1       2.217   5.916  11.209  1.00  0.00    -0.269 OA
BRANCH  19  22
ATOM     22  C   UNL     1       4.530   5.565  11.352  1.00  0.00     0.039 A 
ATOM     23  C   UNL     1       4.634   5.352  12.729  1.00  0.00     0.014 A 
ATOM     24  C   UNL     1       5.659   5.903  10.601  1.00  0.00     0.014 A 
ATOM     25  C   UNL     1       5.886   5.410  13.343  1.00  0.00     0.010 A 
ATOM     26  C   UNL     1       6.913   5.900  11.203  1.00  0.00     0.010 A 
ATOM     27  C   UNL     1       7.038   5.650  12.578  1.00  0.00    -0.014 A 
BRANCH  27  28
ATOM     28  C   UNL     1       8.386   5.635  13.196  1.00  0.00     0.031 A 
ATOM     29  C   UNL     1       9.201   6.894  13.257  1.00  0.00     0.074 A 
ATOM     30  C   UNL     1       8.901   4.471  13.634  1.00  0.00     0.049 A 
ATOM     31  N   UNL     1      10.425   7.066  13.687  1.00  0.00    -0.248 NA
ATOM     32  C   UNL     1       8.568   8.118  12.740  1.00  0.00     0.031 C 
ATOM     33  C   UNL     1       8.227   3.172  13.582  1.00  0.00     0.029 A 
ATOM     34  N   UNL     1      10.120   4.190  14.198  1.00  0.00    -0.354 N 
ATOM     35  C   UNL     1      10.715   8.407  13.474  1.00  0.00     0.074 A 
ATOM     36  C   UNL     1       9.556   8.996  12.840  1.00  0.00     0.031 C 
ATOM     37  C   UNL     1       9.034   2.237  14.111  1.00  0.00     0.029 A 
ATOM     38  C   UNL     1      10.290   2.863  14.508  1.00  0.00     0.049 A 
ATOM     39  H   UNL     1      10.807   4.875  14.364  1.00  0.00     0.167 HD
ATOM     40  C   UNL     1      11.839   9.089  13.796  1.00  0.00     0.037 A 
ATOM     41  C   UNL     1      11.344   2.224  15.049  1.00  0.00     0.037 A 
ATOM     42  C   UNL     1      12.976   8.510  14.461  1.00  0.00     0.049 A 
ATOM     43  C   UNL     1      12.573   3.009  15.414  1.00  0.00     0.074 A 
ATOM     44  C   UNL     1      14.130   9.136  14.899  1.00  0.00     0.029 A 
ATOM     45  N   UNL     1      13.099   7.168  14.787  1.00  0.00    -0.354 N 
ATOM     46  N   UNL     1      12.806   4.291  15.272  1.00  0.00    -0.248 NA
ATOM     47  C   UNL     1      13.683   2.259  16.018  1.00  0.00     0.031 C 
ATOM     48  C   UNL     1      14.967   8.165  15.460  1.00  0.00     0.029 A 
ATOM     49  C   UNL     1      14.318   6.943  15.404  1.00  0.00     0.049 A 
ATOM     50  H   UNL     1      12.421   6.478  14.606  1.00  0.00     0.167 HD
ATOM     51  C   UNL     1      14.075   4.506  15.793  1.00  0.00     0.074 A 
ATOM     52  C   UNL     1      14.558   3.224  16.262  1.00  0.00     0.031 C 
ATOM     53  C   UNL     1      14.777   5.662  15.874  1.00  0.00     0.037 A 
BRANCH  40  54
ATOM     54  C   UNL     1      11.890  10.544  13.437  1.00  0.00     0.057 A 
ATOM     55  C   UNL     1      11.133  11.500  14.127  1.00  0.00     0.134 A 
ATOM     56  C   UNL     1      12.728  10.999  12.412  1.00  0.00     0.134 A 
ATOM     57  F   UNL     1      10.300  11.127  15.111  1.00  0.00    -0.206 F 
ATOM     58  C   UNL     1      11.190  12.854  13.794  1.00  0.00     0.040 A 
ATOM     59  C   UNL     1      12.811  12.353  12.085  1.00  0.00     0.040 A 
ATOM     60  F   UNL     1      13.482  10.136  11.715  1.00  0.00    -0.206 F 
ATOM     61  C   UNL     1      12.036  13.285  12.774  1.00  0.00     0.006 A 
ENDBRANCH  40  54
BRANCH  41  62
ATOM     62  C   UNL     1      11.276   0.765  15.308  1.00  0.00     0.057 A 
ATOM     63  C   UNL     1      11.173   0.272  16.613  1.00  0.00     0.134 A 
ATOM     64  C   UNL     1      11.321  -0.167  14.265  1.00  0.00     0.134 A 
ATOM     65  F   UNL     1      11.143   1.118  17.654  1.00  0.00    -0.206 F 
ATOM     66  C   UNL     1      11.136  -1.098  16.876  1.00  0.00     0.040 A 
ATOM     67  C   UNL     1      11.264  -1.540  14.511  1.00  0.00     0.040 A 
ATOM     68  F   UNL     1      11.414   0.244  12.992  1.00  0.00    -0.206 F 
ATOM     69  C   UNL     1      11.178  -2.009  15.821  1.00  0.00     0.006 A 
ENDBRANCH  41  62
BRANCH  53  70
ATOM     70  C   UNL     1      16.126   5.597  16.525  1.00  0.00     0.057 A 
ATOM     71  C   UNL     1      17.233   5.042  15.872  1.00  0.00     0.134 A 
ATOM     72  C   UNL     1      16.326   6.131  17.804  1.00  0.00     0.134 A 
ATOM     73  F   UNL     1      17.101   4.502  14.651  1.00  0.00    -0.206 F 
ATOM     74  C   UNL     1      18.489   5.003  16.477  1.00  0.00     0.040 A 
ATOM     75  C   UNL     1      17.582   6.117  18.410  1.00  0.00     0.040 A 
ATOM     76  F   UNL     1      15.306   6.683  18.479  1.00  0.00    -0.206 F 
ATOM     77  C   UNL     1      18.668   5.548  17.748  1.00  0.00     0.006 A 
ENDBRANCH  53  70
ENDBRANCH  27  28
ENDBRANCH  19  22
ENDBRANCH  17  18
ENDBRANCH   1  17
TORSDOF 12
