REMARK SMILES Cc1cccc(Nc2ccccc2C(=O)NCCCCNC(=O)c2ccc(-c3c4nc(c(-c5c(F)cccc5F)c5ccc([nH]5)c(-c5c(F)cccc5F)c5nc(c(-c6c(F)cccc6F)c6ccc3[nH]6)C=C5)C=C4)cc2)c1C
REMARK SMILES IDX 18 1 17 2 16 3 14 4 15 5 13 7 8 8 9 9 10 10 12 11 11 12 7 13
REMARK SMILES IDX 6 15 1 16 2 17 3 18 78 19 4 20 79 21 5 22 19 23 20 24 21 25
REMARK SMILES IDX 22 26 23 28 24 29 25 30 77 31 26 32 76 33 27 34 28 35 29 36
REMARK SMILES IDX 70 37 30 38 75 39 69 40 71 41 31 42 74 43 68 44 67 45 32 47
REMARK SMILES IDX 58 48 41 49 57 50 42 51 45 52 56 53 72 54 43 55 44 56 55 58
REMARK SMILES IDX 73 59 46 60 33 61 34 62 39 63 35 64 36 65 38 66 40 67 37 68
REMARK SMILES IDX 59 69 60 70 65 71 61 72 62 73 64 74 66 75 63 76 47 77 48 78
REMARK SMILES IDX 53 79 49 80 50 81 52 82 54 83 51 84
REMARK H PARENT 16 6 7 14 21 27 71 46 45 57
REMARK Flexibility Score: inf
ROOT
ATOM      1  C   UNL     1      -2.750  -2.449   2.447  1.00  0.00     0.023 C 
ENDROOT
BRANCH   1   2
ATOM      2  C   UNL     1      -1.485  -2.311   1.610  1.00  0.00     0.116 C 
BRANCH   2   3
ATOM      3  N   UNL     1      -0.258  -2.177   2.354  1.00  0.00    -0.352 N 
ATOM      4  C   UNL     1       1.018  -2.567   2.018  1.00  0.00     0.253 C 
ATOM      5  O   UNL     1       1.930  -2.180   2.756  1.00  0.00    -0.269 OA
ATOM      6  H   UNL     1      -0.346  -1.742   3.233  1.00  0.00     0.163 HD
BRANCH   4   7
ATOM      7  C   UNL     1       1.353  -3.532   0.920  1.00  0.00     0.063 A 
ATOM      8  C   UNL     1       0.853  -3.582  -0.398  1.00  0.00     0.051 A 
ATOM      9  C   UNL     1       1.268  -4.657  -1.226  1.00  0.00     0.027 A 
ATOM     10  C   UNL     1       2.200  -5.606  -0.810  1.00  0.00     0.002 A 
ATOM     11  C   UNL     1       2.318  -4.494   1.313  1.00  0.00     0.016 A 
ATOM     12  C   UNL     1       2.746  -5.511   0.458  1.00  0.00     0.001 A 
BRANCH   8  13
ATOM     13  N   UNL     1       0.070  -2.614  -1.060  1.00  0.00    -0.355 N 
ATOM     14  H   UNL     1      -0.620  -3.010  -1.640  1.00  0.00     0.167 HD
BRANCH  13  15
ATOM     15  C   UNL     1       0.057  -1.204  -1.077  1.00  0.00     0.042 A 
ATOM     16  C   UNL     1       2.022   1.933  -0.092  1.00  0.00     0.044 C 
ATOM     17  C   UNL     1       0.918   1.016  -0.549  1.00  0.00    -0.046 A 
ATOM     18  C   UNL     1      -0.344   1.569  -0.816  1.00  0.00     0.004 A 
ATOM     19  C   UNL     1       1.142  -0.374  -0.734  1.00  0.00    -0.025 A 
ATOM     20  C   UNL     1      -1.386   0.766  -1.256  1.00  0.00     0.002 A 
ATOM     21  C   UNL     1       2.549  -0.907  -0.616  1.00  0.00     0.047 C 
ATOM     22  C   UNL     1      -1.185  -0.604  -1.381  1.00  0.00     0.026 A 
ENDBRANCH  13  15
ENDBRANCH   8  13
ENDBRANCH   4   7
ENDBRANCH   2   3
ENDBRANCH   1   2
BRANCH   1  23
ATOM     23  C   UNL     1      -3.257  -1.182   3.144  1.00  0.00     0.023 C 
BRANCH  23  24
ATOM     24  C   UNL     1      -3.382   0.093   2.308  1.00  0.00     0.116 C 
BRANCH  24  25
ATOM     25  N   UNL     1      -4.132  -0.052   1.069  1.00  0.00    -0.352 N 
ATOM     26  C   UNL     1      -4.967   0.846   0.441  1.00  0.00     0.251 C 
ATOM     27  H   UNL     1      -4.027  -0.919   0.614  1.00  0.00     0.163 HD
ATOM     28  O   UNL     1      -5.491   0.554  -0.626  1.00  0.00    -0.269 OA
BRANCH  26  29
ATOM     29  C   UNL     1      -5.278   2.148   1.079  1.00  0.00     0.039 A 
ATOM     30  C   UNL     1      -6.618   2.530   1.191  1.00  0.00     0.014 A 
ATOM     31  C   UNL     1      -4.274   2.972   1.593  1.00  0.00     0.014 A 
ATOM     32  C   UNL     1      -6.956   3.682   1.907  1.00  0.00     0.010 A 
ATOM     33  C   UNL     1      -4.615   4.087   2.361  1.00  0.00     0.010 A 
ATOM     34  C   UNL     1      -5.960   4.442   2.544  1.00  0.00    -0.014 A 
BRANCH  34  35
ATOM     35  C   UNL     1      -6.330   5.561   3.453  1.00  0.00     0.031 A 
ATOM     36  C   UNL     1      -5.956   6.981   3.130  1.00  0.00     0.074 A 
ATOM     37  C   UNL     1      -6.963   5.283   4.611  1.00  0.00     0.049 A 
ATOM     38  N   UNL     1      -6.216   8.074   3.803  1.00  0.00    -0.248 NA
ATOM     39  C   UNL     1      -5.166   7.202   1.910  1.00  0.00     0.031 C 
ATOM     40  C   UNL     1      -7.306   3.941   5.088  1.00  0.00     0.029 A 
ATOM     41  N   UNL     1      -7.426   6.112   5.604  1.00  0.00    -0.354 N 
ATOM     42  C   UNL     1      -5.614   9.108   3.097  1.00  0.00     0.074 A 
ATOM     43  C   UNL     1      -4.938   8.507   1.966  1.00  0.00     0.031 C 
ATOM     44  C   UNL     1      -7.944   4.040   6.266  1.00  0.00     0.029 A 
ATOM     45  C   UNL     1      -8.038   5.447   6.639  1.00  0.00     0.049 A 
ATOM     46  H   UNL     1      -7.328   7.092   5.576  1.00  0.00     0.167 HD
ATOM     47  C   UNL     1      -5.640  10.438   3.355  1.00  0.00     0.037 A 
ATOM     48  C   UNL     1      -8.618   5.917   7.760  1.00  0.00     0.037 A 
ATOM     49  C   UNL     1      -6.338  11.040   4.461  1.00  0.00     0.049 A 
ATOM     50  C   UNL     1      -8.681   7.402   7.989  1.00  0.00     0.074 A 
ATOM     51  C   UNL     1      -6.494  12.385   4.753  1.00  0.00     0.029 A 
ATOM     52  N   UNL     1      -6.994  10.337   5.460  1.00  0.00    -0.354 N 
ATOM     53  N   UNL     1      -8.204   8.374   7.250  1.00  0.00    -0.248 NA
ATOM     54  C   UNL     1      -9.382   7.856   9.199  1.00  0.00     0.031 C 
ATOM     55  C   UNL     1      -7.210  12.495   5.949  1.00  0.00     0.029 A 
ATOM     56  C   UNL     1      -7.539  11.220   6.378  1.00  0.00     0.049 A 
ATOM     57  H   UNL     1      -7.062   9.357   5.509  1.00  0.00     0.167 HD
ATOM     58  C   UNL     1      -8.569   9.551   7.889  1.00  0.00     0.074 A 
ATOM     59  C   UNL     1      -9.328   9.173   9.063  1.00  0.00     0.031 C 
ATOM     60  C   UNL     1      -8.296  10.832   7.539  1.00  0.00     0.037 A 
BRANCH  47  61
ATOM     61  C   UNL     1      -4.901  11.346   2.416  1.00  0.00     0.057 A 
ATOM     62  C   UNL     1      -5.375  11.614   1.125  1.00  0.00     0.134 A 
ATOM     63  C   UNL     1      -3.742  12.014   2.831  1.00  0.00     0.134 A 
ATOM     64  F   UNL     1      -6.474  10.999   0.664  1.00  0.00    -0.206 F 
ATOM     65  C   UNL     1      -4.714  12.503   0.275  1.00  0.00     0.040 A 
ATOM     66  C   UNL     1      -3.086  12.923   1.999  1.00  0.00     0.040 A 
ATOM     67  F   UNL     1      -3.239  11.809   4.058  1.00  0.00    -0.206 F 
ATOM     68  C   UNL     1      -3.571  13.168   0.716  1.00  0.00     0.006 A 
ENDBRANCH  47  61
BRANCH  48  69
ATOM     69  C   UNL     1      -9.216   4.981   8.746  1.00  0.00     0.057 A 
ATOM     70  C   UNL     1     -10.602   4.911   8.931  1.00  0.00     0.134 A 
ATOM     71  C   UNL     1      -8.416   4.162   9.551  1.00  0.00     0.134 A 
ATOM     72  F   UNL     1     -11.420   5.685   8.203  1.00  0.00    -0.206 F 
ATOM     73  C   UNL     1     -11.170   4.087   9.905  1.00  0.00     0.040 A 
ATOM     74  C   UNL     1      -8.972   3.313  10.510  1.00  0.00     0.040 A 
ATOM     75  F   UNL     1      -7.082   4.174   9.416  1.00  0.00    -0.206 F 
ATOM     76  C   UNL     1     -10.353   3.283  10.696  1.00  0.00     0.006 A 
ENDBRANCH  48  69
BRANCH  60  77
ATOM     77  C   UNL     1      -8.850  11.912   8.421  1.00  0.00     0.057 A 
ATOM     78  C   UNL     1      -8.344  12.151   9.706  1.00  0.00     0.134 A 
ATOM     79  C   UNL     1      -9.900  12.727   7.978  1.00  0.00     0.134 A 
ATOM     80  F   UNL     1      -7.348  11.397  10.195  1.00  0.00    -0.206 F 
ATOM     81  C   UNL     1      -8.885  13.139  10.530  1.00  0.00     0.040 A 
ATOM     82  C   UNL     1     -10.430  13.736   8.783  1.00  0.00     0.040 A 
ATOM     83  F   UNL     1     -10.425  12.557   6.755  1.00  0.00    -0.206 F 
ATOM     84  C   UNL     1      -9.929  13.937  10.067  1.00  0.00     0.006 A 
ENDBRANCH  60  77
ENDBRANCH  34  35
ENDBRANCH  26  29
ENDBRANCH  24  25
ENDBRANCH  23  24
ENDBRANCH   1  23
TORSDOF 13
