REMARK SMILES O=C(/C=N\OCc1ccccc1)NCCCCNC(=O)c1ccc(-c2c3nc(c(-c4c(F)cccc4F)c4ccc([nH]4)c(-c4c(F)cccc4F)c4nc(c(-c5c(F)cccc5F)c5ccc2[nH]5)C=C4)C=C3)cc1
REMARK SMILES IDX 15 1 14 2 13 3 1 4 2 5 3 7 4 8 5 9 6 10 7 11 8 12 12 13 9 14
REMARK SMILES IDX 11 15 10 16 16 17 17 18 18 19 19 20 20 22 21 23 22 24 74 25
REMARK SMILES IDX 23 26 73 27 24 28 25 29 26 30 67 31 27 32 72 33 66 34 68 35
REMARK SMILES IDX 28 36 71 37 65 38 64 39 29 41 55 42 38 43 54 44 39 45 42 46
REMARK SMILES IDX 53 47 69 48 40 49 41 50 52 52 70 53 43 54 30 55 31 56 36 57
REMARK SMILES IDX 32 58 33 59 35 60 37 61 34 62 56 63 57 64 62 65 58 66 59 67
REMARK SMILES IDX 61 68 63 69 60 70 44 71 45 72 50 73 46 74 47 75 49 76 51 77
REMARK SMILES IDX 48 78
REMARK H PARENT 13 6 18 21 68 40 42 51
REMARK Flexibility Score: inf
ROOT
ATOM      1  C   UNL     1       2.301  -3.512  -0.046  1.00  0.00     0.023 C 
ENDROOT
BRANCH   1   2
ATOM      2  C   UNL     1       1.924  -2.341   0.860  1.00  0.00     0.116 C 
BRANCH   2   3
ATOM      3  N   UNL     1       2.648  -1.134   0.538  1.00  0.00    -0.351 N 
ATOM      4  O   UNL     1       0.929   0.006  -0.501  1.00  0.00    -0.268 OA
ATOM      5  C   UNL     1       2.087  -0.065  -0.113  1.00  0.00     0.265 C 
ATOM      6  H   UNL     1       3.595  -1.075   0.799  1.00  0.00     0.163 HD
BRANCH   5   7
ATOM      7  C   UNL     1       2.964   1.156  -0.276  1.00  0.00     0.225 C 
ATOM      8  N   UNL     1       4.262   1.236  -0.236  1.00  0.00    -0.089 NA
BRANCH   8   9
ATOM      9  O   UNL     1       4.906  -0.006  -0.114  1.00  0.00    -0.391 OA
BRANCH   9  10
ATOM     10  C   UNL     1       6.326   0.198  -0.073  1.00  0.00     0.299 C 
BRANCH  10  11
ATOM     11  C   UNL     1       6.904   0.388  -1.453  1.00  0.00    -0.008 A 
ATOM     12  C   UNL     1       7.358  -0.707  -2.201  1.00  0.00     0.007 A 
ATOM     13  C   UNL     1       6.976   1.671  -2.015  1.00  0.00     0.007 A 
ATOM     14  C   UNL     1       7.892  -0.517  -3.478  1.00  0.00     0.000 A 
ATOM     15  C   UNL     1       7.507   1.858  -3.292  1.00  0.00     0.000 A 
ATOM     16  C   UNL     1       7.967   0.765  -4.022  1.00  0.00     0.000 A 
ENDBRANCH  10  11
ENDBRANCH   9  10
ENDBRANCH   8   9
ENDBRANCH   5   7
ENDBRANCH   2   3
ENDBRANCH   1   2
BRANCH   1  17
ATOM     17  C   UNL     1       3.787  -3.884  -0.047  1.00  0.00     0.023 C 
BRANCH  17  18
ATOM     18  C   UNL     1       4.400  -4.173   1.320  1.00  0.00     0.116 C 
BRANCH  18  19
ATOM     19  N   UNL     1       3.808  -5.324   1.981  1.00  0.00    -0.352 N 
ATOM     20  C   UNL     1       4.413  -6.412   2.564  1.00  0.00     0.251 C 
ATOM     21  H   UNL     1       2.824  -5.325   2.016  1.00  0.00     0.163 HD
ATOM     22  O   UNL     1       3.729  -7.350   2.963  1.00  0.00    -0.269 OA
BRANCH  20  23
ATOM     23  C   UNL     1       5.888  -6.478   2.688  1.00  0.00     0.039 A 
ATOM     24  C   UNL     1       6.532  -7.680   2.377  1.00  0.00     0.014 A 
ATOM     25  C   UNL     1       6.636  -5.380   3.118  1.00  0.00     0.014 A 
ATOM     26  C   UNL     1       7.927  -7.758   2.427  1.00  0.00     0.010 A 
ATOM     27  C   UNL     1       8.030  -5.437   3.101  1.00  0.00     0.010 A 
ATOM     28  C   UNL     1       8.691  -6.625   2.751  1.00  0.00    -0.014 A 
BRANCH  28  29
ATOM     29  C   UNL     1      10.177  -6.660   2.712  1.00  0.00     0.031 A 
ATOM     30  C   UNL     1      10.979  -6.451   3.967  1.00  0.00     0.074 A 
ATOM     31  C   UNL     1      10.809  -6.813   1.532  1.00  0.00     0.049 A 
ATOM     32  N   UNL     1      12.277  -6.370   4.115  1.00  0.00    -0.248 NA
ATOM     33  C   UNL     1      10.220  -6.285   5.216  1.00  0.00     0.031 C 
ATOM     34  C   UNL     1      10.151  -6.981   0.235  1.00  0.00     0.029 A 
ATOM     35  N   UNL     1      12.148  -6.838   1.230  1.00  0.00    -0.354 N 
ATOM     36  C   UNL     1      12.491  -6.133   5.467  1.00  0.00     0.074 A 
ATOM     37  C   UNL     1      11.187  -6.031   6.087  1.00  0.00     0.031 C 
ATOM     38  C   UNL     1      11.087  -7.110  -0.719  1.00  0.00     0.029 A 
ATOM     39  C   UNL     1      12.408  -6.995  -0.110  1.00  0.00     0.049 A 
ATOM     40  H   UNL     1      12.855  -6.752   1.909  1.00  0.00     0.167 HD
ATOM     41  C   UNL     1      13.665  -6.030   6.136  1.00  0.00     0.037 A 
ATOM     42  C   UNL     1      13.578  -7.033  -0.776  1.00  0.00     0.037 A 
ATOM     43  C   UNL     1      14.962  -6.152   5.524  1.00  0.00     0.049 A 
ATOM     44  C   UNL     1      14.867  -6.906  -0.014  1.00  0.00     0.074 A 
ATOM     45  C   UNL     1      16.207  -6.118   6.128  1.00  0.00     0.029 A 
ATOM     46  N   UNL     1      15.183  -6.327   4.166  1.00  0.00    -0.354 N 
ATOM     47  N   UNL     1      15.053  -6.744   1.274  1.00  0.00    -0.248 NA
ATOM     48  C   UNL     1      16.110  -6.973  -0.796  1.00  0.00     0.031 C 
ATOM     49  C   UNL     1      17.182  -6.229   5.131  1.00  0.00     0.029 A 
ATOM     50  C   UNL     1      16.544  -6.382   3.911  1.00  0.00     0.049 A 
ATOM     51  H   UNL     1      14.477  -6.402   3.484  1.00  0.00     0.167 HD
ATOM     52  C   UNL     1      16.430  -6.718   1.459  1.00  0.00     0.074 A 
ATOM     53  C   UNL     1      17.031  -6.893   0.153  1.00  0.00     0.031 C 
ATOM     54  C   UNL     1      17.131  -6.562   2.608  1.00  0.00     0.037 A 
BRANCH  41  55
ATOM     55  C   UNL     1      13.597  -5.775   7.614  1.00  0.00     0.057 A 
ATOM     56  C   UNL     1      13.151  -6.753   8.513  1.00  0.00     0.134 A 
ATOM     57  C   UNL     1      14.012  -4.549   8.149  1.00  0.00     0.134 A 
ATOM     58  F   UNL     1      12.729  -7.945   8.065  1.00  0.00    -0.206 F 
ATOM     59  C   UNL     1      13.093  -6.511   9.887  1.00  0.00     0.040 A 
ATOM     60  C   UNL     1      13.985  -4.305   9.524  1.00  0.00     0.040 A 
ATOM     61  F   UNL     1      14.458  -3.571   7.347  1.00  0.00    -0.206 F 
ATOM     62  C   UNL     1      13.517  -5.286  10.396  1.00  0.00     0.006 A 
ENDBRANCH  41  55
BRANCH  42  63
ATOM     63  C   UNL     1      13.586  -7.216  -2.250  1.00  0.00     0.057 A 
ATOM     64  C   UNL     1      14.032  -8.411  -2.825  1.00  0.00     0.134 A 
ATOM     65  C   UNL     1      13.152  -6.205  -3.115  1.00  0.00     0.134 A 
ATOM     66  F   UNL     1      14.478  -9.409  -2.048  1.00  0.00    -0.206 F 
ATOM     67  C   UNL     1      14.065  -8.589  -4.209  1.00  0.00     0.040 A 
ATOM     68  C   UNL     1      13.155  -6.379  -4.500  1.00  0.00     0.040 A 
ATOM     69  F   UNL     1      12.705  -5.040  -2.626  1.00  0.00    -0.206 F 
ATOM     70  C   UNL     1      13.620  -7.572  -5.051  1.00  0.00     0.006 A 
ENDBRANCH  42  63
BRANCH  54  71
ATOM     71  C   UNL     1      18.628  -6.609   2.511  1.00  0.00     0.057 A 
ATOM     72  C   UNL     1      19.367  -5.560   1.948  1.00  0.00     0.134 A 
ATOM     73  C   UNL     1      19.342  -7.701   3.022  1.00  0.00     0.134 A 
ATOM     74  F   UNL     1      18.744  -4.492   1.428  1.00  0.00    -0.206 F 
ATOM     75  C   UNL     1      20.761  -5.607   1.877  1.00  0.00     0.040 A 
ATOM     76  C   UNL     1      20.736  -7.747   2.981  1.00  0.00     0.040 A 
ATOM     77  F   UNL     1      18.696  -8.735   3.582  1.00  0.00    -0.206 F 
ATOM     78  C   UNL     1      21.449  -6.700   2.401  1.00  0.00     0.006 A 
ENDBRANCH  54  71
ENDBRANCH  28  29
ENDBRANCH  20  23
ENDBRANCH  18  19
ENDBRANCH  17  18
ENDBRANCH   1  17
TORSDOF 14
