REMARK SMILES O=C(NCCCCNC(=O)[C@]1(NC(=O)C2CCN(C(=O)C3CC3)CC2)CCCc2ccccc21)c1ccc(-c2c3nc(c(-c4c(F)cccc4F)c4ccc([nH]4)c(-c4c(F)cccc4F)c4nc(c(-c5c(F)cccc5F)c5ccc2[nH]5)C=C4)C=C3)cc1
REMARK SMILES IDX 6 1 5 2 4 3 3 4 1 5 2 6 35 8 36 9 88 10 37 11 87 12 38 13
REMARK SMILES IDX 39 14 40 15 81 16 41 17 86 18 80 19 82 20 42 21 85 22 79 23
REMARK SMILES IDX 78 24 43 26 69 27 52 28 68 29 53 30 56 31 67 32 83 33 54 34
REMARK SMILES IDX 55 35 66 37 84 38 57 39 44 40 45 41 50 42 46 43 47 44 49 45
REMARK SMILES IDX 51 46 48 47 70 48 71 49 76 50 72 51 73 52 75 53 77 54 74 55
REMARK SMILES IDX 58 56 59 57 64 58 60 59 61 60 63 61 65 62 62 63 7 64 8 65
REMARK SMILES IDX 9 66 10 68 11 69 26 70 34 71 27 72 29 73 33 74 28 75 30 76
REMARK SMILES IDX 32 77 31 78 12 79 13 80 14 82 15 83 16 84 25 85 17 86 24 87
REMARK SMILES IDX 18 88 19 89 20 90 21 91 22 92 23 93
REMARK H PARENT 3 7 82 25 56 36 8 67 12 81
REMARK Flexibility Score: inf
ROOT
ATOM      1  C   UNL     1       4.296  -2.102   3.392  1.00  0.00     0.023 C 
ENDROOT
BRANCH   1   2
ATOM      2  C   UNL     1       5.551  -0.812   2.249  1.00  0.00     0.023 C 
BRANCH   2   3
ATOM      3  C   UNL     1       5.502  -0.405   0.414  1.00  0.00     0.116 C 
BRANCH   3   4
ATOM      4  N   UNL     1       4.484  -1.040  -0.555  1.00  0.00    -0.352 N 
ATOM      5  O   UNL     1       2.363  -1.114  -1.398  1.00  0.00    -0.269 OA
ATOM      6  C   UNL     1       3.404  -0.491  -1.232  1.00  0.00     0.251 C 
ATOM      7  H   UNL     1       4.625  -1.999  -0.723  1.00  0.00     0.163 HD
BRANCH   6   8
ATOM      8  C   UNL     1       3.584   0.844  -1.791  1.00  0.00     0.039 A 
ATOM      9  C   UNL     1       4.815   1.044  -2.406  1.00  0.00     0.014 A 
ATOM     10  C   UNL     1       2.638   1.870  -1.659  1.00  0.00     0.014 A 
ATOM     11  C   UNL     1       5.186   2.316  -2.751  1.00  0.00     0.010 A 
ATOM     12  C   UNL     1       2.998   3.158  -2.054  1.00  0.00     0.010 A 
ATOM     13  C   UNL     1       4.281   3.375  -2.578  1.00  0.00    -0.014 A 
BRANCH  13  14
ATOM     14  C   UNL     1       4.698   4.658  -3.152  1.00  0.00     0.031 A 
ATOM     15  C   UNL     1       5.281   5.738  -2.310  1.00  0.00     0.074 A 
ATOM     16  C   UNL     1       4.700   4.708  -4.494  1.00  0.00     0.049 A 
ATOM     17  N   UNL     1       5.917   6.815  -2.682  1.00  0.00    -0.248 NA
ATOM     18  C   UNL     1       5.156   5.583  -0.858  1.00  0.00     0.031 C 
ATOM     19  C   UNL     1       4.193   3.643  -5.368  1.00  0.00     0.029 A 
ATOM     20  N   UNL     1       5.180   5.651  -5.349  1.00  0.00    -0.354 N 
ATOM     21  C   UNL     1       6.286   7.457  -1.508  1.00  0.00     0.074 A 
ATOM     22  C   UNL     1       5.797   6.653  -0.410  1.00  0.00     0.031 C 
ATOM     23  C   UNL     1       4.418   3.983  -6.641  1.00  0.00     0.029 A 
ATOM     24  C   UNL     1       5.015   5.311  -6.665  1.00  0.00     0.049 A 
ATOM     25  H   UNL     1       5.601   6.490  -5.053  1.00  0.00     0.167 HD
ATOM     26  C   UNL     1       6.950   8.629  -1.379  1.00  0.00     0.037 A 
ATOM     27  C   UNL     1       5.285   6.020  -7.771  1.00  0.00     0.037 A 
ATOM     28  C   UNL     1       7.336   9.438  -2.506  1.00  0.00     0.049 A 
ATOM     29  C   UNL     1       5.925   7.360  -7.599  1.00  0.00     0.074 A 
ATOM     30  C   UNL     1       7.983  10.659  -2.514  1.00  0.00     0.029 A 
ATOM     31  N   UNL     1       7.068   9.115  -3.832  1.00  0.00    -0.354 N 
ATOM     32  N   UNL     1       6.301   7.953  -6.490  1.00  0.00    -0.248 NA
ATOM     33  C   UNL     1       6.179   8.129  -8.818  1.00  0.00     0.031 C 
ATOM     34  C   UNL     1       8.042  11.107  -3.839  1.00  0.00     0.029 A 
ATOM     35  C   UNL     1       7.498  10.133  -4.664  1.00  0.00     0.049 A 
ATOM     36  H   UNL     1       6.636   8.284  -4.133  1.00  0.00     0.167 HD
ATOM     37  C   UNL     1       6.852   9.163  -6.874  1.00  0.00     0.074 A 
ATOM     38  C   UNL     1       6.766   9.210  -8.324  1.00  0.00     0.031 C 
ATOM     39  C   UNL     1       7.386  10.143  -6.104  1.00  0.00     0.037 A 
BRANCH  26  40
ATOM     40  C   UNL     1       7.213   9.129   0.012  1.00  0.00     0.057 A 
ATOM     41  C   UNL     1       8.145   8.519   0.862  1.00  0.00     0.134 A 
ATOM     42  C   UNL     1       6.524  10.243   0.508  1.00  0.00     0.134 A 
ATOM     43  F   UNL     1       8.826   7.435   0.461  1.00  0.00    -0.206 F 
ATOM     44  C   UNL     1       8.368   8.988   2.160  1.00  0.00     0.040 A 
ATOM     45  C   UNL     1       6.755  10.735   1.794  1.00  0.00     0.040 A 
ATOM     46  F   UNL     1       5.614  10.873  -0.250  1.00  0.00    -0.206 F 
ATOM     47  C   UNL     1       7.675  10.103   2.627  1.00  0.00     0.006 A 
ENDBRANCH  26  40
BRANCH  27  48
ATOM     48  C   UNL     1       4.897   5.459  -9.083  1.00  0.00     0.057 A 
ATOM     49  C   UNL     1       5.849   4.988  -9.989  1.00  0.00     0.134 A 
ATOM     50  C   UNL     1       3.544   5.272  -9.405  1.00  0.00     0.134 A 
ATOM     51  F   UNL     1       7.157   5.135  -9.732  1.00  0.00    -0.206 F 
ATOM     52  C   UNL     1       5.471   4.345 -11.169  1.00  0.00     0.040 A 
ATOM     53  C   UNL     1       3.153   4.607 -10.565  1.00  0.00     0.040 A 
ATOM     54  F   UNL     1       2.585   5.679  -8.559  1.00  0.00    -0.206 F 
ATOM     55  C   UNL     1       4.120   4.142 -11.452  1.00  0.00     0.006 A 
ENDBRANCH  27  48
BRANCH  39  56
ATOM     56  C   UNL     1       7.946  11.330  -6.824  1.00  0.00     0.057 A 
ATOM     57  C   UNL     1       7.121  12.294  -7.413  1.00  0.00     0.134 A 
ATOM     58  C   UNL     1       9.330  11.530  -6.880  1.00  0.00     0.134 A 
ATOM     59  F   UNL     1       5.787  12.148  -7.405  1.00  0.00    -0.206 F 
ATOM     60  C   UNL     1       7.657  13.413  -8.050  1.00  0.00     0.040 A 
ATOM     61  C   UNL     1       9.876  12.658  -7.488  1.00  0.00     0.040 A 
ATOM     62  F   UNL     1      10.170  10.643  -6.325  1.00  0.00    -0.206 F 
ATOM     63  C   UNL     1       9.038  13.601  -8.080  1.00  0.00     0.006 A 
ENDBRANCH  39  56
ENDBRANCH  13  14
ENDBRANCH   6   8
ENDBRANCH   3   4
ENDBRANCH   2   3
ENDBRANCH   1   2
BRANCH   1  64
ATOM     64  C   UNL     1       3.841  -3.900   2.955  1.00  0.00     0.116 C 
BRANCH  64  65
ATOM     65  N   UNL     1       4.902  -4.842   2.094  1.00  0.00    -0.354 N 
ATOM     66  C   UNL     1       6.215  -5.344   2.318  1.00  0.00     0.250 C 
ATOM     67  H   UNL     1       4.537  -5.120   1.223  1.00  0.00     0.163 HD
ATOM     68  O   UNL     1       7.017  -5.380   1.384  1.00  0.00    -0.272 OA
BRANCH  66  69
ATOM     69  C   UNL     1       6.436  -6.094   3.667  1.00  0.00     0.145 C 
ATOM     70  C   UNL     1       7.777  -6.008   4.464  1.00  0.00     0.044 C 
ATOM     71  C   UNL     1       6.036  -7.562   3.314  1.00  0.00    -0.010 A 
ATOM     72  C   UNL     1       8.741  -7.181   4.440  1.00  0.00     0.008 C 
ATOM     73  C   UNL     1       6.970  -8.602   3.505  1.00  0.00    -0.042 A 
ATOM     74  C   UNL     1       5.004  -7.806   2.376  1.00  0.00     0.007 A 
ATOM     75  C   UNL     1       8.010  -8.499   4.578  1.00  0.00     0.036 C 
ATOM     76  C   UNL     1       6.991  -9.713   2.643  1.00  0.00     0.004 A 
ATOM     77  C   UNL     1       5.079  -8.871   1.473  1.00  0.00     0.000 A 
ATOM     78  C   UNL     1       6.094  -9.807   1.587  1.00  0.00     0.000 A 
BRANCH  69  79
ATOM     79  N   UNL     1       5.574  -5.262   4.462  1.00  0.00    -0.338 N 
ATOM     80  C   UNL     1       5.886  -3.914   4.551  1.00  0.00     0.224 C 
ATOM     81  H   UNL     1       4.791  -5.636   4.926  1.00  0.00     0.164 HD
ATOM     82  O   UNL     1       5.867  -3.499   5.717  1.00  0.00    -0.275 OA
BRANCH  80  83
ATOM     83  C   UNL     1       6.173  -2.829   3.162  1.00  0.00     0.082 C 
ATOM     84  C   UNL     1       6.386  -1.302   4.271  1.00  0.00     0.035 C 
ATOM     85  C   UNL     1       4.928  -2.505   1.578  1.00  0.00     0.035 C 
ATOM     86  C   UNL     1       4.982  -0.183   4.518  1.00  0.00     0.120 C 
ATOM     87  C   UNL     1       3.548  -1.026   1.837  1.00  0.00     0.120 C 
ATOM     88  N   UNL     1       3.865   0.122   3.250  1.00  0.00    -0.342 N 
ATOM     89  C   UNL     1       3.353   1.412   3.403  1.00  0.00     0.225 C 
ATOM     90  O   UNL     1       2.739   1.756   4.408  1.00  0.00    -0.275 OA
BRANCH  89  91
ATOM     91  C   UNL     1       4.025   2.492   2.620  1.00  0.00     0.079 C 
ATOM     92  C   UNL     1       4.128   2.517   1.139  1.00  0.00     0.014 C 
ATOM     93  C   UNL     1       3.176   3.448   1.808  1.00  0.00     0.014 C 
ENDBRANCH  89  91
ENDBRANCH  80  83
ENDBRANCH  69  79
ENDBRANCH  66  69
ENDBRANCH  64  65
ENDBRANCH   1  64
TORSDOF 14
