REMARK SMILES O=C(NCCCCNC(=O)c1cccc(COc2ccccc2C=C2C(=O)c3ccccc3C2=O)c1)c1ccc(-c2c3nc(c(-c4c(F)cccc4F)c4ccc([nH]4)c(-c4c(F)cccc4F)c4nc(c(-c5c(F)cccc5F)c5ccc2[nH]5)C=C4)C=C3)cc1
REMARK SMILES IDX 6 1 5 2 4 3 3 4 1 5 2 6 37 8 38 9 90 10 39 11 89 12 40 13
REMARK SMILES IDX 41 14 42 15 83 16 43 17 88 18 82 19 84 20 44 21 87 22 81 23
REMARK SMILES IDX 80 24 45 26 71 27 54 28 70 29 55 30 58 31 69 32 85 33 56 34
REMARK SMILES IDX 57 35 68 37 86 38 59 39 46 40 47 41 52 42 48 43 49 44 51 45
REMARK SMILES IDX 53 46 50 47 72 48 73 49 78 50 74 51 75 52 77 53 79 54 76 55
REMARK SMILES IDX 60 56 61 57 66 58 62 59 63 60 65 61 67 62 64 63 7 64 8 65
REMARK SMILES IDX 9 66 10 68 11 69 12 70 36 71 13 72 15 73 14 74 16 75 17 76
REMARK SMILES IDX 18 77 19 78 23 79 20 80 22 81 21 82 24 83 25 84 26 85 34 86
REMARK SMILES IDX 27 87 28 88 33 89 35 90 29 91 32 92 30 93 31 94
REMARK H PARENT 3 7 84 25 58 36 8 67
REMARK Flexibility Score: inf
ROOT
ATOM      1  C   UNL     1       4.121   0.798  -3.804  1.00  0.00     0.023 C 
ENDROOT
BRANCH   1   2
ATOM      2  C   UNL     1       4.695  -0.136  -2.744  1.00  0.00     0.023 C 
BRANCH   2   3
ATOM      3  C   UNL     1       4.425   0.296  -1.312  1.00  0.00     0.116 C 
BRANCH   3   4
ATOM      4  N   UNL     1       3.007   0.472  -1.021  1.00  0.00    -0.352 N 
ATOM      5  O   UNL     1       1.073   0.129   0.106  1.00  0.00    -0.269 OA
ATOM      6  C   UNL     1       2.289  -0.006   0.049  1.00  0.00     0.251 C 
ATOM      7  H   UNL     1       2.499   1.003  -1.676  1.00  0.00     0.163 HD
BRANCH   6   8
ATOM      8  C   UNL     1       3.016  -0.721   1.114  1.00  0.00     0.039 A 
ATOM      9  C   UNL     1       4.183  -0.165   1.638  1.00  0.00     0.014 A 
ATOM     10  C   UNL     1       2.579  -1.984   1.520  1.00  0.00     0.014 A 
ATOM     11  C   UNL     1       5.008  -0.948   2.427  1.00  0.00     0.010 A 
ATOM     12  C   UNL     1       3.358  -2.724   2.412  1.00  0.00     0.010 A 
ATOM     13  C   UNL     1       4.596  -2.226   2.844  1.00  0.00    -0.014 A 
BRANCH  13  14
ATOM     14  C   UNL     1       5.463  -2.966   3.794  1.00  0.00     0.031 A 
ATOM     15  C   UNL     1       6.106  -4.273   3.428  1.00  0.00     0.074 A 
ATOM     16  C   UNL     1       5.721  -2.388   4.983  1.00  0.00     0.049 A 
ATOM     17  N   UNL     1       6.943  -4.997   4.128  1.00  0.00    -0.248 NA
ATOM     18  C   UNL     1       5.766  -4.850   2.118  1.00  0.00     0.031 C 
ATOM     19  C   UNL     1       5.130  -1.129   5.449  1.00  0.00     0.029 A 
ATOM     20  N   UNL     1       6.567  -2.750   5.996  1.00  0.00    -0.354 N 
ATOM     21  C   UNL     1       7.220  -6.117   3.354  1.00  0.00     0.074 A 
ATOM     22  C   UNL     1       6.439  -5.993   2.141  1.00  0.00     0.031 C 
ATOM     23  C   UNL     1       5.685  -0.787   6.619  1.00  0.00     0.029 A 
ATOM     24  C   UNL     1       6.610  -1.838   7.023  1.00  0.00     0.049 A 
ATOM     25  H   UNL     1       7.093  -3.582   5.990  1.00  0.00     0.167 HD
ATOM     26  C   UNL     1       8.056  -7.147   3.631  1.00  0.00     0.037 A 
ATOM     27  C   UNL     1       7.304  -1.850   8.173  1.00  0.00     0.037 A 
ATOM     28  C   UNL     1       8.835  -7.257   4.840  1.00  0.00     0.049 A 
ATOM     29  C   UNL     1       8.220  -3.003   8.449  1.00  0.00     0.074 A 
ATOM     30  C   UNL     1       9.713  -8.260   5.215  1.00  0.00     0.029 A 
ATOM     31  N   UNL     1       8.830  -6.328   5.871  1.00  0.00    -0.354 N 
ATOM     32  N   UNL     1       8.477  -4.049   7.702  1.00  0.00    -0.248 NA
ATOM     33  C   UNL     1       8.937  -2.982   9.729  1.00  0.00     0.031 C 
ATOM     34  C   UNL     1      10.211  -7.956   6.486  1.00  0.00     0.029 A 
ATOM     35  C   UNL     1       9.681  -6.740   6.886  1.00  0.00     0.049 A 
ATOM     36  H   UNL     1       8.300  -5.498   5.881  1.00  0.00     0.167 HD
ATOM     37  C   UNL     1       9.387  -4.810   8.418  1.00  0.00     0.074 A 
ATOM     38  C   UNL     1       9.666  -4.085   9.642  1.00  0.00     0.031 C 
ATOM     39  C   UNL     1       9.934  -6.009   8.100  1.00  0.00     0.037 A 
BRANCH  26  40
ATOM     40  C   UNL     1       8.172  -8.247   2.614  1.00  0.00     0.057 A 
ATOM     41  C   UNL     1       8.850  -8.063   1.402  1.00  0.00     0.134 A 
ATOM     42  C   UNL     1       7.655  -9.522   2.875  1.00  0.00     0.134 A 
ATOM     43  F   UNL     1       9.361  -6.863   1.084  1.00  0.00    -0.206 F 
ATOM     44  C   UNL     1       8.997  -9.103   0.481  1.00  0.00     0.040 A 
ATOM     45  C   UNL     1       7.816 -10.576   1.973  1.00  0.00     0.040 A 
ATOM     46  F   UNL     1       7.000  -9.771   4.019  1.00  0.00    -0.206 F 
ATOM     47  C   UNL     1       8.486 -10.367   0.770  1.00  0.00     0.006 A 
ENDBRANCH  26  40
BRANCH  27  48
ATOM     48  C   UNL     1       7.136  -0.744   9.147  1.00  0.00     0.057 A 
ATOM     49  C   UNL     1       8.173   0.154   9.419  1.00  0.00     0.134 A 
ATOM     50  C   UNL     1       5.922  -0.552   9.820  1.00  0.00     0.134 A 
ATOM     51  F   UNL     1       9.363   0.015   8.816  1.00  0.00    -0.206 F 
ATOM     52  C   UNL     1       8.016   1.192  10.338  1.00  0.00     0.040 A 
ATOM     53  C   UNL     1       5.741   0.500  10.716  1.00  0.00     0.040 A 
ATOM     54  F   UNL     1       4.884  -1.371   9.593  1.00  0.00    -0.206 F 
ATOM     55  C   UNL     1       6.794   1.371  10.984  1.00  0.00     0.006 A 
ENDBRANCH  27  48
BRANCH  39  56
ATOM     56  C   UNL     1      10.894  -6.591   9.095  1.00  0.00     0.057 A 
ATOM     57  C   UNL     1      10.458  -7.106  10.322  1.00  0.00     0.134 A 
ATOM     58  C   UNL     1      12.267  -6.629   8.825  1.00  0.00     0.134 A 
ATOM     59  F   UNL     1       9.156  -7.082  10.646  1.00  0.00    -0.206 F 
ATOM     60  C   UNL     1      11.359  -7.607  11.262  1.00  0.00     0.040 A 
ATOM     61  C   UNL     1      13.175  -7.153   9.746  1.00  0.00     0.040 A 
ATOM     62  F   UNL     1      12.748  -6.157   7.665  1.00  0.00    -0.206 F 
ATOM     63  C   UNL     1      12.722  -7.634  10.973  1.00  0.00     0.006 A 
ENDBRANCH  39  56
ENDBRANCH  13  14
ENDBRANCH   6   8
ENDBRANCH   3   4
ENDBRANCH   2   3
ENDBRANCH   1   2
BRANCH   1  64
ATOM     64  C   UNL     1       4.461   2.267  -3.580  1.00  0.00     0.116 C 
BRANCH  64  65
ATOM     65  N   UNL     1       5.896   2.489  -3.646  1.00  0.00    -0.352 N 
ATOM     66  C   UNL     1       6.604   3.008  -4.698  1.00  0.00     0.251 C 
ATOM     67  H   UNL     1       6.416   2.238  -2.848  1.00  0.00     0.163 HD
ATOM     68  O   UNL     1       7.828   2.983  -4.732  1.00  0.00    -0.269 OA
BRANCH  66  69
ATOM     69  C   UNL     1       5.842   3.656  -5.772  1.00  0.00     0.040 A 
ATOM     70  C   UNL     1       5.859   3.140  -7.066  1.00  0.00     0.014 A 
ATOM     71  C   UNL     1       5.139   4.823  -5.464  1.00  0.00     0.021 A 
ATOM     72  C   UNL     1       5.120   3.779  -8.058  1.00  0.00     0.001 A 
ATOM     73  C   UNL     1       4.426   5.482  -6.463  1.00  0.00    -0.010 A 
ATOM     74  C   UNL     1       4.399   4.938  -7.757  1.00  0.00     0.007 A 
BRANCH  73  75
ATOM     75  C   UNL     1       3.856   6.846  -6.192  1.00  0.00     0.265 C 
BRANCH  75  76
ATOM     76  O   UNL     1       4.631   7.773  -6.959  1.00  0.00    -0.488 OA
BRANCH  76  77
ATOM     77  C   UNL     1       5.499   8.511  -6.194  1.00  0.00     0.127 A 
ATOM     78  C   UNL     1       4.996   9.696  -5.643  1.00  0.00     0.047 A 
ATOM     79  C   UNL     1       6.869   8.194  -6.112  1.00  0.00     0.017 A 
ATOM     80  C   UNL     1       5.855  10.601  -5.026  1.00  0.00     0.004 A 
ATOM     81  C   UNL     1       7.718   9.158  -5.546  1.00  0.00     0.012 A 
ATOM     82  C   UNL     1       7.220  10.340  -4.995  1.00  0.00     0.001 A 
BRANCH  79  83
ATOM     83  C   UNL     1       7.451   6.962  -6.688  1.00  0.00     0.028 C 
ATOM     84  C   UNL     1       8.434   6.205  -6.165  1.00  0.00     0.071 C 
ATOM     85  C   UNL     1       9.169   6.345  -4.875  1.00  0.00     0.197 C 
ATOM     86  C   UNL     1       9.060   5.079  -6.924  1.00  0.00     0.197 C 
ATOM     87  O   UNL     1       8.919   7.040  -3.911  1.00  0.00    -0.288 OA
ATOM     88  C   UNL     1      10.325   5.452  -4.981  1.00  0.00     0.034 A 
ATOM     89  C   UNL     1      10.249   4.696  -6.145  1.00  0.00     0.034 A 
ATOM     90  O   UNL     1       8.736   4.624  -8.003  1.00  0.00    -0.288 OA
ATOM     91  C   UNL     1      11.410   5.370  -4.124  1.00  0.00     0.013 A 
ATOM     92  C   UNL     1      11.247   3.799  -6.485  1.00  0.00     0.013 A 
ATOM     93  C   UNL     1      12.438   4.489  -4.465  1.00  0.00     0.001 A 
ATOM     94  C   UNL     1      12.353   3.702  -5.631  1.00  0.00     0.001 A 
ENDBRANCH  79  83
ENDBRANCH  76  77
ENDBRANCH  75  76
ENDBRANCH  73  75
ENDBRANCH  66  69
ENDBRANCH  64  65
ENDBRANCH   1  64
TORSDOF 15
