REMARK SMILES O=C(NCCCCNC(=O)[C@@H](c1ccc(NC(=O)N2CCCC2)cc1)[NH+]1CCCCCCC1)c1ccc(-c2c3nc(c(-c4c(F)cccc4F)c4ccc([nH]4)c(-c4c(F)cccc4F)c4nc(c(-c5c(F)cccc5F)c5ccc2[nH]5)C=C4)C=C3)cc1
REMARK SMILES IDX 7 1 6 2 5 3 4 4 3 5 1 6 2 7 34 9 35 10 87 11 36 12 86 13
REMARK SMILES IDX 37 14 38 15 39 16 80 17 40 18 85 19 79 20 81 21 41 22 84 23
REMARK SMILES IDX 78 24 77 25 42 27 68 28 51 29 67 30 52 31 55 32 66 33 82 34
REMARK SMILES IDX 53 35 54 36 65 38 83 39 56 40 43 41 44 42 49 43 45 44 46 45
REMARK SMILES IDX 48 46 50 47 47 48 69 49 70 50 75 51 71 52 72 53 74 54 76 55
REMARK SMILES IDX 73 56 57 57 58 58 63 59 59 60 60 61 62 62 64 63 61 64 8 65
REMARK SMILES IDX 9 66 10 68 11 69 12 70 13 71 25 72 14 73 24 74 15 75 16 76
REMARK SMILES IDX 17 77 18 79 19 80 20 81 23 82 21 83 22 84 26 85 27 87 28 88
REMARK SMILES IDX 29 89 33 91 32 92 31 93 30 94
REMARK H PARENT 3 8 81 26 55 37 8 67 16 78 26 86
REMARK Flexibility Score: 90.00
ROOT
ATOM      1  C   UNL     1       5.047  -2.164   3.249  1.00  0.00     0.116 C 
ENDROOT
BRANCH   1   2
ATOM      2  C   UNL     1       4.927  -0.653   3.260  1.00  0.00     0.023 C 
BRANCH   2   3
ATOM      3  C   UNL     1       5.315   0.061   1.975  1.00  0.00     0.023 C 
BRANCH   3   4
ATOM      4  C   UNL     1       4.803  -0.584   0.697  1.00  0.00     0.116 C 
BRANCH   4   5
ATOM      5  N   UNL     1       3.351  -0.672   0.639  1.00  0.00    -0.352 N 
ATOM      6  O   UNL     1       1.253  -0.115   0.026  1.00  0.00    -0.269 OA
ATOM      7  C   UNL     1       2.455   0.005  -0.156  1.00  0.00     0.251 C 
ATOM      8  H   UNL     1       2.947  -1.315   1.265  1.00  0.00     0.163 HD
BRANCH   7   9
ATOM      9  C   UNL     1       2.962   0.914  -1.203  1.00  0.00     0.039 A 
ATOM     10  C   UNL     1       3.982   0.506  -2.063  1.00  0.00     0.014 A 
ATOM     11  C   UNL     1       2.428   2.201  -1.296  1.00  0.00     0.014 A 
ATOM     12  C   UNL     1       4.600   1.439  -2.885  1.00  0.00     0.010 A 
ATOM     13  C   UNL     1       2.981   3.108  -2.199  1.00  0.00     0.010 A 
ATOM     14  C   UNL     1       4.099   2.746  -2.968  1.00  0.00    -0.014 A 
BRANCH  14  15
ATOM     15  C   UNL     1       4.718   3.715  -3.902  1.00  0.00     0.031 A 
ATOM     16  C   UNL     1       5.363   4.970  -3.393  1.00  0.00     0.074 A 
ATOM     17  C   UNL     1       4.674   3.458  -5.222  1.00  0.00     0.049 A 
ATOM     18  N   UNL     1       5.856   5.976  -4.069  1.00  0.00    -0.248 NA
ATOM     19  C   UNL     1       5.458   5.124  -1.933  1.00  0.00     0.031 C 
ATOM     20  C   UNL     1       4.076   2.265  -5.828  1.00  0.00     0.029 A 
ATOM     21  N   UNL     1       5.128   4.184  -6.291  1.00  0.00    -0.354 N 
ATOM     22  C   UNL     1       6.287   6.896  -3.123  1.00  0.00     0.074 A 
ATOM     23  C   UNL     1       5.986   6.335  -1.822  1.00  0.00     0.031 C 
ATOM     24  C   UNL     1       4.211   2.335  -7.159  1.00  0.00     0.029 A 
ATOM     25  C   UNL     1       4.836   3.607  -7.502  1.00  0.00     0.049 A 
ATOM     26  H   UNL     1       5.615   5.034  -6.200  1.00  0.00     0.167 HD
ATOM     27  C   UNL     1       6.876   8.099  -3.325  1.00  0.00     0.037 A 
ATOM     28  C   UNL     1       5.008   4.067  -8.753  1.00  0.00     0.037 A 
ATOM     29  C   UNL     1       7.186   8.636  -4.626  1.00  0.00     0.049 A 
ATOM     30  C   UNL     1       5.636   5.412  -8.954  1.00  0.00     0.074 A 
ATOM     31  C   UNL     1       7.824   9.823  -4.939  1.00  0.00     0.029 A 
ATOM     32  N   UNL     1       6.873   8.020  -5.829  1.00  0.00    -0.354 N 
ATOM     33  N   UNL     1       6.057   6.264  -8.052  1.00  0.00    -0.248 NA
ATOM     34  C   UNL     1       5.808   5.862 -10.340  1.00  0.00     0.031 C 
ATOM     35  C   UNL     1       7.856   9.947  -6.333  1.00  0.00     0.029 A 
ATOM     36  C   UNL     1       7.281   8.814  -6.888  1.00  0.00     0.049 A 
ATOM     37  H   UNL     1       6.426   7.147  -5.918  1.00  0.00     0.167 HD
ATOM     38  C   UNL     1       6.562   7.346  -8.758  1.00  0.00     0.074 A 
ATOM     39  C   UNL     1       6.398   7.037 -10.166  1.00  0.00     0.031 C 
ATOM     40  C   UNL     1       7.113   8.488  -8.282  1.00  0.00     0.037 A 
BRANCH  27  41
ATOM     41  C   UNL     1       7.191   8.929  -2.115  1.00  0.00     0.057 A 
ATOM     42  C   UNL     1       8.220   8.594  -1.226  1.00  0.00     0.134 A 
ATOM     43  C   UNL     1       6.463  10.096  -1.847  1.00  0.00     0.134 A 
ATOM     44  F   UNL     1       8.948   7.483  -1.417  1.00  0.00    -0.206 F 
ATOM     45  C   UNL     1       8.495   9.373  -0.100  1.00  0.00     0.040 A 
ATOM     46  C   UNL     1       6.744  10.896  -0.737  1.00  0.00     0.040 A 
ATOM     47  F   UNL     1       5.468  10.480  -2.660  1.00  0.00    -0.206 F 
ATOM     48  C   UNL     1       7.758  10.530   0.145  1.00  0.00     0.006 A 
ENDBRANCH  27  41
BRANCH  28  49
ATOM     49  C   UNL     1       4.548   3.238  -9.892  1.00  0.00     0.057 A 
ATOM     50  C   UNL     1       5.458   2.562 -10.708  1.00  0.00     0.134 A 
ATOM     51  C   UNL     1       3.183   3.041 -10.138  1.00  0.00     0.134 A 
ATOM     52  F   UNL     1       6.777   2.720 -10.524  1.00  0.00    -0.206 F 
ATOM     53  C   UNL     1       5.028   1.713 -11.730  1.00  0.00     0.040 A 
ATOM     54  C   UNL     1       2.739   2.178 -11.139  1.00  0.00     0.040 A 
ATOM     55  F   UNL     1       2.263   3.651  -9.376  1.00  0.00    -0.206 F 
ATOM     56  C   UNL     1       3.664   1.512 -11.940  1.00  0.00     0.006 A 
ENDBRANCH  28  49
BRANCH  40  57
ATOM     57  C   UNL     1       7.612   9.477  -9.290  1.00  0.00     0.057 A 
ATOM     58  C   UNL     1       6.739  10.300 -10.011  1.00  0.00     0.134 A 
ATOM     59  C   UNL     1       8.987   9.647  -9.497  1.00  0.00     0.134 A 
ATOM     60  F   UNL     1       5.411  10.174  -9.867  1.00  0.00    -0.206 F 
ATOM     61  C   UNL     1       7.216  11.255 -10.909  1.00  0.00     0.040 A 
ATOM     62  C   UNL     1       9.477  10.612 -10.377  1.00  0.00     0.040 A 
ATOM     63  F   UNL     1       9.874   8.891  -8.832  1.00  0.00    -0.206 F 
ATOM     64  C   UNL     1       8.590  11.419 -11.087  1.00  0.00     0.006 A 
ENDBRANCH  40  57
ENDBRANCH  14  15
ENDBRANCH   7   9
ENDBRANCH   4   5
ENDBRANCH   3   4
ENDBRANCH   2   3
ENDBRANCH   1   2
BRANCH   1  65
ATOM     65  N   UNL     1       6.406  -2.643   3.091  1.00  0.00    -0.351 N 
ATOM     66  C   UNL     1       7.024  -3.735   3.643  1.00  0.00     0.283 C 
ATOM     67  H   UNL     1       6.972  -2.101   2.495  1.00  0.00     0.163 HD
ATOM     68  O   UNL     1       8.163  -3.986   3.227  1.00  0.00    -0.268 OA
BRANCH  66  69
ATOM     69  C   UNL     1       6.354  -4.642   4.734  1.00  0.00     0.305 C 
BRANCH  69  70
ATOM     70  C   UNL     1       5.774  -3.841   5.908  1.00  0.00     0.019 A 
ATOM     71  C   UNL     1       6.490  -2.732   6.396  1.00  0.00     0.012 A 
ATOM     72  C   UNL     1       4.551  -4.140   6.520  1.00  0.00     0.012 A 
ATOM     73  C   UNL     1       5.912  -1.849   7.309  1.00  0.00     0.027 A 
ATOM     74  C   UNL     1       3.965  -3.243   7.425  1.00  0.00     0.027 A 
ATOM     75  C   UNL     1       4.606  -2.045   7.750  1.00  0.00     0.042 A 
BRANCH  75  76
ATOM     76  N   UNL     1       3.911  -1.100   8.529  1.00  0.00    -0.308 N 
ATOM     77  C   UNL     1       4.199   0.207   8.797  1.00  0.00     0.321 C 
ATOM     78  H   UNL     1       3.085  -1.435   8.946  1.00  0.00     0.171 HD
ATOM     79  O   UNL     1       3.842   0.683   9.876  1.00  0.00    -0.248 OA
ATOM     80  N   UNL     1       4.841   0.966   7.859  1.00  0.00    -0.325 N 
ATOM     81  C   UNL     1       4.659   0.924   6.424  1.00  0.00     0.121 C 
ATOM     82  C   UNL     1       5.540   2.182   8.217  1.00  0.00     0.121 C 
ATOM     83  C   UNL     1       5.948   1.538   5.908  1.00  0.00     0.023 C 
ATOM     84  C   UNL     1       6.293   2.597   6.953  1.00  0.00     0.023 C 
ENDBRANCH  75  76
ENDBRANCH  69  70
BRANCH  69  85
ATOM     85  N   UNL     1       5.488  -5.729   4.127  1.00  0.00    -0.321 N 
ATOM     86  H   UNL     1       5.031  -6.231   4.889  1.00  0.00     0.349 HD
BRANCH  85  87
ATOM     87  C   UNL     1       4.376  -5.216   3.322  1.00  0.00     0.263 C 
BRANCH  87  88
ATOM     88  C   UNL     1       3.236  -6.163   2.929  1.00  0.00     0.061 C 
BRANCH  88  89
ATOM     89  C   UNL     1       2.803  -7.137   4.020  1.00  0.00     0.006 CG0
ATOM     90  G   UNL     1       3.376  -8.543   3.849  1.00  0.00     0.000 G0
ENDBRANCH  88  89
ENDBRANCH  87  88
ENDBRANCH  85  87
BRANCH  85  91
ATOM     91  C   UNL     1       6.349  -6.663   3.375  1.00  0.00     0.263 C 
BRANCH  91  92
ATOM     92  C   UNL     1       5.719  -7.993   2.944  1.00  0.00     0.061 C 
BRANCH  92  93
ATOM     93  C   UNL     1       4.889  -8.679   4.030  1.00  0.00     0.006 C 
BRANCH  93  94
ATOM     94  C   UNL     1       3.376  -8.543   3.849  1.00  0.00     0.000 CG0
ATOM     95  G   UNL     1       2.803  -7.137   4.020  1.00  0.00     0.000 G0
ENDBRANCH  93  94
ENDBRANCH  92  93
ENDBRANCH  91  92
ENDBRANCH  85  91
ENDBRANCH  69  85
ENDBRANCH  66  69
ENDBRANCH   1  65
TORSDOF 14
