REMARK SMILES CC(C)(C)c1csc(NC(=O)Cn2cccc2C(=O)NCCCCNC(=O)c2ccc(-c3c4nc(c(-c5c(F)cccc5F)c5ccc([nH]5)c(-c5c(F)cccc5F)c5nc(c(-c6c(F)cccc6F)c6ccc3[nH]6)C=C5)C=C4)cc2)n1
REMARK SMILES IDX 21 1 20 2 18 3 19 4 17 6 13 7 14 8 15 9 16 10 12 11 10 12
REMARK SMILES IDX 9 13 11 15 8 16 5 17 6 18 82 19 7 20 2 21 1 22 3 23 4 24
REMARK SMILES IDX 22 25 23 26 24 27 25 28 26 29 27 31 28 32 29 33 81 34 30 35
REMARK SMILES IDX 80 36 31 37 32 38 33 39 74 40 34 41 79 42 73 43 75 44 35 45
REMARK SMILES IDX 78 46 72 47 71 48 36 50 62 51 45 52 61 53 46 54 49 55 60 56
REMARK SMILES IDX 76 57 47 58 48 59 59 61 77 62 50 63 37 64 38 65 43 66 39 67
REMARK SMILES IDX 40 68 42 69 44 70 41 71 63 72 64 73 69 74 65 75 66 76 68 77
REMARK SMILES IDX 70 78 67 79 51 80 52 81 57 82 53 83 54 84 56 85 58 86 55 87
REMARK H PARENT 20 5 9 14 25 30 75 49 49 60
REMARK Flexibility Score: inf
ROOT
ATOM      1  C   UNL     1       1.471  -0.563  -8.586  1.00  0.00     0.116 C 
ENDROOT
BRANCH   1   2
ATOM      2  N   UNL     1       1.872  -1.743  -7.867  1.00  0.00    -0.351 N 
ATOM      3  C   UNL     1       2.751  -1.940  -6.829  1.00  0.00     0.267 C 
ATOM      4  O   UNL     1       2.788  -3.109  -6.430  1.00  0.00    -0.268 OA
ATOM      5  H   UNL     1       1.433  -2.567  -8.179  1.00  0.00     0.163 HD
BRANCH   3   6
ATOM      6  C   UNL     1       3.622  -0.919  -6.232  1.00  0.00     0.107 A 
ATOM      7  N   UNL     1       3.546   0.465  -6.074  1.00  0.00    -0.334 N 
ATOM      8  C   UNL     1       4.697   0.928  -5.464  1.00  0.00     0.087 A 
ATOM      9  C   UNL     1       5.445  -0.144  -5.062  1.00  0.00     0.020 A 
ATOM     10  C   UNL     1       4.772  -1.289  -5.524  1.00  0.00     0.033 A 
BRANCH   7  11
ATOM     11  C   UNL     1       2.469   1.388  -6.411  1.00  0.00     0.222 C 
BRANCH  11  12
ATOM     12  C   UNL     1       2.112   2.399  -5.344  1.00  0.00     0.246 C 
ATOM     13  N   UNL     1       1.543   2.063  -4.156  1.00  0.00    -0.300 N 
ATOM     14  H   UNL     1       1.391   2.827  -3.554  1.00  0.00     0.172 HD
ATOM     15  O   UNL     1       2.336   3.599  -5.553  1.00  0.00    -0.273 OA
BRANCH  13  16
ATOM     16  C   UNL     1       1.141   0.862  -3.642  1.00  0.00     0.189 A 
ATOM     17  C   UNL     1       0.698  -0.644  -2.084  1.00  0.00     0.059 A 
ATOM     18  C   UNL     1       0.670  -1.453  -3.206  1.00  0.00     0.093 A 
ATOM     19  N   UNL     1       0.947   0.697  -2.358  1.00  0.00    -0.224 NA
ATOM     20  S   UNL     1       0.707  -0.473  -4.593  1.00  0.00    -0.105 S 
BRANCH  17  21
ATOM     21  C   UNL     1       0.376  -1.066  -0.667  1.00  0.00     0.005 C 
ATOM     22  C   UNL     1       0.939  -0.064   0.357  1.00  0.00     0.017 C 
ATOM     23  C   UNL     1       0.955  -2.456  -0.343  1.00  0.00     0.017 C 
ATOM     24  C   UNL     1      -1.160  -1.110  -0.538  1.00  0.00     0.017 C 
ENDBRANCH  17  21
ENDBRANCH  13  16
ENDBRANCH  11  12
ENDBRANCH   7  11
ENDBRANCH   3   6
ENDBRANCH   1   2
BRANCH   1  25
ATOM     25  C   UNL     1       1.004  -0.775 -10.019  1.00  0.00     0.023 C 
BRANCH  25  26
ATOM     26  C   UNL     1      -0.310  -1.548 -10.210  1.00  0.00     0.023 C 
BRANCH  26  27
ATOM     27  C   UNL     1      -1.545  -1.028  -9.454  1.00  0.00     0.116 C 
BRANCH  27  28
ATOM     28  N   UNL     1      -1.942   0.302  -9.880  1.00  0.00    -0.352 N 
ATOM     29  C   UNL     1      -3.159   0.939  -9.777  1.00  0.00     0.251 C 
ATOM     30  H   UNL     1      -1.230   0.831 -10.309  1.00  0.00     0.163 HD
ATOM     31  O   UNL     1      -3.371   1.920 -10.478  1.00  0.00    -0.269 OA
BRANCH  29  32
ATOM     32  C   UNL     1      -4.225   0.474  -8.854  1.00  0.00     0.039 A 
ATOM     33  C   UNL     1      -5.552   0.527  -9.306  1.00  0.00     0.014 A 
ATOM     34  C   UNL     1      -3.960   0.093  -7.534  1.00  0.00     0.014 A 
ATOM     35  C   UNL     1      -6.599   0.129  -8.473  1.00  0.00     0.010 A 
ATOM     36  C   UNL     1      -5.009  -0.303  -6.691  1.00  0.00     0.010 A 
ATOM     37  C   UNL     1      -6.327  -0.325  -7.173  1.00  0.00    -0.014 A 
BRANCH  37  38
ATOM     38  C   UNL     1      -7.372  -1.149  -6.495  1.00  0.00     0.031 A 
ATOM     39  C   UNL     1      -7.384  -2.586  -7.090  1.00  0.00     0.074 A 
ATOM     40  C   UNL     1      -8.151  -0.578  -5.518  1.00  0.00     0.049 A 
ATOM     41  N   UNL     1      -8.329  -3.474  -7.134  1.00  0.00    -0.248 NA
ATOM     42  C   UNL     1      -6.169  -3.088  -7.803  1.00  0.00     0.031 C 
ATOM     43  C   UNL     1      -7.980   0.799  -5.006  1.00  0.00     0.029 A 
ATOM     44  N   UNL     1      -9.229  -1.010  -4.754  1.00  0.00    -0.354 N 
ATOM     45  C   UNL     1      -7.766  -4.675  -7.637  1.00  0.00     0.074 A 
ATOM     46  C   UNL     1      -6.488  -4.330  -8.166  1.00  0.00     0.031 C 
ATOM     47  C   UNL     1      -8.942   1.111  -4.106  1.00  0.00     0.029 A 
ATOM     48  C   UNL     1      -9.830  -0.022  -3.913  1.00  0.00     0.049 A 
ATOM     49  H   UNL     1      -9.557  -1.938  -4.789  1.00  0.00     0.167 HD
ATOM     50  C   UNL     1      -8.313  -5.908  -7.410  1.00  0.00     0.037 A 
ATOM     51  C   UNL     1     -10.969  -0.098  -3.141  1.00  0.00     0.037 A 
ATOM     52  C   UNL     1      -9.560  -5.755  -6.749  1.00  0.00     0.049 A 
ATOM     53  C   UNL     1     -11.335  -1.515  -3.144  1.00  0.00     0.074 A 
ATOM     54  C   UNL     1     -10.756  -5.218  -7.143  1.00  0.00     0.029 A 
ATOM     55  N   UNL     1      -9.523  -5.842  -5.380  1.00  0.00    -0.354 N 
ATOM     56  N   UNL     1     -10.724  -2.427  -2.450  1.00  0.00    -0.248 NA
ATOM     57  C   UNL     1     -12.437  -1.964  -4.003  1.00  0.00     0.031 C 
ATOM     58  C   UNL     1     -11.180  -4.531  -5.990  1.00  0.00     0.029 A 
ATOM     59  C   UNL     1     -10.387  -4.902  -4.897  1.00  0.00     0.049 A 
ATOM     60  H   UNL     1      -8.977  -6.465  -4.848  1.00  0.00     0.167 HD
ATOM     61  C   UNL     1     -11.129  -3.571  -3.087  1.00  0.00     0.074 A 
ATOM     62  C   UNL     1     -12.387  -3.267  -3.735  1.00  0.00     0.031 C 
ATOM     63  C   UNL     1     -10.179  -4.417  -3.557  1.00  0.00     0.037 A 
BRANCH  50  64
ATOM     64  C   UNL     1      -7.716  -7.295  -7.409  1.00  0.00     0.057 A 
ATOM     65  C   UNL     1      -8.599  -8.392  -7.234  1.00  0.00     0.134 A 
ATOM     66  C   UNL     1      -6.368  -7.562  -7.150  1.00  0.00     0.134 A 
ATOM     67  F   UNL     1      -9.909  -8.278  -7.510  1.00  0.00    -0.206 F 
ATOM     68  C   UNL     1      -8.196  -9.600  -6.661  1.00  0.00     0.040 A 
ATOM     69  C   UNL     1      -5.945  -8.793  -6.628  1.00  0.00     0.040 A 
ATOM     70  F   UNL     1      -5.423  -6.627  -7.293  1.00  0.00    -0.206 F 
ATOM     71  C   UNL     1      -6.865  -9.793  -6.330  1.00  0.00     0.006 A 
ENDBRANCH  50  64
BRANCH  51  72
ATOM     72  C   UNL     1     -11.921   0.783  -2.341  1.00  0.00     0.057 A 
ATOM     73  C   UNL     1     -11.749   2.135  -2.040  1.00  0.00     0.134 A 
ATOM     74  C   UNL     1     -13.175   0.264  -1.885  1.00  0.00     0.134 A 
ATOM     75  F   UNL     1     -10.590   2.756  -2.279  1.00  0.00    -0.206 F 
ATOM     76  C   UNL     1     -12.774   2.917  -1.453  1.00  0.00     0.040 A 
ATOM     77  C   UNL     1     -14.214   1.034  -1.355  1.00  0.00     0.040 A 
ATOM     78  F   UNL     1     -13.467  -1.043  -1.925  1.00  0.00    -0.206 F 
ATOM     79  C   UNL     1     -14.024   2.382  -1.152  1.00  0.00     0.006 A 
ENDBRANCH  51  72
BRANCH  63  80
ATOM     80  C   UNL     1      -8.870  -4.385  -2.789  1.00  0.00     0.057 A 
ATOM     81  C   UNL     1      -8.859  -4.691  -1.421  1.00  0.00     0.134 A 
ATOM     82  C   UNL     1      -7.646  -3.946  -3.317  1.00  0.00     0.134 A 
ATOM     83  F   UNL     1      -9.973  -5.141  -0.824  1.00  0.00    -0.206 F 
ATOM     84  C   UNL     1      -7.714  -4.542  -0.625  1.00  0.00     0.040 A 
ATOM     85  C   UNL     1      -6.489  -3.795  -2.537  1.00  0.00     0.040 A 
ATOM     86  F   UNL     1      -7.527  -3.642  -4.608  1.00  0.00    -0.206 F 
ATOM     87  C   UNL     1      -6.524  -4.085  -1.180  1.00  0.00     0.006 A 
ENDBRANCH  63  80
ENDBRANCH  37  38
ENDBRANCH  29  32
ENDBRANCH  27  28
ENDBRANCH  26  27
ENDBRANCH  25  26
ENDBRANCH   1  25
TORSDOF 15
