REMARK SMILES O=C(NCCCCNC(=O)[C@H]1C[C@H]2CCCC[C@H]2[N@@H+]1CC1(O)CCCC1)c1ccc(-c2c3nc(c(-c4c(F)cccc4F)c4ccc([nH]4)c(-c4c(F)cccc4F)c4nc(c(-c5c(F)cccc5F)c5ccc2[nH]5)C=C4)C=C3)cc1
REMARK SMILES IDX 6 1 5 2 4 3 3 4 1 5 2 6 27 8 28 9 80 10 29 11 79 12 30 13
REMARK SMILES IDX 31 14 32 15 73 16 33 17 78 18 72 19 74 20 34 21 77 22 71 23
REMARK SMILES IDX 70 24 35 26 61 27 44 28 60 29 45 30 48 31 59 32 75 33 46 34
REMARK SMILES IDX 47 35 58 37 76 38 49 39 36 40 37 41 42 42 38 43 39 44 41 45
REMARK SMILES IDX 43 46 40 47 62 48 63 49 68 50 64 51 65 52 67 53 69 54 66 55
REMARK SMILES IDX 50 56 51 57 56 58 52 59 53 60 55 61 57 62 54 63 7 64 8 65
REMARK SMILES IDX 9 66 10 68 11 69 12 70 19 71 13 72 18 73 14 75 17 76 15 77
REMARK SMILES IDX 16 78 20 79 21 80 23 81 26 82 24 83 25 84 22 85
REMARK H PARENT 3 7 74 25 48 36 8 67 19 74 22 86
REMARK Flexibility Score: inf
ROOT
ATOM      1  C   UNL     1       4.472  -0.685  -3.647  1.00  0.00     0.023 C 
ENDROOT
BRANCH   1   2
ATOM      2  C   UNL     1       4.780  -1.402  -2.327  1.00  0.00     0.023 C 
BRANCH   2   3
ATOM      3  C   UNL     1       4.488  -0.588  -1.072  1.00  0.00     0.116 C 
BRANCH   3   4
ATOM      4  N   UNL     1       3.095  -0.187  -0.959  1.00  0.00    -0.352 N 
ATOM      5  O   UNL     1       1.170   0.249   0.149  1.00  0.00    -0.269 OA
ATOM      6  C   UNL     1       2.367   0.021   0.191  1.00  0.00     0.251 C 
ATOM      7  H   UNL     1       2.614  -0.048  -1.807  1.00  0.00     0.163 HD
BRANCH   6   8
ATOM      8  C   UNL     1       3.065  -0.077   1.490  1.00  0.00     0.039 A 
ATOM      9  C   UNL     1       4.240   0.644   1.712  1.00  0.00     0.014 A 
ATOM     10  C   UNL     1       2.555  -0.929   2.472  1.00  0.00     0.014 A 
ATOM     11  C   UNL     1       4.970   0.423   2.873  1.00  0.00     0.010 A 
ATOM     12  C   UNL     1       3.256  -1.098   3.667  1.00  0.00     0.010 A 
ATOM     13  C   UNL     1       4.481  -0.443   3.865  1.00  0.00    -0.014 A 
BRANCH  13  14
ATOM     14  C   UNL     1       5.241  -0.600   5.127  1.00  0.00     0.031 A 
ATOM     15  C   UNL     1       5.898  -1.902   5.483  1.00  0.00     0.074 A 
ATOM     16  C   UNL     1       5.357   0.466   5.941  1.00  0.00     0.049 A 
ATOM     17  N   UNL     1       6.604  -2.204   6.543  1.00  0.00    -0.248 NA
ATOM     18  C   UNL     1       5.741  -3.012   4.531  1.00  0.00     0.031 C 
ATOM     19  C   UNL     1       4.754   1.779   5.697  1.00  0.00     0.029 A 
ATOM     20  N   UNL     1       6.030   0.623   7.124  1.00  0.00    -0.354 N 
ATOM     21  C   UNL     1       6.963  -3.538   6.396  1.00  0.00     0.074 A 
ATOM     22  C   UNL     1       6.378  -3.995   5.153  1.00  0.00     0.031 C 
ATOM     23  C   UNL     1       5.120   2.619   6.676  1.00  0.00     0.029 A 
ATOM     24  C   UNL     1       5.932   1.890   7.643  1.00  0.00     0.049 A 
ATOM     25  H   UNL     1       6.535  -0.102   7.559  1.00  0.00     0.167 HD
ATOM     26  C   UNL     1       7.717  -4.304   7.220  1.00  0.00     0.037 A 
ATOM     27  C   UNL     1       6.429   2.406   8.782  1.00  0.00     0.037 A 
ATOM     28  C   UNL     1       8.305  -3.838   8.450  1.00  0.00     0.049 A 
ATOM     29  C   UNL     1       7.242   1.528   9.684  1.00  0.00     0.074 A 
ATOM     30  C   UNL     1       9.100  -4.533   9.345  1.00  0.00     0.029 A 
ATOM     31  N   UNL     1       8.161  -2.555   8.958  1.00  0.00    -0.354 N 
ATOM     32  N   UNL     1       7.584   0.273   9.524  1.00  0.00    -0.248 NA
ATOM     33  C   UNL     1       7.731   2.134  10.929  1.00  0.00     0.031 C 
ATOM     34  C   UNL     1       9.409  -3.680  10.411  1.00  0.00     0.029 A 
ATOM     35  C   UNL     1       8.838  -2.442  10.161  1.00  0.00     0.049 A 
ATOM     36  H   UNL     1       7.652  -1.831   8.526  1.00  0.00     0.167 HD
ATOM     37  C   UNL     1       8.338  -0.059  10.640  1.00  0.00     0.074 A 
ATOM     38  C   UNL     1       8.421   1.133  11.459  1.00  0.00     0.031 C 
ATOM     39  C   UNL     1       8.905  -1.247  10.961  1.00  0.00     0.037 A 
BRANCH  26  40
ATOM     40  C   UNL     1       7.940  -5.735   6.827  1.00  0.00     0.057 A 
ATOM     41  C   UNL     1       8.810  -6.088   5.788  1.00  0.00     0.134 A 
ATOM     42  C   UNL     1       7.318  -6.775   7.530  1.00  0.00     0.134 A 
ATOM     43  F   UNL     1       9.429  -5.140   5.068  1.00  0.00    -0.206 F 
ATOM     44  C   UNL     1       9.041  -7.424   5.451  1.00  0.00     0.040 A 
ATOM     45  C   UNL     1       7.556  -8.114   7.216  1.00  0.00     0.040 A 
ATOM     46  F   UNL     1       6.478  -6.507   8.541  1.00  0.00    -0.206 F 
ATOM     47  C   UNL     1       8.418  -8.442   6.171  1.00  0.00     0.006 A 
ENDBRANCH  26  40
BRANCH  27  48
ATOM     48  C   UNL     1       6.161   3.823   9.124  1.00  0.00     0.057 A 
ATOM     49  C   UNL     1       7.179   4.782   9.081  1.00  0.00     0.134 A 
ATOM     50  C   UNL     1       4.878   4.255   9.481  1.00  0.00     0.134 A 
ATOM     51  F   UNL     1       8.431   4.424   8.760  1.00  0.00    -0.206 F 
ATOM     52  C   UNL     1       6.932   6.120   9.391  1.00  0.00     0.040 A 
ATOM     53  C   UNL     1       4.612   5.594   9.769  1.00  0.00     0.040 A 
ATOM     54  F   UNL     1       3.860   3.384   9.532  1.00  0.00    -0.206 F 
ATOM     55  C   UNL     1       5.644   6.530   9.729  1.00  0.00     0.006 A 
ENDBRANCH  27  48
BRANCH  39  56
ATOM     56  C   UNL     1       9.678  -1.299  12.244  1.00  0.00     0.057 A 
ATOM     57  C   UNL     1       9.035  -1.321  13.488  1.00  0.00     0.134 A 
ATOM     58  C   UNL     1      11.077  -1.341  12.234  1.00  0.00     0.134 A 
ATOM     59  F   UNL     1       7.697  -1.266  13.563  1.00  0.00    -0.206 F 
ATOM     60  C   UNL     1       9.760  -1.359  14.680  1.00  0.00     0.040 A 
ATOM     61  C   UNL     1      11.812  -1.402  13.418  1.00  0.00     0.040 A 
ATOM     62  F   UNL     1      11.751  -1.328  11.074  1.00  0.00    -0.206 F 
ATOM     63  C   UNL     1      11.152  -1.405  14.646  1.00  0.00     0.006 A 
ENDBRANCH  39  56
ENDBRANCH  13  14
ENDBRANCH   6   8
ENDBRANCH   3   4
ENDBRANCH   2   3
ENDBRANCH   1   2
BRANCH   1  64
ATOM     64  C   UNL     1       5.237   0.625  -3.832  1.00  0.00     0.116 C 
BRANCH  64  65
ATOM     65  N   UNL     1       6.642   0.381  -4.041  1.00  0.00    -0.351 N 
ATOM     66  C   UNL     1       7.341   0.252  -5.204  1.00  0.00     0.278 C 
ATOM     67  H   UNL     1       7.178   0.294  -3.220  1.00  0.00     0.163 HD
ATOM     68  O   UNL     1       8.531  -0.057  -5.072  1.00  0.00    -0.268 OA
BRANCH  66  69
ATOM     69  C   UNL     1       6.721   0.612  -6.588  1.00  0.00     0.274 C 
ATOM     70  C   UNL     1       7.747   0.317  -7.709  1.00  0.00     0.085 C 
ATOM     71  N   UNL     1       5.517  -0.200  -6.927  1.00  0.00    -0.320 N 
ATOM     72  C   UNL     1       6.979  -0.492  -8.747  1.00  0.00     0.054 C 
ATOM     73  C   UNL     1       5.923  -1.206  -7.917  1.00  0.00     0.188 C 
ATOM     74  H   UNL     1       5.197  -0.657  -6.073  1.00  0.00     0.349 HD
ATOM     75  C   UNL     1       7.809  -1.414  -9.635  1.00  0.00     0.010 C 
ATOM     76  C   UNL     1       6.464  -2.467  -7.218  1.00  0.00     0.065 C 
ATOM     77  C   UNL     1       8.293  -2.677  -8.934  1.00  0.00     0.001 C 
ATOM     78  C   UNL     1       7.156  -3.395  -8.213  1.00  0.00     0.006 C 
BRANCH  71  79
ATOM     79  C   UNL     1       4.300   0.559  -7.298  1.00  0.00     0.298 C 
BRANCH  79  80
ATOM     80  C   UNL     1       4.081   1.536  -8.500  1.00  0.00     0.113 C 
ATOM     81  C   UNL     1       5.106   2.661  -8.676  1.00  0.00     0.041 C 
ATOM     82  C   UNL     1       3.928   0.895  -9.892  1.00  0.00     0.041 C 
ATOM     83  C   UNL     1       4.917   3.114 -10.119  1.00  0.00     0.003 C 
ATOM     84  C   UNL     1       4.663   1.817 -10.872  1.00  0.00     0.003 C 
BRANCH  80  85
ATOM     85  O   UNL     1       2.814   2.185  -8.211  1.00  0.00    -0.384 OA
ATOM     86  H   UNL     1       2.859   2.607  -7.339  1.00  0.00     0.211 HD
ENDBRANCH  80  85
ENDBRANCH  79  80
ENDBRANCH  71  79
ENDBRANCH  66  69
ENDBRANCH  64  65
ENDBRANCH   1  64
TORSDOF 14
