REMARK SMILES O=C(CC[C@@H]1CN(c2ccncc2)CC[C@@H]1[NH+]1CCOCC1)NCCCCNC(=O)c1ccc(-c2c3nc(c(-c4c(F)cccc4F)c4ccc([nH]4)c(-c4c(F)cccc4F)c4nc(c(-c5c(F)cccc5F)c5ccc2[nH]5)C=C4)C=C3)cc1
REMARK SMILES IDX 25 1 24 2 23 3 1 4 2 5 3 7 4 8 5 9 6 10 16 11 7 12 15 13
REMARK SMILES IDX 14 14 17 15 18 16 22 17 19 19 21 20 20 21 8 22 9 23 13 24
REMARK SMILES IDX 10 25 12 26 11 27 26 28 27 29 28 30 29 31 30 33 31 34 32 35
REMARK SMILES IDX 84 36 33 37 83 38 34 39 35 40 36 41 77 42 37 43 82 44 76 45
REMARK SMILES IDX 78 46 38 47 81 48 75 49 74 50 39 52 65 53 48 54 64 55 49 56
REMARK SMILES IDX 52 57 63 58 79 59 50 60 51 61 62 63 80 64 53 65 40 66 41 67
REMARK SMILES IDX 46 68 42 69 43 70 45 71 47 72 44 73 66 74 67 75 72 76 68 77
REMARK SMILES IDX 69 78 71 79 73 80 70 81 54 82 55 83 60 84 56 85 57 86 59 87
REMARK SMILES IDX 61 88 58 89
REMARK H PARENT 23 6 17 18 28 32 78 51 52 62
REMARK Flexibility Score: inf
ROOT
ATOM      1  C   UNL     1       1.431  -3.554  -2.702  1.00  0.00     0.023 C 
ENDROOT
BRANCH   1   2
ATOM      2  C   UNL     1       2.838  -3.398  -2.110  1.00  0.00     0.116 C 
BRANCH   2   3
ATOM      3  N   UNL     1       3.002  -2.220  -1.265  1.00  0.00    -0.356 N 
ATOM      4  O   UNL     1       4.113  -3.325   0.415  1.00  0.00    -0.275 OA
ATOM      5  C   UNL     1       3.679  -2.278  -0.061  1.00  0.00     0.220 C 
ATOM      6  H   UNL     1       2.622  -1.362  -1.560  1.00  0.00     0.163 HD
BRANCH   5   7
ATOM      7  C   UNL     1       3.883  -0.947   0.653  1.00  0.00     0.100 C 
BRANCH   7   8
ATOM      8  C   UNL     1       5.101  -0.158   0.138  1.00  0.00     0.021 C 
BRANCH   8   9
ATOM      9  C   UNL     1       4.746   0.717  -1.082  1.00  0.00     0.067 C 
ATOM     10  C   UNL     1       5.488   0.275  -2.331  1.00  0.00     0.126 C 
ATOM     11  C   UNL     1       4.839   2.254  -0.865  1.00  0.00     0.190 C 
ATOM     12  N   UNL     1       5.040   1.045  -3.495  1.00  0.00    -0.371 N 
ATOM     13  C   UNL     1       4.150   2.900  -2.075  1.00  0.00     0.087 C 
ATOM     14  C   UNL     1       4.664   2.451  -3.436  1.00  0.00     0.122 C 
BRANCH  11  15
ATOM     15  N   UNL     1       6.132   2.804  -0.419  1.00  0.00    -0.328 N 
ATOM     16  C   UNL     1       6.022   4.072   0.338  1.00  0.00     0.291 C 
ATOM     17  C   UNL     1       7.286   2.887  -1.329  1.00  0.00     0.291 C 
ATOM     18  H   UNL     1       6.377   2.014   0.178  1.00  0.00     0.348 HD
ATOM     19  C   UNL     1       6.198   5.353  -0.496  1.00  0.00     0.221 C 
ATOM     20  C   UNL     1       7.483   4.215  -2.083  1.00  0.00     0.221 C 
ATOM     21  O   UNL     1       7.441   5.338  -1.203  1.00  0.00    -0.370 OA
ENDBRANCH  11  15
BRANCH  12  22
ATOM     22  C   UNL     1       5.349   0.497  -4.733  1.00  0.00     0.040 A 
ATOM     23  C   UNL     1       6.152   1.119  -5.689  1.00  0.00     0.046 A 
ATOM     24  C   UNL     1       4.847  -0.760  -5.034  1.00  0.00     0.046 A 
ATOM     25  C   UNL     1       6.404   0.458  -6.884  1.00  0.00     0.113 A 
ATOM     26  C   UNL     1       5.195  -1.361  -6.222  1.00  0.00     0.113 A 
ATOM     27  N   UNL     1       5.940  -0.775  -7.175  1.00  0.00    -0.265 NA
ENDBRANCH  12  22
ENDBRANCH   8   9
ENDBRANCH   7   8
ENDBRANCH   5   7
ENDBRANCH   2   3
ENDBRANCH   1   2
BRANCH   1  28
ATOM     28  C   UNL     1       1.037  -2.547  -3.796  1.00  0.00     0.023 C 
BRANCH  28  29
ATOM     29  C   UNL     1       1.763  -2.688  -5.143  1.00  0.00     0.116 C 
BRANCH  29  30
ATOM     30  N   UNL     1       1.305  -3.800  -5.961  1.00  0.00    -0.352 N 
ATOM     31  C   UNL     1       1.102  -3.864  -7.327  1.00  0.00     0.251 C 
ATOM     32  H   UNL     1       1.110  -4.630  -5.469  1.00  0.00     0.163 HD
ATOM     33  O   UNL     1       0.705  -4.905  -7.841  1.00  0.00    -0.269 OA
BRANCH  31  34
ATOM     34  C   UNL     1       1.336  -2.676  -8.184  1.00  0.00     0.039 A 
ATOM     35  C   UNL     1       0.302  -2.143  -8.946  1.00  0.00     0.014 A 
ATOM     36  C   UNL     1       2.596  -2.100  -8.276  1.00  0.00     0.014 A 
ATOM     37  C   UNL     1       0.522  -0.980  -9.708  1.00  0.00     0.010 A 
ATOM     38  C   UNL     1       2.779  -0.870  -8.928  1.00  0.00     0.010 A 
ATOM     39  C   UNL     1       1.740  -0.264  -9.647  1.00  0.00    -0.014 A 
BRANCH  39  40
ATOM     40  C   UNL     1       1.875   1.109 -10.267  1.00  0.00     0.031 A 
ATOM     41  C   UNL     1       3.059   1.536 -11.122  1.00  0.00     0.074 A 
ATOM     42  C   UNL     1       0.942   2.055 -10.000  1.00  0.00     0.049 A 
ATOM     43  N   UNL     1       3.286   2.699 -11.698  1.00  0.00    -0.248 NA
ATOM     44  C   UNL     1       4.149   0.571 -11.318  1.00  0.00     0.031 C 
ATOM     45  C   UNL     1      -0.191   1.899  -9.085  1.00  0.00     0.029 A 
ATOM     46  N   UNL     1       0.789   3.338 -10.482  1.00  0.00    -0.354 N 
ATOM     47  C   UNL     1       4.555   2.617 -12.266  1.00  0.00     0.074 A 
ATOM     48  C   UNL     1       5.070   1.309 -11.923  1.00  0.00     0.031 C 
ATOM     49  C   UNL     1      -0.966   2.991  -9.144  1.00  0.00     0.029 A 
ATOM     50  C   UNL     1      -0.362   3.959 -10.053  1.00  0.00     0.049 A 
ATOM     51  H   UNL     1       1.443   3.771 -11.078  1.00  0.00     0.167 HD
ATOM     52  C   UNL     1       5.225   3.520 -13.030  1.00  0.00     0.037 A 
ATOM     53  C   UNL     1      -0.896   5.160 -10.348  1.00  0.00     0.037 A 
ATOM     54  C   UNL     1       4.699   4.788 -13.473  1.00  0.00     0.049 A 
ATOM     55  C   UNL     1      -0.196   6.096 -11.291  1.00  0.00     0.074 A 
ATOM     56  C   UNL     1       5.259   5.683 -14.373  1.00  0.00     0.029 A 
ATOM     57  N   UNL     1       3.498   5.341 -13.065  1.00  0.00    -0.354 N 
ATOM     58  N   UNL     1       0.946   5.941 -11.911  1.00  0.00    -0.248 NA
ATOM     59  C   UNL     1      -0.865   7.375 -11.577  1.00  0.00     0.031 C 
ATOM     60  C   UNL     1       4.414   6.793 -14.482  1.00  0.00     0.029 A 
ATOM     61  C   UNL     1       3.308   6.569 -13.683  1.00  0.00     0.049 A 
ATOM     62  H   UNL     1       2.871   4.924 -12.430  1.00  0.00     0.167 HD
ATOM     63  C   UNL     1       1.118   7.086 -12.679  1.00  0.00     0.074 A 
ATOM     64  C   UNL     1      -0.042   7.921 -12.461  1.00  0.00     0.031 C 
ATOM     65  C   UNL     1       2.154   7.408 -13.489  1.00  0.00     0.037 A 
BRANCH  52  66
ATOM     66  C   UNL     1       6.614   3.162 -13.493  1.00  0.00     0.057 A 
ATOM     67  C   UNL     1       6.840   2.162 -14.447  1.00  0.00     0.134 A 
ATOM     68  C   UNL     1       7.728   3.891 -13.050  1.00  0.00     0.134 A 
ATOM     69  F   UNL     1       5.819   1.432 -14.921  1.00  0.00    -0.206 F 
ATOM     70  C   UNL     1       8.123   1.875 -14.918  1.00  0.00     0.040 A 
ATOM     71  C   UNL     1       9.011   3.636 -13.539  1.00  0.00     0.040 A 
ATOM     72  F   UNL     1       7.584   4.883 -12.158  1.00  0.00    -0.206 F 
ATOM     73  C   UNL     1       9.213   2.619 -14.470  1.00  0.00     0.006 A 
ENDBRANCH  52  66
BRANCH  53  74
ATOM     74  C   UNL     1      -2.217   5.539  -9.783  1.00  0.00     0.057 A 
ATOM     75  C   UNL     1      -3.354   5.585 -10.598  1.00  0.00     0.134 A 
ATOM     76  C   UNL     1      -2.374   5.871  -8.433  1.00  0.00     0.134 A 
ATOM     77  F   UNL     1      -3.260   5.297 -11.905  1.00  0.00    -0.206 F 
ATOM     78  C   UNL     1      -4.598   5.968 -10.097  1.00  0.00     0.040 A 
ATOM     79  C   UNL     1      -3.618   6.230  -7.912  1.00  0.00     0.040 A 
ATOM     80  F   UNL     1      -1.324   5.836  -7.600  1.00  0.00    -0.206 F 
ATOM     81  C   UNL     1      -4.732   6.288  -8.748  1.00  0.00     0.006 A 
ENDBRANCH  53  74
BRANCH  65  82
ATOM     82  C   UNL     1       2.073   8.704 -14.243  1.00  0.00     0.057 A 
ATOM     83  C   UNL     1       2.214   9.943 -13.606  1.00  0.00     0.134 A 
ATOM     84  C   UNL     1       1.878   8.711 -15.630  1.00  0.00     0.134 A 
ATOM     85  F   UNL     1       2.389  10.009 -12.277  1.00  0.00    -0.206 F 
ATOM     86  C   UNL     1       2.143  11.143 -14.318  1.00  0.00     0.040 A 
ATOM     87  C   UNL     1       1.829   9.903 -16.356  1.00  0.00     0.040 A 
ATOM     88  F   UNL     1       1.740   7.560 -16.305  1.00  0.00    -0.206 F 
ATOM     89  C   UNL     1       1.956  11.124 -15.698  1.00  0.00     0.006 A 
ENDBRANCH  65  82
ENDBRANCH  39  40
ENDBRANCH  31  34
ENDBRANCH  29  30
ENDBRANCH  28  29
ENDBRANCH   1  28
TORSDOF 15
