REMARK SMILES C[NH2+][C@]1(C(=O)NCCCCNC(=O)c2ccc(-c3c4nc(c(-c5c(F)cccc5F)c5ccc([nH]5)c(-c5c(F)cccc5F)c5nc(c(-c6c(F)cccc6F)c6ccc3[nH]6)C=C5)C=C4)cc2)CCC[C@@H]([N@H+]2CC[C@@H](C)C2)C1
REMARK SMILES IDX 9 1 8 2 7 3 6 4 4 5 5 6 3 8 68 9 78 10 69 11 71 12 70 13
REMARK SMILES IDX 2 14 1 15 72 18 73 19 77 20 74 22 75 23 76 24 10 25 11 26
REMARK SMILES IDX 12 27 13 29 14 30 15 31 67 32 16 33 66 34 17 35 18 36 19 37
REMARK SMILES IDX 60 38 20 39 65 40 59 41 61 42 21 43 64 44 58 45 57 46 22 48
REMARK SMILES IDX 48 49 31 50 47 51 32 52 35 53 46 54 62 55 33 56 34 57 45 59
REMARK SMILES IDX 63 60 36 61 23 62 24 63 29 64 25 65 26 66 28 67 30 68 27 69
REMARK SMILES IDX 49 70 50 71 55 72 51 73 52 74 54 75 56 76 53 77 37 78 38 79
REMARK SMILES IDX 43 80 39 81 40 82 42 83 44 84 41 85
REMARK H PARENT 6 7 2 16 2 17 72 21 11 28 61 47 35 58
REMARK Flexibility Score: inf
ROOT
ATOM      1  C   UNL     1       2.297  -3.382   3.870  1.00  0.00     0.023 C 
ENDROOT
BRANCH   1   2
ATOM      2  C   UNL     1       0.818  -3.167   3.559  1.00  0.00     0.023 C 
BRANCH   2   3
ATOM      3  C   UNL     1       0.510  -1.820   2.915  1.00  0.00     0.116 C 
BRANCH   3   4
ATOM      4  N   UNL     1       1.006  -1.762   1.549  1.00  0.00    -0.351 N 
ATOM      5  C   UNL     1       0.366  -1.716   0.344  1.00  0.00     0.281 C 
ATOM      6  O   UNL     1       1.100  -1.614  -0.647  1.00  0.00    -0.268 OA
ATOM      7  H   UNL     1       1.988  -1.756   1.480  1.00  0.00     0.163 HD
BRANCH   5   8
ATOM      8  C   UNL     1      -1.201  -1.668   0.219  1.00  0.00     0.181 C 
ATOM      9  C   UNL     1      -1.907  -2.857   0.903  1.00  0.00     0.079 C 
ATOM     10  C   UNL     1      -1.612  -0.309   0.835  1.00  0.00     0.144 C 
ATOM     11  C   UNL     1      -3.408  -2.639   1.070  1.00  0.00     0.013 C 
ATOM     12  C   UNL     1      -3.095  -0.119   1.187  1.00  0.00     0.190 C 
ATOM     13  C   UNL     1      -3.687  -1.367   1.868  1.00  0.00     0.065 C 
BRANCH   8  14
ATOM     14  N   UNL     1      -1.585  -1.571  -1.228  1.00  0.00    -0.336 N 
ATOM     15  C   UNL     1      -1.378  -2.787  -2.010  1.00  0.00     0.331 C 
ATOM     16  H   UNL     1      -2.575  -1.330  -1.276  1.00  0.00     0.346 HD
ATOM     17  H   UNL     1      -0.974  -0.864  -1.637  1.00  0.00     0.346 HD
ENDBRANCH   8  14
BRANCH  12  18
ATOM     18  N   UNL     1      -3.337   1.100   1.992  1.00  0.00    -0.332 N 
ATOM     19  C   UNL     1      -2.833   1.097   3.370  1.00  0.00     0.262 C 
ATOM     20  C   UNL     1      -2.929   2.356   1.351  1.00  0.00     0.265 C 
ATOM     21  H   UNL     1      -4.355   1.059   2.046  1.00  0.00     0.348 HD
ATOM     22  C   UNL     1      -2.289   2.497   3.635  1.00  0.00     0.070 C 
ATOM     23  C   UNL     1      -1.894   3.018   2.261  1.00  0.00     0.047 C 
ATOM     24  C   UNL     1      -0.443   2.678   1.915  1.00  0.00     0.014 C 
ENDBRANCH  12  18
ENDBRANCH   5   8
ENDBRANCH   3   4
ENDBRANCH   2   3
ENDBRANCH   1   2
BRANCH   1  25
ATOM     25  C   UNL     1       2.916  -2.343   4.799  1.00  0.00     0.116 C 
BRANCH  25  26
ATOM     26  N   UNL     1       2.237  -2.249   6.083  1.00  0.00    -0.352 N 
ATOM     27  C   UNL     1       2.782  -2.194   7.344  1.00  0.00     0.251 C 
ATOM     28  H   UNL     1       1.254  -2.222   6.043  1.00  0.00     0.163 HD
ATOM     29  O   UNL     1       2.066  -2.246   8.334  1.00  0.00    -0.269 OA
BRANCH  27  30
ATOM     30  C   UNL     1       4.250  -2.107   7.490  1.00  0.00     0.039 A 
ATOM     31  C   UNL     1       4.894  -2.989   8.359  1.00  0.00     0.014 A 
ATOM     32  C   UNL     1       4.985  -1.185   6.740  1.00  0.00     0.014 A 
ATOM     33  C   UNL     1       6.288  -2.997   8.421  1.00  0.00     0.010 A 
ATOM     34  C   UNL     1       6.374  -1.246   6.746  1.00  0.00     0.010 A 
ATOM     35  C   UNL     1       7.039  -2.153   7.585  1.00  0.00    -0.014 A 
BRANCH  35  36
ATOM     36  C   UNL     1       8.522  -2.208   7.568  1.00  0.00     0.031 A 
ATOM     37  C   UNL     1       9.325  -1.014   8.001  1.00  0.00     0.074 A 
ATOM     38  C   UNL     1       9.143  -3.307   7.099  1.00  0.00     0.049 A 
ATOM     39  N   UNL     1      10.621  -0.840   7.987  1.00  0.00    -0.248 NA
ATOM     40  C   UNL     1       8.567   0.150   8.488  1.00  0.00     0.031 C 
ATOM     41  C   UNL     1       8.476  -4.514   6.607  1.00  0.00     0.029 A 
ATOM     42  N   UNL     1      10.479  -3.584   6.952  1.00  0.00    -0.354 N 
ATOM     43  C   UNL     1      10.834   0.452   8.450  1.00  0.00     0.074 A 
ATOM     44  C   UNL     1       9.531   1.038   8.683  1.00  0.00     0.031 C 
ATOM     45  C   UNL     1       9.405  -5.411   6.238  1.00  0.00     0.029 A 
ATOM     46  C   UNL     1      10.730  -4.830   6.431  1.00  0.00     0.049 A 
ATOM     47  H   UNL     1      11.191  -2.950   7.198  1.00  0.00     0.167 HD
ATOM     48  C   UNL     1      12.008   1.085   8.684  1.00  0.00     0.037 A 
ATOM     49  C   UNL     1      11.897  -5.434   6.137  1.00  0.00     0.037 A 
ATOM     50  C   UNL     1      13.302   0.492   8.474  1.00  0.00     0.049 A 
ATOM     51  C   UNL     1      13.187  -4.705   6.396  1.00  0.00     0.074 A 
ATOM     52  C   UNL     1      14.550   1.033   8.730  1.00  0.00     0.029 A 
ATOM     53  N   UNL     1      13.514  -0.777   7.957  1.00  0.00    -0.354 N 
ATOM     54  N   UNL     1      13.374  -3.506   6.890  1.00  0.00    -0.248 NA
ATOM     55  C   UNL     1      14.428  -5.417   6.059  1.00  0.00     0.031 C 
ATOM     56  C   UNL     1      15.518   0.106   8.330  1.00  0.00     0.029 A 
ATOM     57  C   UNL     1      14.873  -1.030   7.869  1.00  0.00     0.049 A 
ATOM     58  H   UNL     1      12.804  -1.405   7.691  1.00  0.00     0.167 HD
ATOM     59  C   UNL     1      14.750  -3.330   6.952  1.00  0.00     0.074 A 
ATOM     60  C   UNL     1      15.350  -4.552   6.456  1.00  0.00     0.031 C 
ATOM     61  C   UNL     1      15.454  -2.255   7.382  1.00  0.00     0.037 A 
BRANCH  48  62
ATOM     62  C   UNL     1      11.941   2.491   9.205  1.00  0.00     0.057 A 
ATOM     63  C   UNL     1      11.508   2.775  10.507  1.00  0.00     0.134 A 
ATOM     64  C   UNL     1      12.343   3.570   8.408  1.00  0.00     0.134 A 
ATOM     65  F   UNL     1      11.096   1.788  11.317  1.00  0.00    -0.206 F 
ATOM     66  C   UNL     1      11.451   4.084  10.988  1.00  0.00     0.040 A 
ATOM     67  C   UNL     1      12.317   4.881   8.888  1.00  0.00     0.040 A 
ATOM     68  F   UNL     1      12.774   3.368   7.154  1.00  0.00    -0.206 F 
ATOM     69  C   UNL     1      11.864   5.141  10.180  1.00  0.00     0.006 A 
ENDBRANCH  48  62
BRANCH  49  70
ATOM     70  C   UNL     1      11.905  -6.814   5.591  1.00  0.00     0.057 A 
ATOM     71  C   UNL     1      12.361  -7.890   6.362  1.00  0.00     0.134 A 
ATOM     72  C   UNL     1      11.469  -7.092   4.290  1.00  0.00     0.134 A 
ATOM     73  F   UNL     1      12.808  -7.683   7.610  1.00  0.00    -0.206 F 
ATOM     74  C   UNL     1      12.403  -9.189   5.854  1.00  0.00     0.040 A 
ATOM     75  C   UNL     1      11.483  -8.390   3.777  1.00  0.00     0.040 A 
ATOM     76  F   UNL     1      11.014  -6.106   3.503  1.00  0.00    -0.206 F 
ATOM     77  C   UNL     1      11.958  -9.442   4.558  1.00  0.00     0.006 A 
ENDBRANCH  49  70
BRANCH  61  78
ATOM     78  C   UNL     1      16.950  -2.365   7.373  1.00  0.00     0.057 A 
ATOM     79  C   UNL     1      17.687  -2.334   6.182  1.00  0.00     0.134 A 
ATOM     80  C   UNL     1      17.663  -2.463   8.574  1.00  0.00     0.134 A 
ATOM     81  F   UNL     1      17.062  -2.254   4.998  1.00  0.00    -0.206 F 
ATOM     82  C   UNL     1      19.080  -2.418   6.186  1.00  0.00     0.040 A 
ATOM     83  C   UNL     1      19.057  -2.522   8.592  1.00  0.00     0.040 A 
ATOM     84  F   UNL     1      17.018  -2.490   9.750  1.00  0.00    -0.206 F 
ATOM     85  C   UNL     1      19.769  -2.505   7.394  1.00  0.00     0.006 A 
ENDBRANCH  61  78
ENDBRANCH  35  36
ENDBRANCH  27  30
ENDBRANCH  25  26
ENDBRANCH   1  25
TORSDOF 13
