REMARK SMILES Cc1coc2cc3c(cc12)[C@@H](C)[C@H](CCC(=O)N[C@@H](Cc1c[nH]c2ccccc12)C(=O)NCCCCNC(=O)c1ccc(-c2c4nc(c(-c5c(F)cccc5F)c5ccc([nH]5)c(-c5c(F)cccc5F)c5nc(c(-c6c(F)cccc6F)c6ccc2[nH]6)C=C5)C=C4)cc1)C(=O)O3
REMARK SMILES IDX 33 1 32 2 30 3 31 4 19 6 18 7 16 8 17 9 15 11 14 12 13 13
REMARK SMILES IDX 1 14 2 15 3 16 10 17 4 18 5 19 9 20 6 21 8 22 7 23 11 24
REMARK SMILES IDX 96 25 12 26 94 27 95 28 20 29 21 30 22 31 29 32 23 33 24 34
REMARK SMILES IDX 28 35 25 37 27 38 26 39 34 40 35 41 36 42 37 43 38 44 39 46
REMARK SMILES IDX 40 47 41 48 93 49 42 50 92 51 43 52 44 53 45 54 86 55 46 56
REMARK SMILES IDX 91 57 85 58 87 59 47 60 90 61 84 62 83 63 48 65 74 66 57 67
REMARK SMILES IDX 73 68 58 69 61 70 72 71 88 72 59 73 60 74 71 76 89 77 62 78
REMARK SMILES IDX 49 79 50 80 55 81 51 82 52 83 54 84 56 85 53 86 75 87 76 88
REMARK SMILES IDX 81 89 77 90 78 91 80 92 82 93 79 94 63 95 64 96 69 97 65 98
REMARK SMILES IDX 66 99 68 100 70 101 67 102
REMARK H PARENT 32 5 18 10 23 36 37 45 87 64 61 75
REMARK Flexibility Score: inf
ROOT
ATOM      1  C   UNL     1      -1.849   5.957   7.138  1.00  0.00     0.116 C 
ENDROOT
BRANCH   1   2
ATOM      2  N   UNL     1      -2.765   5.483   8.176  1.00  0.00    -0.354 N 
ATOM      3  C   UNL     1      -3.399   4.275   8.309  1.00  0.00     0.242 C 
ATOM      4  O   UNL     1      -3.785   3.938   9.432  1.00  0.00    -0.273 OA
ATOM      5  H   UNL     1      -2.955   6.133   8.891  1.00  0.00     0.163 HD
BRANCH   3   6
ATOM      6  C   UNL     1      -3.559   3.330   7.115  1.00  0.00     0.175 C 
BRANCH   6   7
ATOM      7  N   UNL     1      -4.149   4.155   6.028  1.00  0.00    -0.344 N 
ATOM      8  C   UNL     1      -5.175   4.064   5.144  1.00  0.00     0.220 C 
ATOM      9  O   UNL     1      -5.469   5.079   4.507  1.00  0.00    -0.275 OA
ATOM     10  H   UNL     1      -3.659   5.002   5.919  1.00  0.00     0.164 HD
BRANCH   8  11
ATOM     11  C   UNL     1      -5.874   2.758   4.833  1.00  0.00     0.101 C 
BRANCH  11  12
ATOM     12  C   UNL     1      -5.230   1.933   3.690  1.00  0.00     0.026 C 
BRANCH  12  13
ATOM     13  C   UNL     1      -3.713   1.812   3.859  1.00  0.00     0.107 C 
ATOM     14  C   UNL     1       1.605  -0.494  -0.405  1.00  0.00     0.048 C 
ATOM     15  C   UNL     1       1.134   0.872  -0.095  1.00  0.00    -0.005 A 
ATOM     16  C   UNL     1       1.669   2.054  -0.568  1.00  0.00     0.199 A 
ATOM     17  C   UNL     1      -0.002   1.240   0.684  1.00  0.00     0.024 A 
ATOM     18  O   UNL     1       0.906   3.111  -0.204  1.00  0.00    -0.464 OA
ATOM     19  C   UNL     1      -0.133   2.612   0.510  1.00  0.00     0.137 A 
ATOM     20  C   UNL     1      -0.946   0.555   1.485  1.00  0.00     0.020 A 
ATOM     21  C   UNL     1      -1.194   3.358   0.977  1.00  0.00     0.095 A 
ATOM     22  C   UNL     1      -2.010   1.275   2.046  1.00  0.00    -0.001 A 
ATOM     23  C   UNL     1      -2.135   2.641   1.710  1.00  0.00     0.138 A 
ATOM     24  C   UNL     1      -2.974   0.684   3.082  1.00  0.00     0.034 C 
ATOM     25  O   UNL     1      -3.201   3.379   2.174  1.00  0.00    -0.426 OA
ATOM     26  C   UNL     1      -2.215  -0.193   4.109  1.00  0.00     0.014 C 
ATOM     27  C   UNL     1      -3.031   3.130   3.500  1.00  0.00     0.314 C 
ATOM     28  O   UNL     1      -2.345   3.822   4.215  1.00  0.00    -0.251 OA
ENDBRANCH  12  13
ENDBRANCH  11  12
ENDBRANCH   8  11
ENDBRANCH   6   7
BRANCH   6  29
ATOM     29  C   UNL     1      -2.275   2.436   6.962  1.00  0.00     0.072 C 
BRANCH  29  30
ATOM     30  C   UNL     1      -0.861   2.967   6.964  1.00  0.00    -0.020 A 
ATOM     31  C   UNL     1      -0.022   3.150   5.875  1.00  0.00     0.087 A 
ATOM     32  C   UNL     1      -0.064   3.269   8.119  1.00  0.00     0.003 A 
ATOM     33  N   UNL     1       1.170   3.667   6.308  1.00  0.00    -0.361 N 
ATOM     34  C   UNL     1       1.164   3.767   7.677  1.00  0.00     0.046 A 
ATOM     35  C   UNL     1      -0.311   3.227   9.504  1.00  0.00     0.010 A 
ATOM     36  H   UNL     1       1.919   3.927   5.724  1.00  0.00     0.166 HD
ATOM     37  C   UNL     1       2.129   4.286   8.548  1.00  0.00     0.026 A 
ATOM     38  C   UNL     1       0.632   3.759  10.387  1.00  0.00     0.001 A 
ATOM     39  C   UNL     1       1.824   4.300   9.912  1.00  0.00     0.002 A 
ENDBRANCH  29  30
ENDBRANCH   6  29
ENDBRANCH   3   6
ENDBRANCH   1   2
BRANCH   1  40
ATOM     40  C   UNL     1      -1.725   7.471   7.080  1.00  0.00     0.023 C 
BRANCH  40  41
ATOM     41  C   UNL     1      -1.199   8.101   8.376  1.00  0.00     0.023 C 
BRANCH  41  42
ATOM     42  C   UNL     1      -0.003   7.379   9.003  1.00  0.00     0.116 C 
BRANCH  42  43
ATOM     43  N   UNL     1       1.201   7.391   8.195  1.00  0.00    -0.352 N 
ATOM     44  C   UNL     1       2.327   8.169   8.210  1.00  0.00     0.251 C 
ATOM     45  H   UNL     1       1.211   6.699   7.495  1.00  0.00     0.163 HD
ATOM     46  O   UNL     1       3.348   7.715   7.691  1.00  0.00    -0.269 OA
BRANCH  44  47
ATOM     47  C   UNL     1       2.323   9.573   8.690  1.00  0.00     0.039 A 
ATOM     48  C   UNL     1       1.347  10.115   9.519  1.00  0.00     0.014 A 
ATOM     49  C   UNL     1       3.321  10.418   8.168  1.00  0.00     0.014 A 
ATOM     50  C   UNL     1       1.262  11.480   9.689  1.00  0.00     0.010 A 
ATOM     51  C   UNL     1       3.270  11.792   8.377  1.00  0.00     0.010 A 
ATOM     52  C   UNL     1       2.204  12.321   9.093  1.00  0.00    -0.014 A 
BRANCH  52  53
ATOM     53  C   UNL     1       2.076  13.735   9.414  1.00  0.00     0.031 A 
ATOM     54  C   UNL     1       2.097  14.005  10.879  1.00  0.00     0.074 A 
ATOM     55  C   UNL     1       1.960  14.717   8.503  1.00  0.00     0.049 A 
ATOM     56  N   UNL     1       1.141  14.473  11.612  1.00  0.00    -0.248 NA
ATOM     57  C   UNL     1       3.264  13.529  11.640  1.00  0.00     0.031 C 
ATOM     58  C   UNL     1       2.155  14.643   7.056  1.00  0.00     0.029 A 
ATOM     59  N   UNL     1       1.705  16.038   8.714  1.00  0.00    -0.354 N 
ATOM     60  C   UNL     1       1.648  14.523  12.909  1.00  0.00     0.074 A 
ATOM     61  C   UNL     1       2.887  13.794  12.890  1.00  0.00     0.031 C 
ATOM     62  C   UNL     1       2.230  15.897   6.554  1.00  0.00     0.029 A 
ATOM     63  C   UNL     1       1.949  16.850   7.615  1.00  0.00     0.049 A 
ATOM     64  H   UNL     1       1.376  16.388   9.574  1.00  0.00     0.167 HD
ATOM     65  C   UNL     1       1.112  15.357  13.839  1.00  0.00     0.037 A 
ATOM     66  C   UNL     1       1.971  18.206   7.607  1.00  0.00     0.037 A 
ATOM     67  C   UNL     1      -0.248  15.697  13.505  1.00  0.00     0.049 A 
ATOM     68  C   UNL     1       1.213  18.669   8.794  1.00  0.00     0.074 A 
ATOM     69  C   UNL     1      -1.421  14.986  13.346  1.00  0.00     0.029 A 
ATOM     70  N   UNL     1      -0.477  16.926  12.940  1.00  0.00    -0.354 N 
ATOM     71  N   UNL     1      -0.078  18.554   8.928  1.00  0.00    -0.248 NA
ATOM     72  C   UNL     1       1.951  18.909  10.024  1.00  0.00     0.031 C 
ATOM     73  C   UNL     1      -2.120  15.650  12.296  1.00  0.00     0.029 A 
ATOM     74  C   UNL     1      -1.360  16.754  11.909  1.00  0.00     0.049 A 
ATOM     75  H   UNL     1      -0.077  17.780  13.225  1.00  0.00     0.167 HD
ATOM     76  C   UNL     1      -0.266  18.272  10.272  1.00  0.00     0.074 A 
ATOM     77  C   UNL     1       1.001  18.613  10.914  1.00  0.00     0.031 C 
ATOM     78  C   UNL     1      -1.330  17.527  10.689  1.00  0.00     0.037 A 
BRANCH  65  79
ATOM     79  C   UNL     1       1.949  16.186  14.791  1.00  0.00     0.057 A 
ATOM     80  C   UNL     1       1.300  17.066  15.679  1.00  0.00     0.134 A 
ATOM     81  C   UNL     1       3.339  16.394  14.666  1.00  0.00     0.134 A 
ATOM     82  F   UNL     1      -0.021  16.978  15.898  1.00  0.00    -0.206 F 
ATOM     83  C   UNL     1       1.960  18.133  16.301  1.00  0.00     0.040 A 
ATOM     84  C   UNL     1       4.016  17.428  15.319  1.00  0.00     0.040 A 
ATOM     85  F   UNL     1       4.110  15.680  13.841  1.00  0.00    -0.206 F 
ATOM     86  C   UNL     1       3.321  18.326  16.110  1.00  0.00     0.006 A 
ENDBRANCH  65  79
BRANCH  66  87
ATOM     87  C   UNL     1       2.837  19.126   6.832  1.00  0.00     0.057 A 
ATOM     88  C   UNL     1       2.577  20.506   6.806  1.00  0.00     0.134 A 
ATOM     89  C   UNL     1       4.098  18.730   6.353  1.00  0.00     0.134 A 
ATOM     90  F   UNL     1       1.416  20.990   7.271  1.00  0.00    -0.206 F 
ATOM     91  C   UNL     1       3.529  21.439   6.375  1.00  0.00     0.040 A 
ATOM     92  C   UNL     1       5.054  19.651   5.911  1.00  0.00     0.040 A 
ATOM     93  F   UNL     1       4.483  17.447   6.386  1.00  0.00    -0.206 F 
ATOM     94  C   UNL     1       4.779  21.013   5.940  1.00  0.00     0.006 A 
ENDBRANCH  66  87
BRANCH  78  95
ATOM     95  C   UNL     1      -2.444  17.273   9.713  1.00  0.00     0.057 A 
ATOM     96  C   UNL     1      -2.304  16.524   8.536  1.00  0.00     0.134 A 
ATOM     97  C   UNL     1      -3.743  17.648  10.077  1.00  0.00     0.134 A 
ATOM     98  F   UNL     1      -1.113  16.047   8.152  1.00  0.00    -0.206 F 
ATOM     99  C   UNL     1      -3.408  16.183   7.747  1.00  0.00     0.040 A 
ATOM    100  C   UNL     1      -4.856  17.284   9.317  1.00  0.00     0.040 A 
ATOM    101  F   UNL     1      -3.957  18.326  11.216  1.00  0.00    -0.206 F 
ATOM    102  C   UNL     1      -4.690  16.552   8.145  1.00  0.00     0.006 A 
ENDBRANCH  78  95
ENDBRANCH  52  53
ENDBRANCH  44  47
ENDBRANCH  42  43
ENDBRANCH  41  42
ENDBRANCH  40  41
ENDBRANCH   1  40
TORSDOF 17
