REMARK SMILES O=C(CCC(=O)N1c2ccccc2NC2=C(C(=O)C[C@H](c3ccco3)C2)[C@H]1c1cccs1)NCCCCNC(=O)c1ccc(-c2c3nc(c(-c4c(F)cccc4F)c4ccc([nH]4)c(-c4c(F)cccc4F)c4nc(c(-c5c(F)cccc5F)c5ccc2[nH]5)C=C4)C=C3)cc1
REMARK SMILES IDX 1 1 2 2 33 3 3 5 4 6 5 7 6 8 7 9 8 10 9 11 13 12 10 13 12 14
REMARK SMILES IDX 11 15 14 16 15 18 16 19 26 20 17 21 20 23 18 24 19 25 21 26
REMARK SMILES IDX 22 27 25 28 23 29 24 30 27 31 28 33 29 34 32 35 30 36 31 37
REMARK SMILES IDX 34 38 35 39 36 40 37 41 38 42 39 43 40 45 41 46 42 47 94 48
REMARK SMILES IDX 43 49 93 50 44 51 45 52 46 53 87 54 47 55 92 56 86 57 88 58
REMARK SMILES IDX 48 59 91 60 85 61 84 62 49 64 75 65 58 66 74 67 59 68 62 69
REMARK SMILES IDX 73 70 89 71 60 72 61 73 72 75 90 76 63 77 50 78 51 79 56 80
REMARK SMILES IDX 52 81 53 82 55 83 57 84 54 85 76 86 77 87 82 88 78 89 79 90
REMARK SMILES IDX 81 91 83 92 80 93 64 94 65 95 70 96 66 97 67 98 69 99 71 100
REMARK SMILES IDX 68 101
REMARK H PARENT 33 4 14 17 38 44 88 63 62 74
REMARK Flexibility Score: 90.00
ROOT
ATOM      1  O   UNL     1       0.964  -0.628  -0.530  1.00  0.00    -0.275 OA
ATOM      2  C   UNL     1       1.991  -0.247   0.130  1.00  0.00     0.220 C 
ATOM      3  N   UNL     1       2.365   1.398   1.144  1.00  0.00    -0.356 N 
ATOM      4  H   UNL     1       2.999   1.185   1.866  1.00  0.00     0.163 HD
ENDROOT
BRANCH   2   5
ATOM      5  C   UNL     1       3.131  -1.533  -0.274  1.00  0.00     0.110 C 
BRANCH   5   6
ATOM      6  C   UNL     1       3.987  -1.389  -1.559  1.00  0.00     0.110 C 
BRANCH   6   7
ATOM      7  C   UNL     1       4.999  -0.238  -1.741  1.00  0.00     0.228 C 
ATOM      8  O   UNL     1       6.051  -0.415  -2.352  1.00  0.00    -0.274 OA
BRANCH   7   9
ATOM      9  N   UNL     1       4.556   0.998  -1.339  1.00  0.00    -0.298 N 
BRANCH   9  10
ATOM     10  C   UNL     1       3.605   1.005  -0.345  1.00  0.00     0.068 A 
ATOM     11  C   UNL     1       3.850   0.044   1.196  1.00  0.00     0.028 A 
ATOM     12  C   UNL     1       1.970   1.592  -0.846  1.00  0.00     0.062 A 
ATOM     13  C   UNL     1       2.384  -0.338   2.220  1.00  0.00     0.002 A 
ATOM     14  C   UNL     1       0.524   1.300   0.237  1.00  0.00     0.028 A 
ATOM     15  C   UNL     1       0.750   0.318   1.761  1.00  0.00     0.002 A 
BRANCH  12  16
ATOM     16  N   UNL     1       1.887   2.390  -1.984  1.00  0.00    -0.357 N 
ATOM     17  H   UNL     1       1.174   2.215  -2.640  1.00  0.00     0.166 HD
BRANCH  16  18
ATOM     18  C   UNL     1       2.779   3.424  -2.220  1.00  0.00     0.025 C 
ATOM     19  C   UNL     1       4.135   3.429  -2.049  1.00  0.00     0.043 CG0
ATOM     20  C   UNL     1       1.999   4.646  -2.710  1.00  0.00     0.066 C 
ATOM     21  C   UNL     1       4.813   4.712  -2.435  1.00  0.00     0.163 C 
ATOM     22  G   UNL     1       5.171   2.288  -1.694  1.00  0.00     0.000 G0
ATOM     23  C   UNL     1       2.567   6.011  -2.370  1.00  0.00     0.069 C 
ATOM     24  O   UNL     1       6.014   4.703  -2.712  1.00  0.00    -0.294 OA
ATOM     25  C   UNL     1       4.075   6.038  -2.507  1.00  0.00     0.093 C 
BRANCH  23  26
ATOM     26  C   UNL     1       2.047   6.641  -1.102  1.00  0.00     0.107 A 
ATOM     27  C   UNL     1       2.038   7.957  -0.675  1.00  0.00     0.046 A 
ATOM     28  O   UNL     1       1.354   5.873  -0.208  1.00  0.00    -0.469 OA
ATOM     29  C   UNL     1       1.299   7.995   0.532  1.00  0.00     0.042 A 
ATOM     30  C   UNL     1       0.883   6.707   0.761  1.00  0.00     0.195 A 
ENDBRANCH  23  26
ENDBRANCH  16  18
ENDBRANCH  12  16
ENDBRANCH   9  10
BRANCH   9  31
ATOM     31  C   UNL     1       5.171   2.288  -1.694  1.00  0.00     0.167 CG0
ATOM     32  G   UNL     1       4.135   3.429  -2.049  1.00  0.00     0.000 G0
BRANCH  31  33
ATOM     33  C   UNL     1       6.211   2.536  -0.563  1.00  0.00     0.032 A 
ATOM     34  C   UNL     1       6.037   2.499   0.811  1.00  0.00     0.018 A 
ATOM     35  S   UNL     1       7.891   2.681  -0.911  1.00  0.00    -0.146 S 
ATOM     36  C   UNL     1       7.226   2.664   1.567  1.00  0.00     0.012 A 
ATOM     37  C   UNL     1       8.313   2.817   0.746  1.00  0.00     0.065 A 
ENDBRANCH  31  33
ENDBRANCH   9  31
ENDBRANCH   7   9
ENDBRANCH   6   7
ENDBRANCH   5   6
ENDBRANCH   2   5
BRANCH   3  38
ATOM     38  C   UNL     1       1.991   3.037   1.222  1.00  0.00     0.116 C 
BRANCH  38  39
ATOM     39  C   UNL     1       2.348   3.712   2.562  1.00  0.00     0.023 C 
BRANCH  39  40
ATOM     40  C   UNL     1       3.780   4.229   2.807  1.00  0.00     0.023 C 
BRANCH  40  41
ATOM     41  C   UNL     1       4.505   5.048   1.724  1.00  0.00     0.116 C 
BRANCH  41  42
ATOM     42  N   UNL     1       4.128   6.442   1.638  1.00  0.00    -0.352 N 
ATOM     43  C   UNL     1       4.887   7.546   1.316  1.00  0.00     0.251 C 
ATOM     44  H   UNL     1       3.183   6.631   1.842  1.00  0.00     0.163 HD
ATOM     45  O   UNL     1       4.382   8.666   1.305  1.00  0.00    -0.269 OA
BRANCH  43  46
ATOM     46  C   UNL     1       6.333   7.425   1.041  1.00  0.00     0.039 A 
ATOM     47  C   UNL     1       6.847   6.466   0.172  1.00  0.00     0.014 A 
ATOM     48  C   UNL     1       7.199   8.313   1.688  1.00  0.00     0.014 A 
ATOM     49  C   UNL     1       8.222   6.294   0.062  1.00  0.00     0.010 A 
ATOM     50  C   UNL     1       8.579   8.152   1.567  1.00  0.00     0.010 A 
ATOM     51  C   UNL     1       9.093   7.091   0.808  1.00  0.00    -0.014 A 
BRANCH  51  52
ATOM     52  C   UNL     1      10.518   6.712   0.919  1.00  0.00     0.031 A 
ATOM     53  C   UNL     1      11.025   6.195   2.238  1.00  0.00     0.074 A 
ATOM     54  C   UNL     1      11.323   6.777  -0.155  1.00  0.00     0.049 A 
ATOM     55  N   UNL     1      12.245   5.913   2.613  1.00  0.00    -0.248 NA
ATOM     56  C   UNL     1      10.012   5.977   3.286  1.00  0.00     0.031 C 
ATOM     57  C   UNL     1      10.904   7.184  -1.496  1.00  0.00     0.029 A 
ATOM     58  N   UNL     1      12.656   6.497  -0.288  1.00  0.00    -0.354 N 
ATOM     59  C   UNL     1      12.152   5.529   3.946  1.00  0.00     0.074 A 
ATOM     60  C   UNL     1      10.761   5.638   4.324  1.00  0.00     0.031 C 
ATOM     61  C   UNL     1      11.959   7.116  -2.322  1.00  0.00     0.029 A 
ATOM     62  C   UNL     1      13.136   6.729  -1.553  1.00  0.00     0.049 A 
ATOM     63  H   UNL     1      13.215   6.162   0.450  1.00  0.00     0.167 HD
ATOM     64  C   UNL     1      13.143   5.121   4.776  1.00  0.00     0.037 A 
ATOM     65  C   UNL     1      14.396   6.671  -2.021  1.00  0.00     0.037 A 
ATOM     66  C   UNL     1      14.519   5.017   4.365  1.00  0.00     0.049 A 
ATOM     67  C   UNL     1      15.491   6.290  -1.065  1.00  0.00     0.074 A 
ATOM     68  C   UNL     1      15.621   4.628   5.105  1.00  0.00     0.029 A 
ATOM     69  N   UNL     1      14.979   5.310   3.086  1.00  0.00    -0.354 N 
ATOM     70  N   UNL     1      15.406   5.966   0.204  1.00  0.00    -0.248 NA
ATOM     71  C   UNL     1      16.856   6.279  -1.602  1.00  0.00     0.031 C 
ATOM     72  C   UNL     1      16.753   4.738   4.288  1.00  0.00     0.029 A 
ATOM     73  C   UNL     1      16.350   5.136   3.021  1.00  0.00     0.049 A 
ATOM     74  H   UNL     1      14.411   5.599   2.336  1.00  0.00     0.167 HD
ATOM     75  C   UNL     1      16.703   5.696   0.617  1.00  0.00     0.074 A 
ATOM     76  C   UNL     1      17.550   5.873  -0.548  1.00  0.00     0.031 C 
ATOM     77  C   UNL     1      17.160   5.338   1.844  1.00  0.00     0.037 A 
BRANCH  64  78
ATOM     78  C   UNL     1      12.768   4.823   6.203  1.00  0.00     0.057 A 
ATOM     79  C   UNL     1      13.203   5.657   7.242  1.00  0.00     0.134 A 
ATOM     80  C   UNL     1      11.947   3.741   6.555  1.00  0.00     0.134 A 
ATOM     81  F   UNL     1      13.994   6.710   6.985  1.00  0.00    -0.206 F 
ATOM     82  C   UNL     1      12.825   5.437   8.569  1.00  0.00     0.040 A 
ATOM     83  C   UNL     1      11.535   3.530   7.874  1.00  0.00     0.040 A 
ATOM     84  F   UNL     1      11.474   2.911   5.612  1.00  0.00    -0.206 F 
ATOM     85  C   UNL     1      11.976   4.379   8.886  1.00  0.00     0.006 A 
ENDBRANCH  64  78
BRANCH  65  86
ATOM     86  C   UNL     1      14.677   7.010  -3.439  1.00  0.00     0.057 A 
ATOM     87  C   UNL     1      14.495   8.311  -3.929  1.00  0.00     0.134 A 
ATOM     88  C   UNL     1      15.113   6.039  -4.346  1.00  0.00     0.134 A 
ATOM     89  F   UNL     1      14.076   9.290  -3.114  1.00  0.00    -0.206 F 
ATOM     90  C   UNL     1      14.715   8.627  -5.271  1.00  0.00     0.040 A 
ATOM     91  C   UNL     1      15.365   6.348  -5.685  1.00  0.00     0.040 A 
ATOM     92  F   UNL     1      15.326   4.780  -3.936  1.00  0.00    -0.206 F 
ATOM     93  C   UNL     1      15.157   7.644  -6.152  1.00  0.00     0.006 A 
ENDBRANCH  65  86
BRANCH  77  94
ATOM     94  C   UNL     1      18.636   5.096   1.962  1.00  0.00     0.057 A 
ATOM     95  C   UNL     1      19.131   3.798   2.136  1.00  0.00     0.134 A 
ATOM     96  C   UNL     1      19.564   6.144   1.907  1.00  0.00     0.134 A 
ATOM     97  F   UNL     1      18.294   2.752   2.207  1.00  0.00    -0.206 F 
ATOM     98  C   UNL     1      20.499   3.550   2.246  1.00  0.00     0.040 A 
ATOM     99  C   UNL     1      20.936   5.904   1.983  1.00  0.00     0.040 A 
ATOM    100  F   UNL     1      19.153   7.408   1.726  1.00  0.00    -0.206 F 
ATOM    101  C   UNL     1      21.406   4.604   2.159  1.00  0.00     0.006 A 
ENDBRANCH  77  94
ENDBRANCH  51  52
ENDBRANCH  43  46
ENDBRANCH  41  42
ENDBRANCH  40  41
ENDBRANCH  39  40
ENDBRANCH  38  39
ENDBRANCH   3  38
TORSDOF 16
