REMARK SMILES Nc1cc(F)c(OCc2ccc(C(=O)NCCCCNC(=O)c3ccc(-c4c5nc(c(-c6c(F)cccc6F)c6ccc([nH]6)c(-c6c(F)cccc6F)c6nc(c(-c7c(F)cccc7F)c7ccc4[nH]7)C=C6)C=C5)cc3)cc2)cc1F
REMARK SMILES IDX 16 1 15 2 13 3 14 4 12 6 9 7 10 8 78 9 11 10 77 11 8 12 7 13
REMARK SMILES IDX 6 14 2 15 3 16 80 17 4 18 79 19 81 20 5 21 1 22 17 25 18 26
REMARK SMILES IDX 19 27 20 28 21 29 22 31 23 32 24 33 76 34 25 35 75 36 26 37
REMARK SMILES IDX 27 38 28 39 69 40 29 41 74 42 68 43 70 44 30 45 73 46 67 47
REMARK SMILES IDX 66 48 31 50 57 51 40 52 56 53 41 54 44 55 55 56 71 57 42 58
REMARK SMILES IDX 43 59 54 61 72 62 45 63 32 64 33 65 38 66 34 67 35 68 37 69
REMARK SMILES IDX 39 70 36 71 58 72 59 73 64 74 60 75 61 76 63 77 65 78 62 79
REMARK SMILES IDX 46 80 47 81 52 82 48 83 49 84 51 85 53 86 50 87
REMARK H PARENT 15 5 1 23 1 24 20 30 70 49 44 60
REMARK Flexibility Score: inf
ROOT
ATOM      1  C   UNL     1      -5.541   3.521   1.806  1.00  0.00     0.116 C 
ENDROOT
BRANCH   1   2
ATOM      2  N   UNL     1      -6.549   2.524   1.489  1.00  0.00    -0.352 N 
ATOM      3  C   UNL     1      -6.778   1.290   2.055  1.00  0.00     0.251 C 
ATOM      4  O   UNL     1      -7.706   0.600   1.642  1.00  0.00    -0.269 OA
ATOM      5  H   UNL     1      -7.162   2.767   0.758  1.00  0.00     0.163 HD
BRANCH   3   6
ATOM      6  C   UNL     1      -5.865   0.748   3.090  1.00  0.00     0.039 A 
ATOM      7  C   UNL     1      -3.798  -0.243   4.694  1.00  0.00    -0.011 A 
ATOM      8  C   UNL     1      -4.440  -1.081   3.771  1.00  0.00     0.008 A 
ATOM      9  C   UNL     1      -4.309   1.043   4.915  1.00  0.00     0.008 A 
ATOM     10  C   UNL     1      -5.455  -0.581   2.957  1.00  0.00     0.014 A 
ATOM     11  C   UNL     1      -5.365   1.523   4.139  1.00  0.00     0.014 A 
BRANCH   7  12
ATOM     12  C   UNL     1      -2.522  -0.682   5.375  1.00  0.00     0.265 C 
BRANCH  12  13
ATOM     13  O   UNL     1      -1.415   0.166   5.035  1.00  0.00    -0.486 OA
BRANCH  13  14
ATOM     14  C   UNL     1      -0.848   0.080   3.791  1.00  0.00     0.158 A 
ATOM     15  C   UNL     1       0.458   0.145   1.272  1.00  0.00     0.071 A 
ATOM     16  C   UNL     1       0.780   1.074   2.258  1.00  0.00     0.071 A 
ATOM     17  C   UNL     1      -0.540  -0.793   1.562  1.00  0.00     0.149 A 
ATOM     18  C   UNL     1       0.137   1.033   3.499  1.00  0.00     0.167 A 
ATOM     19  C   UNL     1      -1.169  -0.850   2.807  1.00  0.00     0.091 A 
ATOM     20  F   UNL     1      -0.903  -1.681   0.621  1.00  0.00    -0.205 F 
ATOM     21  F   UNL     1       0.478   1.948   4.420  1.00  0.00    -0.203 F 
BRANCH  15  22
ATOM     22  N   UNL     1       1.024   0.222   0.007  1.00  0.00    -0.396 N 
ATOM     23  H   UNL     1       1.725   0.887  -0.180  1.00  0.00     0.156 HD
ATOM     24  H   UNL     1       0.724  -0.390  -0.704  1.00  0.00     0.156 HD
ENDBRANCH  15  22
ENDBRANCH  13  14
ENDBRANCH  12  13
ENDBRANCH   7  12
ENDBRANCH   3   6
ENDBRANCH   1   2
BRANCH   1  25
ATOM     25  C   UNL     1      -4.981   4.270   0.602  1.00  0.00     0.023 C 
BRANCH  25  26
ATOM     26  C   UNL     1      -5.995   4.932  -0.323  1.00  0.00     0.023 C 
BRANCH  26  27
ATOM     27  C   UNL     1      -7.093   5.741   0.355  1.00  0.00     0.116 C 
BRANCH  27  28
ATOM     28  N   UNL     1      -6.607   6.888   1.107  1.00  0.00    -0.352 N 
ATOM     29  C   UNL     1      -6.880   8.231   0.956  1.00  0.00     0.251 C 
ATOM     30  H   UNL     1      -5.985   6.671   1.839  1.00  0.00     0.163 HD
ATOM     31  O   UNL     1      -6.310   9.058   1.657  1.00  0.00    -0.269 OA
BRANCH  29  32
ATOM     32  C   UNL     1      -7.816   8.679  -0.100  1.00  0.00     0.039 A 
ATOM     33  C   UNL     1      -9.043   8.044  -0.288  1.00  0.00     0.014 A 
ATOM     34  C   UNL     1      -7.423   9.711  -0.957  1.00  0.00     0.014 A 
ATOM     35  C   UNL     1      -9.761   8.275  -1.457  1.00  0.00     0.010 A 
ATOM     36  C   UNL     1      -8.198  10.012  -2.081  1.00  0.00     0.010 A 
ATOM     37  C   UNL     1      -9.332   9.242  -2.382  1.00  0.00    -0.014 A 
BRANCH  37  38
ATOM     38  C   UNL     1     -10.048   9.383  -3.678  1.00  0.00     0.031 A 
ATOM     39  C   UNL     1      -9.351   9.065  -4.978  1.00  0.00     0.074 A 
ATOM     40  C   UNL     1     -11.352   9.720  -3.686  1.00  0.00     0.049 A 
ATOM     41  N   UNL     1      -9.819   9.112  -6.201  1.00  0.00    -0.248 NA
ATOM     42  C   UNL     1      -7.943   8.644  -4.896  1.00  0.00     0.031 C 
ATOM     43  C   UNL     1     -12.150  10.032  -2.499  1.00  0.00     0.029 A 
ATOM     44  N   UNL     1     -12.243   9.825  -4.723  1.00  0.00    -0.354 N 
ATOM     45  C   UNL     1      -8.762   8.753  -7.030  1.00  0.00     0.074 A 
ATOM     46  C   UNL     1      -7.619   8.516  -6.175  1.00  0.00     0.031 C 
ATOM     47  C   UNL     1     -13.423  10.237  -2.868  1.00  0.00     0.029 A 
ATOM     48  C   UNL     1     -13.519  10.131  -4.320  1.00  0.00     0.049 A 
ATOM     49  H   UNL     1     -11.991   9.694  -5.666  1.00  0.00     0.167 HD
ATOM     50  C   UNL     1      -8.746   8.620  -8.378  1.00  0.00     0.037 A 
ATOM     51  C   UNL     1     -14.641  10.317  -5.039  1.00  0.00     0.037 A 
ATOM     52  C   UNL     1      -9.888   8.821  -9.231  1.00  0.00     0.049 A 
ATOM     53  C   UNL     1     -14.586  10.197  -6.534  1.00  0.00     0.074 A 
ATOM     54  C   UNL     1      -9.973   8.689 -10.607  1.00  0.00     0.029 A 
ATOM     55  N   UNL     1     -11.148   9.188  -8.787  1.00  0.00    -0.354 N 
ATOM     56  N   UNL     1     -13.576   9.867  -7.300  1.00  0.00    -0.248 NA
ATOM     57  C   UNL     1     -15.828  10.490  -7.263  1.00  0.00     0.031 C 
ATOM     58  C   UNL     1     -11.279   9.008 -10.998  1.00  0.00     0.029 A 
ATOM     59  C   UNL     1     -12.014   9.304  -9.863  1.00  0.00     0.049 A 
ATOM     60  H   UNL     1     -11.392   9.344  -7.846  1.00  0.00     0.167 HD
ATOM     61  C   UNL     1     -14.060   9.906  -8.601  1.00  0.00     0.074 A 
ATOM     62  C   UNL     1     -15.460  10.267  -8.517  1.00  0.00     0.031 C 
ATOM     63  C   UNL     1     -13.402   9.671  -9.761  1.00  0.00     0.037 A 
BRANCH  50  64
ATOM     64  C   UNL     1      -7.441   8.248  -9.020  1.00  0.00     0.057 A 
ATOM     65  C   UNL     1      -6.713   9.193  -9.755  1.00  0.00     0.134 A 
ATOM     66  C   UNL     1      -6.921   6.950  -8.942  1.00  0.00     0.134 A 
ATOM     67  F   UNL     1      -7.158  10.453  -9.873  1.00  0.00    -0.206 F 
ATOM     68  C   UNL     1      -5.515   8.860 -10.389  1.00  0.00     0.040 A 
ATOM     69  C   UNL     1      -5.713   6.610  -9.555  1.00  0.00     0.040 A 
ATOM     70  F   UNL     1      -7.562   6.002  -8.242  1.00  0.00    -0.206 F 
ATOM     71  C   UNL     1      -5.009   7.566 -10.286  1.00  0.00     0.006 A 
ENDBRANCH  50  64
BRANCH  51  72
ATOM     72  C   UNL     1     -15.913  10.650  -4.353  1.00  0.00     0.057 A 
ATOM     73  C   UNL     1     -16.107  11.895  -3.744  1.00  0.00     0.134 A 
ATOM     74  C   UNL     1     -16.966   9.730  -4.298  1.00  0.00     0.134 A 
ATOM     75  F   UNL     1     -15.133  12.816  -3.761  1.00  0.00    -0.206 F 
ATOM     76  C   UNL     1     -17.300  12.211  -3.094  1.00  0.00     0.040 A 
ATOM     77  C   UNL     1     -18.173  10.042  -3.672  1.00  0.00     0.040 A 
ATOM     78  F   UNL     1     -16.845   8.529  -4.883  1.00  0.00    -0.206 F 
ATOM     79  C   UNL     1     -18.340  11.284  -3.062  1.00  0.00     0.006 A 
ENDBRANCH  51  72
BRANCH  63  80
ATOM     80  C   UNL     1     -14.199   9.787 -11.025  1.00  0.00     0.057 A 
ATOM     81  C   UNL     1     -14.595   8.645 -11.730  1.00  0.00     0.134 A 
ATOM     82  C   UNL     1     -14.570  11.034 -11.544  1.00  0.00     0.134 A 
ATOM     83  F   UNL     1     -14.267   7.422 -11.286  1.00  0.00    -0.206 F 
ATOM     84  C   UNL     1     -15.336   8.738 -12.909  1.00  0.00     0.040 A 
ATOM     85  C   UNL     1     -15.329  11.139 -12.710  1.00  0.00     0.040 A 
ATOM     86  F   UNL     1     -14.234  12.164 -10.904  1.00  0.00    -0.206 F 
ATOM     87  C   UNL     1     -15.711   9.988 -13.398  1.00  0.00     0.006 A 
ENDBRANCH  63  80
ENDBRANCH  37  38
ENDBRANCH  29  32
ENDBRANCH  27  28
ENDBRANCH  26  27
ENDBRANCH  25  26
ENDBRANCH   1  25
TORSDOF 15
