REMARK SMILES O=C(Cc1csc(NC(=O)CS[C@@H]2CCS(=O)(=O)C2)n1)NCCCCNC(=O)c1ccc(-c2c3nc(c(-c4c(F)cccc4F)c4ccc([nH]4)c(-c4c(F)cccc4F)c4nc(c(-c5c(F)cccc5F)c5ccc2[nH]5)C=C4)C=C3)cc1
REMARK SMILES IDX 22 1 21 2 1 3 2 4 3 6 4 7 5 8 20 9 6 10 7 11 8 12 9 13 10 15
REMARK SMILES IDX 11 16 12 17 13 18 14 19 19 20 15 21 16 22 17 23 18 24 23 25
REMARK SMILES IDX 24 26 25 27 26 28 27 29 28 31 29 32 30 33 82 34 31 35 81 36
REMARK SMILES IDX 32 37 33 38 34 39 75 40 35 41 80 42 74 43 76 44 36 45 79 46
REMARK SMILES IDX 73 47 72 48 37 50 63 51 46 52 62 53 47 54 50 55 61 56 77 57
REMARK SMILES IDX 48 58 49 59 60 61 78 62 51 63 38 64 39 65 44 66 40 67 41 68
REMARK SMILES IDX 43 69 45 70 42 71 64 72 65 73 70 74 66 75 67 76 69 77 71 78
REMARK SMILES IDX 68 79 52 80 53 81 58 82 54 83 55 84 57 85 59 86 56 87
REMARK H PARENT 21 5 8 14 26 30 76 49 50 60
REMARK Flexibility Score: inf
ROOT
ATOM      1  C   UNL     1       2.121   1.431  -1.970  1.00  0.00     0.116 C 
ENDROOT
BRANCH   1   2
ATOM      2  N   UNL     1       2.811   0.694  -0.936  1.00  0.00    -0.356 N 
ATOM      3  O   UNL     1       0.995   0.385   0.445  1.00  0.00    -0.275 OA
ATOM      4  C   UNL     1       2.182   0.209   0.193  1.00  0.00     0.226 C 
ATOM      5  H   UNL     1       3.775   0.529  -1.043  1.00  0.00     0.163 HD
BRANCH   4   6
ATOM      6  C   UNL     1       3.104  -0.564   1.119  1.00  0.00     0.157 C 
BRANCH   6   7
ATOM      7  C   UNL     1       3.647  -1.747   0.395  1.00  0.00     0.063 A 
ATOM      8  C   UNL     1       3.067  -2.996   0.313  1.00  0.00     0.093 A 
ATOM      9  N   UNL     1       4.808  -1.593  -0.354  1.00  0.00    -0.224 NA
ATOM     10  S   UNL     1       3.936  -3.950  -0.803  1.00  0.00    -0.105 S 
ATOM     11  C   UNL     1       5.108  -2.728  -0.943  1.00  0.00     0.189 A 
BRANCH  11  12
ATOM     12  N   UNL     1       6.244  -2.835  -1.694  1.00  0.00    -0.301 N 
ATOM     13  C   UNL     1       6.917  -3.885  -2.223  1.00  0.00     0.236 C 
ATOM     14  H   UNL     1       6.662  -1.966  -1.892  1.00  0.00     0.172 HD
ATOM     15  O   UNL     1       7.876  -3.613  -2.959  1.00  0.00    -0.274 OA
BRANCH  13  16
ATOM     16  C   UNL     1       6.583  -5.338  -1.964  1.00  0.00     0.170 C 
BRANCH  16  17
ATOM     17  S   UNL     1       6.721  -5.827  -0.215  1.00  0.00    -0.148 SA
BRANCH  17  18
ATOM     18  C   UNL     1       8.512  -5.793   0.185  1.00  0.00     0.063 C 
ATOM     19  C   UNL     1       9.551  -5.834  -0.937  1.00  0.00     0.031 C 
ATOM     20  C   UNL     1       8.807  -7.038   1.033  1.00  0.00     0.151 C 
ATOM     21  C   UNL     1       9.594  -7.245  -1.508  1.00  0.00     0.138 C 
ATOM     22  S   UNL     1       9.187  -8.325  -0.148  1.00  0.00     0.151 S 
ATOM     23  O   UNL     1       7.972  -9.041  -0.483  1.00  0.00    -0.229 OA
ATOM     24  O   UNL     1      10.386  -9.009   0.283  1.00  0.00    -0.229 OA
ENDBRANCH  17  18
ENDBRANCH  16  17
ENDBRANCH  13  16
ENDBRANCH  11  12
ENDBRANCH   6   7
ENDBRANCH   4   6
ENDBRANCH   1   2
BRANCH   1  25
ATOM     25  C   UNL     1       2.508   2.907  -1.966  1.00  0.00     0.023 C 
BRANCH  25  26
ATOM     26  C   UNL     1       3.998   3.180  -2.191  1.00  0.00     0.023 C 
BRANCH  26  27
ATOM     27  C   UNL     1       4.577   2.631  -3.492  1.00  0.00     0.116 C 
BRANCH  27  28
ATOM     28  N   UNL     1       3.979   3.231  -4.674  1.00  0.00    -0.352 N 
ATOM     29  C   UNL     1       4.580   3.843  -5.748  1.00  0.00     0.251 C 
ATOM     30  H   UNL     1       2.996   3.194  -4.710  1.00  0.00     0.163 HD
ATOM     31  O   UNL     1       3.895   4.428  -6.581  1.00  0.00    -0.269 OA
BRANCH  29  32
ATOM     32  C   UNL     1       6.053   3.826  -5.891  1.00  0.00     0.039 A 
ATOM     33  C   UNL     1       6.705   5.004  -6.268  1.00  0.00     0.014 A 
ATOM     34  C   UNL     1       6.793   2.662  -5.667  1.00  0.00     0.014 A 
ATOM     35  C   UNL     1       8.100   5.032  -6.347  1.00  0.00     0.010 A 
ATOM     36  C   UNL     1       8.185   2.712  -5.669  1.00  0.00     0.010 A 
ATOM     37  C   UNL     1       8.855   3.898  -6.007  1.00  0.00    -0.014 A 
BRANCH  37  38
ATOM     38  C   UNL     1      10.342   3.941  -5.986  1.00  0.00     0.031 A 
ATOM     39  C   UNL     1      11.144   3.064  -6.909  1.00  0.00     0.074 A 
ATOM     40  C   UNL     1      10.974   4.727  -5.092  1.00  0.00     0.049 A 
ATOM     41  N   UNL     1      12.442   2.915  -6.987  1.00  0.00    -0.248 NA
ATOM     42  C   UNL     1      10.386   2.225  -7.850  1.00  0.00     0.031 C 
ATOM     43  C   UNL     1      10.316   5.593  -4.112  1.00  0.00     0.029 A 
ATOM     44  N   UNL     1      12.313   4.917  -4.854  1.00  0.00    -0.354 N 
ATOM     45  C   UNL     1      12.655   1.964  -7.978  1.00  0.00     0.074 A 
ATOM     46  C   UNL     1      11.352   1.527  -8.429  1.00  0.00     0.031 C 
ATOM     47  C   UNL     1      11.251   6.237  -3.395  1.00  0.00     0.029 A 
ATOM     48  C   UNL     1      12.572   5.798  -3.831  1.00  0.00     0.049 A 
ATOM     49  H   UNL     1      13.021   4.466  -5.368  1.00  0.00     0.167 HD
ATOM     50  C   UNL     1      13.828   1.515  -8.485  1.00  0.00     0.037 A 
ATOM     51  C   UNL     1      13.741   6.198  -3.294  1.00  0.00     0.037 A 
ATOM     52  C   UNL     1      15.126   1.957  -8.043  1.00  0.00     0.049 A 
ATOM     53  C   UNL     1      15.030   5.662  -3.855  1.00  0.00     0.074 A 
ATOM     54  C   UNL     1      16.371   1.593  -8.525  1.00  0.00     0.029 A 
ATOM     55  N   UNL     1      15.345   2.857  -7.010  1.00  0.00    -0.354 N 
ATOM     56  N   UNL     1      15.216   4.811  -4.835  1.00  0.00    -0.248 NA
ATOM     57  C   UNL     1      16.273   6.147  -3.238  1.00  0.00     0.031 C 
ATOM     58  C   UNL     1      17.345   2.229  -7.748  1.00  0.00     0.029 A 
ATOM     59  C   UNL     1      16.706   3.038  -6.822  1.00  0.00     0.049 A 
ATOM     60  H   UNL     1      14.639   3.300  -6.487  1.00  0.00     0.167 HD
ATOM     61  C   UNL     1      16.593   4.684  -4.973  1.00  0.00     0.074 A 
ATOM     62  C   UNL     1      17.194   5.556  -3.986  1.00  0.00     0.031 C 
ATOM     63  C   UNL     1      17.295   3.914  -5.840  1.00  0.00     0.037 A 
BRANCH  50  64
ATOM     64  C   UNL     1      13.762   0.488  -9.580  1.00  0.00     0.057 A 
ATOM     65  C   UNL     1      13.284   0.801 -10.860  1.00  0.00     0.134 A 
ATOM     66  C   UNL     1      14.216  -0.820  -9.366  1.00  0.00     0.134 A 
ATOM     67  F   UNL     1      12.825   2.032 -11.132  1.00  0.00    -0.206 F 
ATOM     68  C   UNL     1      13.232  -0.155 -11.876  1.00  0.00     0.040 A 
ATOM     69  C   UNL     1      14.199  -1.776 -10.383  1.00  0.00     0.040 A 
ATOM     70  F   UNL     1      14.696  -1.188  -8.168  1.00  0.00    -0.206 F 
ATOM     71  C   UNL     1      13.698  -1.447 -11.640  1.00  0.00     0.006 A 
ENDBRANCH  50  64
BRANCH  51  72
ATOM     72  C   UNL     1      13.750   7.164  -2.165  1.00  0.00     0.057 A 
ATOM     73  C   UNL     1      14.246   8.463  -2.327  1.00  0.00     0.134 A 
ATOM     74  C   UNL     1      13.279   6.809  -0.895  1.00  0.00     0.134 A 
ATOM     75  F   UNL     1      14.730   8.858  -3.514  1.00  0.00    -0.206 F 
ATOM     76  C   UNL     1      14.296   9.366  -1.263  1.00  0.00     0.040 A 
ATOM     77  C   UNL     1      13.294   7.711   0.170  1.00  0.00     0.040 A 
ATOM     78  F   UNL     1      12.783   5.582  -0.675  1.00  0.00    -0.206 F 
ATOM     79  C   UNL     1      13.813   8.991  -0.010  1.00  0.00     0.006 A 
ENDBRANCH  51  72
BRANCH  63  80
ATOM     80  C   UNL     1      18.793   4.008  -5.790  1.00  0.00     0.057 A 
ATOM     81  C   UNL     1      19.537   3.490  -4.722  1.00  0.00     0.134 A 
ATOM     82  C   UNL     1      19.504   4.594  -6.846  1.00  0.00     0.134 A 
ATOM     83  F   UNL     1      18.918   2.927  -3.672  1.00  0.00    -0.206 F 
ATOM     84  C   UNL     1      20.930   3.574  -4.694  1.00  0.00     0.040 A 
ATOM     85  C   UNL     1      20.898   4.656  -6.844  1.00  0.00     0.040 A 
ATOM     86  F   UNL     1      18.856   5.102  -7.905  1.00  0.00    -0.206 F 
ATOM     87  C   UNL     1      21.615   4.151  -5.761  1.00  0.00     0.006 A 
ENDBRANCH  63  80
ENDBRANCH  37  38
ENDBRANCH  29  32
ENDBRANCH  27  28
ENDBRANCH  26  27
ENDBRANCH  25  26
ENDBRANCH   1  25
TORSDOF 16
