REMARK SMILES O=C1CC[C@@H](CC(=O)N2CCC(Oc3ccccc3)(C(=O)NCCCCNC(=O)c3ccc(-c4c5nc(c(-c6c(F)cccc6F)c6ccc([nH]6)c(-c6c(F)cccc6F)c6nc(c(-c7c(F)cccc7F)c7ccc4[nH]7)C=C6)C=C5)cc3)CC2)N1
REMARK SMILES IDX 24 1 23 2 22 3 20 4 21 5 12 7 7 8 8 9 9 10 10 11 85 12 11 13
REMARK SMILES IDX 84 14 6 15 5 16 1 17 2 18 3 19 86 20 4 21 13 23 14 24 15 25
REMARK SMILES IDX 19 26 16 27 18 28 17 29 25 30 26 31 27 32 28 33 29 35 30 36
REMARK SMILES IDX 31 37 83 38 32 39 82 40 33 41 34 42 35 43 76 44 36 45 81 46
REMARK SMILES IDX 75 47 77 48 37 49 80 50 74 51 73 52 38 54 64 55 47 56 63 57
REMARK SMILES IDX 48 58 51 59 62 60 78 61 49 62 50 63 61 65 79 66 52 67 39 68
REMARK SMILES IDX 40 69 45 70 41 71 42 72 44 73 46 74 43 75 65 76 66 77 71 78
REMARK SMILES IDX 67 79 68 80 70 81 72 82 69 83 53 84 54 85 59 86 55 87 56 88
REMARK SMILES IDX 58 89 60 90 57 91
REMARK H PARENT 22 6 86 22 27 34 77 53 51 64
REMARK Flexibility Score: inf
ROOT
ATOM      1  C   UNL     1       0.526   1.435  -7.925  1.00  0.00     0.023 C 
ENDROOT
BRANCH   1   2
ATOM      2  C   UNL     1       1.733   1.598  -7.008  1.00  0.00     0.116 C 
BRANCH   2   3
ATOM      3  N   UNL     1       1.351   2.280  -5.796  1.00  0.00    -0.353 N 
ATOM      4  C   UNL     1       1.254   1.810  -4.525  1.00  0.00     0.264 C 
ATOM      5  O   UNL     1       0.932   2.651  -3.678  1.00  0.00    -0.270 OA
ATOM      6  H   UNL     1       1.127   3.233  -5.906  1.00  0.00     0.163 HD
BRANCH   4   7
ATOM      7  C   UNL     1       1.555   0.323  -4.172  1.00  0.00     0.190 C 
ATOM      8  C   UNL     1      -1.573  -1.644  -2.249  1.00  0.00     0.224 C 
ATOM      9  O   UNL     1      -1.837  -2.680  -2.875  1.00  0.00    -0.275 OA
ATOM     10  N   UNL     1      -0.898  -0.619  -2.882  1.00  0.00    -0.342 N 
ATOM     11  C   UNL     1      -0.841  -0.566  -4.342  1.00  0.00     0.124 C 
ATOM     12  C   UNL     1      -0.038   0.337  -2.228  1.00  0.00     0.124 C 
ATOM     13  C   UNL     1       0.594  -0.681  -4.848  1.00  0.00     0.080 C 
ATOM     14  C   UNL     1       1.419   0.176  -2.652  1.00  0.00     0.080 C 
BRANCH   8  15
ATOM     15  C   UNL     1      -2.234  -1.475  -0.867  1.00  0.00     0.125 C 
BRANCH  15  16
ATOM     16  C   UNL     1      -1.643  -0.864   0.405  1.00  0.00     0.091 C 
ATOM     17  O   UNL     1       1.616  -0.157   1.510  1.00  0.00    -0.275 OA
ATOM     18  C   UNL     1       0.445  -0.110   1.166  1.00  0.00     0.220 C 
ATOM     19  C   UNL     1      -0.420   1.125   1.124  1.00  0.00     0.102 C 
ATOM     20  N   UNL     1      -0.280  -1.184   0.701  1.00  0.00    -0.353 N 
ATOM     21  C   UNL     1      -1.750   0.658   0.526  1.00  0.00     0.035 C 
ATOM     22  H   UNL     1       0.102  -2.084   0.583  1.00  0.00     0.163 HD
ENDBRANCH  15  16
ENDBRANCH   8  15
BRANCH   7  23
ATOM     23  O   UNL     1       2.939   0.226  -4.601  1.00  0.00    -0.477 OA
BRANCH  23  24
ATOM     24  C   UNL     1       3.598  -0.947  -4.396  1.00  0.00     0.120 A 
ATOM     25  C   UNL     1       4.576  -0.989  -3.406  1.00  0.00     0.046 A 
ATOM     26  C   UNL     1       3.426  -2.030  -5.256  1.00  0.00     0.046 A 
ATOM     27  C   UNL     1       5.329  -2.149  -3.224  1.00  0.00     0.004 A 
ATOM     28  C   UNL     1       4.162  -3.197  -5.061  1.00  0.00     0.004 A 
ATOM     29  C   UNL     1       5.111  -3.258  -4.041  1.00  0.00     0.000 A 
ENDBRANCH  23  24
ENDBRANCH   7  23
ENDBRANCH   4   7
ENDBRANCH   2   3
ENDBRANCH   1   2
BRANCH   1  30
ATOM     30  C   UNL     1      -0.070   2.757  -8.407  1.00  0.00     0.023 C 
BRANCH  30  31
ATOM     31  C   UNL     1       0.939   3.720  -9.018  1.00  0.00     0.116 C 
BRANCH  31  32
ATOM     32  N   UNL     1       1.704   3.114 -10.097  1.00  0.00    -0.352 N 
ATOM     33  C   UNL     1       1.996   3.627 -11.334  1.00  0.00     0.251 C 
ATOM     34  H   UNL     1       2.060   2.214  -9.914  1.00  0.00     0.163 HD
ATOM     35  O   UNL     1       2.520   2.927 -12.193  1.00  0.00    -0.269 OA
BRANCH  33  36
ATOM     36  C   UNL     1       1.641   5.028 -11.627  1.00  0.00     0.039 A 
ATOM     37  C   UNL     1       0.960   5.318 -12.809  1.00  0.00     0.014 A 
ATOM     38  C   UNL     1       1.947   6.041 -10.713  1.00  0.00     0.014 A 
ATOM     39  C   UNL     1       0.534   6.624 -13.050  1.00  0.00     0.010 A 
ATOM     40  C   UNL     1       1.448   7.321 -10.915  1.00  0.00     0.010 A 
ATOM     41  C   UNL     1       0.745   7.628 -12.090  1.00  0.00    -0.014 A 
BRANCH  41  42
ATOM     42  C   UNL     1       0.260   9.013 -12.308  1.00  0.00     0.031 A 
ATOM     43  C   UNL     1       1.249  10.143 -12.401  1.00  0.00     0.074 A 
ATOM     44  C   UNL     1      -1.063   9.259 -12.372  1.00  0.00     0.049 A 
ATOM     45  N   UNL     1       1.027  11.428 -12.512  1.00  0.00    -0.248 NA
ATOM     46  C   UNL     1       2.676   9.785 -12.336  1.00  0.00     0.031 C 
ATOM     47  C   UNL     1      -2.121   8.252 -12.255  1.00  0.00     0.029 A 
ATOM     48  N   UNL     1      -1.745  10.437 -12.542  1.00  0.00    -0.354 N 
ATOM     49  C   UNL     1       2.280  12.026 -12.525  1.00  0.00     0.074 A 
ATOM     50  C   UNL     1       3.256  10.975 -12.344  1.00  0.00     0.031 C 
ATOM     51  C   UNL     1      -3.316   8.853 -12.381  1.00  0.00     0.029 A 
ATOM     52  C   UNL     1      -3.112  10.289 -12.543  1.00  0.00     0.049 A 
ATOM     53  H   UNL     1      -1.298  11.307 -12.654  1.00  0.00     0.167 HD
ATOM     54  C   UNL     1       2.592  13.331 -12.704  1.00  0.00     0.037 A 
ATOM     55  C   UNL     1      -4.087  11.211 -12.650  1.00  0.00     0.037 A 
ATOM     56  C   UNL     1       1.621  14.373 -12.905  1.00  0.00     0.049 A 
ATOM     57  C   UNL     1      -3.709  12.659 -12.817  1.00  0.00     0.074 A 
ATOM     58  C   UNL     1       1.838  15.722 -13.124  1.00  0.00     0.029 A 
ATOM     59  N   UNL     1       0.248  14.180 -12.915  1.00  0.00    -0.354 N 
ATOM     60  N   UNL     1      -2.518  13.202 -12.883  1.00  0.00    -0.248 NA
ATOM     61  C   UNL     1      -4.814  13.622 -12.933  1.00  0.00     0.031 C 
ATOM     62  C   UNL     1       0.595  16.352 -13.226  1.00  0.00     0.029 A 
ATOM     63  C   UNL     1      -0.395  15.388 -13.126  1.00  0.00     0.049 A 
ATOM     64  H   UNL     1      -0.202  13.313 -12.792  1.00  0.00     0.167 HD
ATOM     65  C   UNL     1      -2.730  14.560 -13.089  1.00  0.00     0.074 A 
ATOM     66  C   UNL     1      -4.163  14.755 -13.152  1.00  0.00     0.031 C 
ATOM     67  C   UNL     1      -1.822  15.557 -13.214  1.00  0.00     0.037 A 
BRANCH  54  68
ATOM     68  C   UNL     1       4.046  13.705 -12.715  1.00  0.00     0.057 A 
ATOM     69  C   UNL     1       4.888  13.344 -13.775  1.00  0.00     0.134 A 
ATOM     70  C   UNL     1       4.596  14.482 -11.688  1.00  0.00     0.134 A 
ATOM     71  F   UNL     1       4.428  12.588 -14.783  1.00  0.00    -0.206 F 
ATOM     72  C   UNL     1       6.229  13.730 -13.806  1.00  0.00     0.040 A 
ATOM     73  C   UNL     1       5.928  14.898 -11.722  1.00  0.00     0.040 A 
ATOM     74  F   UNL     1       3.844  14.865 -10.645  1.00  0.00    -0.206 F 
ATOM     75  C   UNL     1       6.749  14.519 -12.782  1.00  0.00     0.006 A 
ENDBRANCH  54  68
BRANCH  55  76
ATOM     76  C   UNL     1      -5.518  10.809 -12.610  1.00  0.00     0.057 A 
ATOM     77  C   UNL     1      -6.345  10.960 -13.731  1.00  0.00     0.134 A 
ATOM     78  C   UNL     1      -6.108  10.319 -11.439  1.00  0.00     0.134 A 
ATOM     79  F   UNL     1      -5.844  11.440 -14.879  1.00  0.00    -0.206 F 
ATOM     80  C   UNL     1      -7.711  10.680 -13.677  1.00  0.00     0.040 A 
ATOM     81  C   UNL     1      -7.467  10.004 -11.380  1.00  0.00     0.040 A 
ATOM     82  F   UNL     1      -5.372  10.140 -10.332  1.00  0.00    -0.206 F 
ATOM     83  C   UNL     1      -8.276  10.200 -12.497  1.00  0.00     0.006 A 
ENDBRANCH  55  76
BRANCH  67  84
ATOM     84  C   UNL     1      -2.345  16.936 -13.495  1.00  0.00     0.057 A 
ATOM     85  C   UNL     1      -3.026  17.685 -12.527  1.00  0.00     0.134 A 
ATOM     86  C   UNL     1      -2.127  17.536 -14.742  1.00  0.00     0.134 A 
ATOM     87  F   UNL     1      -3.277  17.165 -11.316  1.00  0.00    -0.206 F 
ATOM     88  C   UNL     1      -3.496  18.971 -12.800  1.00  0.00     0.040 A 
ATOM     89  C   UNL     1      -2.565  18.831 -15.016  1.00  0.00     0.040 A 
ATOM     90  F   UNL     1      -1.471  16.877 -15.710  1.00  0.00    -0.206 F 
ATOM     91  C   UNL     1      -3.259  19.550 -14.045  1.00  0.00     0.006 A 
ENDBRANCH  67  84
ENDBRANCH  41  42
ENDBRANCH  33  36
ENDBRANCH  31  32
ENDBRANCH  30  31
ENDBRANCH   1  30
TORSDOF 15
