REMARK SMILES [NH3+][C@]1(C(=O)NCCCCNC(=O)c2ccc(-c3c4nc(c(-c5c(F)cccc5F)c5ccc([nH]5)c(-c5c(F)cccc5F)c5nc(c(-c6c(F)cccc6F)c6ccc3[nH]6)C=C5)C=C4)cc2)CCC[C@H]1CC[NH+]1CCCCC1
REMARK SMILES IDX 7 1 6 2 5 3 3 4 4 5 2 7 67 8 70 9 68 10 69 11 1 12 71 16
REMARK SMILES IDX 72 17 73 18 74 19 78 20 75 22 77 23 76 24 8 25 9 26 10 27
REMARK SMILES IDX 11 28 12 30 13 31 14 32 66 33 15 34 65 35 16 36 17 37 18 38
REMARK SMILES IDX 59 39 19 40 64 41 58 42 60 43 20 44 63 45 57 46 56 47 21 49
REMARK SMILES IDX 47 50 30 51 46 52 31 53 34 54 45 55 61 56 32 57 33 58 44 60
REMARK SMILES IDX 62 61 35 62 22 63 23 64 28 65 24 66 25 67 27 68 29 69 26 70
REMARK SMILES IDX 48 71 49 72 54 73 50 74 51 75 53 76 55 77 52 78 36 79 37 80
REMARK SMILES IDX 42 81 38 82 39 83 41 84 43 85 40 86
REMARK H PARENT 5 6 1 13 1 14 1 15 73 21 10 29 60 48 34 59
REMARK Flexibility Score: inf
ROOT
ATOM      1  C   UNL     1       5.116   0.781   0.344  1.00  0.00     0.023 C 
ENDROOT
BRANCH   1   2
ATOM      2  C   UNL     1       3.592   0.784   0.441  1.00  0.00     0.116 C 
BRANCH   2   3
ATOM      3  N   UNL     1       2.970  -0.292  -0.313  1.00  0.00    -0.351 N 
ATOM      4  C   UNL     1       1.612  -0.431  -0.399  1.00  0.00     0.281 C 
ATOM      5  O   UNL     1       1.099  -0.051  -1.463  1.00  0.00    -0.268 OA
ATOM      6  H   UNL     1       3.545  -0.942  -0.778  1.00  0.00     0.163 HD
BRANCH   4   7
ATOM      7  C   UNL     1       0.764  -1.300   0.609  1.00  0.00     0.177 C 
ATOM      8  C   UNL     1       0.937  -2.776   0.142  1.00  0.00     0.079 C 
ATOM      9  C   UNL     1       0.971  -1.383   2.151  1.00  0.00     0.066 C 
ATOM     10  C   UNL     1       1.014  -3.619   1.409  1.00  0.00     0.008 C 
ATOM     11  C   UNL     1       1.717  -2.694   2.392  1.00  0.00     0.011 C 
BRANCH   7  12
ATOM     12  N   UNL     1      -0.654  -0.880   0.412  1.00  0.00    -0.345 N 
ATOM     13  H   UNL     1      -1.256  -1.411   1.042  1.00  0.00     0.345 HD
ATOM     14  H   UNL     1      -0.931  -1.058  -0.553  1.00  0.00     0.345 HD
ATOM     15  H   UNL     1      -0.746   0.116   0.614  1.00  0.00     0.345 HD
ENDBRANCH   7  12
BRANCH   9  16
ATOM     16  C   UNL     1       1.437  -0.195   2.993  1.00  0.00     0.072 C 
BRANCH  16  17
ATOM     17  C   UNL     1       0.793   1.110   2.521  1.00  0.00     0.262 C 
BRANCH  17  18
ATOM     18  N   UNL     1       0.857   2.168   3.546  1.00  0.00    -0.335 N 
ATOM     19  C   UNL     1       1.445   3.394   2.980  1.00  0.00     0.262 C 
ATOM     20  C   UNL     1      -0.516   2.400   4.039  1.00  0.00     0.262 C 
ATOM     21  H   UNL     1       1.454   1.885   4.323  1.00  0.00     0.348 HD
ATOM     22  C   UNL     1       1.368   4.589   3.931  1.00  0.00     0.062 C 
ATOM     23  C   UNL     1      -0.625   3.569   5.009  1.00  0.00     0.062 C 
ATOM     24  C   UNL     1      -0.066   4.836   4.379  1.00  0.00     0.012 C 
ENDBRANCH  17  18
ENDBRANCH  16  17
ENDBRANCH   9  16
ENDBRANCH   4   7
ENDBRANCH   2   3
ENDBRANCH   1   2
BRANCH   1  25
ATOM     25  C   UNL     1       5.723   2.050  -0.261  1.00  0.00     0.023 C 
BRANCH  25  26
ATOM     26  C   UNL     1       5.331   3.380   0.380  1.00  0.00     0.116 C 
BRANCH  26  27
ATOM     27  N   UNL     1       5.634   3.489   1.798  1.00  0.00    -0.352 N 
ATOM     28  C   UNL     1       6.099   4.595   2.478  1.00  0.00     0.251 C 
ATOM     29  H   UNL     1       5.490   2.678   2.337  1.00  0.00     0.163 HD
ATOM     30  O   UNL     1       6.333   4.552   3.681  1.00  0.00    -0.269 OA
BRANCH  28  31
ATOM     31  C   UNL     1       6.371   5.830   1.714  1.00  0.00     0.039 A 
ATOM     32  C   UNL     1       7.679   6.319   1.672  1.00  0.00     0.014 A 
ATOM     33  C   UNL     1       5.364   6.421   0.947  1.00  0.00     0.014 A 
ATOM     34  C   UNL     1       8.002   7.338   0.774  1.00  0.00     0.010 A 
ATOM     35  C   UNL     1       5.701   7.396   0.011  1.00  0.00     0.010 A 
ATOM     36  C   UNL     1       7.028   7.844  -0.104  1.00  0.00    -0.014 A 
BRANCH  36  37
ATOM     37  C   UNL     1       7.392   8.796  -1.186  1.00  0.00     0.031 A 
ATOM     38  C   UNL     1       6.832  10.190  -1.193  1.00  0.00     0.074 A 
ATOM     39  C   UNL     1       8.158   8.373  -2.213  1.00  0.00     0.049 A 
ATOM     40  N   UNL     1       6.980  11.133  -2.088  1.00  0.00    -0.248 NA
ATOM     41  C   UNL     1       5.969  10.563  -0.062  1.00  0.00     0.031 C 
ATOM     42  C   UNL     1       8.707   7.022  -2.363  1.00  0.00     0.029 A 
ATOM     43  N   UNL     1       8.595   9.030  -3.337  1.00  0.00    -0.354 N 
ATOM     44  C   UNL     1       6.213  12.201  -1.641  1.00  0.00     0.074 A 
ATOM     45  C   UNL     1       5.571  11.777  -0.415  1.00  0.00     0.031 C 
ATOM     46  C   UNL     1       9.412   6.956  -3.504  1.00  0.00     0.029 A 
ATOM     47  C   UNL     1       9.345   8.246  -4.181  1.00  0.00     0.049 A 
ATOM     48  H   UNL     1       8.389   9.975  -3.521  1.00  0.00     0.167 HD
ATOM     49  C   UNL     1       6.072  13.429  -2.193  1.00  0.00     0.037 A 
ATOM     50  C   UNL     1       9.910   8.533  -5.370  1.00  0.00     0.037 A 
ATOM     51  C   UNL     1       6.746  13.866  -3.387  1.00  0.00     0.049 A 
ATOM     52  C   UNL     1       9.766   9.919  -5.939  1.00  0.00     0.074 A 
ATOM     53  C   UNL     1       6.742  15.123  -3.966  1.00  0.00     0.029 A 
ATOM     54  N   UNL     1       7.541  13.059  -4.185  1.00  0.00    -0.354 N 
ATOM     55  N   UNL     1       9.123  10.950  -5.449  1.00  0.00    -0.248 NA
ATOM     56  C   UNL     1      10.435  10.184  -7.221  1.00  0.00     0.031 C 
ATOM     57  C   UNL     1       7.504  15.068  -5.136  1.00  0.00     0.029 A 
ATOM     58  C   UNL     1       8.015  13.787  -5.264  1.00  0.00     0.049 A 
ATOM     59  H   UNL     1       7.740  12.111  -4.011  1.00  0.00     0.167 HD
ATOM     60  C   UNL     1       9.334  11.990  -6.344  1.00  0.00     0.074 A 
ATOM     61  C   UNL     1      10.177  11.471  -7.400  1.00  0.00     0.031 C 
ATOM     62  C   UNL     1       8.868  13.262  -6.297  1.00  0.00     0.037 A 
BRANCH  49  63
ATOM     63  C   UNL     1       5.159  14.401  -1.508  1.00  0.00     0.057 A 
ATOM     64  C   UNL     1       5.513  15.021  -0.303  1.00  0.00     0.134 A 
ATOM     65  C   UNL     1       3.942  14.770  -2.093  1.00  0.00     0.134 A 
ATOM     66  F   UNL     1       6.662  14.703   0.313  1.00  0.00    -0.206 F 
ATOM     67  C   UNL     1       4.681  15.963   0.305  1.00  0.00     0.040 A 
ATOM     68  C   UNL     1       3.112  15.727  -1.507  1.00  0.00     0.040 A 
ATOM     69  F   UNL     1       3.547  14.219  -3.250  1.00  0.00    -0.206 F 
ATOM     70  C   UNL     1       3.480  16.324  -0.303  1.00  0.00     0.006 A 
ENDBRANCH  49  63
BRANCH  50  71
ATOM     71  C   UNL     1      10.679   7.498  -6.108  1.00  0.00     0.057 A 
ATOM     72  C   UNL     1      12.068   7.596  -6.254  1.00  0.00     0.134 A 
ATOM     73  C   UNL     1      10.041   6.414  -6.721  1.00  0.00     0.134 A 
ATOM     74  F   UNL     1      12.733   8.624  -5.707  1.00  0.00    -0.206 F 
ATOM     75  C   UNL     1      12.792   6.671  -7.008  1.00  0.00     0.040 A 
ATOM     76  C   UNL     1      10.756   5.467  -7.458  1.00  0.00     0.040 A 
ATOM     77  F   UNL     1       8.714   6.258  -6.614  1.00  0.00    -0.206 F 
ATOM     78  C   UNL     1      12.135   5.601  -7.612  1.00  0.00     0.006 A 
ENDBRANCH  50  71
BRANCH  62  79
ATOM     79  C   UNL     1       9.291  14.191  -7.396  1.00  0.00     0.057 A 
ATOM     80  C   UNL     1       8.767  14.090  -8.690  1.00  0.00     0.134 A 
ATOM     81  C   UNL     1      10.202  15.224  -7.143  1.00  0.00     0.134 A 
ATOM     82  F   UNL     1       7.901  13.113  -9.000  1.00  0.00    -0.206 F 
ATOM     83  C   UNL     1       9.148  14.975  -9.700  1.00  0.00     0.040 A 
ATOM     84  C   UNL     1      10.572  16.130  -8.138  1.00  0.00     0.040 A 
ATOM     85  F   UNL     1      10.735  15.380  -5.921  1.00  0.00    -0.206 F 
ATOM     86  C   UNL     1      10.048  16.003  -9.423  1.00  0.00     0.006 A 
ENDBRANCH  62  79
ENDBRANCH  36  37
ENDBRANCH  28  31
ENDBRANCH  26  27
ENDBRANCH  25  26
ENDBRANCH   1  25
TORSDOF 15
