REMARK SMILES C[C@@H](C(=O)NCCCCNC(=O)c1ccc(-c2c3nc(c(-c4c(F)cccc4F)c4ccc([nH]4)c(-c4c(F)cccc4F)c4nc(c(-c5c(F)cccc5F)c5ccc2[nH]5)C=C4)C=C3)cc1)c1ccc(-c2cccc(OC(=O)NCCCc3ccccc3)c2)c(F)c1
REMARK SMILES IDX 1 1 2 2 3 3 4 4 5 5 6 7 7 8 8 9 9 10 10 11 11 12 12 14 13 15
REMARK SMILES IDX 14 16 66 17 15 18 65 19 16 20 17 21 18 22 59 23 19 24 64 25
REMARK SMILES IDX 58 26 60 27 20 28 63 29 57 30 56 31 21 33 47 34 30 35 46 36
REMARK SMILES IDX 31 37 34 38 45 39 61 40 32 41 33 42 44 44 62 45 35 46 22 47
REMARK SMILES IDX 23 48 28 49 24 50 25 51 27 52 29 53 26 54 48 55 49 56 54 57
REMARK SMILES IDX 50 58 51 59 53 60 55 61 52 62 36 63 37 64 42 65 38 66 39 67
REMARK SMILES IDX 41 68 43 69 40 70 67 71 68 72 92 73 69 74 90 75 70 76 91 77
REMARK SMILES IDX 71 78 72 79 89 80 73 81 75 82 74 83 76 84 77 85 78 86 79 87
REMARK SMILES IDX 80 89 81 90 82 91 83 92 84 93 88 94 85 95 87 96 86 97
REMARK H PARENT 5 6 10 13 60 32 34 43 79 88
REMARK Flexibility Score: inf
ROOT
ATOM      1  C   UNL     1       1.000   0.416   0.066  1.00  0.00     0.023 C 
ATOM      2  C   UNL     1       0.491  -1.009  -0.193  1.00  0.00     0.105 C 
ENDROOT
BRANCH   2   3
ATOM      3  C   UNL     1       1.051  -1.971   0.877  1.00  0.00     0.227 C 
ATOM      4  O   UNL     1       0.365  -2.463   1.775  1.00  0.00    -0.274 OA
ATOM      5  N   UNL     1       2.363  -2.352   0.836  1.00  0.00    -0.356 N 
ATOM      6  H   UNL     1       2.596  -3.117   1.409  1.00  0.00     0.163 HD
BRANCH   5   7
ATOM      7  C   UNL     1       3.460  -1.795   0.074  1.00  0.00     0.116 C 
BRANCH   7   8
ATOM      8  C   UNL     1       4.263  -0.810   0.928  1.00  0.00     0.023 C 
BRANCH   8   9
ATOM      9  C   UNL     1       5.052  -1.451   2.072  1.00  0.00     0.023 C 
BRANCH   9  10
ATOM     10  C   UNL     1       6.046  -2.522   1.648  1.00  0.00     0.116 C 
BRANCH  10  11
ATOM     11  N   UNL     1       6.991  -2.049   0.650  1.00  0.00    -0.352 N 
ATOM     12  C   UNL     1       8.334  -2.296   0.536  1.00  0.00     0.251 C 
ATOM     13  H   UNL     1       6.610  -1.466  -0.045  1.00  0.00     0.163 HD
ATOM     14  O   UNL     1       8.994  -1.693  -0.306  1.00  0.00    -0.269 OA
BRANCH  12  15
ATOM     15  C   UNL     1       8.995  -3.257   1.443  1.00  0.00     0.039 A 
ATOM     16  C   UNL     1      10.245  -2.920   1.967  1.00  0.00     0.014 A 
ATOM     17  C   UNL     1       8.404  -4.481   1.772  1.00  0.00     0.014 A 
ATOM     18  C   UNL     1      10.876  -3.786   2.860  1.00  0.00     0.010 A 
ATOM     19  C   UNL     1       8.998  -5.307   2.723  1.00  0.00     0.010 A 
ATOM     20  C   UNL     1      10.243  -4.971   3.271  1.00  0.00    -0.014 A 
BRANCH  20  21
ATOM     21  C   UNL     1      10.884  -5.849   4.281  1.00  0.00     0.031 A 
ATOM     22  C   UNL     1      11.334  -7.237   3.919  1.00  0.00     0.074 A 
ATOM     23  C   UNL     1      11.045  -5.392   5.538  1.00  0.00     0.049 A 
ATOM     24  N   UNL     1      11.951  -8.122   4.660  1.00  0.00    -0.248 NA
ATOM     25  C   UNL     1      11.033  -7.701   2.555  1.00  0.00     0.031 C 
ATOM     26  C   UNL     1      10.585  -4.092   6.031  1.00  0.00     0.029 A 
ATOM     27  N   UNL     1      11.645  -5.968   6.629  1.00  0.00    -0.354 N 
ATOM     28  C   UNL     1      12.117  -9.241   3.854  1.00  0.00     0.074 A 
ATOM     29  C   UNL     1      11.477  -8.949   2.590  1.00  0.00     0.031 C 
ATOM     30  C   UNL     1      10.950  -3.955   7.315  1.00  0.00     0.029 A 
ATOM     31  C   UNL     1      11.646  -5.164   7.743  1.00  0.00     0.049 A 
ATOM     32  H   UNL     1      12.037  -6.870   6.615  1.00  0.00     0.167 HD
ATOM     33  C   UNL     1      12.772 -10.394   4.129  1.00  0.00     0.037 A 
ATOM     34  C   UNL     1      12.158  -5.374   8.969  1.00  0.00     0.037 A 
ATOM     35  C   UNL     1      13.414 -10.680   5.386  1.00  0.00     0.049 A 
ATOM     36  C   UNL     1      12.895  -6.655   9.244  1.00  0.00     0.074 A 
ATOM     37  C   UNL     1      14.134 -11.805   5.752  1.00  0.00     0.029 A 
ATOM     38  N   UNL     1      13.412  -9.833   6.484  1.00  0.00    -0.354 N 
ATOM     39  N   UNL     1      13.110  -7.673   8.446  1.00  0.00    -0.248 NA
ATOM     40  C   UNL     1      13.475  -6.809  10.585  1.00  0.00     0.031 C 
ATOM     41  C   UNL     1      14.536 -11.653   7.083  1.00  0.00     0.029 A 
ATOM     42  C   UNL     1      14.107 -10.415   7.532  1.00  0.00     0.049 A 
ATOM     43  H   UNL     1      12.980  -8.949   6.514  1.00  0.00     0.167 HD
ATOM     44  C   UNL     1      13.864  -8.579   9.181  1.00  0.00     0.074 A 
ATOM     45  C   UNL     1      14.094  -7.975  10.477  1.00  0.00     0.031 C 
ATOM     46  C   UNL     1      14.320  -9.803   8.819  1.00  0.00     0.037 A 
BRANCH  33  47
ATOM     47  C   UNL     1      12.842 -11.425   3.040  1.00  0.00     0.057 A 
ATOM     48  C   UNL     1      13.623 -11.229   1.893  1.00  0.00     0.134 A 
ATOM     49  C   UNL     1      12.155 -12.641   3.152  1.00  0.00     0.134 A 
ATOM     50  F   UNL     1      14.296 -10.081   1.717  1.00  0.00    -0.206 F 
ATOM     51  C   UNL     1      13.701 -12.194   0.887  1.00  0.00     0.040 A 
ATOM     52  C   UNL     1      12.247 -13.624   2.165  1.00  0.00     0.040 A 
ATOM     53  F   UNL     1      11.393 -12.897   4.226  1.00  0.00    -0.206 F 
ATOM     54  C   UNL     1      13.017 -13.399   1.026  1.00  0.00     0.006 A 
ENDBRANCH  33  47
BRANCH  34  55
ATOM     55  C   UNL     1      12.019  -4.337  10.022  1.00  0.00     0.057 A 
ATOM     56  C   UNL     1      13.125  -3.612  10.479  1.00  0.00     0.134 A 
ATOM     57  C   UNL     1      10.777  -4.053  10.604  1.00  0.00     0.134 A 
ATOM     58  F   UNL     1      14.344  -3.849   9.971  1.00  0.00    -0.206 F 
ATOM     59  C   UNL     1      13.009  -2.662  11.494  1.00  0.00     0.040 A 
ATOM     60  C   UNL     1      10.641  -3.087  11.601  1.00  0.00     0.040 A 
ATOM     61  F   UNL     1       9.677  -4.706  10.202  1.00  0.00    -0.206 F 
ATOM     62  C   UNL     1      11.761  -2.394  12.056  1.00  0.00     0.006 A 
ENDBRANCH  34  55
BRANCH  46  63
ATOM     63  C   UNL     1      15.124 -10.555   9.839  1.00  0.00     0.057 A 
ATOM     64  C   UNL     1      14.537 -11.094  10.991  1.00  0.00     0.134 A 
ATOM     65  C   UNL     1      16.501 -10.745   9.665  1.00  0.00     0.134 A 
ATOM     66  F   UNL     1      13.225 -10.937  11.223  1.00  0.00    -0.206 F 
ATOM     67  C   UNL     1      15.297 -11.762  11.953  1.00  0.00     0.040 A 
ATOM     68  C   UNL     1      17.266 -11.436  10.605  1.00  0.00     0.040 A 
ATOM     69  F   UNL     1      17.124 -10.263   8.579  1.00  0.00    -0.206 F 
ATOM     70  C   UNL     1      16.666 -11.938  11.758  1.00  0.00     0.006 A 
ENDBRANCH  46  63
ENDBRANCH  20  21
ENDBRANCH  12  15
ENDBRANCH  10  11
ENDBRANCH   9  10
ENDBRANCH   8   9
ENDBRANCH   7   8
ENDBRANCH   5   7
ENDBRANCH   2   3
BRANCH   2  71
ATOM     71  C   UNL     1      -1.036  -1.081  -0.306  1.00  0.00    -0.033 A 
ATOM     72  C   UNL     1      -1.850   0.063  -0.268  1.00  0.00     0.005 A 
ATOM     73  C   UNL     1      -1.672  -2.325  -0.455  1.00  0.00     0.044 A 
ATOM     74  C   UNL     1      -3.241  -0.034  -0.311  1.00  0.00     0.012 A 
ATOM     75  C   UNL     1      -3.065  -2.416  -0.480  1.00  0.00     0.131 A 
ATOM     76  C   UNL     1      -3.876  -1.279  -0.388  1.00  0.00     0.018 A 
ATOM     77  F   UNL     1      -3.619  -3.636  -0.568  1.00  0.00    -0.206 F 
BRANCH  76  78
ATOM     78  C   UNL     1      -5.334  -1.356  -0.253  1.00  0.00    -0.012 A 
ATOM     79  C   UNL     1      -6.192  -0.641  -1.105  1.00  0.00     0.009 A 
ATOM     80  C   UNL     1      -5.891  -2.074   0.816  1.00  0.00     0.056 A 
ATOM     81  C   UNL     1      -7.571  -0.630  -0.885  1.00  0.00     0.004 A 
ATOM     82  C   UNL     1      -7.261  -2.040   1.046  1.00  0.00     0.133 A 
ATOM     83  C   UNL     1      -8.106  -1.325   0.197  1.00  0.00     0.047 A 
BRANCH  82  84
ATOM     84  O   UNL     1      -7.900  -2.716   2.110  1.00  0.00    -0.410 OA
BRANCH  84  85
ATOM     85  C   UNL     1      -7.266  -3.252   3.228  1.00  0.00     0.412 C 
ATOM     86  O   UNL     1      -6.073  -3.198   3.491  1.00  0.00    -0.224 OA
ATOM     87  N   UNL     1      -8.136  -3.867   4.085  1.00  0.00    -0.321 N 
ATOM     88  H   UNL     1      -7.748  -4.380   4.830  1.00  0.00     0.167 HD
BRANCH  87  89
ATOM     89  C   UNL     1      -9.576  -3.827   3.989  1.00  0.00     0.120 C 
BRANCH  89  90
ATOM     90  C   UNL     1     -10.281  -5.073   4.521  1.00  0.00     0.026 C 
BRANCH  90  91
ATOM     91  C   UNL     1      -9.722  -5.744   5.782  1.00  0.00     0.037 C 
BRANCH  91  92
ATOM     92  C   UNL     1      -9.861  -5.082   7.134  1.00  0.00    -0.048 A 
ATOM     93  C   UNL     1     -10.080  -3.716   7.334  1.00  0.00     0.004 A 
ATOM     94  C   UNL     1      -9.700  -5.894   8.271  1.00  0.00     0.004 A 
ATOM     95  C   UNL     1     -10.130  -3.177   8.624  1.00  0.00     0.000 A 
ATOM     96  C   UNL     1      -9.761  -5.360   9.560  1.00  0.00     0.000 A 
ATOM     97  C   UNL     1      -9.972  -3.997   9.736  1.00  0.00     0.000 A 
ENDBRANCH  91  92
ENDBRANCH  90  91
ENDBRANCH  89  90
ENDBRANCH  87  89
ENDBRANCH  84  85
ENDBRANCH  82  84
ENDBRANCH  76  78
ENDBRANCH   2  71
TORSDOF 19
