REMARK SMILES CC(=O)C1=C(c2ccccc2)NC(=S)N[C@@H]1c1cc(Cl)ccc1OCC(=O)NCCCCNC(=O)c1ccc(-c2c3nc(c(-c4c(F)cccc4F)c4ccc([nH]4)c(-c4c(F)cccc4F)c4nc(c(-c5c(F)cccc5F)c5ccc2[nH]5)C=C4)C=C3)cc1
REMARK SMILES IDX 29 1 28 2 26 3 27 4 25 6 24 7 23 8 17 9 18 10 19 11 22 12
REMARK SMILES IDX 20 13 21 14 16 15 4 16 5 17 12 18 15 19 13 20 14 23 2 24
REMARK SMILES IDX 1 25 3 26 6 27 7 28 11 29 8 30 10 31 9 32 30 33 31 34 32 35
REMARK SMILES IDX 33 36 34 37 35 39 36 40 37 41 89 42 38 43 88 44 39 45 40 46
REMARK SMILES IDX 41 47 82 48 42 49 87 50 81 51 83 52 43 53 86 54 80 55 79 56
REMARK SMILES IDX 44 58 70 59 53 60 69 61 54 62 57 63 68 64 84 65 55 66 56 67
REMARK SMILES IDX 67 69 85 70 58 71 45 72 46 73 51 74 47 75 48 76 50 77 52 78
REMARK SMILES IDX 49 79 71 80 72 81 77 82 73 83 74 84 76 85 78 86 75 87 59 88
REMARK SMILES IDX 60 89 65 90 61 91 62 92 64 93 66 94 63 95
REMARK H PARENT 28 5 12 21 15 22 33 38 83 57 57 68
REMARK Flexibility Score: inf
ROOT
ATOM      1  C   UNL     1       5.767   5.794  -2.355  1.00  0.00     0.116 C 
ENDROOT
BRANCH   1   2
ATOM      2  N   UNL     1       4.516   5.814  -1.620  1.00  0.00    -0.353 N 
ATOM      3  C   UNL     1       4.120   4.977  -0.610  1.00  0.00     0.257 C 
ATOM      4  O   UNL     1       3.205   5.329   0.136  1.00  0.00    -0.271 OA
ATOM      5  H   UNL     1       3.874   6.515  -1.877  1.00  0.00     0.163 HD
BRANCH   3   6
ATOM      6  C   UNL     1       4.790   3.612  -0.432  1.00  0.00     0.329 C 
BRANCH   6   7
ATOM      7  O   UNL     1       5.202   2.953  -1.606  1.00  0.00    -0.483 OA
BRANCH   7   8
ATOM      8  C   UNL     1       4.453   2.081  -2.338  1.00  0.00     0.125 A 
ATOM      9  C   UNL     1       3.057   1.949  -2.500  1.00  0.00     0.023 A 
ATOM     10  C   UNL     1       2.609   1.055  -3.512  1.00  0.00     0.030 A 
ATOM     11  C   UNL     1       3.485   0.284  -4.275  1.00  0.00     0.041 A 
ATOM     12  C   UNL     1       5.319   1.296  -3.132  1.00  0.00     0.048 A 
ATOM     13  Cl  UNL     1       2.872  -0.783  -5.475  1.00  0.00    -0.084 Cl
ATOM     14  C   UNL     1       4.847   0.397  -4.084  1.00  0.00     0.024 A 
BRANCH   9  15
ATOM     15  C   UNL     1       2.002   2.798  -1.791  1.00  0.00     0.152 C 
ATOM     16  C   UNL     1       0.593   2.245  -1.687  1.00  0.00     0.046 C 
ATOM     17  C   UNL     1      -0.484   3.014  -1.943  1.00  0.00     0.057 C 
ATOM     18  N   UNL     1      -0.298   4.339  -2.265  1.00  0.00    -0.332 N 
ATOM     19  N   UNL     1       1.984   4.096  -2.454  1.00  0.00    -0.351 N 
ATOM     20  C   UNL     1       0.903   4.905  -2.529  1.00  0.00     0.171 C 
ATOM     21  H   UNL     1      -1.095   4.916  -2.306  1.00  0.00     0.169 HD
ATOM     22  H   UNL     1       2.818   4.405  -2.877  1.00  0.00     0.163 HD
ATOM     23  S   UNL     1       1.029   6.492  -3.006  1.00  0.00    -0.041 S 
BRANCH  16  24
ATOM     24  C   UNL     1       0.425   0.821  -1.275  1.00  0.00     0.160 C 
ATOM     25  C   UNL     1       1.036   0.394   0.034  1.00  0.00     0.093 C 
ATOM     26  O   UNL     1      -0.167   0.021  -1.996  1.00  0.00    -0.295 OA
ENDBRANCH  16  24
BRANCH  17  27
ATOM     27  C   UNL     1      -1.889   2.572  -1.992  1.00  0.00    -0.002 A 
ATOM     28  C   UNL     1      -2.551   2.651  -3.231  1.00  0.00     0.010 A 
ATOM     29  C   UNL     1      -2.595   2.130  -0.871  1.00  0.00     0.010 A 
ATOM     30  C   UNL     1      -3.893   2.297  -3.348  1.00  0.00     0.001 A 
ATOM     31  C   UNL     1      -3.940   1.767  -0.993  1.00  0.00     0.001 A 
ATOM     32  C   UNL     1      -4.587   1.853  -2.227  1.00  0.00     0.000 A 
ENDBRANCH  17  27
ENDBRANCH   9  15
ENDBRANCH   7   8
ENDBRANCH   6   7
ENDBRANCH   3   6
ENDBRANCH   1   2
BRANCH   1  33
ATOM     33  C   UNL     1       5.638   5.402  -3.827  1.00  0.00     0.023 C 
BRANCH  33  34
ATOM     34  C   UNL     1       4.814   6.330  -4.722  1.00  0.00     0.023 C 
BRANCH  34  35
ATOM     35  C   UNL     1       5.097   7.824  -4.608  1.00  0.00     0.116 C 
BRANCH  35  36
ATOM     36  N   UNL     1       6.485   8.167  -4.880  1.00  0.00    -0.352 N 
ATOM     37  C   UNL     1       7.015   9.130  -5.705  1.00  0.00     0.251 C 
ATOM     38  H   UNL     1       7.148   7.625  -4.396  1.00  0.00     0.163 HD
ATOM     39  O   UNL     1       8.232   9.184  -5.866  1.00  0.00    -0.269 OA
BRANCH  37  40
ATOM     40  C   UNL     1       6.138  10.073  -6.434  1.00  0.00     0.039 A 
ATOM     41  C   UNL     1       6.415  10.335  -7.780  1.00  0.00     0.014 A 
ATOM     42  C   UNL     1       5.053  10.698  -5.814  1.00  0.00     0.014 A 
ATOM     43  C   UNL     1       5.557  11.149  -8.524  1.00  0.00     0.010 A 
ATOM     44  C   UNL     1       4.159  11.451  -6.574  1.00  0.00     0.010 A 
ATOM     45  C   UNL     1       4.392  11.672  -7.940  1.00  0.00    -0.014 A 
BRANCH  45  46
ATOM     46  C   UNL     1       3.384  12.396  -8.757  1.00  0.00     0.031 A 
ATOM     47  C   UNL     1       3.059  13.837  -8.483  1.00  0.00     0.074 A 
ATOM     48  C   UNL     1       2.694  11.724  -9.699  1.00  0.00     0.049 A 
ATOM     49  N   UNL     1       2.158  14.603  -9.045  1.00  0.00    -0.248 NA
ATOM     50  C   UNL     1       3.833  14.496  -7.422  1.00  0.00     0.031 C 
ATOM     51  C   UNL     1       2.872  10.308 -10.024  1.00  0.00     0.029 A 
ATOM     52  N   UNL     1       1.690  12.135 -10.541  1.00  0.00    -0.354 N 
ATOM     53  C   UNL     1       2.250  15.831  -8.402  1.00  0.00     0.074 A 
ATOM     54  C   UNL     1       3.257  15.689  -7.371  1.00  0.00     0.031 C 
ATOM     55  C   UNL     1       2.014   9.970 -10.999  1.00  0.00     0.029 A 
ATOM     56  C   UNL     1       1.196  11.131 -11.337  1.00  0.00     0.049 A 
ATOM     57  H   UNL     1       1.357  13.061 -10.572  1.00  0.00     0.167 HD
ATOM     58  C   UNL     1       1.571  16.976  -8.658  1.00  0.00     0.037 A 
ATOM     59  C   UNL     1       0.183  11.132 -12.225  1.00  0.00     0.037 A 
ATOM     60  C   UNL     1       0.567  17.111  -9.683  1.00  0.00     0.049 A 
ATOM     61  C   UNL     1      -0.575  12.404 -12.477  1.00  0.00     0.074 A 
ATOM     62  C   UNL     1      -0.131  18.245 -10.062  1.00  0.00     0.029 A 
ATOM     63  N   UNL     1       0.101  16.074 -10.478  1.00  0.00    -0.354 N 
ATOM     64  N   UNL     1      -0.419  13.581 -11.923  1.00  0.00    -0.248 NA
ATOM     65  C   UNL     1      -1.646  12.350 -13.482  1.00  0.00     0.031 C 
ATOM     66  C   UNL     1      -1.060  17.881 -11.043  1.00  0.00     0.029 A 
ATOM     67  C   UNL     1      -0.901  16.533 -11.319  1.00  0.00     0.049 A 
ATOM     68  H   UNL     1       0.433  15.148 -10.449  1.00  0.00     0.167 HD
ATOM     69  C   UNL     1      -1.360  14.411 -12.518  1.00  0.00     0.074 A 
ATOM     70  C   UNL     1      -2.068  13.606 -13.492  1.00  0.00     0.031 C 
ATOM     71  C   UNL     1      -1.613  15.721 -12.276  1.00  0.00     0.037 A 
BRANCH  58  72
ATOM     72  C   UNL     1       1.888  18.169  -7.800  1.00  0.00     0.057 A 
ATOM     73  C   UNL     1       3.129  18.819  -7.861  1.00  0.00     0.134 A 
ATOM     74  C   UNL     1       0.938  18.681  -6.907  1.00  0.00     0.134 A 
ATOM     75  F   UNL     1       4.088  18.378  -8.690  1.00  0.00    -0.206 F 
ATOM     76  C   UNL     1       3.428  19.905  -7.036  1.00  0.00     0.040 A 
ATOM     77  C   UNL     1       1.214  19.786  -6.100  1.00  0.00     0.040 A 
ATOM     78  F   UNL     1      -0.275  18.118  -6.803  1.00  0.00    -0.206 F 
ATOM     79  C   UNL     1       2.467  20.394  -6.154  1.00  0.00     0.006 A 
ENDBRANCH  58  72
BRANCH  59  80
ATOM     80  C   UNL     1      -0.167   9.876 -12.934  1.00  0.00     0.057 A 
ATOM     81  C   UNL     1       0.102   9.712 -14.297  1.00  0.00     0.134 A 
ATOM     82  C   UNL     1      -0.748   8.796 -12.257  1.00  0.00     0.134 A 
ATOM     83  F   UNL     1       0.641  10.716 -15.004  1.00  0.00    -0.206 F 
ATOM     84  C   UNL     1      -0.201   8.524 -14.964  1.00  0.00     0.040 A 
ATOM     85  C   UNL     1      -1.032   7.593 -12.905  1.00  0.00     0.040 A 
ATOM     86  F   UNL     1      -1.023   8.887 -10.947  1.00  0.00    -0.206 F 
ATOM     87  C   UNL     1      -0.761   7.456 -14.264  1.00  0.00     0.006 A 
ENDBRANCH  59  80
BRANCH  71  88
ATOM     88  C   UNL     1      -2.697  16.373 -13.086  1.00  0.00     0.057 A 
ATOM     89  C   UNL     1      -4.051  16.076 -12.884  1.00  0.00     0.134 A 
ATOM     90  C   UNL     1      -2.386  17.338 -14.053  1.00  0.00     0.134 A 
ATOM     91  F   UNL     1      -4.418  15.151 -11.984  1.00  0.00    -0.206 F 
ATOM     92  C   UNL     1      -5.055  16.701 -13.627  1.00  0.00     0.040 A 
ATOM     93  C   UNL     1      -3.382  17.991 -14.782  1.00  0.00     0.040 A 
ATOM     94  F   UNL     1      -1.111  17.676 -14.294  1.00  0.00    -0.206 F 
ATOM     95  C   UNL     1      -4.721  17.668 -14.573  1.00  0.00     0.006 A 
ENDBRANCH  71  88
ENDBRANCH  45  46
ENDBRANCH  37  40
ENDBRANCH  35  36
ENDBRANCH  34  35
ENDBRANCH  33  34
ENDBRANCH   1  33
TORSDOF 16
