REMARK SMILES O=C(NCCCCNC(=O)[C@H]1CSC2(CCCCC2)[NH2+]1)c1ccc(-c2c3nc(c(-c4c(F)cccc4F)c4ccc([nH]4)c(-c4c(F)cccc4F)c4nc(c(-c5c(F)cccc5F)c5ccc2[nH]5)C=C4)C=C3)cc1
REMARK SMILES IDX 4 1 3 2 1 3 2 4 21 6 22 7 74 8 23 9 73 10 24 11 25 12 26 13
REMARK SMILES IDX 67 14 27 15 72 16 66 17 68 18 28 19 71 20 65 21 64 22 29 24
REMARK SMILES IDX 55 25 38 26 54 27 39 28 42 29 53 30 69 31 40 32 41 33 52 35
REMARK SMILES IDX 70 36 43 37 30 38 31 39 36 40 32 41 33 42 35 43 37 44 34 45
REMARK SMILES IDX 56 46 57 47 62 48 58 49 59 50 61 51 63 52 60 53 44 54 45 55
REMARK SMILES IDX 50 56 46 57 47 58 49 59 51 60 48 61 5 62 6 63 7 64 8 65 9 66
REMARK SMILES IDX 10 68 11 69 12 70 20 71 13 72 14 73 15 76 19 77 16 78 18 79
REMARK SMILES IDX 17 80
REMARK H PARENT 3 5 68 23 42 34 8 67 20 74 20 75
REMARK Flexibility Score: inf
ROOT
ATOM      1  C   UNL     1      11.130  -1.040 -10.211  1.00  0.00     0.116 C 
ENDROOT
BRANCH   1   2
ATOM      2  N   UNL     1      10.984   0.200 -10.958  1.00  0.00    -0.352 N 
ATOM      3  O   UNL     1      11.443   1.646 -12.644  1.00  0.00    -0.269 OA
ATOM      4  C   UNL     1      11.590   0.534 -12.148  1.00  0.00     0.251 C 
ATOM      5  H   UNL     1      10.385   0.877 -10.568  1.00  0.00     0.163 HD
BRANCH   4   6
ATOM      6  C   UNL     1      12.466  -0.462 -12.794  1.00  0.00     0.039 A 
ATOM      7  C   UNL     1      11.999  -1.757 -13.028  1.00  0.00     0.014 A 
ATOM      8  C   UNL     1      13.784  -0.113 -13.096  1.00  0.00     0.014 A 
ATOM      9  C   UNL     1      12.892  -2.743 -13.428  1.00  0.00     0.010 A 
ATOM     10  C   UNL     1      14.662  -1.090 -13.569  1.00  0.00     0.010 A 
ATOM     11  C   UNL     1      14.231  -2.419 -13.701  1.00  0.00    -0.014 A 
BRANCH  11  12
ATOM     12  C   UNL     1      15.150  -3.485 -14.165  1.00  0.00     0.031 A 
ATOM     13  C   UNL     1      16.295  -3.950 -13.311  1.00  0.00     0.074 A 
ATOM     14  C   UNL     1      14.914  -4.061 -15.358  1.00  0.00     0.049 A 
ATOM     15  N   UNL     1      17.180  -4.882 -13.559  1.00  0.00    -0.248 NA
ATOM     16  C   UNL     1      16.476  -3.281 -12.013  1.00  0.00     0.031 C 
ATOM     17  C   UNL     1      13.834  -3.684 -16.274  1.00  0.00     0.029 A 
ATOM     18  N   UNL     1      15.549  -5.093 -15.997  1.00  0.00    -0.354 N 
ATOM     19  C   UNL     1      18.035  -4.897 -12.465  1.00  0.00     0.074 A 
ATOM     20  C   UNL     1      17.573  -3.872 -11.555  1.00  0.00     0.031 C 
ATOM     21  C   UNL     1      13.854  -4.503 -17.335  1.00  0.00     0.029 A 
ATOM     22  C   UNL     1      14.977  -5.424 -17.200  1.00  0.00     0.049 A 
ATOM     23  H   UNL     1      16.338  -5.552 -15.629  1.00  0.00     0.167 HD
ATOM     24  C   UNL     1      19.106  -5.697 -12.244  1.00  0.00     0.037 A 
ATOM     25  C   UNL     1      15.324  -6.358 -18.102  1.00  0.00     0.037 A 
ATOM     26  C   UNL     1      19.547  -6.732 -13.144  1.00  0.00     0.049 A 
ATOM     27  C   UNL     1      16.511  -7.231 -17.829  1.00  0.00     0.074 A 
ATOM     28  C   UNL     1      20.602  -7.616 -12.992  1.00  0.00     0.029 A 
ATOM     29  N   UNL     1      18.956  -7.021 -14.364  1.00  0.00    -0.354 N 
ATOM     30  N   UNL     1      17.302  -7.242 -16.783  1.00  0.00    -0.248 NA
ATOM     31  C   UNL     1      16.860  -8.214 -18.862  1.00  0.00     0.031 C 
ATOM     32  C   UNL     1      20.668  -8.420 -14.135  1.00  0.00     0.029 A 
ATOM     33  C   UNL     1      19.633  -8.060 -14.983  1.00  0.00     0.049 A 
ATOM     34  H   UNL     1      18.172  -6.558 -14.736  1.00  0.00     0.167 HD
ATOM     35  C   UNL     1      18.239  -8.233 -17.029  1.00  0.00     0.074 A 
ATOM     36  C   UNL     1      17.904  -8.818 -18.312  1.00  0.00     0.031 C 
ATOM     37  C   UNL     1      19.288  -8.620 -16.264  1.00  0.00     0.037 A 
BRANCH  24  38
ATOM     38  C   UNL     1      19.890  -5.477 -10.984  1.00  0.00     0.057 A 
ATOM     39  C   UNL     1      19.415  -5.896  -9.735  1.00  0.00     0.134 A 
ATOM     40  C   UNL     1      21.159  -4.887 -11.029  1.00  0.00     0.134 A 
ATOM     41  F   UNL     1      18.202  -6.457  -9.622  1.00  0.00    -0.206 F 
ATOM     42  C   UNL     1      20.170  -5.724  -8.573  1.00  0.00     0.040 A 
ATOM     43  C   UNL     1      21.931  -4.726  -9.877  1.00  0.00     0.040 A 
ATOM     44  F   UNL     1      21.674  -4.468 -12.194  1.00  0.00    -0.206 F 
ATOM     45  C   UNL     1      21.436  -5.144  -8.643  1.00  0.00     0.006 A 
ENDBRANCH  24  38
BRANCH  25  46
ATOM     46  C   UNL     1      14.530  -6.504 -19.344  1.00  0.00     0.057 A 
ATOM     47  C   UNL     1      13.686  -7.603 -19.537  1.00  0.00     0.134 A 
ATOM     48  C   UNL     1      14.567  -5.530 -20.349  1.00  0.00     0.134 A 
ATOM     49  F   UNL     1      13.620  -8.573 -18.614  1.00  0.00    -0.206 F 
ATOM     50  C   UNL     1      12.910  -7.731 -20.689  1.00  0.00     0.040 A 
ATOM     51  C   UNL     1      13.780  -5.633 -21.495  1.00  0.00     0.040 A 
ATOM     52  F   UNL     1      15.350  -4.449 -20.214  1.00  0.00    -0.206 F 
ATOM     53  C   UNL     1      12.950  -6.739 -21.669  1.00  0.00     0.006 A 
ENDBRANCH  25  46
BRANCH  37  54
ATOM     54  C   UNL     1      20.137  -9.732 -16.799  1.00  0.00     0.057 A 
ATOM     55  C   UNL     1      21.053  -9.519 -17.837  1.00  0.00     0.134 A 
ATOM     56  C   UNL     1      20.049 -11.022 -16.262  1.00  0.00     0.134 A 
ATOM     57  F   UNL     1      21.171  -8.308 -18.401  1.00  0.00    -0.206 F 
ATOM     58  C   UNL     1      21.838 -10.558 -18.337  1.00  0.00     0.040 A 
ATOM     59  C   UNL     1      20.843 -12.064 -16.741  1.00  0.00     0.040 A 
ATOM     60  F   UNL     1      19.194 -11.287 -15.263  1.00  0.00    -0.206 F 
ATOM     61  C   UNL     1      21.736 -11.834 -17.786  1.00  0.00     0.006 A 
ENDBRANCH  37  54
ENDBRANCH  11  12
ENDBRANCH   4   6
ENDBRANCH   1   2
BRANCH   1  62
ATOM     62  C   UNL     1      10.847  -0.914  -8.718  1.00  0.00     0.023 C 
BRANCH  62  63
ATOM     63  C   UNL     1       9.494  -0.305  -8.356  1.00  0.00     0.023 C 
BRANCH  63  64
ATOM     64  C   UNL     1       8.283  -1.026  -8.943  1.00  0.00     0.116 C 
BRANCH  64  65
ATOM     65  N   UNL     1       7.787  -2.089  -8.096  1.00  0.00    -0.351 N 
ATOM     66  C   UNL     1       6.878  -2.103  -7.091  1.00  0.00     0.279 C 
ATOM     67  H   UNL     1       8.186  -2.968  -8.286  1.00  0.00     0.163 HD
ATOM     68  O   UNL     1       6.501  -3.232  -6.734  1.00  0.00    -0.268 OA
BRANCH  66  69
ATOM     69  C   UNL     1       6.327  -0.864  -6.330  1.00  0.00     0.283 C 
ATOM     70  C   UNL     1       6.477   0.552  -6.838  1.00  0.00     0.151 C 
ATOM     71  N   UNL     1       4.865  -1.056  -6.093  1.00  0.00    -0.322 N 
ATOM     72  S   UNL     1       5.176   0.711  -8.067  1.00  0.00    -0.089 SA
ATOM     73  C   UNL     1       4.088  -0.487  -7.208  1.00  0.00     0.143 C 
ATOM     74  H   UNL     1       4.600  -0.589  -5.226  1.00  0.00     0.348 HD
ATOM     75  H   UNL     1       4.667  -2.055  -6.025  1.00  0.00     0.348 HD
ATOM     76  C   UNL     1       3.585  -1.580  -8.173  1.00  0.00     0.081 C 
ATOM     77  C   UNL     1       2.891   0.282  -6.615  1.00  0.00     0.081 C 
ATOM     78  C   UNL     1       2.619  -1.055  -9.239  1.00  0.00     0.007 C 
ATOM     79  C   UNL     1       1.943   0.834  -7.685  1.00  0.00     0.007 C 
ATOM     80  C   UNL     1       1.465  -0.262  -8.632  1.00  0.00     0.001 C 
ENDBRANCH  66  69
ENDBRANCH  64  65
ENDBRANCH  63  64
ENDBRANCH  62  63
ENDBRANCH   1  62
TORSDOF 11
