REMARK SMILES O=C(CCCN1C(=O)/C(=C\c2ccc(O)c(O)c2)SC1=S)NCCCCNC(=O)c1ccc(-c2c3nc(c(-c4c(F)cccc4F)c4ccc([nH]4)c(-c4c(F)cccc4F)c4nc(c(-c5c(F)cccc5F)c5ccc2[nH]5)C=C4)C=C3)cc1
REMARK SMILES IDX 23 1 22 2 1 3 2 4 3 6 4 7 5 8 6 9 7 10 20 11 8 12 9 13 19 14
REMARK SMILES IDX 21 15 10 16 11 17 12 18 18 19 13 20 16 21 14 22 17 23 15 25
REMARK SMILES IDX 24 27 25 28 26 29 27 30 28 31 29 33 30 34 31 35 83 36 32 37
REMARK SMILES IDX 82 38 33 39 34 40 35 41 76 42 36 43 81 44 75 45 77 46 37 47
REMARK SMILES IDX 80 48 74 49 73 50 38 52 64 53 47 54 63 55 48 56 51 57 62 58
REMARK SMILES IDX 78 59 49 60 50 61 61 63 79 64 52 65 39 66 40 67 45 68 41 69
REMARK SMILES IDX 42 70 44 71 46 72 43 73 65 74 66 75 71 76 67 77 68 78 70 79
REMARK SMILES IDX 72 80 69 81 53 82 54 83 59 84 55 85 56 86 58 87 60 88 57 89
REMARK H PARENT 22 5 17 24 15 26 27 32 77 51 51 62
REMARK Flexibility Score: inf
ROOT
ATOM      1  C   UNL     1       2.015   1.165   2.210  1.00  0.00     0.116 C 
ENDROOT
BRANCH   1   2
ATOM      2  N   UNL     1       2.605   0.488   1.073  1.00  0.00    -0.356 N 
ATOM      3  O   UNL     1       0.793   0.761  -0.310  1.00  0.00    -0.275 OA
ATOM      4  C   UNL     1       1.908   0.298  -0.095  1.00  0.00     0.220 C 
ATOM      5  H   UNL     1       3.530   0.156   1.140  1.00  0.00     0.163 HD
BRANCH   4   6
ATOM      6  C   UNL     1       2.629  -0.563  -1.104  1.00  0.00     0.102 C 
BRANCH   6   7
ATOM      7  C   UNL     1       3.598   0.225  -1.977  1.00  0.00     0.032 C 
BRANCH   7   8
ATOM      8  C   UNL     1       4.982   0.506  -1.381  1.00  0.00     0.128 C 
BRANCH   8   9
ATOM      9  N   UNL     1       5.746  -0.581  -0.743  1.00  0.00    -0.293 N 
ATOM     10  C   UNL     1       6.569  -0.220   0.324  1.00  0.00     0.266 C 
ATOM     11  C   UNL     1       5.902  -1.880  -1.186  1.00  0.00     0.148 C 
ATOM     12  O   UNL     1       6.528   0.856   0.908  1.00  0.00    -0.268 OA
ATOM     13  C   UNL     1       7.473  -1.346   0.699  1.00  0.00     0.081 C 
ATOM     14  S   UNL     1       6.868  -2.789  -0.023  1.00  0.00    -0.054 SA
ATOM     15  S   UNL     1       5.349  -2.608  -2.578  1.00  0.00    -0.052 S 
ATOM     16  C   UNL     1       8.655  -1.322   1.335  1.00  0.00     0.029 C 
BRANCH  16  17
ATOM     17  C   UNL     1       9.419  -0.128   1.710  1.00  0.00    -0.020 A 
ATOM     18  C   UNL     1       8.942   0.817   2.620  1.00  0.00     0.012 A 
ATOM     19  C   UNL     1      10.682   0.061   1.126  1.00  0.00     0.058 A 
ATOM     20  C   UNL     1       9.691   1.963   2.899  1.00  0.00     0.051 A 
ATOM     21  C   UNL     1      11.413   1.206   1.413  1.00  0.00     0.157 A 
ATOM     22  C   UNL     1      10.919   2.160   2.290  1.00  0.00     0.157 A 
BRANCH  21  23
ATOM     23  O   UNL     1      12.630   1.395   0.824  1.00  0.00    -0.504 OA
ATOM     24  H   UNL     1      13.128   2.165   1.014  1.00  0.00     0.293 HD
ENDBRANCH  21  23
BRANCH  22  25
ATOM     25  O   UNL     1      11.676   3.275   2.509  1.00  0.00    -0.504 OA
ATOM     26  H   UNL     1      11.373   3.939   3.096  1.00  0.00     0.293 HD
ENDBRANCH  22  25
ENDBRANCH  16  17
ENDBRANCH   8   9
ENDBRANCH   7   8
ENDBRANCH   6   7
ENDBRANCH   4   6
ENDBRANCH   1   2
BRANCH   1  27
ATOM     27  C   UNL     1       2.448   0.524   3.527  1.00  0.00     0.023 C 
BRANCH  27  28
ATOM     28  C   UNL     1       3.944   0.643   3.843  1.00  0.00     0.023 C 
BRANCH  28  29
ATOM     29  C   UNL     1       4.478   2.072   3.932  1.00  0.00     0.116 C 
BRANCH  29  30
ATOM     30  N   UNL     1       3.832   2.832   4.994  1.00  0.00    -0.352 N 
ATOM     31  C   UNL     1       4.386   3.496   6.061  1.00  0.00     0.251 C 
ATOM     32  H   UNL     1       2.850   2.876   4.938  1.00  0.00     0.163 HD
ATOM     33  O   UNL     1       3.671   3.922   6.962  1.00  0.00    -0.269 OA
BRANCH  31  34
ATOM     34  C   UNL     1       5.848   3.690   6.135  1.00  0.00     0.039 A 
ATOM     35  C   UNL     1       6.520   3.399   7.325  1.00  0.00     0.014 A 
ATOM     36  C   UNL     1       6.555   4.185   5.041  1.00  0.00     0.014 A 
ATOM     37  C   UNL     1       7.914   3.508   7.384  1.00  0.00     0.010 A 
ATOM     38  C   UNL     1       7.946   4.258   5.095  1.00  0.00     0.010 A 
ATOM     39  C   UNL     1       8.655   3.875   6.249  1.00  0.00    -0.014 A 
BRANCH  39  40
ATOM     40  C   UNL     1      10.151   3.807   6.236  1.00  0.00     0.031 A 
ATOM     41  C   UNL     1      10.980   4.998   5.827  1.00  0.00     0.074 A 
ATOM     42  C   UNL     1      10.784   2.638   6.480  1.00  0.00     0.049 A 
ATOM     43  N   UNL     1      12.271   5.064   5.605  1.00  0.00    -0.248 NA
ATOM     44  C   UNL     1      10.264   6.253   5.559  1.00  0.00     0.031 C 
ATOM     45  C   UNL     1      10.130   1.364   6.790  1.00  0.00     0.029 A 
ATOM     46  N   UNL     1      12.125   2.323   6.492  1.00  0.00    -0.354 N 
ATOM     47  C   UNL     1      12.517   6.360   5.168  1.00  0.00     0.074 A 
ATOM     48  C   UNL     1      11.229   7.013   5.061  1.00  0.00     0.031 C 
ATOM     49  C   UNL     1      11.064   0.426   7.011  1.00  0.00     0.029 A 
ATOM     50  C   UNL     1      12.386   1.010   6.816  1.00  0.00     0.049 A 
ATOM     51  H   UNL     1      12.832   2.977   6.288  1.00  0.00     0.167 HD
ATOM     52  C   UNL     1      13.701   6.972   4.917  1.00  0.00     0.037 A 
ATOM     53  C   UNL     1      13.552   0.346   6.947  1.00  0.00     0.037 A 
ATOM     54  C   UNL     1      14.996   6.373   5.115  1.00  0.00     0.049 A 
ATOM     55  C   UNL     1      14.854   1.059   6.707  1.00  0.00     0.074 A 
ATOM     56  C   UNL     1      16.243   6.963   4.984  1.00  0.00     0.029 A 
ATOM     57  N   UNL     1      15.217   5.062   5.500  1.00  0.00    -0.354 N 
ATOM     58  N   UNL     1      15.062   2.306   6.362  1.00  0.00    -0.248 NA
ATOM     59  C   UNL     1      16.086   0.272   6.880  1.00  0.00     0.031 C 
ATOM     60  C   UNL     1      17.219   5.999   5.258  1.00  0.00     0.029 A 
ATOM     61  C   UNL     1      16.579   4.820   5.599  1.00  0.00     0.049 A 
ATOM     62  H   UNL     1      14.511   4.399   5.679  1.00  0.00     0.167 HD
ATOM     63  C   UNL     1      16.443   2.458   6.306  1.00  0.00     0.074 A 
ATOM     64  C   UNL     1      17.024   1.184   6.667  1.00  0.00     0.031 C 
ATOM     65  C   UNL     1      17.160   3.560   5.981  1.00  0.00     0.037 A 
BRANCH  52  66
ATOM     66  C   UNL     1      13.656   8.390   4.425  1.00  0.00     0.057 A 
ATOM     67  C   UNL     1      13.268   9.451   5.254  1.00  0.00     0.134 A 
ATOM     68  C   UNL     1      14.051   8.704   3.118  1.00  0.00     0.134 A 
ATOM     69  F   UNL     1      12.873   9.218   6.515  1.00  0.00    -0.206 F 
ATOM     70  C   UNL     1      13.238  10.767   4.790  1.00  0.00     0.040 A 
ATOM     71  C   UNL     1      14.055  10.019   2.652  1.00  0.00     0.040 A 
ATOM     72  F   UNL     1      14.449   7.737   2.276  1.00  0.00    -0.206 F 
ATOM     73  C   UNL     1      13.639  11.054   3.487  1.00  0.00     0.006 A 
ENDBRANCH  52  66
BRANCH  53  74
ATOM     74  C   UNL     1      13.560  -1.080   7.369  1.00  0.00     0.057 A 
ATOM     75  C   UNL     1      14.020  -1.448   8.639  1.00  0.00     0.134 A 
ATOM     76  C   UNL     1      13.146  -2.105   6.511  1.00  0.00     0.134 A 
ATOM     77  F   UNL     1      14.452  -0.512   9.497  1.00  0.00    -0.206 F 
ATOM     78  C   UNL     1      14.093  -2.785   9.034  1.00  0.00     0.040 A 
ATOM     79  C   UNL     1      13.191  -3.445   6.901  1.00  0.00     0.040 A 
ATOM     80  F   UNL     1      12.689  -1.819   5.284  1.00  0.00    -0.206 F 
ATOM     81  C   UNL     1      13.674  -3.789   8.163  1.00  0.00     0.006 A 
ENDBRANCH  53  74
BRANCH  65  82
ATOM     82  C   UNL     1      18.657   3.460   6.046  1.00  0.00     0.057 A 
ATOM     83  C   UNL     1      19.394   2.744   5.095  1.00  0.00     0.134 A 
ATOM     84  C   UNL     1      19.372   4.123   7.052  1.00  0.00     0.134 A 
ATOM     85  F   UNL     1      18.770   2.076   4.113  1.00  0.00    -0.206 F 
ATOM     86  C   UNL     1      20.788   2.675   5.152  1.00  0.00     0.040 A 
ATOM     87  C   UNL     1      20.766   4.082   7.106  1.00  0.00     0.040 A 
ATOM     88  F   UNL     1      18.728   4.832   7.991  1.00  0.00    -0.206 F 
ATOM     89  C   UNL     1      21.478   3.352   6.157  1.00  0.00     0.006 A 
ENDBRANCH  65  82
ENDBRANCH  39  40
ENDBRANCH  31  34
ENDBRANCH  29  30
ENDBRANCH  28  29
ENDBRANCH  27  28
ENDBRANCH   1  27
TORSDOF 17
