REMARK SMILES Cc1ccc(-c2cc(Cl)cc3c2O[C@H](C(F)(F)F)C(C(=O)NCCCCNC(=O)c2ccc(-c4c5nc(c(-c6c(F)cccc6F)c6ccc([nH]6)c(-c6c(F)cccc6F)c6nc(c(-c7c(F)cccc7F)c7ccc4[nH]7)C=C6)C=C5)cc2)=C3)cc1F
REMARK SMILES IDX 25 1 24 2 23 3 22 4 20 5 21 6 19 8 6 9 7 10 12 11 8 12 11 13
REMARK SMILES IDX 13 14 9 15 10 16 84 17 14 18 5 19 1 20 2 21 3 22 86 23 4 24
REMARK SMILES IDX 85 25 87 26 15 27 16 28 17 29 18 30 26 31 27 32 28 33 29 35
REMARK SMILES IDX 30 36 31 37 83 38 32 39 82 40 33 41 34 42 35 43 76 44 36 45
REMARK SMILES IDX 81 46 75 47 77 48 37 49 80 50 74 51 73 52 38 54 64 55 47 56
REMARK SMILES IDX 63 57 48 58 51 59 62 60 78 61 49 62 50 63 61 65 79 66 52 67
REMARK SMILES IDX 39 68 40 69 45 70 41 71 42 72 44 73 46 74 43 75 65 76 66 77
REMARK SMILES IDX 71 78 67 79 68 80 70 81 72 82 69 83 53 84 54 85 59 86 55 87
REMARK SMILES IDX 56 88 58 89 60 90 57 91
REMARK H PARENT 22 7 27 34 77 53 51 64
REMARK Flexibility Score: inf
ROOT
ATOM      1  C   UNL     1      -1.599  -5.632   7.680  1.00  0.00     0.023 C 
ENDROOT
BRANCH   1   2
ATOM      2  C   UNL     1      -1.669  -4.521   6.645  1.00  0.00     0.023 C 
BRANCH   2   3
ATOM      3  C   UNL     1      -1.548  -5.103   5.254  1.00  0.00     0.116 C 
BRANCH   3   4
ATOM      4  N   UNL     1      -2.818  -5.666   4.839  1.00  0.00    -0.352 N 
ATOM      5  C   UNL     1      -3.736  -5.431   3.879  1.00  0.00     0.251 C 
ATOM      6  O   UNL     1      -4.755  -6.126   3.934  1.00  0.00    -0.270 OA
ATOM      7  H   UNL     1      -3.081  -6.423   5.411  1.00  0.00     0.163 HD
BRANCH   5   8
ATOM      8  C   UNL     1      -3.571  -4.432   2.792  1.00  0.00     0.067 C 
ATOM      9  C   UNL     1      -3.154  -1.648  -0.316  1.00  0.00     0.026 A 
ATOM     10  C   UNL     1      -4.085  -1.661  -1.360  1.00  0.00     0.033 A 
ATOM     11  C   UNL     1      -3.371  -2.523   0.763  1.00  0.00     0.135 A 
ATOM     12  C   UNL     1      -5.185  -2.525  -1.316  1.00  0.00     0.042 A 
ATOM     13  C   UNL     1      -4.457  -3.403   0.804  1.00  0.00     0.019 A 
ATOM     14  O   UNL     1      -2.499  -2.428   1.812  1.00  0.00    -0.475 OA
ATOM     15  Cl  UNL     1      -6.322  -2.520  -2.607  1.00  0.00    -0.084 Cl
ATOM     16  C   UNL     1      -5.375  -3.397  -0.243  1.00  0.00     0.032 A 
ATOM     17  C   UNL     1      -4.605  -4.304   1.940  1.00  0.00     0.025 C 
ATOM     18  C   UNL     1      -2.325  -3.623   2.598  1.00  0.00     0.314 C 
BRANCH   9  19
ATOM     19  C   UNL     1      -1.974  -0.767  -0.334  1.00  0.00    -0.012 A 
ATOM     20  C   UNL     1       1.520   1.766  -0.001  1.00  0.00     0.047 C 
ATOM     21  C   UNL     1       0.302   0.906  -0.134  1.00  0.00    -0.015 A 
ATOM     22  C   UNL     1      -0.984   1.455  -0.156  1.00  0.00     0.007 A 
ATOM     23  C   UNL     1       0.436  -0.479  -0.223  1.00  0.00     0.126 A 
ATOM     24  C   UNL     1      -2.109   0.627  -0.255  1.00  0.00     0.009 A 
ATOM     25  C   UNL     1      -0.677  -1.308  -0.331  1.00  0.00     0.048 A 
ATOM     26  F   UNL     1       1.656  -1.035  -0.184  1.00  0.00    -0.207 F 
ENDBRANCH   9  19
BRANCH  18  27
ATOM     27  C   UNL     1      -1.140  -4.438   2.041  1.00  0.00     0.429 C 
ATOM     28  F   UNL     1       0.029  -3.791   2.276  1.00  0.00    -0.167 F 
ATOM     29  F   UNL     1      -1.020  -5.658   2.615  1.00  0.00    -0.167 F 
ATOM     30  F   UNL     1      -1.229  -4.643   0.708  1.00  0.00    -0.167 F 
ENDBRANCH  18  27
ENDBRANCH   5   8
ENDBRANCH   3   4
ENDBRANCH   2   3
ENDBRANCH   1   2
BRANCH   1  31
ATOM     31  C   UNL     1      -0.258  -6.370   7.733  1.00  0.00     0.116 C 
BRANCH  31  32
ATOM     32  N   UNL     1       0.942  -5.598   7.422  1.00  0.00    -0.352 N 
ATOM     33  C   UNL     1       2.094  -5.278   8.104  1.00  0.00     0.251 C 
ATOM     34  H   UNL     1       0.923  -5.220   6.513  1.00  0.00     0.163 HD
ATOM     35  O   UNL     1       3.034  -4.824   7.470  1.00  0.00    -0.269 OA
BRANCH  33  36
ATOM     36  C   UNL     1       2.141  -5.262   9.581  1.00  0.00     0.039 A 
ATOM     37  C   UNL     1       1.399  -6.117  10.388  1.00  0.00     0.014 A 
ATOM     38  C   UNL     1       2.809  -4.170  10.148  1.00  0.00     0.014 A 
ATOM     39  C   UNL     1       1.020  -5.690  11.651  1.00  0.00     0.010 A 
ATOM     40  C   UNL     1       2.517  -3.796  11.445  1.00  0.00     0.010 A 
ATOM     41  C   UNL     1       1.530  -4.487  12.148  1.00  0.00    -0.014 A 
BRANCH  41  42
ATOM     42  C   UNL     1       1.110  -3.949  13.434  1.00  0.00     0.031 A 
ATOM     43  C   UNL     1       1.155  -4.828  14.620  1.00  0.00     0.074 A 
ATOM     44  C   UNL     1       0.565  -2.713  13.522  1.00  0.00     0.049 A 
ATOM     45  N   UNL     1       0.328  -4.773  15.607  1.00  0.00    -0.248 NA
ATOM     46  C   UNL     1       2.086  -5.950  14.714  1.00  0.00     0.031 C 
ATOM     47  C   UNL     1       0.253  -1.965  14.729  1.00  0.00     0.029 A 
ATOM     48  N   UNL     1      -0.008  -1.954  12.503  1.00  0.00    -0.354 N 
ATOM     49  C   UNL     1       0.819  -5.599  16.595  1.00  0.00     0.074 A 
ATOM     50  C   UNL     1       1.777  -6.436  15.920  1.00  0.00     0.031 C 
ATOM     51  C   UNL     1      -0.634  -0.999  14.435  1.00  0.00     0.029 A 
ATOM     52  C   UNL     1      -1.048  -1.185  13.056  1.00  0.00     0.049 A 
ATOM     53  H   UNL     1       0.267  -1.956  11.557  1.00  0.00     0.167 HD
ATOM     54  C   UNL     1       0.497  -5.329  17.894  1.00  0.00     0.037 A 
ATOM     55  C   UNL     1      -2.350  -1.303  12.644  1.00  0.00     0.037 A 
ATOM     56  C   UNL     1      -0.499  -4.257  17.954  1.00  0.00     0.049 A 
ATOM     57  C   UNL     1      -3.288  -1.732  13.735  1.00  0.00     0.074 A 
ATOM     58  C   UNL     1      -0.376  -2.892  18.155  1.00  0.00     0.029 A 
ATOM     59  N   UNL     1      -1.786  -4.474  17.475  1.00  0.00    -0.354 N 
ATOM     60  N   UNL     1      -2.894  -2.378  14.795  1.00  0.00    -0.248 NA
ATOM     61  C   UNL     1      -4.724  -1.477  13.729  1.00  0.00     0.031 C 
ATOM     62  C   UNL     1      -1.579  -2.278  17.732  1.00  0.00     0.029 A 
ATOM     63  C   UNL     1      -2.446  -3.272  17.309  1.00  0.00     0.049 A 
ATOM     64  H   UNL     1      -2.172  -5.359  17.282  1.00  0.00     0.167 HD
ATOM     65  C   UNL     1      -3.966  -2.595  15.618  1.00  0.00     0.074 A 
ATOM     66  C   UNL     1      -5.090  -2.015  14.906  1.00  0.00     0.031 C 
ATOM     67  C   UNL     1      -3.817  -3.222  16.821  1.00  0.00     0.037 A 
BRANCH  54  68
ATOM     68  C   UNL     1       1.307  -5.756  19.111  1.00  0.00     0.057 A 
ATOM     69  C   UNL     1       1.160  -5.065  20.335  1.00  0.00     0.134 A 
ATOM     70  C   UNL     1       2.299  -6.753  19.148  1.00  0.00     0.134 A 
ATOM     71  F   UNL     1       0.203  -4.144  20.515  1.00  0.00    -0.206 F 
ATOM     72  C   UNL     1       1.989  -5.275  21.447  1.00  0.00     0.040 A 
ATOM     73  C   UNL     1       3.148  -6.963  20.246  1.00  0.00     0.040 A 
ATOM     74  F   UNL     1       2.489  -7.615  18.149  1.00  0.00    -0.206 F 
ATOM     75  C   UNL     1       3.007  -6.212  21.398  1.00  0.00     0.006 A 
ENDBRANCH  54  68
BRANCH  55  76
ATOM     76  C   UNL     1      -2.499  -1.697  11.214  1.00  0.00     0.057 A 
ATOM     77  C   UNL     1      -2.282  -0.691  10.259  1.00  0.00     0.134 A 
ATOM     78  C   UNL     1      -2.107  -2.995  10.887  1.00  0.00     0.134 A 
ATOM     79  F   UNL     1      -2.727   0.554  10.481  1.00  0.00    -0.206 F 
ATOM     80  C   UNL     1      -1.455  -0.908   9.156  1.00  0.00     0.040 A 
ATOM     81  C   UNL     1      -1.183  -3.180   9.864  1.00  0.00     0.040 A 
ATOM     82  F   UNL     1      -2.365  -4.023  11.709  1.00  0.00    -0.206 F 
ATOM     83  C   UNL     1      -0.826  -2.136   9.015  1.00  0.00     0.006 A 
ENDBRANCH  55  76
BRANCH  67  84
ATOM     84  C   UNL     1      -4.926  -3.730  17.707  1.00  0.00     0.057 A 
ATOM     85  C   UNL     1      -6.204  -4.083  17.253  1.00  0.00     0.134 A 
ATOM     86  C   UNL     1      -4.677  -4.015  19.070  1.00  0.00     0.134 A 
ATOM     87  F   UNL     1      -6.545  -3.989  15.961  1.00  0.00    -0.206 F 
ATOM     88  C   UNL     1      -7.184  -4.613  18.104  1.00  0.00     0.040 A 
ATOM     89  C   UNL     1      -5.626  -4.600  19.912  1.00  0.00     0.040 A 
ATOM     90  F   UNL     1      -3.491  -3.765  19.643  1.00  0.00    -0.206 F 
ATOM     91  C   UNL     1      -6.894  -4.884  19.435  1.00  0.00     0.006 A 
ENDBRANCH  67  84
ENDBRANCH  41  42
ENDBRANCH  33  36
ENDBRANCH  31  32
ENDBRANCH   1  31
TORSDOF 13
