REMARK SMILES CC1=C2C(=O)N(C[C@H]3CCCO3)C(=O)N=C2S[C@@H]1C(=O)NCCCCNC(=O)c1ccc(-c2c3nc(c(-c4c(F)cccc4F)c4ccc([nH]4)c(-c4c(F)cccc4F)c4nc(c(-c5c(F)cccc5F)c5ccc2[nH]5)C=C4)C=C3)cc1
REMARK SMILES IDX 23 1 22 2 21 3 19 4 20 5 18 7 1 8 2 9 3 10 4 11 16 12 17 13
REMARK SMILES IDX 5 14 6 15 15 16 13 17 14 18 7 19 8 20 9 21 12 22 10 23 11 24
REMARK SMILES IDX 24 25 25 26 26 27 27 28 28 30 29 31 30 32 82 33 31 34 81 35
REMARK SMILES IDX 32 36 33 37 34 38 75 39 35 40 80 41 74 42 76 43 36 44 79 45
REMARK SMILES IDX 73 46 72 47 37 49 63 50 46 51 62 52 47 53 50 54 61 55 77 56
REMARK SMILES IDX 48 57 49 58 60 60 78 61 51 62 38 63 39 64 44 65 40 66 41 67
REMARK SMILES IDX 43 68 45 69 42 70 64 71 65 72 70 73 66 74 67 75 69 76 71 77
REMARK SMILES IDX 68 78 52 79 53 80 58 81 54 82 55 83 57 84 59 85 56 86
REMARK H PARENT 21 6 26 29 76 48 50 59
REMARK Flexibility Score: inf
ROOT
ATOM      1  C   UNL     1       9.668   0.804   3.026  1.00  0.00     0.023 C 
ENDROOT
BRANCH   1   2
ATOM      2  C   UNL     1       8.829   1.333   1.868  1.00  0.00     0.116 C 
BRANCH   2   3
ATOM      3  N   UNL     1       9.554   2.310   1.078  1.00  0.00    -0.355 N 
ATOM      4  C   UNL     1      10.088   2.235  -0.175  1.00  0.00     0.237 C 
ATOM      5  O   UNL     1      10.667   3.244  -0.595  1.00  0.00    -0.273 OA
ATOM      6  H   UNL     1       9.683   3.178   1.523  1.00  0.00     0.163 HD
BRANCH   4   7
ATOM      7  C   UNL     1       9.941   1.005  -1.082  1.00  0.00     0.169 C 
ATOM      8  C   UNL     1       7.569   1.597  -1.918  1.00  0.00     0.042 C 
ATOM      9  C   UNL     1       8.517   0.598  -1.334  1.00  0.00    -0.035 C 
ATOM     10  C   UNL     1       8.219  -0.671  -1.019  1.00  0.00     0.073 C 
ATOM     11  C   UNL     1       6.934  -1.358  -1.039  1.00  0.00     0.264 C 
ATOM     12  C   UNL     1       9.348  -1.447  -0.548  1.00  0.00     0.116 C 
ATOM     13  S   UNL     1      10.774  -0.465  -0.387  1.00  0.00    -0.087 SA
ATOM     14  O   UNL     1       5.891  -0.741  -0.873  1.00  0.00    -0.268 OA
ATOM     15  N   UNL     1       7.075  -2.719  -1.153  1.00  0.00    -0.256 N 
ATOM     16  N   UNL     1       9.312  -2.696  -0.272  1.00  0.00    -0.186 NA
ATOM     17  C   UNL     1       8.153  -3.389  -0.553  1.00  0.00     0.351 C 
ATOM     18  O   UNL     1       8.083  -4.587  -0.291  1.00  0.00    -0.246 OA
BRANCH  15  19
ATOM     19  C   UNL     1       6.118  -3.511  -1.926  1.00  0.00     0.163 C 
BRANCH  19  20
ATOM     20  C   UNL     1       4.612  -3.176  -1.909  1.00  0.00     0.138 C 
ATOM     21  C   UNL     1       4.146  -1.985  -2.740  1.00  0.00     0.036 C 
ATOM     22  O   UNL     1       3.941  -4.304  -2.535  1.00  0.00    -0.376 OA
ATOM     23  C   UNL     1       4.033  -2.543  -4.130  1.00  0.00     0.031 C 
ATOM     24  C   UNL     1       3.543  -3.946  -3.870  1.00  0.00     0.160 C 
ENDBRANCH  19  20
ENDBRANCH  15  19
ENDBRANCH   4   7
ENDBRANCH   2   3
ENDBRANCH   1   2
BRANCH   1  25
ATOM     25  C   UNL     1       9.851   1.800   4.172  1.00  0.00     0.023 C 
BRANCH  25  26
ATOM     26  C   UNL     1       8.559   2.326   4.788  1.00  0.00     0.116 C 
BRANCH  26  27
ATOM     27  N   UNL     1       7.676   1.275   5.271  1.00  0.00    -0.352 N 
ATOM     28  C   UNL     1       6.883   1.272   6.392  1.00  0.00     0.251 C 
ATOM     29  H   UNL     1       7.644   0.459   4.721  1.00  0.00     0.163 HD
ATOM     30  O   UNL     1       6.264   0.264   6.716  1.00  0.00    -0.269 OA
BRANCH  28  31
ATOM     31  C   UNL     1       6.815   2.485   7.231  1.00  0.00     0.039 A 
ATOM     32  C   UNL     1       7.048   2.365   8.604  1.00  0.00     0.014 A 
ATOM     33  C   UNL     1       6.566   3.735   6.660  1.00  0.00     0.014 A 
ATOM     34  C   UNL     1       7.106   3.513   9.395  1.00  0.00     0.010 A 
ATOM     35  C   UNL     1       6.683   4.882   7.439  1.00  0.00     0.010 A 
ATOM     36  C   UNL     1       6.963   4.782   8.810  1.00  0.00    -0.014 A 
BRANCH  36  37
ATOM     37  C   UNL     1       7.122   6.019   9.613  1.00  0.00     0.031 A 
ATOM     38  C   UNL     1       5.952   6.937   9.823  1.00  0.00     0.074 A 
ATOM     39  C   UNL     1       8.341   6.355  10.079  1.00  0.00     0.049 A 
ATOM     40  N   UNL     1       5.917   8.106  10.410  1.00  0.00    -0.248 NA
ATOM     41  C   UNL     1       4.658   6.496   9.279  1.00  0.00     0.031 C 
ATOM     42  C   UNL     1       9.566   5.575   9.891  1.00  0.00     0.029 A 
ATOM     43  N   UNL     1       8.752   7.452  10.792  1.00  0.00    -0.354 N 
ATOM     44  C   UNL     1       4.608   8.551  10.284  1.00  0.00     0.074 A 
ATOM     45  C   UNL     1       3.887   7.543   9.537  1.00  0.00     0.031 C 
ATOM     46  C   UNL     1      10.589   6.214  10.482  1.00  0.00     0.029 A 
ATOM     47  C   UNL     1      10.099   7.459  11.064  1.00  0.00     0.049 A 
ATOM     48  H   UNL     1       8.141   8.167  11.082  1.00  0.00     0.167 HD
ATOM     49  C   UNL     1       4.054   9.689  10.763  1.00  0.00     0.037 A 
ATOM     50  C   UNL     1      10.854   8.372  11.704  1.00  0.00     0.037 A 
ATOM     51  C   UNL     1       4.759  10.668  11.546  1.00  0.00     0.049 A 
ATOM     52  C   UNL     1      10.204   9.609  12.257  1.00  0.00     0.074 A 
ATOM     53  C   UNL     1       4.262  11.813  12.144  1.00  0.00     0.029 A 
ATOM     54  N   UNL     1       6.111  10.615  11.843  1.00  0.00    -0.354 N 
ATOM     55  N   UNL     1       8.950   9.981  12.191  1.00  0.00    -0.248 NA
ATOM     56  C   UNL     1      11.074  10.549  12.978  1.00  0.00     0.031 C 
ATOM     57  C   UNL     1       5.321  12.468  12.782  1.00  0.00     0.029 A 
ATOM     58  C   UNL     1       6.470  11.714  12.605  1.00  0.00     0.049 A 
ATOM     59  H   UNL     1       6.726   9.902  11.555  1.00  0.00     0.167 HD
ATOM     60  C   UNL     1       8.874  11.183  12.881  1.00  0.00     0.074 A 
ATOM     61  C   UNL     1      10.207  11.473  13.368  1.00  0.00     0.031 C 
ATOM     62  C   UNL     1       7.798  11.978  13.091  1.00  0.00     0.037 A 
BRANCH  49  63
ATOM     63  C   UNL     1       2.606   9.934  10.466  1.00  0.00     0.057 A 
ATOM     64  C   UNL     1       1.591   9.226  11.121  1.00  0.00     0.134 A 
ATOM     65  C   UNL     1       2.222  10.927   9.556  1.00  0.00     0.134 A 
ATOM     66  F   UNL     1       1.895   8.254  11.995  1.00  0.00    -0.206 F 
ATOM     67  C   UNL     1       0.243   9.486  10.870  1.00  0.00     0.040 A 
ATOM     68  C   UNL     1       0.877  11.210   9.312  1.00  0.00     0.040 A 
ATOM     69  F   UNL     1       3.146  11.643   8.899  1.00  0.00    -0.206 F 
ATOM     70  C   UNL     1      -0.117  10.487   9.969  1.00  0.00     0.006 A 
ENDBRANCH  49  63
BRANCH  50  71
ATOM     71  C   UNL     1      12.310   8.147  11.874  1.00  0.00     0.057 A 
ATOM     72  C   UNL     1      12.849   7.833  13.127  1.00  0.00     0.134 A 
ATOM     73  C   UNL     1      13.198   8.264  10.798  1.00  0.00     0.134 A 
ATOM     74  F   UNL     1      12.049   7.728  14.198  1.00  0.00    -0.206 F 
ATOM     75  C   UNL     1      14.222   7.664  13.309  1.00  0.00     0.040 A 
ATOM     76  C   UNL     1      14.571   8.076  10.962  1.00  0.00     0.040 A 
ATOM     77  F   UNL     1      12.741   8.557   9.572  1.00  0.00    -0.206 F 
ATOM     78  C   UNL     1      15.087   7.783  12.223  1.00  0.00     0.006 A 
ENDBRANCH  50  71
BRANCH  62  79
ATOM     79  C   UNL     1       8.011  13.216  13.908  1.00  0.00     0.057 A 
ATOM     80  C   UNL     1       8.649  14.344  13.379  1.00  0.00     0.134 A 
ATOM     81  C   UNL     1       7.537  13.293  15.223  1.00  0.00     0.134 A 
ATOM     82  F   UNL     1       9.137  14.326  12.129  1.00  0.00    -0.206 F 
ATOM     83  C   UNL     1       8.825  15.502  14.138  1.00  0.00     0.040 A 
ATOM     84  C   UNL     1       7.688  14.452  15.984  1.00  0.00     0.040 A 
ATOM     85  F   UNL     1       6.910  12.247  15.783  1.00  0.00    -0.206 F 
ATOM     86  C   UNL     1       8.337  15.559  15.442  1.00  0.00     0.006 A 
ENDBRANCH  62  79
ENDBRANCH  36  37
ENDBRANCH  28  31
ENDBRANCH  26  27
ENDBRANCH  25  26
ENDBRANCH   1  25
TORSDOF 13
