REMARK SMILES CNc1nccc(-c2cc(C(=O)NCCCCNC(=O)c3ccc(-c4c5nc(c(-c6c(F)cccc6F)c6ccc([nH]6)c(-c6c(F)cccc6F)c6nc(c(-c7c(F)cccc7F)c7ccc4[nH]7)C=C6)C=C5)cc3)ccn2)n1
REMARK SMILES IDX 15 1 14 2 13 3 11 4 12 5 10 7 8 8 9 9 77 10 76 11 75 12 7 13
REMARK SMILES IDX 3 14 4 15 78 16 5 17 6 18 2 19 1 20 16 22 17 23 18 24 19 25
REMARK SMILES IDX 20 27 21 28 22 29 74 30 23 31 73 32 24 33 25 34 26 35 67 36
REMARK SMILES IDX 27 37 72 38 66 39 68 40 28 41 71 42 65 43 64 44 29 46 55 47
REMARK SMILES IDX 38 48 54 49 39 50 42 51 53 52 69 53 40 54 41 55 52 57 70 58
REMARK SMILES IDX 43 59 30 60 31 61 36 62 32 63 33 64 35 65 37 66 34 67 56 68
REMARK SMILES IDX 57 69 62 70 58 71 59 72 61 73 63 74 60 75 44 76 45 77 50 78
REMARK SMILES IDX 46 79 47 80 49 81 51 82 48 83
REMARK H PARENT 13 6 2 21 18 26 68 45 42 56
REMARK Flexibility Score: inf
ROOT
ATOM      1  C   UNL     1      -1.199   1.943   6.451  1.00  0.00     0.023 C 
ENDROOT
BRANCH   1   2
ATOM      2  C   UNL     1      -2.552   1.294   6.753  1.00  0.00     0.116 C 
BRANCH   2   3
ATOM      3  N   UNL     1      -3.633   2.217   6.467  1.00  0.00    -0.352 N 
ATOM      4  C   UNL     1      -4.422   2.408   5.361  1.00  0.00     0.251 C 
ATOM      5  O   UNL     1      -5.283   3.286   5.424  1.00  0.00    -0.269 OA
ATOM      6  H   UNL     1      -3.842   2.826   7.212  1.00  0.00     0.163 HD
BRANCH   4   7
ATOM      7  C   UNL     1      -4.341   1.569   4.132  1.00  0.00     0.043 A 
ATOM      8  C   UNL     1      -3.310  -0.016   2.652  1.00  0.00     0.090 A 
ATOM      9  C   UNL     1      -3.210   0.874   3.719  1.00  0.00     0.044 A 
ATOM     10  N   UNL     1      -4.446  -0.155   1.928  1.00  0.00    -0.255 NA
ATOM     11  C   UNL     1      -5.498   0.618   2.268  1.00  0.00     0.112 A 
ATOM     12  C   UNL     1      -5.502   1.465   3.361  1.00  0.00     0.034 A 
BRANCH   8  13
ATOM     13  C   UNL     1      -2.235  -0.982   2.398  1.00  0.00     0.094 A 
ATOM     14  C   UNL     1      -0.300  -1.521   1.291  1.00  0.00     0.222 A 
ATOM     15  N   UNL     1      -0.169  -2.674   1.961  1.00  0.00    -0.222 NA
ATOM     16  N   UNL     1      -1.296  -0.646   1.488  1.00  0.00    -0.211 NA
ATOM     17  C   UNL     1      -1.102  -2.961   2.881  1.00  0.00     0.117 A 
ATOM     18  C   UNL     1      -2.168  -2.144   3.144  1.00  0.00     0.051 A 
BRANCH  14  19
ATOM     19  N   UNL     1       0.702  -1.248   0.405  1.00  0.00    -0.357 N 
ATOM     20  C   UNL     1       0.821   0.024  -0.239  1.00  0.00     0.143 C 
ATOM     21  H   UNL     1       1.363  -1.949   0.203  1.00  0.00     0.163 HD
ENDBRANCH  14  19
ENDBRANCH   8  13
ENDBRANCH   4   7
ENDBRANCH   2   3
ENDBRANCH   1   2
BRANCH   1  22
ATOM     22  C   UNL     1      -0.700   2.887   7.548  1.00  0.00     0.023 C 
BRANCH  22  23
ATOM     23  C   UNL     1      -0.404   2.214   8.884  1.00  0.00     0.116 C 
BRANCH  23  24
ATOM     24  N   UNL     1       0.581   1.149   8.788  1.00  0.00    -0.352 N 
ATOM     25  C   UNL     1       1.467   0.711   9.745  1.00  0.00     0.251 C 
ATOM     26  H   UNL     1       0.620   0.680   7.923  1.00  0.00     0.163 HD
ATOM     27  O   UNL     1       2.301  -0.137   9.476  1.00  0.00    -0.269 OA
BRANCH  25  28
ATOM     28  C   UNL     1       1.425   1.314  11.094  1.00  0.00     0.039 A 
ATOM     29  C   UNL     1       2.620   1.762  11.662  1.00  0.00     0.014 A 
ATOM     30  C   UNL     1       0.217   1.462  11.779  1.00  0.00     0.014 A 
ATOM     31  C   UNL     1       2.594   2.416  12.894  1.00  0.00     0.010 A 
ATOM     32  C   UNL     1       0.183   2.177  12.971  1.00  0.00     0.010 A 
ATOM     33  C   UNL     1       1.371   2.657  13.542  1.00  0.00    -0.014 A 
BRANCH  33  34
ATOM     34  C   UNL     1       1.321   3.415  14.816  1.00  0.00     0.031 A 
ATOM     35  C   UNL     1       0.852   2.748  16.077  1.00  0.00     0.074 A 
ATOM     36  C   UNL     1       1.631   4.725  14.819  1.00  0.00     0.049 A 
ATOM     37  N   UNL     1       0.714   3.254  17.276  1.00  0.00    -0.248 NA
ATOM     38  C   UNL     1       0.452   1.337  15.970  1.00  0.00     0.031 C 
ATOM     39  C   UNL     1       2.021   5.505  13.643  1.00  0.00     0.029 A 
ATOM     40  N   UNL     1       1.652   5.636  15.845  1.00  0.00    -0.354 N 
ATOM     41  C   UNL     1       0.194   2.231  18.059  1.00  0.00     0.074 A 
ATOM     42  C   UNL     1      -0.012   1.095  17.187  1.00  0.00     0.031 C 
ATOM     43  C   UNL     1       2.259   6.772  14.017  1.00  0.00     0.029 A 
ATOM     44  C   UNL     1       2.016   6.899  15.451  1.00  0.00     0.049 A 
ATOM     45  H   UNL     1       1.427   5.405  16.775  1.00  0.00     0.167 HD
ATOM     46  C   UNL     1      -0.065   2.230  19.388  1.00  0.00     0.037 A 
ATOM     47  C   UNL     1       2.142   8.034  16.165  1.00  0.00     0.037 A 
ATOM     48  C   UNL     1       0.171   3.353  20.256  1.00  0.00     0.049 A 
ATOM     49  C   UNL     1       1.894   8.001  17.646  1.00  0.00     0.074 A 
ATOM     50  C   UNL     1       0.033   3.425  21.631  1.00  0.00     0.029 A 
ATOM     51  N   UNL     1       0.588   4.606  19.829  1.00  0.00    -0.354 N 
ATOM     52  N   UNL     1       1.505   6.997  18.395  1.00  0.00    -0.248 NA
ATOM     53  C   UNL     1       2.116   9.251  18.384  1.00  0.00     0.031 C 
ATOM     54  C   UNL     1       0.324   4.735  22.031  1.00  0.00     0.029 A 
ATOM     55  C   UNL     1       0.688   5.465  20.911  1.00  0.00     0.049 A 
ATOM     56  H   UNL     1       0.784   4.848  18.895  1.00  0.00     0.167 HD
ATOM     57  C   UNL     1       1.453   7.487  19.692  1.00  0.00     0.074 A 
ATOM     58  C   UNL     1       1.867   8.874  19.631  1.00  0.00     0.031 C 
ATOM     59  C   UNL     1       1.095   6.846  20.832  1.00  0.00     0.037 A 
BRANCH  46  60
ATOM     60  C   UNL     1      -0.632   0.971  19.976  1.00  0.00     0.057 A 
ATOM     61  C   UNL     1       0.125  -0.204  20.082  1.00  0.00     0.134 A 
ATOM     62  C   UNL     1      -1.950   0.932  20.446  1.00  0.00     0.134 A 
ATOM     63  F   UNL     1       1.391  -0.240  19.640  1.00  0.00    -0.206 F 
ATOM     64  C   UNL     1      -0.421  -1.382  20.597  1.00  0.00     0.040 A 
ATOM     65  C   UNL     1      -2.498  -0.231  20.990  1.00  0.00     0.040 A 
ATOM     66  F   UNL     1      -2.729   2.022  20.381  1.00  0.00    -0.206 F 
ATOM     67  C   UNL     1      -1.736  -1.396  21.056  1.00  0.00     0.006 A 
ENDBRANCH  46  60
BRANCH  47  68
ATOM     68  C   UNL     1       2.556   9.284  15.483  1.00  0.00     0.057 A 
ATOM     69  C   UNL     1       3.842   9.808  15.652  1.00  0.00     0.134 A 
ATOM     70  C   UNL     1       1.688   9.966  14.622  1.00  0.00     0.134 A 
ATOM     71  F   UNL     1       4.713   9.206  16.476  1.00  0.00    -0.206 F 
ATOM     72  C   UNL     1       4.249  10.972  14.998  1.00  0.00     0.040 A 
ATOM     73  C   UNL     1       2.088  11.118  13.944  1.00  0.00     0.040 A 
ATOM     74  F   UNL     1       0.446   9.506  14.410  1.00  0.00    -0.206 F 
ATOM     75  C   UNL     1       3.371  11.627  14.135  1.00  0.00     0.006 A 
ENDBRANCH  47  68
BRANCH  59  76
ATOM     76  C   UNL     1       1.150   7.633  22.108  1.00  0.00     0.057 A 
ATOM     77  C   UNL     1       0.204   8.622  22.405  1.00  0.00     0.134 A 
ATOM     78  C   UNL     1       2.135   7.368  23.068  1.00  0.00     0.134 A 
ATOM     79  F   UNL     1      -0.756   8.932  21.521  1.00  0.00    -0.206 F 
ATOM     80  C   UNL     1       0.246   9.333  23.606  1.00  0.00     0.040 A 
ATOM     81  C   UNL     1       2.172   8.055  24.282  1.00  0.00     0.040 A 
ATOM     82  F   UNL     1       3.066   6.428  22.848  1.00  0.00    -0.206 F 
ATOM     83  C   UNL     1       1.229   9.044  24.552  1.00  0.00     0.006 A 
ENDBRANCH  59  76
ENDBRANCH  33  34
ENDBRANCH  25  28
ENDBRANCH  23  24
ENDBRANCH  22  23
ENDBRANCH   1  22
TORSDOF 13
