REMARK SMILES CC(C)(C)OC(=O)N1CCC[C@H]1C(=O)N1CCC[C@H]1C(=O)N1CCC[C@@H]1C(=O)NCCCCNC(=O)c1ccc(-c2c3nc(c(-c4c(F)cccc4F)c4ccc([nH]4)c(-c4c(F)cccc4F)c4nc(c(-c5c(F)cccc5F)c5ccc2[nH]5)C=C4)C=C3)cc1
REMARK SMILES IDX 27 1 28 2 29 3 26 5 22 6 23 7 24 8 25 9 20 10 21 11 19 12
REMARK SMILES IDX 15 13 16 14 17 15 18 16 13 17 14 18 12 19 8 20 9 21 10 22
REMARK SMILES IDX 11 23 6 24 7 25 5 26 2 27 1 28 3 29 4 30 30 31 31 32 32 33
REMARK SMILES IDX 33 34 34 35 35 36 36 38 37 39 38 40 90 41 39 42 89 43 40 44
REMARK SMILES IDX 41 45 42 46 83 47 43 48 88 49 82 50 84 51 44 52 87 53 81 54
REMARK SMILES IDX 80 55 45 57 71 58 54 59 70 60 55 61 58 62 69 63 85 64 56 65
REMARK SMILES IDX 57 66 68 68 86 69 59 70 46 71 47 72 52 73 48 74 49 75 51 76
REMARK SMILES IDX 53 77 50 78 72 79 73 80 78 81 74 82 75 83 77 84 79 85 76 86
REMARK SMILES IDX 60 87 61 88 66 89 62 90 63 91 65 92 67 93 64 94
REMARK H PARENT 29 4 34 37 84 56 58 67
REMARK Flexibility Score: inf
ROOT
ATOM      1  C   UNL     1       1.596  -5.460   9.173  1.00  0.00     0.242 C 
ATOM      2  O   UNL     1       1.773  -5.998  10.272  1.00  0.00    -0.273 OA
ATOM      3  N   UNL     1       1.928  -6.202   8.079  1.00  0.00    -0.354 N 
ATOM      4  H   UNL     1       2.144  -7.144   8.266  1.00  0.00     0.163 HD
ENDROOT
BRANCH   1   5
ATOM      5  C   UNL     1       1.166  -3.984   9.085  1.00  0.00     0.174 C 
ATOM      6  N   UNL     1       0.139  -3.669   8.101  1.00  0.00    -0.329 N 
ATOM      7  C   UNL     1       0.275  -2.257   7.784  1.00  0.00     0.120 C 
ATOM      8  C   UNL     1       1.776  -2.100   7.642  1.00  0.00     0.024 C 
ATOM      9  C   UNL     1       2.330  -3.041   8.723  1.00  0.00     0.037 C 
BRANCH   6  10
ATOM     10  C   UNL     1      -1.100  -4.262   8.183  1.00  0.00     0.246 C 
ATOM     11  O   UNL     1      -1.584  -4.521   9.288  1.00  0.00    -0.272 OA
BRANCH  10  12
ATOM     12  C   UNL     1      -1.911  -4.460   6.862  1.00  0.00     0.174 C 
ATOM     13  N   UNL     1      -1.220  -5.012   5.672  1.00  0.00    -0.329 N 
ATOM     14  C   UNL     1      -1.570  -6.402   5.473  1.00  0.00     0.120 C 
ATOM     15  C   UNL     1      -2.982  -6.511   5.997  1.00  0.00     0.024 C 
ATOM     16  C   UNL     1      -3.054  -5.476   7.117  1.00  0.00     0.037 C 
BRANCH  13  17
ATOM     17  C   UNL     1      -0.496  -4.202   4.826  1.00  0.00     0.246 C 
ATOM     18  O   UNL     1       0.020  -3.164   5.242  1.00  0.00    -0.272 OA
BRANCH  17  19
ATOM     19  C   UNL     1      -0.355  -4.556   3.328  1.00  0.00     0.178 C 
ATOM     20  N   UNL     1       0.285  -3.410   2.674  1.00  0.00    -0.296 N 
ATOM     21  C   UNL     1       1.666  -3.668   2.377  1.00  0.00     0.124 C 
ATOM     22  C   UNL     1       1.623  -5.126   2.044  1.00  0.00     0.024 C 
ATOM     23  C   UNL     1       0.620  -5.701   3.048  1.00  0.00     0.037 C 
BRANCH  20  24
ATOM     24  C   UNL     1      -0.339  -2.215   2.457  1.00  0.00     0.410 C 
ATOM     25  O   UNL     1      -1.472  -1.963   2.821  1.00  0.00    -0.224 OA
BRANCH  24  26
ATOM     26  O   UNL     1       0.481  -1.402   1.753  1.00  0.00    -0.444 OA
BRANCH  26  27
ATOM     27  C   UNL     1       0.162  -0.049   1.372  1.00  0.00     0.106 C 
ATOM     28  C   UNL     1       0.975   0.175   0.089  1.00  0.00     0.056 C 
ATOM     29  C   UNL     1       0.671   0.875   2.478  1.00  0.00     0.056 C 
ATOM     30  C   UNL     1      -1.318   0.180   1.067  1.00  0.00     0.056 C 
ENDBRANCH  26  27
ENDBRANCH  24  26
ENDBRANCH  20  24
ENDBRANCH  17  19
ENDBRANCH  13  17
ENDBRANCH  10  12
ENDBRANCH   6  10
ENDBRANCH   1   5
BRANCH   3  31
ATOM     31  C   UNL     1       2.014  -5.822   6.688  1.00  0.00     0.116 C 
BRANCH  31  32
ATOM     32  C   UNL     1       3.409  -6.062   6.114  1.00  0.00     0.023 C 
BRANCH  32  33
ATOM     33  C   UNL     1       3.765  -7.539   5.887  1.00  0.00     0.023 C 
BRANCH  33  34
ATOM     34  C   UNL     1       3.006  -8.220   4.748  1.00  0.00     0.116 C 
BRANCH  34  35
ATOM     35  N   UNL     1       3.297  -7.621   3.457  1.00  0.00    -0.352 N 
ATOM     36  C   UNL     1       3.118  -8.072   2.175  1.00  0.00     0.251 C 
ATOM     37  H   UNL     1       3.699  -6.724   3.514  1.00  0.00     0.163 HD
ATOM     38  O   UNL     1       3.511  -7.377   1.238  1.00  0.00    -0.269 OA
BRANCH  36  39
ATOM     39  C   UNL     1       2.582  -9.409   1.874  1.00  0.00     0.039 A 
ATOM     40  C   UNL     1       3.097 -10.008   0.718  1.00  0.00     0.014 A 
ATOM     41  C   UNL     1       1.729 -10.120   2.718  1.00  0.00     0.014 A 
ATOM     42  C   UNL     1       2.921 -11.362   0.511  1.00  0.00     0.010 A 
ATOM     43  C   UNL     1       1.620 -11.494   2.560  1.00  0.00     0.010 A 
ATOM     44  C   UNL     1       2.275 -12.119   1.493  1.00  0.00    -0.014 A 
BRANCH  44  45
ATOM     45  C   UNL     1       2.412 -13.581   1.445  1.00  0.00     0.031 A 
ATOM     46  C   UNL     1       1.238 -14.423   1.095  1.00  0.00     0.074 A 
ATOM     47  C   UNL     1       3.628 -14.100   1.702  1.00  0.00     0.049 A 
ATOM     48  N   UNL     1       1.183 -15.713   0.914  1.00  0.00    -0.248 NA
ATOM     49  C   UNL     1      -0.050 -13.729   0.939  1.00  0.00     0.031 C 
ATOM     50  C   UNL     1       4.812 -13.323   2.093  1.00  0.00     0.029 A 
ATOM     51  N   UNL     1       4.084 -15.387   1.648  1.00  0.00    -0.354 N 
ATOM     52  C   UNL     1      -0.141 -15.988   0.616  1.00  0.00     0.074 A 
ATOM     53  C   UNL     1      -0.869 -14.741   0.696  1.00  0.00     0.031 C 
ATOM     54  C   UNL     1       5.868 -14.144   2.190  1.00  0.00     0.029 A 
ATOM     55  C   UNL     1       5.429 -15.504   1.909  1.00  0.00     0.049 A 
ATOM     56  H   UNL     1       3.506 -16.157   1.443  1.00  0.00     0.167 HD
ATOM     57  C   UNL     1      -0.684 -17.180   0.283  1.00  0.00     0.037 A 
ATOM     58  C   UNL     1       6.213 -16.596   1.908  1.00  0.00     0.037 A 
ATOM     59  C   UNL     1       0.077 -18.400   0.220  1.00  0.00     0.049 A 
ATOM     60  C   UNL     1       5.577 -17.908   1.546  1.00  0.00     0.074 A 
ATOM     61  C   UNL     1      -0.349 -19.669  -0.119  1.00  0.00     0.029 A 
ATOM     62  N   UNL     1       1.434 -18.494   0.511  1.00  0.00    -0.354 N 
ATOM     63  N   UNL     1       4.332 -18.154   1.207  1.00  0.00    -0.248 NA
ATOM     64  C   UNL     1       6.446 -19.088   1.557  1.00  0.00     0.031 C 
ATOM     65  C   UNL     1       0.737 -20.540   0.016  1.00  0.00     0.029 A 
ATOM     66  C   UNL     1       1.856 -19.806   0.384  1.00  0.00     0.049 A 
ATOM     67  H   UNL     1       2.010 -17.739   0.770  1.00  0.00     0.167 HD
ATOM     68  C   UNL     1       4.269 -19.515   0.950  1.00  0.00     0.074 A 
ATOM     69  C   UNL     1       5.612 -20.032   1.142  1.00  0.00     0.031 C 
ATOM     70  C   UNL     1       3.204 -20.276   0.594  1.00  0.00     0.037 A 
BRANCH  57  71
ATOM     71  C   UNL     1      -2.155 -17.205  -0.004  1.00  0.00     0.057 A 
ATOM     72  C   UNL     1      -2.700 -16.589  -1.139  1.00  0.00     0.134 A 
ATOM     73  C   UNL     1      -3.043 -17.836   0.876  1.00  0.00     0.134 A 
ATOM     74  F   UNL     1      -1.909 -15.943  -2.009  1.00  0.00    -0.206 F 
ATOM     75  C   UNL     1      -4.077 -16.573  -1.373  1.00  0.00     0.040 A 
ATOM     76  C   UNL     1      -4.418 -17.852   0.638  1.00  0.00     0.040 A 
ATOM     77  F   UNL     1      -2.590 -18.439   1.985  1.00  0.00    -0.206 F 
ATOM     78  C   UNL     1      -4.939 -17.212  -0.485  1.00  0.00     0.006 A 
ENDBRANCH  57  71
BRANCH  58  79
ATOM     79  C   UNL     1       7.657 -16.491   2.240  1.00  0.00     0.057 A 
ATOM     80  C   UNL     1       8.648 -16.741   1.283  1.00  0.00     0.134 A 
ATOM     81  C   UNL     1       8.086 -16.139   3.527  1.00  0.00     0.134 A 
ATOM     82  F   UNL     1       8.307 -17.091   0.035  1.00  0.00    -0.206 F 
ATOM     83  C   UNL     1      10.008 -16.670   1.598  1.00  0.00     0.040 A 
ATOM     84  C   UNL     1       9.441 -16.037   3.849  1.00  0.00     0.040 A 
ATOM     85  F   UNL     1       7.190 -15.872   4.490  1.00  0.00    -0.206 F 
ATOM     86  C   UNL     1      10.407 -16.313   2.885  1.00  0.00     0.006 A 
ENDBRANCH  58  79
BRANCH  70  87
ATOM     87  C   UNL     1       3.469 -21.736   0.381  1.00  0.00     0.057 A 
ATOM     88  C   UNL     1       3.752 -22.597   1.449  1.00  0.00     0.134 A 
ATOM     89  C   UNL     1       3.418 -22.288  -0.905  1.00  0.00     0.134 A 
ATOM     90  F   UNL     1       3.829 -22.125   2.702  1.00  0.00    -0.206 F 
ATOM     91  C   UNL     1       4.006 -23.952   1.241  1.00  0.00     0.040 A 
ATOM     92  C   UNL     1       3.637 -23.647  -1.121  1.00  0.00     0.040 A 
ATOM     93  F   UNL     1       3.142 -21.517  -1.967  1.00  0.00    -0.206 F 
ATOM     94  C   UNL     1       3.942 -24.481  -0.047  1.00  0.00     0.006 A 
ENDBRANCH  70  87
ENDBRANCH  44  45
ENDBRANCH  36  39
ENDBRANCH  34  35
ENDBRANCH  33  34
ENDBRANCH  32  33
ENDBRANCH  31  32
ENDBRANCH   3  31
TORSDOF 18
