REMARK SMILES CCN(CCC#N)C(=O)c1ccncc1/C=C/C(=O)NCCCCNC(=O)c1ccc(-c2c3nc(c(-c4c(F)cccc4F)c4ccc([nH]4)c(-c4c(F)cccc4F)c4nc(c(-c5c(F)cccc5F)c5ccc2[nH]5)C=C4)C=C3)cc1
REMARK SMILES IDX 18 1 19 2 20 3 17 5 16 6 15 7 10 8 11 9 12 10 14 11 13 12
REMARK SMILES IDX 8 13 9 14 3 15 2 16 1 17 4 18 5 19 6 20 7 21 21 22 22 23
REMARK SMILES IDX 23 24 24 25 25 26 26 27 27 29 28 30 29 31 81 32 30 33 80 34
REMARK SMILES IDX 31 35 32 36 33 37 74 38 34 39 79 40 73 41 75 42 35 43 78 44
REMARK SMILES IDX 72 45 71 46 36 48 62 49 45 50 61 51 46 52 49 53 60 54 76 55
REMARK SMILES IDX 47 56 48 57 59 59 77 60 50 61 37 62 38 63 43 64 39 65 40 66
REMARK SMILES IDX 42 67 44 68 41 69 63 70 64 71 69 72 65 73 66 74 68 75 70 76
REMARK SMILES IDX 67 77 51 78 52 79 57 80 53 81 54 82 56 83 58 84 55 85
REMARK H PARENT 20 4 25 28 75 47 49 58
REMARK Flexibility Score: inf
ROOT
ATOM      1  C   UNL     1       6.762  -2.523   1.929  1.00  0.00     0.244 C 
ATOM      2  O   UNL     1       7.875  -2.833   2.341  1.00  0.00    -0.270 OA
ATOM      3  N   UNL     1       6.242  -1.283   2.176  1.00  0.00    -0.353 N 
ATOM      4  H   UNL     1       6.797  -0.679   2.720  1.00  0.00     0.163 HD
ENDROOT
BRANCH   1   5
ATOM      5  C   UNL     1       5.882  -3.539   1.313  1.00  0.00     0.072 C 
ATOM      6  C   UNL     1       5.342  -3.468   0.081  1.00  0.00     0.016 C 
BRANCH   6   7
ATOM      7  C   UNL     1       4.237  -4.397  -0.207  1.00  0.00     0.006 A 
ATOM      8  C   UNL     1       2.862  -4.043  -0.154  1.00  0.00     0.050 A 
ATOM      9  C   UNL     1       1.969  -5.067   0.160  1.00  0.00     0.034 A 
ATOM     10  C   UNL     1       2.404  -6.386   0.124  1.00  0.00     0.112 A 
ATOM     11  C   UNL     1       4.561  -5.755  -0.269  1.00  0.00     0.119 A 
ATOM     12  N   UNL     1       3.668  -6.756  -0.134  1.00  0.00    -0.264 NA
BRANCH   8  13
ATOM     13  C   UNL     1       2.387  -2.644  -0.533  1.00  0.00     0.254 C 
ATOM     14  O   UNL     1       3.229  -1.745  -0.576  1.00  0.00    -0.269 OA
BRANCH  13  15
ATOM     15  N   UNL     1       1.066  -2.309  -0.960  1.00  0.00    -0.338 N 
BRANCH  15  16
ATOM     16  C   UNL     1       0.839  -0.878  -1.262  1.00  0.00     0.116 C 
ATOM     17  C   UNL     1       0.970   0.038  -0.049  1.00  0.00     0.027 C 
ENDBRANCH  15  16
BRANCH  15  18
ATOM     18  C   UNL     1       0.046  -3.226  -1.517  1.00  0.00     0.135 C 
BRANCH  18  19
ATOM     19  C   UNL     1       0.329  -3.720  -2.942  1.00  0.00     0.141 C 
BRANCH  19  20
ATOM     20  C   UNL     1       1.747  -4.263  -3.003  1.00  0.00     0.064 C 
ATOM     21  N   UNL     1       2.924  -4.713  -3.053  1.00  0.00    -0.198 NA
ENDBRANCH  19  20
ENDBRANCH  18  19
ENDBRANCH  15  18
ENDBRANCH  13  15
ENDBRANCH   8  13
ENDBRANCH   6   7
ENDBRANCH   1   5
BRANCH   3  22
ATOM     22  C   UNL     1       4.970  -0.755   1.732  1.00  0.00     0.116 C 
BRANCH  22  23
ATOM     23  C   UNL     1       3.917  -0.595   2.818  1.00  0.00     0.023 C 
BRANCH  23  24
ATOM     24  C   UNL     1       4.165   0.554   3.782  1.00  0.00     0.023 C 
BRANCH  24  25
ATOM     25  C   UNL     1       4.569   1.867   3.129  1.00  0.00     0.116 C 
BRANCH  25  26
ATOM     26  N   UNL     1       3.613   2.364   2.148  1.00  0.00    -0.352 N 
ATOM     27  C   UNL     1       3.253   3.668   1.900  1.00  0.00     0.251 C 
ATOM     28  H   UNL     1       3.170   1.682   1.594  1.00  0.00     0.163 HD
ATOM     29  O   UNL     1       2.367   3.934   1.095  1.00  0.00    -0.269 OA
BRANCH  27  30
ATOM     30  C   UNL     1       3.924   4.749   2.654  1.00  0.00     0.039 A 
ATOM     31  C   UNL     1       3.145   5.729   3.273  1.00  0.00     0.014 A 
ATOM     32  C   UNL     1       5.314   4.756   2.797  1.00  0.00     0.014 A 
ATOM     33  C   UNL     1       3.759   6.681   4.088  1.00  0.00     0.010 A 
ATOM     34  C   UNL     1       5.911   5.643   3.684  1.00  0.00     0.010 A 
ATOM     35  C   UNL     1       5.143   6.627   4.325  1.00  0.00    -0.014 A 
BRANCH  35  36
ATOM     36  C   UNL     1       5.816   7.619   5.200  1.00  0.00     0.031 A 
ATOM     37  C   UNL     1       6.854   8.541   4.618  1.00  0.00     0.074 A 
ATOM     38  C   UNL     1       5.541   7.654   6.519  1.00  0.00     0.049 A 
ATOM     39  N   UNL     1       7.594   9.438   5.218  1.00  0.00    -0.248 NA
ATOM     40  C   UNL     1       7.119   8.415   3.175  1.00  0.00     0.031 C 
ATOM     41  C   UNL     1       4.604   6.771   7.217  1.00  0.00     0.029 A 
ATOM     42  N   UNL     1       6.033   8.465   7.511  1.00  0.00    -0.354 N 
ATOM     43  C   UNL     1       8.424   9.961   4.233  1.00  0.00     0.074 A 
ATOM     44  C   UNL     1       8.140   9.242   3.012  1.00  0.00     0.031 C 
ATOM     45  C   UNL     1       4.570   7.106   8.517  1.00  0.00     0.029 A 
ATOM     46  C   UNL     1       5.500   8.207   8.751  1.00  0.00     0.049 A 
ATOM     47  H   UNL     1       6.705   9.166   7.349  1.00  0.00     0.167 HD
ATOM     48  C   UNL     1       9.319  10.971   4.328  1.00  0.00     0.037 A 
ATOM     49  C   UNL     1       5.734   8.796   9.938  1.00  0.00     0.037 A 
ATOM     50  C   UNL     1       9.569  11.716   5.532  1.00  0.00     0.049 A 
ATOM     51  C   UNL     1       6.703   9.945  10.008  1.00  0.00     0.074 A 
ATOM     52  C   UNL     1      10.412  12.797   5.720  1.00  0.00     0.029 A 
ATOM     53  N   UNL     1       8.965  11.461   6.754  1.00  0.00    -0.354 N 
ATOM     54  N   UNL     1       7.427  10.477   9.053  1.00  0.00    -0.248 NA
ATOM     55  C   UNL     1       6.874  10.588  11.319  1.00  0.00     0.031 C 
ATOM     56  C   UNL     1      10.342  13.177   7.064  1.00  0.00     0.029 A 
ATOM     57  C   UNL     1       9.421  12.361   7.702  1.00  0.00     0.049 A 
ATOM     58  H   UNL     1       8.310  10.745   6.923  1.00  0.00     0.167 HD
ATOM     59  C   UNL     1       8.105  11.540   9.636  1.00  0.00     0.074 A 
ATOM     60  C   UNL     1       7.699  11.583  11.025  1.00  0.00     0.031 C 
ATOM     61  C   UNL     1       8.984  12.405   9.073  1.00  0.00     0.037 A 
BRANCH  48  62
ATOM     62  C   UNL     1      10.082  11.339   3.089  1.00  0.00     0.057 A 
ATOM     63  C   UNL     1       9.461  11.967   2.000  1.00  0.00     0.134 A 
ATOM     64  C   UNL     1      11.456  11.092   2.994  1.00  0.00     0.134 A 
ATOM     65  F   UNL     1       8.143  12.218   2.021  1.00  0.00    -0.206 F 
ATOM     66  C   UNL     1      10.176  12.313   0.852  1.00  0.00     0.040 A 
ATOM     67  C   UNL     1      12.187  11.459   1.863  1.00  0.00     0.040 A 
ATOM     68  F   UNL     1      12.113  10.497   4.001  1.00  0.00    -0.206 F 
ATOM     69  C   UNL     1      11.545  12.066   0.785  1.00  0.00     0.006 A 
ENDBRANCH  48  62
BRANCH  49  70
ATOM     70  C   UNL     1       5.011   8.345  11.155  1.00  0.00     0.057 A 
ATOM     71  C   UNL     1       4.040   9.153  11.759  1.00  0.00     0.134 A 
ATOM     72  C   UNL     1       5.292   7.115  11.760  1.00  0.00     0.134 A 
ATOM     73  F   UNL     1       3.739  10.351  11.236  1.00  0.00    -0.206 F 
ATOM     74  C   UNL     1       3.397   8.770  12.937  1.00  0.00     0.040 A 
ATOM     75  C   UNL     1       4.638   6.707  12.924  1.00  0.00     0.040 A 
ATOM     76  F   UNL     1       6.205   6.290  11.226  1.00  0.00    -0.206 F 
ATOM     77  C   UNL     1       3.694   7.541  13.521  1.00  0.00     0.006 A 
ENDBRANCH  49  70
BRANCH  61  78
ATOM     78  C   UNL     1       9.513  13.508   9.940  1.00  0.00     0.057 A 
ATOM     79  C   UNL     1      10.435  13.271  10.967  1.00  0.00     0.134 A 
ATOM     80  C   UNL     1       9.114  14.833   9.721  1.00  0.00     0.134 A 
ATOM     81  F   UNL     1      10.849  12.023  11.234  1.00  0.00    -0.206 F 
ATOM     82  C   UNL     1      10.919  14.309  11.765  1.00  0.00     0.040 A 
ATOM     83  C   UNL     1       9.611  15.882  10.494  1.00  0.00     0.040 A 
ATOM     84  F   UNL     1       8.241  15.130   8.746  1.00  0.00    -0.206 F 
ATOM     85  C   UNL     1      10.511  15.620  11.525  1.00  0.00     0.006 A 
ENDBRANCH  61  78
ENDBRANCH  35  36
ENDBRANCH  27  30
ENDBRANCH  25  26
ENDBRANCH  24  25
ENDBRANCH  23  24
ENDBRANCH  22  23
ENDBRANCH   3  22
TORSDOF 18
