REMARK SMILES C[C@@H](NC(=O)CNC(=O)N1CC(=O)Nc2ccccc21)C(=O)NCCCCNC(=O)c1ccc(-c2c3nc(c(-c4c(F)cccc4F)c4ccc([nH]4)c(-c4c(F)cccc4F)c4nc(c(-c5c(F)cccc5F)c5ccc2[nH]5)C=C4)C=C3)cc1
REMARK SMILES IDX 24 1 23 2 21 3 22 4 2 6 1 7 3 8 4 9 5 11 6 12 7 13 8 14 9 16
REMARK SMILES IDX 10 17 11 18 20 19 12 20 15 21 19 22 13 23 14 24 16 25 18 26
REMARK SMILES IDX 17 28 25 29 26 30 27 31 28 32 29 33 30 35 31 36 32 37 84 38
REMARK SMILES IDX 33 39 83 40 34 41 35 42 36 43 77 44 37 45 82 46 76 47 78 48
REMARK SMILES IDX 38 49 81 50 75 51 74 52 39 54 65 55 48 56 64 57 49 58 52 59
REMARK SMILES IDX 63 60 79 61 50 62 51 63 62 65 80 66 53 67 40 68 41 69 46 70
REMARK SMILES IDX 42 71 43 72 45 73 47 74 44 75 66 76 67 77 72 78 68 79 69 80
REMARK SMILES IDX 71 81 73 82 70 83 54 84 55 85 60 86 56 87 57 88 59 89 61 90
REMARK SMILES IDX 58 91
REMARK H PARENT 23 5 3 10 7 15 14 27 28 34 78 53 52 64
REMARK Flexibility Score: inf
ROOT
ATOM      1  C   UNL     1      -0.345  -1.452   1.774  1.00  0.00     0.116 C 
ENDROOT
BRANCH   1   2
ATOM      2  N   UNL     1      -0.613  -0.371   0.848  1.00  0.00    -0.354 N 
ATOM      3  C   UNL     1      -0.001  -0.074  -0.331  1.00  0.00     0.242 C 
ATOM      4  O   UNL     1      -0.190   1.043  -0.819  1.00  0.00    -0.273 OA
ATOM      5  H   UNL     1      -1.344   0.235   1.109  1.00  0.00     0.163 HD
BRANCH   3   6
ATOM      6  C   UNL     1       1.047  -1.006  -0.963  1.00  0.00     0.168 C 
ATOM      7  C   UNL     1       2.411  -0.582  -0.422  1.00  0.00     0.041 C 
BRANCH   6   8
ATOM      8  N   UNL     1       0.825  -2.436  -0.761  1.00  0.00    -0.343 N 
ATOM      9  C   UNL     1      -0.176  -3.222  -1.259  1.00  0.00     0.240 C 
ATOM     10  H   UNL     1       1.483  -2.894  -0.190  1.00  0.00     0.164 HD
ATOM     11  O   UNL     1      -0.191  -4.411  -0.935  1.00  0.00    -0.273 OA
BRANCH   9  12
ATOM     12  C   UNL     1      -1.334  -2.600  -2.045  1.00  0.00     0.218 C 
BRANCH  12  13
ATOM     13  N   UNL     1      -2.425  -2.228  -1.150  1.00  0.00    -0.329 N 
ATOM     14  C   UNL     1      -3.152  -1.064  -1.172  1.00  0.00     0.322 C 
ATOM     15  H   UNL     1      -2.667  -2.883  -0.455  1.00  0.00     0.165 HD
ATOM     16  O   UNL     1      -3.641  -0.670  -0.119  1.00  0.00    -0.248 OA
BRANCH  14  17
ATOM     17  N   UNL     1      -3.212  -0.410  -2.384  1.00  0.00    -0.283 N 
ATOM     18  C   UNL     1      -3.583  -1.126  -3.601  1.00  0.00     0.227 C 
ATOM     19  C   UNL     1      -2.902   0.972  -2.544  1.00  0.00     0.070 A 
ATOM     20  C   UNL     1      -2.643  -0.838  -4.757  1.00  0.00     0.244 C 
ATOM     21  C   UNL     1      -2.319   1.366  -3.768  1.00  0.00     0.065 A 
ATOM     22  C   UNL     1      -3.010   1.912  -1.518  1.00  0.00     0.028 A 
ATOM     23  O   UNL     1      -2.468  -1.625  -5.684  1.00  0.00    -0.273 OA
ATOM     24  N   UNL     1      -2.136   0.435  -4.803  1.00  0.00    -0.323 N 
ATOM     25  C   UNL     1      -1.820   2.658  -3.940  1.00  0.00     0.028 A 
ATOM     26  C   UNL     1      -2.531   3.215  -1.702  1.00  0.00     0.002 A 
ATOM     27  H   UNL     1      -1.620   0.707  -5.596  1.00  0.00     0.170 HD
ATOM     28  C   UNL     1      -1.925   3.582  -2.903  1.00  0.00     0.002 A 
ENDBRANCH  14  17
ENDBRANCH  12  13
ENDBRANCH   9  12
ENDBRANCH   6   8
ENDBRANCH   3   6
ENDBRANCH   1   2
BRANCH   1  29
ATOM     29  C   UNL     1      -0.952  -1.189   3.149  1.00  0.00     0.023 C 
BRANCH  29  30
ATOM     30  C   UNL     1      -2.476  -1.335   3.209  1.00  0.00     0.023 C 
BRANCH  30  31
ATOM     31  C   UNL     1      -3.005  -2.735   2.904  1.00  0.00     0.116 C 
BRANCH  31  32
ATOM     32  N   UNL     1      -2.518  -3.728   3.851  1.00  0.00    -0.352 N 
ATOM     33  C   UNL     1      -3.201  -4.464   4.784  1.00  0.00     0.251 C 
ATOM     34  H   UNL     1      -1.548  -3.896   3.816  1.00  0.00     0.163 HD
ATOM     35  O   UNL     1      -2.581  -5.096   5.639  1.00  0.00    -0.269 OA
BRANCH  33  36
ATOM     36  C   UNL     1      -4.678  -4.498   4.780  1.00  0.00     0.039 A 
ATOM     37  C   UNL     1      -5.357  -4.379   5.996  1.00  0.00     0.014 A 
ATOM     38  C   UNL     1      -5.393  -4.687   3.595  1.00  0.00     0.014 A 
ATOM     39  C   UNL     1      -6.754  -4.392   6.016  1.00  0.00     0.010 A 
ATOM     40  C   UNL     1      -6.786  -4.635   3.607  1.00  0.00     0.010 A 
ATOM     41  C   UNL     1      -7.480  -4.491   4.818  1.00  0.00    -0.014 A 
BRANCH  41  42
ATOM     42  C   UNL     1      -8.965  -4.446   4.820  1.00  0.00     0.031 A 
ATOM     43  C   UNL     1      -9.764  -5.651   4.404  1.00  0.00     0.074 A 
ATOM     44  C   UNL     1      -9.596  -3.303   5.151  1.00  0.00     0.049 A 
ATOM     45  N   UNL     1     -11.062  -5.787   4.305  1.00  0.00    -0.248 NA
ATOM     46  C   UNL     1      -9.004  -6.854   4.031  1.00  0.00     0.031 C 
ATOM     47  C   UNL     1      -8.936  -2.053   5.531  1.00  0.00     0.029 A 
ATOM     48  N   UNL     1     -10.934  -3.005   5.213  1.00  0.00    -0.354 N 
ATOM     49  C   UNL     1     -11.273  -7.081   3.846  1.00  0.00     0.074 A 
ATOM     50  C   UNL     1      -9.969  -7.675   3.644  1.00  0.00     0.031 C 
ATOM     51  C   UNL     1      -9.871  -1.130   5.809  1.00  0.00     0.029 A 
ATOM     52  C   UNL     1     -11.193  -1.711   5.594  1.00  0.00     0.049 A 
ATOM     53  H   UNL     1     -11.641  -3.657   5.005  1.00  0.00     0.167 HD
ATOM     54  C   UNL     1     -12.447  -7.723   3.632  1.00  0.00     0.037 A 
ATOM     55  C   UNL     1     -12.363  -1.064   5.747  1.00  0.00     0.037 A 
ATOM     56  C   UNL     1     -13.744  -7.141   3.857  1.00  0.00     0.049 A 
ATOM     57  C   UNL     1     -13.651  -1.797   5.497  1.00  0.00     0.074 A 
ATOM     58  C   UNL     1     -14.988  -7.735   3.732  1.00  0.00     0.029 A 
ATOM     59  N   UNL     1     -13.964  -5.830   4.252  1.00  0.00    -0.354 N 
ATOM     60  N   UNL     1     -13.836  -3.043   5.132  1.00  0.00    -0.248 NA
ATOM     61  C   UNL     1     -14.894  -1.036   5.683  1.00  0.00     0.031 C 
ATOM     62  C   UNL     1     -15.963  -6.771   4.009  1.00  0.00     0.029 A 
ATOM     63  C   UNL     1     -15.325  -5.590   4.351  1.00  0.00     0.049 A 
ATOM     64  H   UNL     1     -13.258  -5.169   4.434  1.00  0.00     0.167 HD
ATOM     65  C   UNL     1     -15.212  -3.222   5.074  1.00  0.00     0.074 A 
ATOM     66  C   UNL     1     -15.815  -1.961   5.452  1.00  0.00     0.031 C 
ATOM     67  C   UNL     1     -15.912  -4.332   4.737  1.00  0.00     0.037 A 
BRANCH  54  68
ATOM     68  C   UNL     1     -12.381  -9.135   3.129  1.00  0.00     0.057 A 
ATOM     69  C   UNL     1     -11.956 -10.191   3.945  1.00  0.00     0.134 A 
ATOM     70  C   UNL     1     -12.787  -9.450   1.825  1.00  0.00     0.134 A 
ATOM     71  F   UNL     1     -11.545  -9.957   5.201  1.00  0.00    -0.206 F 
ATOM     72  C   UNL     1     -11.913 -11.506   3.476  1.00  0.00     0.040 A 
ATOM     73  C   UNL     1     -12.773 -10.763   1.353  1.00  0.00     0.040 A 
ATOM     74  F   UNL     1     -13.212  -8.487   0.993  1.00  0.00    -0.206 F 
ATOM     75  C   UNL     1     -12.329 -11.795   2.178  1.00  0.00     0.006 A 
ENDBRANCH  54  68
BRANCH  55  76
ATOM     76  C   UNL     1     -12.376   0.355   6.184  1.00  0.00     0.057 A 
ATOM     77  C   UNL     1     -12.824   0.712   7.461  1.00  0.00     0.134 A 
ATOM     78  C   UNL     1     -11.954   1.386   5.337  1.00  0.00     0.134 A 
ATOM     79  F   UNL     1     -13.260  -0.230   8.310  1.00  0.00    -0.206 F 
ATOM     80  C   UNL     1     -12.870   2.044   7.874  1.00  0.00     0.040 A 
ATOM     81  C   UNL     1     -11.971   2.720   5.745  1.00  0.00     0.040 A 
ATOM     82  F   UNL     1     -11.509   1.109   4.102  1.00  0.00    -0.206 F 
ATOM     83  C   UNL     1     -12.437   3.052   7.016  1.00  0.00     0.006 A 
ENDBRANCH  55  76
BRANCH  67  84
ATOM     84  C   UNL     1     -17.409  -4.244   4.797  1.00  0.00     0.057 A 
ATOM     85  C   UNL     1     -18.146  -3.530   3.845  1.00  0.00     0.134 A 
ATOM     86  C   UNL     1     -18.122  -4.913   5.800  1.00  0.00     0.134 A 
ATOM     87  F   UNL     1     -17.522  -2.857   2.867  1.00  0.00    -0.206 F 
ATOM     88  C   UNL     1     -19.540  -3.467   3.900  1.00  0.00     0.040 A 
ATOM     89  C   UNL     1     -19.515  -4.879   5.851  1.00  0.00     0.040 A 
ATOM     90  F   UNL     1     -17.476  -5.622   6.739  1.00  0.00    -0.206 F 
ATOM     91  C   UNL     1     -20.228  -4.149   4.902  1.00  0.00     0.006 A 
ENDBRANCH  67  84
ENDBRANCH  41  42
ENDBRANCH  33  36
ENDBRANCH  31  32
ENDBRANCH  30  31
ENDBRANCH  29  30
ENDBRANCH   1  29
TORSDOF 15
