REMARK SMILES CC(=O)N(C)n1cnn(CC(=O)NCCCCNC(=O)c2ccc(-c3c4nc(c(-c5c(F)cccc5F)c5ccc([nH]5)c(-c5c(F)cccc5F)c5nc(c(-c6c(F)cccc6F)c6ccc3[nH]6)C=C5)C=C4)cc2)c1=S
REMARK SMILES IDX 15 1 14 2 13 3 11 4 12 5 10 7 9 8 6 9 7 10 75 11 8 12 76 13
REMARK SMILES IDX 4 14 5 15 2 16 1 17 3 18 16 19 17 20 18 21 19 22 20 24 21 25
REMARK SMILES IDX 22 26 74 27 23 28 73 29 24 30 25 31 26 32 67 33 27 34 72 35
REMARK SMILES IDX 66 36 68 37 28 38 71 39 65 40 64 41 29 43 55 44 38 45 54 46
REMARK SMILES IDX 39 47 42 48 53 49 69 50 40 51 41 52 52 54 70 55 43 56 30 57
REMARK SMILES IDX 31 58 36 59 32 60 33 61 35 62 37 63 34 64 56 65 57 66 62 67
REMARK SMILES IDX 58 68 59 69 61 70 63 71 60 72 44 73 45 74 50 75 46 76 47 77
REMARK SMILES IDX 49 78 51 79 48 80
REMARK H PARENT 13 6 18 23 68 42 42 53
REMARK Flexibility Score: inf
ROOT
ATOM      1  C   UNL     1       1.379  -2.285   5.557  1.00  0.00     0.023 C 
ENDROOT
BRANCH   1   2
ATOM      2  C   UNL     1       1.870  -3.705   5.845  1.00  0.00     0.116 C 
BRANCH   2   3
ATOM      3  N   UNL     1       0.853  -4.553   6.428  1.00  0.00    -0.354 N 
ATOM      4  C   UNL     1       0.124  -5.560   5.858  1.00  0.00     0.241 C 
ATOM      5  O   UNL     1      -0.539  -6.267   6.626  1.00  0.00    -0.273 OA
ATOM      6  H   UNL     1       0.656  -4.379   7.376  1.00  0.00     0.163 HD
BRANCH   4   7
ATOM      7  C   UNL     1       0.276  -5.944   4.382  1.00  0.00     0.247 C 
BRANCH   7   8
ATOM      8  N   UNL     1       0.131  -4.849   3.430  1.00  0.00    -0.227 N 
ATOM      9  N   UNL     1       0.355  -3.300   1.864  1.00  0.00    -0.211 N 
ATOM     10  C   UNL     1      -0.876  -3.276   2.425  1.00  0.00     0.247 A 
ATOM     11  C   UNL     1       1.045  -4.335   2.480  1.00  0.00     0.217 A 
ATOM     12  N   UNL     1      -1.073  -4.169   3.341  1.00  0.00    -0.158 NA
ATOM     13  S   UNL     1       2.586  -4.900   2.179  1.00  0.00    -0.037 S 
BRANCH   9  14
ATOM     14  N   UNL     1       0.804  -2.362   0.918  1.00  0.00    -0.250 N 
ATOM     15  C   UNL     1       1.448  -2.920  -0.260  1.00  0.00     0.176 C 
BRANCH  14  16
ATOM     16  C   UNL     1       0.600  -1.014   1.182  1.00  0.00     0.238 C 
ATOM     17  C   UNL     1       1.002  -0.046   0.098  1.00  0.00     0.116 C 
ATOM     18  O   UNL     1       0.092  -0.599   2.225  1.00  0.00    -0.273 OA
ENDBRANCH  14  16
ENDBRANCH   9  14
ENDBRANCH   7   8
ENDBRANCH   4   7
ENDBRANCH   2   3
ENDBRANCH   1   2
BRANCH   1  19
ATOM     19  C   UNL     1       1.106  -1.413   6.792  1.00  0.00     0.023 C 
BRANCH  19  20
ATOM     20  C   UNL     1       2.324  -1.133   7.663  1.00  0.00     0.116 C 
BRANCH  20  21
ATOM     21  N   UNL     1       3.367  -0.357   6.980  1.00  0.00    -0.352 N 
ATOM     22  C   UNL     1       4.625  -0.028   7.451  1.00  0.00     0.251 C 
ATOM     23  H   UNL     1       3.144  -0.031   6.078  1.00  0.00     0.163 HD
ATOM     24  O   UNL     1       5.252   0.932   6.995  1.00  0.00    -0.269 OA
BRANCH  22  25
ATOM     25  C   UNL     1       5.228  -0.871   8.492  1.00  0.00     0.039 A 
ATOM     26  C   UNL     1       5.969  -0.358   9.564  1.00  0.00     0.014 A 
ATOM     27  C   UNL     1       4.990  -2.235   8.381  1.00  0.00     0.014 A 
ATOM     28  C   UNL     1       6.407  -1.234  10.558  1.00  0.00     0.010 A 
ATOM     29  C   UNL     1       5.220  -3.044   9.452  1.00  0.00     0.010 A 
ATOM     30  C   UNL     1       6.017  -2.578  10.491  1.00  0.00    -0.014 A 
BRANCH  30  31
ATOM     31  C   UNL     1       6.314  -3.549  11.536  1.00  0.00     0.031 A 
ATOM     32  C   UNL     1       5.698  -3.230  12.852  1.00  0.00     0.074 A 
ATOM     33  C   UNL     1       6.809  -4.767  11.209  1.00  0.00     0.049 A 
ATOM     34  N   UNL     1       6.297  -2.998  13.973  1.00  0.00    -0.248 NA
ATOM     35  C   UNL     1       4.245  -2.982  12.898  1.00  0.00     0.031 C 
ATOM     36  C   UNL     1       7.145  -5.271   9.867  1.00  0.00     0.029 A 
ATOM     37  N   UNL     1       6.980  -5.873  11.982  1.00  0.00    -0.354 N 
ATOM     38  C   UNL     1       5.282  -2.820  14.912  1.00  0.00     0.074 A 
ATOM     39  C   UNL     1       4.082  -2.581  14.160  1.00  0.00     0.031 C 
ATOM     40  C   UNL     1       7.240  -6.618   9.892  1.00  0.00     0.029 A 
ATOM     41  C   UNL     1       7.136  -7.062  11.266  1.00  0.00     0.049 A 
ATOM     42  H   UNL     1       6.993  -5.838  12.966  1.00  0.00     0.167 HD
ATOM     43  C   UNL     1       5.462  -3.193  16.210  1.00  0.00     0.037 A 
ATOM     44  C   UNL     1       7.141  -8.321  11.777  1.00  0.00     0.037 A 
ATOM     45  C   UNL     1       6.868  -3.369  16.494  1.00  0.00     0.049 A 
ATOM     46  C   UNL     1       7.388  -8.193  13.235  1.00  0.00     0.074 A 
ATOM     47  C   UNL     1       7.986  -2.561  16.414  1.00  0.00     0.029 A 
ATOM     48  N   UNL     1       7.344  -4.657  16.552  1.00  0.00    -0.354 N 
ATOM     49  N   UNL     1       8.520  -7.785  13.738  1.00  0.00    -0.248 NA
ATOM     50  C   UNL     1       6.227  -8.038  14.098  1.00  0.00     0.031 C 
ATOM     51  C   UNL     1       9.023  -3.414  15.933  1.00  0.00     0.029 A 
ATOM     52  C   UNL     1       8.510  -4.707  15.835  1.00  0.00     0.049 A 
ATOM     53  H   UNL     1       6.921  -5.410  17.025  1.00  0.00     0.167 HD
ATOM     54  C   UNL     1       8.157  -6.927  14.767  1.00  0.00     0.074 A 
ATOM     55  C   UNL     1       6.734  -7.183  14.992  1.00  0.00     0.031 C 
ATOM     56  C   UNL     1       8.958  -5.879  15.121  1.00  0.00     0.037 A 
BRANCH  43  57
ATOM     57  C   UNL     1       4.391  -3.820  17.082  1.00  0.00     0.057 A 
ATOM     58  C   UNL     1       4.717  -4.150  18.412  1.00  0.00     0.134 A 
ATOM     59  C   UNL     1       3.189  -4.391  16.613  1.00  0.00     0.134 A 
ATOM     60  F   UNL     1       5.824  -3.660  18.992  1.00  0.00    -0.206 F 
ATOM     61  C   UNL     1       3.978  -5.070  19.166  1.00  0.00     0.040 A 
ATOM     62  C   UNL     1       2.417  -5.273  17.376  1.00  0.00     0.040 A 
ATOM     63  F   UNL     1       2.732  -4.215  15.370  1.00  0.00    -0.206 F 
ATOM     64  C   UNL     1       2.832  -5.649  18.641  1.00  0.00     0.006 A 
ENDBRANCH  43  57
BRANCH  44  65
ATOM     65  C   UNL     1       6.680  -9.590  11.165  1.00  0.00     0.057 A 
ATOM     66  C   UNL     1       7.034 -10.835  11.709  1.00  0.00     0.134 A 
ATOM     67  C   UNL     1       5.657  -9.614  10.200  1.00  0.00     0.134 A 
ATOM     68  F   UNL     1       7.971 -10.917  12.665  1.00  0.00    -0.206 F 
ATOM     69  C   UNL     1       6.393 -12.026  11.336  1.00  0.00     0.040 A 
ATOM     70  C   UNL     1       5.012 -10.795   9.816  1.00  0.00     0.040 A 
ATOM     71  F   UNL     1       5.188  -8.479   9.662  1.00  0.00    -0.206 F 
ATOM     72  C   UNL     1       5.369 -12.006  10.395  1.00  0.00     0.006 A 
ENDBRANCH  44  65
BRANCH  56  73
ATOM     73  C   UNL     1      10.343  -5.821  14.533  1.00  0.00     0.057 A 
ATOM     74  C   UNL     1      10.618  -5.659  13.166  1.00  0.00     0.134 A 
ATOM     75  C   UNL     1      11.436  -5.766  15.403  1.00  0.00     0.134 A 
ATOM     76  F   UNL     1       9.634  -5.597  12.262  1.00  0.00    -0.206 F 
ATOM     77  C   UNL     1      11.920  -5.489  12.686  1.00  0.00     0.040 A 
ATOM     78  C   UNL     1      12.738  -5.564  14.941  1.00  0.00     0.040 A 
ATOM     79  F   UNL     1      11.247  -5.855  16.729  1.00  0.00    -0.206 F 
ATOM     80  C   UNL     1      12.986  -5.434  13.577  1.00  0.00     0.006 A 
ENDBRANCH  56  73
ENDBRANCH  30  31
ENDBRANCH  22  25
ENDBRANCH  20  21
ENDBRANCH  19  20
ENDBRANCH   1  19
TORSDOF 14
