REMARK SMILES CNC(=O)C[N@H+]1CC[C@@H](C(=O)NCCCCNC(=O)c2ccc(-c3c4nc(c(-c5c(F)cccc5F)c5ccc([nH]5)c(-c5c(F)cccc5F)c5nc(c(-c6c(F)cccc6F)c6ccc3[nH]6)C=C5)C=C4)cc2)[C@H]1C
REMARK SMILES IDX 14 1 13 2 12 3 10 4 11 5 9 7 6 8 7 9 74 10 8 12 75 13 5 14
REMARK SMILES IDX 3 15 1 16 2 17 4 19 15 20 16 21 17 22 18 23 19 25 20 26
REMARK SMILES IDX 21 27 73 28 22 29 72 30 23 31 24 32 25 33 66 34 26 35 71 36
REMARK SMILES IDX 65 37 67 38 27 39 70 40 64 41 63 42 28 44 54 45 37 46 53 47
REMARK SMILES IDX 38 48 41 49 52 50 68 51 39 52 40 53 51 55 69 56 42 57 29 58
REMARK SMILES IDX 30 59 35 60 31 61 32 62 34 63 36 64 33 65 55 66 56 67 61 68
REMARK SMILES IDX 57 69 58 70 60 71 62 72 59 73 43 74 44 75 49 76 45 77 46 78
REMARK SMILES IDX 48 79 50 80 47 81
REMARK H PARENT 12 6 6 11 2 18 17 24 67 43 41 54
REMARK Flexibility Score: inf
ROOT
ATOM      1  C   UNL     1      -1.489  -3.561   5.750  1.00  0.00     0.023 C 
ENDROOT
BRANCH   1   2
ATOM      2  C   UNL     1      -1.013  -2.147   6.083  1.00  0.00     0.116 C 
BRANCH   2   3
ATOM      3  N   UNL     1       0.324  -2.148   6.641  1.00  0.00    -0.356 N 
ATOM      4  C   UNL     1       1.471  -1.563   6.213  1.00  0.00     0.229 C 
ATOM      5  O   UNL     1       2.493  -1.802   6.865  1.00  0.00    -0.275 OA
ATOM      6  H   UNL     1       0.415  -2.661   7.476  1.00  0.00     0.163 HD
BRANCH   4   7
ATOM      7  C   UNL     1       1.542  -0.634   5.010  1.00  0.00     0.142 C 
ATOM      8  N   UNL     1       0.594  -0.218   2.823  1.00  0.00    -0.324 N 
ATOM      9  C   UNL     1       0.390   0.972   3.652  1.00  0.00     0.263 C 
ATOM     10  C   UNL     1       1.383  -1.208   3.590  1.00  0.00     0.194 C 
ATOM     11  H   UNL     1       1.176  -0.025   2.009  1.00  0.00     0.348 HD
ATOM     12  C   UNL     1       0.632   0.578   5.094  1.00  0.00     0.081 C 
ATOM     13  C   UNL     1       1.022  -2.686   3.469  1.00  0.00     0.076 C 
BRANCH   8  14
ATOM     14  C   UNL     1      -0.636  -0.645   2.139  1.00  0.00     0.363 C 
BRANCH  14  15
ATOM     15  C   UNL     1      -0.374  -1.600   0.969  1.00  0.00     0.274 C 
ATOM     16  C   UNL     1       1.143   0.031  -0.221  1.00  0.00     0.143 C 
ATOM     17  N   UNL     1       0.430  -1.213  -0.065  1.00  0.00    -0.354 N 
ATOM     18  H   UNL     1       0.537  -1.866  -0.795  1.00  0.00     0.163 HD
ATOM     19  O   UNL     1      -0.917  -2.706   0.913  1.00  0.00    -0.269 OA
ENDBRANCH  14  15
ENDBRANCH   8  14
ENDBRANCH   4   7
ENDBRANCH   2   3
ENDBRANCH   1   2
BRANCH   1  20
ATOM     20  C   UNL     1      -1.753  -4.458   6.953  1.00  0.00     0.023 C 
BRANCH  20  21
ATOM     21  C   UNL     1      -2.786  -3.929   7.932  1.00  0.00     0.116 C 
BRANCH  21  22
ATOM     22  N   UNL     1      -4.078  -3.660   7.318  1.00  0.00    -0.352 N 
ATOM     23  C   UNL     1      -5.331  -4.062   7.723  1.00  0.00     0.251 C 
ATOM     24  H   UNL     1      -4.052  -3.115   6.499  1.00  0.00     0.163 HD
ATOM     25  O   UNL     1      -6.312  -3.844   7.030  1.00  0.00    -0.269 OA
BRANCH  23  26
ATOM     26  C   UNL     1      -5.465  -4.797   8.997  1.00  0.00     0.039 A 
ATOM     27  C   UNL     1      -6.199  -5.985   9.021  1.00  0.00     0.014 A 
ATOM     28  C   UNL     1      -4.812  -4.341  10.144  1.00  0.00     0.014 A 
ATOM     29  C   UNL     1      -6.210  -6.759  10.182  1.00  0.00     0.010 A 
ATOM     30  C   UNL     1      -4.742  -5.161  11.262  1.00  0.00     0.010 A 
ATOM     31  C   UNL     1      -5.447  -6.373  11.296  1.00  0.00    -0.014 A 
BRANCH  31  32
ATOM     32  C   UNL     1      -5.387  -7.206  12.521  1.00  0.00     0.031 A 
ATOM     33  C   UNL     1      -5.898  -6.654  13.822  1.00  0.00     0.074 A 
ATOM     34  C   UNL     1      -4.811  -8.423  12.479  1.00  0.00     0.049 A 
ATOM     35  N   UNL     1      -5.871  -7.187  15.016  1.00  0.00    -0.248 NA
ATOM     36  C   UNL     1      -6.482  -5.303  13.780  1.00  0.00     0.031 C 
ATOM     37  C   UNL     1      -4.229  -9.048  11.289  1.00  0.00     0.029 A 
ATOM     38  N   UNL     1      -4.620  -9.353  13.469  1.00  0.00    -0.354 N 
ATOM     39  C   UNL     1      -6.410  -6.230  15.866  1.00  0.00     0.074 A 
ATOM     40  C   UNL     1      -6.691  -5.060  15.064  1.00  0.00     0.031 C 
ATOM     41  C   UNL     1      -3.787 -10.275  11.610  1.00  0.00     0.029 A 
ATOM     42  C   UNL     1      -4.021 -10.508  13.031  1.00  0.00     0.049 A 
ATOM     43  H   UNL     1      -4.887  -9.205  14.405  1.00  0.00     0.167 HD
ATOM     44  C   UNL     1      -6.681  -6.327  17.189  1.00  0.00     0.037 A 
ATOM     45  C   UNL     1      -3.707 -11.632  13.702  1.00  0.00     0.037 A 
ATOM     46  C   UNL     1      -6.436  -7.505  17.974  1.00  0.00     0.049 A 
ATOM     47  C   UNL     1      -4.019 -11.720  15.169  1.00  0.00     0.074 A 
ATOM     48  C   UNL     1      -6.731  -7.733  19.306  1.00  0.00     0.029 A 
ATOM     49  N   UNL     1      -5.837  -8.660  17.492  1.00  0.00    -0.354 N 
ATOM     50  N   UNL     1      -4.588 -10.832  15.949  1.00  0.00    -0.248 NA
ATOM     51  C   UNL     1      -3.646 -12.968  15.849  1.00  0.00     0.031 C 
ATOM     52  C   UNL     1      -6.280  -9.016  19.639  1.00  0.00     0.029 A 
ATOM     53  C   UNL     1      -5.739  -9.600  18.504  1.00  0.00     0.049 A 
ATOM     54  H   UNL     1      -5.527  -8.791  16.567  1.00  0.00     0.167 HD
ATOM     55  C   UNL     1      -4.669 -11.424  17.202  1.00  0.00     0.074 A 
ATOM     56  C   UNL     1      -4.098 -12.749  17.076  1.00  0.00     0.031 C 
ATOM     57  C   UNL     1      -5.173 -10.916  18.354  1.00  0.00     0.037 A 
BRANCH  44  58
ATOM     58  C   UNL     1      -7.281  -5.121  17.850  1.00  0.00     0.057 A 
ATOM     59  C   UNL     1      -8.587  -4.696  17.565  1.00  0.00     0.134 A 
ATOM     60  C   UNL     1      -6.543  -4.364  18.768  1.00  0.00     0.134 A 
ATOM     61  F   UNL     1      -9.342  -5.367  16.681  1.00  0.00    -0.206 F 
ATOM     62  C   UNL     1      -9.120  -3.539  18.134  1.00  0.00     0.040 A 
ATOM     63  C   UNL     1      -7.077  -3.221  19.367  1.00  0.00     0.040 A 
ATOM     64  F   UNL     1      -5.290  -4.715  19.090  1.00  0.00    -0.206 F 
ATOM     65  C   UNL     1      -8.365  -2.799  19.041  1.00  0.00     0.006 A 
ENDBRANCH  44  58
BRANCH  45  66
ATOM     66  C   UNL     1      -3.117 -12.786  12.980  1.00  0.00     0.057 A 
ATOM     67  C   UNL     1      -3.877 -13.935  12.733  1.00  0.00     0.134 A 
ATOM     68  C   UNL     1      -1.797 -12.771  12.515  1.00  0.00     0.134 A 
ATOM     69  F   UNL     1      -5.142 -14.013  13.170  1.00  0.00    -0.206 F 
ATOM     70  C   UNL     1      -3.343 -15.034  12.059  1.00  0.00     0.040 A 
ATOM     71  C   UNL     1      -1.256 -13.856  11.822  1.00  0.00     0.040 A 
ATOM     72  F   UNL     1      -1.020 -11.696  12.715  1.00  0.00    -0.206 F 
ATOM     73  C   UNL     1      -2.029 -14.994  11.597  1.00  0.00     0.006 A 
ENDBRANCH  45  66
BRANCH  57  74
ATOM     74  C   UNL     1      -5.158 -11.810  19.557  1.00  0.00     0.057 A 
ATOM     75  C   UNL     1      -3.977 -12.089  20.254  1.00  0.00     0.134 A 
ATOM     76  C   UNL     1      -6.348 -12.365  20.045  1.00  0.00     0.134 A 
ATOM     77  F   UNL     1      -2.803 -11.598  19.828  1.00  0.00    -0.206 F 
ATOM     78  C   UNL     1      -3.976 -12.907  21.386  1.00  0.00     0.040 A 
ATOM     79  C   UNL     1      -6.363 -13.165  21.189  1.00  0.00     0.040 A 
ATOM     80  F   UNL     1      -7.514 -12.130  19.426  1.00  0.00    -0.206 F 
ATOM     81  C   UNL     1      -5.173 -13.441  21.859  1.00  0.00     0.006 A 
ENDBRANCH  57  74
ENDBRANCH  31  32
ENDBRANCH  23  26
ENDBRANCH  21  22
ENDBRANCH  20  21
ENDBRANCH   1  20
TORSDOF 13
