REMARK SMILES CS(=O)(=O)c1ccc(-n2nc(C(F)(F)F)cc2-c2ccc(CC(=O)NCCCCNC(=O)c3ccc(-c4c5nc(c(-c6c(F)cccc6F)c6ccc([nH]6)c(-c6c(F)cccc6F)c6nc(c(-c7c(F)cccc7F)c7ccc4[nH]7)C=C6)C=C5)cc3)cc2)cc1
REMARK SMILES IDX 26 1 25 2 23 3 24 4 22 6 21 7 18 8 19 9 88 10 20 11 87 12
REMARK SMILES IDX 17 13 9 14 10 15 11 16 16 17 8 18 5 19 6 20 90 21 7 22 89 23
REMARK SMILES IDX 2 24 1 25 3 26 4 27 12 28 13 29 14 30 15 31 27 32 28 33
REMARK SMILES IDX 29 34 30 35 31 36 32 38 33 39 34 40 86 41 35 42 85 43 36 44
REMARK SMILES IDX 37 45 38 46 79 47 39 48 84 49 78 50 80 51 40 52 83 53 77 54
REMARK SMILES IDX 76 55 41 57 67 58 50 59 66 60 51 61 54 62 65 63 81 64 52 65
REMARK SMILES IDX 53 66 64 68 82 69 55 70 42 71 43 72 48 73 44 74 45 75 47 76
REMARK SMILES IDX 49 77 46 78 68 79 69 80 74 81 70 82 71 83 73 84 75 85 72 86
REMARK SMILES IDX 56 87 57 88 62 89 58 90 59 91 61 92 63 93 60 94
REMARK H PARENT 25 5 30 37 80 56 54 67
REMARK Flexibility Score: inf
ROOT
ATOM      1  C   UNL     1       2.204  -4.916  -2.215  1.00  0.00     0.116 C 
ENDROOT
BRANCH   1   2
ATOM      2  N   UNL     1       3.386  -4.109  -2.457  1.00  0.00    -0.356 N 
ATOM      3  C   UNL     1       4.671  -4.314  -2.041  1.00  0.00     0.224 C 
ATOM      4  O   UNL     1       5.501  -3.429  -2.262  1.00  0.00    -0.275 OA
ATOM      5  H   UNL     1       3.241  -3.300  -2.999  1.00  0.00     0.163 HD
BRANCH   3   6
ATOM      6  C   UNL     1       5.062  -5.617  -1.361  1.00  0.00     0.135 C 
BRANCH   6   7
ATOM      7  C   UNL     1       4.483  -5.782   0.022  1.00  0.00    -0.039 A 
ATOM      8  C   UNL     1       3.240  -5.990   2.541  1.00  0.00     0.000 A 
ATOM      9  C   UNL     1       4.140  -4.949   2.271  1.00  0.00     0.010 A 
ATOM     10  C   UNL     1       3.020  -6.964   1.564  1.00  0.00     0.010 A 
ATOM     11  C   UNL     1       4.754  -4.842   1.022  1.00  0.00     0.005 A 
ATOM     12  C   UNL     1       3.646  -6.867   0.319  1.00  0.00     0.005 A 
BRANCH   8  13
ATOM     13  C   UNL     1       2.569  -6.076   3.837  1.00  0.00     0.075 A 
ATOM     14  N   UNL     1       1.950  -5.021   4.496  1.00  0.00    -0.233 N 
ATOM     15  N   UNL     1       1.673  -5.319   5.789  1.00  0.00    -0.163 NA
ATOM     16  C   UNL     1       1.883  -6.647   5.886  1.00  0.00     0.167 A 
ATOM     17  C   UNL     1       2.472  -7.150   4.699  1.00  0.00     0.064 A 
BRANCH  14  18
ATOM     18  C   UNL     1       1.534  -3.781   3.951  1.00  0.00     0.065 A 
ATOM     19  C   UNL     1       0.766  -1.343   2.841  1.00  0.00     0.067 A 
ATOM     20  C   UNL     1       0.373  -2.539   2.242  1.00  0.00     0.022 A 
ATOM     21  C   UNL     1       1.469  -1.363   4.048  1.00  0.00     0.022 A 
ATOM     22  C   UNL     1       0.812  -3.761   2.753  1.00  0.00     0.030 A 
ATOM     23  C   UNL     1       1.812  -2.590   4.631  1.00  0.00     0.030 A 
BRANCH  19  24
ATOM     24  S   UNL     1       0.309   0.204   2.086  1.00  0.00     0.175 S 
ATOM     25  C   UNL     1       1.110   0.215   0.502  1.00  0.00     0.163 C 
ATOM     26  O   UNL     1       0.909   1.266   2.870  1.00  0.00    -0.224 OA
ATOM     27  O   UNL     1      -1.122   0.152   1.858  1.00  0.00    -0.224 OA
ENDBRANCH  19  24
ENDBRANCH  14  18
BRANCH  16  28
ATOM     28  C   UNL     1       1.540  -7.452   7.112  1.00  0.00     0.435 C 
ATOM     29  F   UNL     1       2.006  -6.899   8.261  1.00  0.00    -0.164 F 
ATOM     30  F   UNL     1       0.198  -7.613   7.257  1.00  0.00    -0.164 F 
ATOM     31  F   UNL     1       2.067  -8.707   7.047  1.00  0.00    -0.164 F 
ENDBRANCH  16  28
ENDBRANCH   8  13
ENDBRANCH   6   7
ENDBRANCH   3   6
ENDBRANCH   1   2
BRANCH   1  32
ATOM     32  C   UNL     1       1.368  -4.362  -1.058  1.00  0.00     0.023 C 
BRANCH  32  33
ATOM     33  C   UNL     1       0.749  -2.988  -1.322  1.00  0.00     0.023 C 
BRANCH  33  34
ATOM     34  C   UNL     1      -0.322  -2.956  -2.388  1.00  0.00     0.116 C 
BRANCH  34  35
ATOM     35  N   UNL     1      -1.517  -3.737  -2.050  1.00  0.00    -0.352 N 
ATOM     36  C   UNL     1      -2.658  -3.908  -2.831  1.00  0.00     0.251 C 
ATOM     37  H   UNL     1      -1.511  -4.190  -1.176  1.00  0.00     0.163 HD
ATOM     38  O   UNL     1      -3.709  -4.291  -2.366  1.00  0.00    -0.269 OA
BRANCH  36  39
ATOM     39  C   UNL     1      -2.524  -3.609  -4.269  1.00  0.00     0.039 A 
ATOM     40  C   UNL     1      -3.428  -2.804  -4.963  1.00  0.00     0.014 A 
ATOM     41  C   UNL     1      -1.351  -4.049  -4.862  1.00  0.00     0.014 A 
ATOM     42  C   UNL     1      -3.076  -2.364  -6.239  1.00  0.00     0.010 A 
ATOM     43  C   UNL     1      -0.902  -3.397  -5.972  1.00  0.00     0.010 A 
ATOM     44  C   UNL     1      -1.790  -2.644  -6.727  1.00  0.00    -0.014 A 
BRANCH  44  45
ATOM     45  C   UNL     1      -1.313  -2.146  -8.012  1.00  0.00     0.031 A 
ATOM     46  C   UNL     1      -1.458  -0.681  -8.249  1.00  0.00     0.074 A 
ATOM     47  C   UNL     1      -0.583  -2.929  -8.842  1.00  0.00     0.049 A 
ATOM     48  N   UNL     1      -2.137  -0.088  -9.175  1.00  0.00    -0.248 NA
ATOM     49  C   UNL     1      -0.841   0.245  -7.284  1.00  0.00     0.031 C 
ATOM     50  C   UNL     1      -0.079  -4.298  -8.634  1.00  0.00     0.029 A 
ATOM     51  N   UNL     1      -0.042  -2.606 -10.044  1.00  0.00    -0.354 N 
ATOM     52  C   UNL     1      -1.909   1.279  -9.021  1.00  0.00     0.074 A 
ATOM     53  C   UNL     1      -1.214   1.432  -7.769  1.00  0.00     0.031 C 
ATOM     54  C   UNL     1       0.882  -4.577  -9.540  1.00  0.00     0.029 A 
ATOM     55  C   UNL     1       0.903  -3.508 -10.514  1.00  0.00     0.049 A 
ATOM     56  H   UNL     1      -0.299  -1.797 -10.542  1.00  0.00     0.167 HD
ATOM     57  C   UNL     1      -2.157   2.166 -10.025  1.00  0.00     0.037 A 
ATOM     58  C   UNL     1       1.653  -3.382 -11.633  1.00  0.00     0.037 A 
ATOM     59  C   UNL     1      -3.004   1.588 -11.035  1.00  0.00     0.049 A 
ATOM     60  C   UNL     1       0.979  -2.384 -12.496  1.00  0.00     0.074 A 
ATOM     61  C   UNL     1      -4.300   1.108 -11.048  1.00  0.00     0.029 A 
ATOM     62  N   UNL     1      -2.411   1.076 -12.163  1.00  0.00    -0.354 N 
ATOM     63  N   UNL     1      -0.184  -2.581 -13.056  1.00  0.00    -0.248 NA
ATOM     64  C   UNL     1       1.372  -0.993 -12.341  1.00  0.00     0.031 C 
ATOM     65  C   UNL     1      -4.250  -0.054 -11.873  1.00  0.00     0.029 A 
ATOM     66  C   UNL     1      -2.950  -0.170 -12.370  1.00  0.00     0.049 A 
ATOM     67  H   UNL     1      -1.729   1.518 -12.717  1.00  0.00     0.167 HD
ATOM     68  C   UNL     1      -0.844  -1.365 -12.945  1.00  0.00     0.074 A 
ATOM     69  C   UNL     1       0.193  -0.406 -12.565  1.00  0.00     0.031 C 
ATOM     70  C   UNL     1      -2.207  -1.297 -12.890  1.00  0.00     0.037 A 
BRANCH  57  71
ATOM     71  C   UNL     1      -1.403   3.453 -10.250  1.00  0.00     0.057 A 
ATOM     72  C   UNL     1      -1.871   4.383 -11.197  1.00  0.00     0.134 A 
ATOM     73  C   UNL     1      -0.098   3.691  -9.775  1.00  0.00     0.134 A 
ATOM     74  F   UNL     1      -3.091   4.258 -11.742  1.00  0.00    -0.206 F 
ATOM     75  C   UNL     1      -1.079   5.435 -11.675  1.00  0.00     0.040 A 
ATOM     76  C   UNL     1       0.684   4.766 -10.208  1.00  0.00     0.040 A 
ATOM     77  F   UNL     1       0.523   2.845  -8.944  1.00  0.00    -0.206 F 
ATOM     78  C   UNL     1       0.206   5.626 -11.184  1.00  0.00     0.006 A 
ENDBRANCH  57  71
BRANCH  58  79
ATOM     79  C   UNL     1       3.049  -3.817 -11.841  1.00  0.00     0.057 A 
ATOM     80  C   UNL     1       3.579  -3.959 -13.129  1.00  0.00     0.134 A 
ATOM     81  C   UNL     1       3.974  -3.833 -10.781  1.00  0.00     0.134 A 
ATOM     82  F   UNL     1       2.775  -3.920 -14.201  1.00  0.00    -0.206 F 
ATOM     83  C   UNL     1       4.956  -4.082 -13.355  1.00  0.00     0.040 A 
ATOM     84  C   UNL     1       5.351  -3.957 -10.992  1.00  0.00     0.040 A 
ATOM     85  F   UNL     1       3.578  -3.640  -9.514  1.00  0.00    -0.206 F 
ATOM     86  C   UNL     1       5.848  -4.067 -12.285  1.00  0.00     0.006 A 
ENDBRANCH  58  79
BRANCH  70  87
ATOM     87  C   UNL     1      -2.991  -2.558 -13.154  1.00  0.00     0.057 A 
ATOM     88  C   UNL     1      -2.946  -3.698 -12.335  1.00  0.00     0.134 A 
ATOM     89  C   UNL     1      -3.950  -2.558 -14.171  1.00  0.00     0.134 A 
ATOM     90  F   UNL     1      -2.135  -3.760 -11.275  1.00  0.00    -0.206 F 
ATOM     91  C   UNL     1      -3.787  -4.798 -12.542  1.00  0.00     0.040 A 
ATOM     92  C   UNL     1      -4.818  -3.636 -14.370  1.00  0.00     0.040 A 
ATOM     93  F   UNL     1      -4.097  -1.482 -14.960  1.00  0.00    -0.206 F 
ATOM     94  C   UNL     1      -4.734  -4.765 -13.559  1.00  0.00     0.006 A 
ENDBRANCH  70  87
ENDBRANCH  44  45
ENDBRANCH  36  39
ENDBRANCH  34  35
ENDBRANCH  33  34
ENDBRANCH  32  33
ENDBRANCH   1  32
TORSDOF 16
