REMARK SMILES O=C(NCCCCNC(=O)c1ccc([C@H]2CCC[N@@H+](CCN3CCCC3=O)C2)cc1)c1ccc(-c2c3nc(c(-c4c(F)cccc4F)c4ccc([nH]4)c(-c4c(F)cccc4F)c4nc(c(-c5c(F)cccc5F)c5ccc2[nH]5)C=C4)C=C3)cc1
REMARK SMILES IDX 6 1 5 2 4 3 3 4 1 5 2 6 31 8 32 9 84 10 33 11 83 12 34 13
REMARK SMILES IDX 35 14 36 15 77 16 37 17 82 18 76 19 78 20 38 21 81 22 75 23
REMARK SMILES IDX 74 24 39 26 65 27 48 28 64 29 49 30 52 31 63 32 79 33 50 34
REMARK SMILES IDX 51 35 62 37 80 38 53 39 40 40 41 41 46 42 42 43 43 44 45 45
REMARK SMILES IDX 47 46 44 47 66 48 67 49 72 50 68 51 69 52 71 53 73 54 70 55
REMARK SMILES IDX 54 56 55 57 60 58 56 59 57 60 59 61 61 62 58 63 7 64 8 65
REMARK SMILES IDX 9 66 10 68 11 69 12 70 30 71 13 72 29 73 14 74 15 75 16 76
REMARK SMILES IDX 28 77 17 78 19 79 18 80 20 82 21 83 22 84 23 85 26 86 24 87
REMARK SMILES IDX 25 88 27 89
REMARK H PARENT 3 7 78 25 52 36 8 67 19 81
REMARK Flexibility Score: inf
ROOT
ATOM      1  C   UNL     1       4.085  -5.954 -16.023  1.00  0.00     0.023 C 
ENDROOT
BRANCH   1   2
ATOM      2  C   UNL     1       4.321  -6.910 -17.189  1.00  0.00     0.023 C 
BRANCH   2   3
ATOM      3  C   UNL     1       3.453  -8.160 -17.187  1.00  0.00     0.116 C 
BRANCH   3   4
ATOM      4  N   UNL     1       2.037  -7.876 -17.375  1.00  0.00    -0.352 N 
ATOM      5  O   UNL     1       0.038  -7.877 -18.426  1.00  0.00    -0.269 OA
ATOM      6  C   UNL     1       1.177  -8.329 -18.350  1.00  0.00     0.251 C 
ATOM      7  H   UNL     1       1.636  -7.272 -16.709  1.00  0.00     0.163 HD
BRANCH   6   8
ATOM      8  C   UNL     1       1.640  -9.339 -19.327  1.00  0.00     0.039 A 
ATOM      9  C   UNL     1       2.383 -10.442 -18.906  1.00  0.00     0.014 A 
ATOM     10  C   UNL     1       1.348  -9.169 -20.683  1.00  0.00     0.014 A 
ATOM     11  C   UNL     1       2.990 -11.263 -19.848  1.00  0.00     0.010 A 
ATOM     12  C   UNL     1       1.868 -10.065 -21.624  1.00  0.00     0.010 A 
ATOM     13  C   UNL     1       2.727 -11.097 -21.217  1.00  0.00    -0.014 A 
BRANCH  13  14
ATOM     14  C   UNL     1       3.317 -12.057 -22.186  1.00  0.00     0.031 A 
ATOM     15  C   UNL     1       4.281 -11.610 -23.251  1.00  0.00     0.074 A 
ATOM     16  C   UNL     1       3.001 -13.362 -22.069  1.00  0.00     0.049 A 
ATOM     17  N   UNL     1       4.907 -12.329 -24.150  1.00  0.00    -0.248 NA
ATOM     18  C   UNL     1       4.576 -10.171 -23.326  1.00  0.00     0.031 C 
ATOM     19  C   UNL     1       2.073 -13.917 -21.081  1.00  0.00     0.029 A 
ATOM     20  N   UNL     1       3.437 -14.460 -22.765  1.00  0.00    -0.354 N 
ATOM     21  C   UNL     1       5.655 -11.434 -24.904  1.00  0.00     0.074 A 
ATOM     22  C   UNL     1       5.380 -10.113 -24.380  1.00  0.00     0.031 C 
ATOM     23  C   UNL     1       2.053 -15.252 -21.195  1.00  0.00     0.029 A 
ATOM     24  C   UNL     1       2.904 -15.642 -22.312  1.00  0.00     0.049 A 
ATOM     25  H   UNL     1       4.071 -14.406 -23.517  1.00  0.00     0.167 HD
ATOM     26  C   UNL     1       6.500 -11.693 -25.933  1.00  0.00     0.037 A 
ATOM     27  C   UNL     1       3.064 -16.901 -22.756  1.00  0.00     0.037 A 
ATOM     28  C   UNL     1       6.771 -13.012 -26.448  1.00  0.00     0.049 A 
ATOM     29  C   UNL     1       3.967 -17.150 -23.927  1.00  0.00     0.074 A 
ATOM     30  C   UNL     1       7.634 -13.380 -27.467  1.00  0.00     0.029 A 
ATOM     31  N   UNL     1       6.176 -14.180 -25.992  1.00  0.00    -0.354 N 
ATOM     32  N   UNL     1       4.697 -16.298 -24.605  1.00  0.00    -0.248 NA
ATOM     33  C   UNL     1       4.065 -18.538 -24.398  1.00  0.00     0.031 C 
ATOM     34  C   UNL     1       7.516 -14.760 -27.667  1.00  0.00     0.029 A 
ATOM     35  C   UNL     1       6.630 -15.264 -26.729  1.00  0.00     0.049 A 
ATOM     36  H   UNL     1       5.527 -14.232 -25.254  1.00  0.00     0.167 HD
ATOM     37  C   UNL     1       5.363 -17.049 -25.564  1.00  0.00     0.074 A 
ATOM     38  C   UNL     1       4.963 -18.427 -25.366  1.00  0.00     0.031 C 
ATOM     39  C   UNL     1       6.226 -16.633 -26.522  1.00  0.00     0.037 A 
BRANCH  26  40
ATOM     40  C   UNL     1       7.175 -10.521 -26.593  1.00  0.00     0.057 A 
ATOM     41  C   UNL     1       8.166  -9.770 -25.947  1.00  0.00     0.134 A 
ATOM     42  C   UNL     1       6.859 -10.166 -27.912  1.00  0.00     0.134 A 
ATOM     43  F   UNL     1       8.514 -10.049 -24.681  1.00  0.00    -0.206 F 
ATOM     44  C   UNL     1       8.795  -8.693 -26.575  1.00  0.00     0.040 A 
ATOM     45  C   UNL     1       7.503  -9.110 -28.561  1.00  0.00     0.040 A 
ATOM     46  F   UNL     1       5.928 -10.847 -28.597  1.00  0.00    -0.206 F 
ATOM     47  C   UNL     1       8.469  -8.365 -27.889  1.00  0.00     0.006 A 
ENDBRANCH  26  40
BRANCH  27  48
ATOM     48  C   UNL     1       2.344 -18.017 -22.092  1.00  0.00     0.057 A 
ATOM     49  C   UNL     1       3.036 -19.003 -21.379  1.00  0.00     0.134 A 
ATOM     50  C   UNL     1       0.949 -18.126 -22.154  1.00  0.00     0.134 A 
ATOM     51  F   UNL     1       4.374 -18.963 -21.296  1.00  0.00    -0.206 F 
ATOM     52  C   UNL     1       2.369 -20.067 -20.771  1.00  0.00     0.040 A 
ATOM     53  C   UNL     1       0.267 -19.166 -21.523  1.00  0.00     0.040 A 
ATOM     54  F   UNL     1       0.226 -17.207 -22.812  1.00  0.00    -0.206 F 
ATOM     55  C   UNL     1       0.979 -20.147 -20.837  1.00  0.00     0.006 A 
ENDBRANCH  27  48
BRANCH  39  56
ATOM     56  C   UNL     1       6.830 -17.691 -27.401  1.00  0.00     0.057 A 
ATOM     57  C   UNL     1       6.076 -18.388 -28.354  1.00  0.00     0.134 A 
ATOM     58  C   UNL     1       8.192 -18.006 -27.300  1.00  0.00     0.134 A 
ATOM     59  F   UNL     1       4.763 -18.147 -28.491  1.00  0.00    -0.206 F 
ATOM     60  C   UNL     1       6.646 -19.383 -29.150  1.00  0.00     0.040 A 
ATOM     61  C   UNL     1       8.780 -18.975 -28.113  1.00  0.00     0.040 A 
ATOM     62  F   UNL     1       8.975 -17.372 -26.414  1.00  0.00    -0.206 F 
ATOM     63  C   UNL     1       8.004 -19.674 -29.035  1.00  0.00     0.006 A 
ENDBRANCH  39  56
ENDBRANCH  13  14
ENDBRANCH   6   8
ENDBRANCH   3   4
ENDBRANCH   2   3
ENDBRANCH   1   2
BRANCH   1  64
ATOM     64  C   UNL     1       4.209  -6.577 -14.633  1.00  0.00     0.116 C 
BRANCH  64  65
ATOM     65  N   UNL     1       5.524  -7.151 -14.388  1.00  0.00    -0.352 N 
ATOM     66  C   UNL     1       6.433  -6.845 -13.402  1.00  0.00     0.251 C 
ATOM     67  H   UNL     1       5.801  -7.857 -15.015  1.00  0.00     0.163 HD
ATOM     68  O   UNL     1       7.562  -7.320 -13.425  1.00  0.00    -0.269 OA
BRANCH  66  69
ATOM     69  C   UNL     1       6.042  -5.914 -12.328  1.00  0.00     0.039 A 
ATOM     70  C   UNL     1       6.772  -4.744 -12.139  1.00  0.00     0.014 A 
ATOM     71  C   UNL     1       4.938  -6.189 -11.525  1.00  0.00     0.014 A 
ATOM     72  C   UNL     1       6.301  -3.776 -11.247  1.00  0.00     0.005 A 
ATOM     73  C   UNL     1       4.480  -5.221 -10.630  1.00  0.00     0.005 A 
ATOM     74  C   UNL     1       5.095  -3.960 -10.544  1.00  0.00    -0.039 A 
BRANCH  74  75
ATOM     75  C   UNL     1       4.460  -2.767  -9.800  1.00  0.00     0.074 C 
ATOM     76  C   UNL     1       4.355  -1.574 -10.775  1.00  0.00     0.020 C 
ATOM     77  C   UNL     1       3.070  -3.081  -9.173  1.00  0.00     0.270 C 
ATOM     78  C   UNL     1       3.562  -0.425 -10.177  1.00  0.00     0.062 C 
ATOM     79  N   UNL     1       2.159  -1.970  -8.871  1.00  0.00    -0.333 N 
ATOM     80  C   UNL     1       2.152  -0.890  -9.853  1.00  0.00     0.262 C 
ATOM     81  H   UNL     1       2.540  -1.541  -8.028  1.00  0.00     0.348 HD
BRANCH  79  82
ATOM     82  C   UNL     1       0.786  -2.458  -8.578  1.00  0.00     0.284 C 
BRANCH  82  83
ATOM     83  C   UNL     1      -0.165  -2.863  -9.747  1.00  0.00     0.180 C 
BRANCH  83  84
ATOM     84  N   UNL     1       0.207  -4.058 -10.495  1.00  0.00    -0.337 N 
ATOM     85  C   UNL     1       0.808  -4.021 -11.806  1.00  0.00     0.120 C 
ATOM     86  C   UNL     1       0.072  -5.340  -9.991  1.00  0.00     0.222 C 
ATOM     87  C   UNL     1       0.847  -5.473 -12.252  1.00  0.00     0.031 C 
ATOM     88  C   UNL     1       0.672  -6.300 -10.985  1.00  0.00     0.102 C 
ATOM     89  O   UNL     1      -0.390  -5.648  -8.908  1.00  0.00    -0.275 OA
ENDBRANCH  83  84
ENDBRANCH  82  83
ENDBRANCH  79  82
ENDBRANCH  74  75
ENDBRANCH  66  69
ENDBRANCH  64  65
ENDBRANCH   1  64
TORSDOF 15
