REMARK SMILES Cc1cc(OCC(C)(C)C(=O)NCCCCNC(=O)c2ccc(-c3c4nc(c(-c5c(F)cccc5F)c5ccc([nH]5)c(-c5c(F)cccc5F)c5nc(c(-c6c(F)cccc6F)c6ccc3[nH]6)C=C5)C=C4)cc2)cc(C(C)C)c1
REMARK SMILES IDX 13 1 12 2 10 3 11 4 7 6 8 7 9 8 6 9 5 10 4 11 1 12 2 13 3 14
REMARK SMILES IDX 79 15 75 16 74 17 76 18 77 19 78 20 14 21 15 22 16 23 17 24
REMARK SMILES IDX 18 25 19 27 20 28 21 29 73 30 22 31 72 32 23 33 24 34 25 35
REMARK SMILES IDX 66 36 26 37 71 38 65 39 67 40 27 41 70 42 64 43 63 44 28 46
REMARK SMILES IDX 54 47 37 48 53 49 38 50 41 51 52 52 68 53 39 54 40 55 51 57
REMARK SMILES IDX 69 58 42 59 29 60 30 61 35 62 31 63 32 64 34 65 36 66 33 67
REMARK SMILES IDX 55 68 56 69 61 70 57 71 58 72 60 73 62 74 59 75 43 76 44 77
REMARK SMILES IDX 49 78 45 79 46 80 48 81 50 82 47 83
REMARK H PARENT 12 5 17 26 67 45 41 56
REMARK Flexibility Score: inf
ROOT
ATOM      1  C   UNL     1      -5.045  -1.074   4.078  1.00  0.00     0.116 C 
ENDROOT
BRANCH   1   2
ATOM      2  N   UNL     1      -4.113  -2.123   3.686  1.00  0.00    -0.356 N 
ATOM      3  C   UNL     1      -3.550  -2.457   2.482  1.00  0.00     0.229 C 
ATOM      4  O   UNL     1      -2.790  -3.429   2.490  1.00  0.00    -0.274 OA
ATOM      5  H   UNL     1      -3.834  -2.704   4.430  1.00  0.00     0.163 HD
BRANCH   3   6
ATOM      6  C   UNL     1      -3.889  -1.696   1.188  1.00  0.00     0.077 C 
ATOM      7  C   UNL     1      -3.604  -0.205   1.366  1.00  0.00     0.025 C 
ATOM      8  C   UNL     1      -5.378  -1.934   0.859  1.00  0.00     0.025 C 
BRANCH   6   9
ATOM      9  C   UNL     1      -3.098  -2.269  -0.048  1.00  0.00     0.245 C 
BRANCH   9  10
ATOM     10  O   UNL     1      -1.667  -2.209  -0.043  1.00  0.00    -0.492 OA
BRANCH  10  11
ATOM     11  C   UNL     1      -0.994  -1.057  -0.331  1.00  0.00     0.119 A 
ATOM     12  C   UNL     1       2.612   0.001   0.210  1.00  0.00     0.044 C 
ATOM     13  C   UNL     1       1.139   0.070  -0.057  1.00  0.00    -0.047 A 
ATOM     14  C   UNL     1       0.372  -1.099  -0.055  1.00  0.00     0.049 A 
ATOM     15  C   UNL     1       0.499   1.297  -0.266  1.00  0.00     0.007 A 
ATOM     16  C   UNL     1      -0.866   1.353  -0.589  1.00  0.00    -0.042 A 
ATOM     17  C   UNL     1      -1.562   0.145  -0.749  1.00  0.00     0.050 A 
BRANCH  16  18
ATOM     18  C   UNL     1      -1.572   2.703  -0.579  1.00  0.00     0.013 C 
ATOM     19  C   UNL     1      -2.644   2.870  -1.657  1.00  0.00     0.012 C 
ATOM     20  C   UNL     1      -2.184   2.977   0.806  1.00  0.00     0.012 C 
ENDBRANCH  16  18
ENDBRANCH  10  11
ENDBRANCH   9  10
ENDBRANCH   6   9
ENDBRANCH   3   6
ENDBRANCH   1   2
BRANCH   1  21
ATOM     21  C   UNL     1      -6.336  -1.595   4.707  1.00  0.00     0.023 C 
BRANCH  21  22
ATOM     22  C   UNL     1      -6.184  -2.260   6.069  1.00  0.00     0.023 C 
BRANCH  22  23
ATOM     23  C   UNL     1      -5.632  -1.338   7.142  1.00  0.00     0.116 C 
BRANCH  23  24
ATOM     24  N   UNL     1      -6.563  -0.347   7.648  1.00  0.00    -0.352 N 
ATOM     25  C   UNL     1      -6.403   0.619   8.632  1.00  0.00     0.251 C 
ATOM     26  H   UNL     1      -7.451  -0.361   7.225  1.00  0.00     0.163 HD
ATOM     27  O   UNL     1      -7.384   1.240   9.001  1.00  0.00    -0.269 OA
BRANCH  25  28
ATOM     28  C   UNL     1      -5.049   1.028   9.120  1.00  0.00     0.039 A 
ATOM     29  C   UNL     1      -4.918   2.309   9.687  1.00  0.00     0.014 A 
ATOM     30  C   UNL     1      -3.900   0.316   8.809  1.00  0.00     0.014 A 
ATOM     31  C   UNL     1      -3.682   2.954   9.674  1.00  0.00     0.010 A 
ATOM     32  C   UNL     1      -2.720   0.993   8.643  1.00  0.00     0.010 A 
ATOM     33  C   UNL     1      -2.626   2.328   9.028  1.00  0.00    -0.014 A 
BRANCH  33  34
ATOM     34  C   UNL     1      -1.374   2.950   8.647  1.00  0.00     0.031 A 
ATOM     35  C   UNL     1      -0.144   2.589   9.374  1.00  0.00     0.074 A 
ATOM     36  C   UNL     1      -1.336   3.605   7.466  1.00  0.00     0.049 A 
ATOM     37  N   UNL     1       0.966   3.227   9.269  1.00  0.00    -0.248 NA
ATOM     38  C   UNL     1      -0.071   1.464  10.303  1.00  0.00     0.031 C 
ATOM     39  C   UNL     1      -0.165   3.921   6.656  1.00  0.00     0.029 A 
ATOM     40  N   UNL     1      -2.387   4.280   6.831  1.00  0.00    -0.354 N 
ATOM     41  C   UNL     1       1.946   2.468   9.867  1.00  0.00     0.074 A 
ATOM     42  C   UNL     1       1.242   1.405  10.541  1.00  0.00     0.031 C 
ATOM     43  C   UNL     1      -0.471   4.932   5.826  1.00  0.00     0.029 A 
ATOM     44  C   UNL     1      -1.796   5.397   6.198  1.00  0.00     0.049 A 
ATOM     45  H   UNL     1      -3.339   4.029   6.827  1.00  0.00     0.167 HD
ATOM     46  C   UNL     1       3.250   2.766   9.609  1.00  0.00     0.037 A 
ATOM     47  C   UNL     1      -2.081   6.665   6.618  1.00  0.00     0.037 A 
ATOM     48  C   UNL     1       3.342   3.932   8.736  1.00  0.00     0.049 A 
ATOM     49  C   UNL     1      -0.871   7.410   7.133  1.00  0.00     0.074 A 
ATOM     50  C   UNL     1       3.472   4.062   7.363  1.00  0.00     0.029 A 
ATOM     51  N   UNL     1       2.935   5.170   9.215  1.00  0.00    -0.354 N 
ATOM     52  N   UNL     1       0.209   6.826   7.576  1.00  0.00    -0.248 NA
ATOM     53  C   UNL     1      -0.768   8.866   7.167  1.00  0.00     0.031 C 
ATOM     54  C   UNL     1       3.092   5.381   7.010  1.00  0.00     0.029 A 
ATOM     55  C   UNL     1       2.755   6.055   8.171  1.00  0.00     0.049 A 
ATOM     56  H   UNL     1       2.794   5.386  10.165  1.00  0.00     0.167 HD
ATOM     57  C   UNL     1       1.133   7.775   7.936  1.00  0.00     0.074 A 
ATOM     58  C   UNL     1       0.474   9.036   7.655  1.00  0.00     0.031 C 
ATOM     59  C   UNL     1       2.362   7.432   8.428  1.00  0.00     0.037 A 
BRANCH  46  60
ATOM     60  C   UNL     1       4.420   1.866   9.920  1.00  0.00     0.057 A 
ATOM     61  C   UNL     1       5.582   1.897   9.122  1.00  0.00     0.134 A 
ATOM     62  C   UNL     1       4.465   0.935  10.972  1.00  0.00     0.134 A 
ATOM     63  F   UNL     1       5.734   2.782   8.128  1.00  0.00    -0.206 F 
ATOM     64  C   UNL     1       6.657   1.016   9.299  1.00  0.00     0.040 A 
ATOM     65  C   UNL     1       5.512   0.015  11.132  1.00  0.00     0.040 A 
ATOM     66  F   UNL     1       3.528   0.909  11.928  1.00  0.00    -0.206 F 
ATOM     67  C   UNL     1       6.612   0.048  10.288  1.00  0.00     0.006 A 
ENDBRANCH  46  60
BRANCH  47  68
ATOM     68  C   UNL     1      -3.473   6.790   7.132  1.00  0.00     0.057 A 
ATOM     69  C   UNL     1      -4.527   6.612   6.216  1.00  0.00     0.134 A 
ATOM     70  C   UNL     1      -3.772   6.606   8.486  1.00  0.00     0.134 A 
ATOM     71  F   UNL     1      -4.309   6.779   4.901  1.00  0.00    -0.206 F 
ATOM     72  C   UNL     1      -5.776   6.125   6.611  1.00  0.00     0.040 A 
ATOM     73  C   UNL     1      -5.027   6.135   8.894  1.00  0.00     0.040 A 
ATOM     74  F   UNL     1      -2.820   6.742   9.420  1.00  0.00    -0.206 F 
ATOM     75  C   UNL     1      -6.014   5.844   7.952  1.00  0.00     0.006 A 
ENDBRANCH  47  68
BRANCH  59  76
ATOM     76  C   UNL     1       3.361   8.337   9.120  1.00  0.00     0.057 A 
ATOM     77  C   UNL     1       3.037   9.544   9.753  1.00  0.00     0.134 A 
ATOM     78  C   UNL     1       4.700   7.910   9.314  1.00  0.00     0.134 A 
ATOM     79  F   UNL     1       1.790  10.030   9.750  1.00  0.00    -0.206 F 
ATOM     80  C   UNL     1       3.975  10.289  10.483  1.00  0.00     0.040 A 
ATOM     81  C   UNL     1       5.624   8.611  10.093  1.00  0.00     0.040 A 
ATOM     82  F   UNL     1       5.170   6.772   8.783  1.00  0.00    -0.206 F 
ATOM     83  C   UNL     1       5.267   9.816  10.671  1.00  0.00     0.006 A 
ENDBRANCH  59  76
ENDBRANCH  33  34
ENDBRANCH  25  28
ENDBRANCH  23  24
ENDBRANCH  22  23
ENDBRANCH  21  22
ENDBRANCH   1  21
TORSDOF 15
