REMARK SMILES COc1ccccc1C[C@@H](C(=O)NCCCCNC(=O)c1ccc(-c2c3nc(c(-c4c(F)cccc4F)c4ccc([nH]4)c(-c4c(F)cccc4F)c4nc(c(-c5c(F)cccc5F)c5ccc2[nH]5)C=C4)C=C3)cc1)[C@@H]1C[C@H](C)C[C@H](C)C1
REMARK SMILES IDX 15 1 14 2 13 3 11 4 12 5 10 7 9 8 8 9 3 10 4 11 5 12 7 13
REMARK SMILES IDX 6 14 2 15 1 16 75 17 82 18 76 19 80 20 77 21 81 22 79 23
REMARK SMILES IDX 78 24 16 25 17 26 18 27 19 28 20 30 21 31 22 32 74 33 23 34
REMARK SMILES IDX 73 35 24 36 25 37 26 38 67 39 27 40 72 41 66 42 68 43 28 44
REMARK SMILES IDX 71 45 65 46 64 47 29 49 55 50 38 51 54 52 39 53 42 54 53 55
REMARK SMILES IDX 69 56 40 57 41 58 52 60 70 61 43 62 30 63 31 64 36 65 32 66
REMARK SMILES IDX 33 67 35 68 37 69 34 70 56 71 57 72 62 73 58 74 59 75 61 76
REMARK SMILES IDX 63 77 60 78 44 79 45 80 50 81 46 82 47 83 49 84 51 85 48 86
REMARK H PARENT 13 6 18 29 68 48 42 59
REMARK Flexibility Score: inf
ROOT
ATOM      1  C   UNL     1       2.815   1.637   5.051  1.00  0.00     0.023 C 
ENDROOT
BRANCH   1   2
ATOM      2  C   UNL     1       3.486   2.705   4.206  1.00  0.00     0.116 C 
BRANCH   2   3
ATOM      3  N   UNL     1       4.782   2.217   3.812  1.00  0.00    -0.356 N 
ATOM      4  C   UNL     1       5.029   1.202   2.937  1.00  0.00     0.223 C 
ATOM      5  O   UNL     1       6.052   0.550   3.167  1.00  0.00    -0.275 OA
ATOM      6  H   UNL     1       5.565   2.659   4.213  1.00  0.00     0.163 HD
BRANCH   4   7
ATOM      7  C   UNL     1       4.132   0.945   1.689  1.00  0.00     0.086 C 
BRANCH   7   8
ATOM      8  C   UNL     1       3.092  -0.195   1.872  1.00  0.00     0.053 C 
BRANCH   8   9
ATOM      9  C   UNL     1       1.764  -0.046   2.599  1.00  0.00    -0.005 A 
ATOM     10  C   UNL     1       0.700   0.751   2.162  1.00  0.00     0.122 A 
ATOM     11  C   UNL     1      -0.451   0.945   2.942  1.00  0.00     0.047 A 
ATOM     12  C   UNL     1      -0.625   0.227   4.118  1.00  0.00     0.004 A 
ATOM     13  C   UNL     1       1.512  -0.843   3.736  1.00  0.00     0.007 A 
ATOM     14  C   UNL     1       0.340  -0.701   4.493  1.00  0.00     0.001 A 
BRANCH  10  15
ATOM     15  O   UNL     1       0.689   1.275   0.896  1.00  0.00    -0.496 OA
ATOM     16  C   UNL     1      -0.080   0.383   0.067  1.00  0.00     0.278 C 
ENDBRANCH  10  15
ENDBRANCH   8   9
ENDBRANCH   7   8
BRANCH   7  17
ATOM     17  C   UNL     1       5.190   0.599   0.548  1.00  0.00     0.002 C 
ATOM     18  C   UNL     1       5.737  -0.839   0.539  1.00  0.00     0.007 C 
ATOM     19  C   UNL     1       4.890   1.060  -0.879  1.00  0.00     0.007 C 
ATOM     20  C   UNL     1       5.010  -1.895  -0.299  1.00  0.00    -0.014 C 
ATOM     21  C   UNL     1       4.088   0.120  -1.775  1.00  0.00    -0.014 C 
ATOM     22  C   UNL     1       4.197  -2.901   0.537  1.00  0.00     0.007 C 
ATOM     23  C   UNL     1       4.203  -1.390  -1.503  1.00  0.00     0.006 C 
ATOM     24  C   UNL     1       2.638   0.588  -1.840  1.00  0.00     0.007 C 
ENDBRANCH   7  17
ENDBRANCH   4   7
ENDBRANCH   2   3
ENDBRANCH   1   2
BRANCH   1  25
ATOM     25  C   UNL     1       3.125   1.595   6.530  1.00  0.00     0.023 C 
BRANCH  25  26
ATOM     26  C   UNL     1       2.525   2.740   7.312  1.00  0.00     0.116 C 
BRANCH  26  27
ATOM     27  N   UNL     1       1.085   2.908   7.131  1.00  0.00    -0.352 N 
ATOM     28  C   UNL     1       0.126   3.221   8.066  1.00  0.00     0.251 C 
ATOM     29  H   UNL     1       0.755   2.780   6.212  1.00  0.00     0.163 HD
ATOM     30  O   UNL     1      -1.061   3.271   7.758  1.00  0.00    -0.269 OA
BRANCH  28  31
ATOM     31  C   UNL     1       0.547   3.427   9.465  1.00  0.00     0.039 A 
ATOM     32  C   UNL     1      -0.136   2.761  10.484  1.00  0.00     0.014 A 
ATOM     33  C   UNL     1       1.700   4.159   9.745  1.00  0.00     0.014 A 
ATOM     34  C   UNL     1       0.412   2.734  11.766  1.00  0.00     0.010 A 
ATOM     35  C   UNL     1       2.315   4.006  10.976  1.00  0.00     0.010 A 
ATOM     36  C   UNL     1       1.677   3.297  12.004  1.00  0.00    -0.014 A 
BRANCH  36  37
ATOM     37  C   UNL     1       2.361   3.177  13.316  1.00  0.00     0.031 A 
ATOM     38  C   UNL     1       2.799   4.423  14.038  1.00  0.00     0.074 A 
ATOM     39  C   UNL     1       2.676   1.962  13.808  1.00  0.00     0.049 A 
ATOM     40  N   UNL     1       3.541   4.542  15.108  1.00  0.00    -0.248 NA
ATOM     41  C   UNL     1       2.395   5.710  13.445  1.00  0.00     0.031 C 
ATOM     42  C   UNL     1       2.374   0.677  13.172  1.00  0.00     0.029 A 
ATOM     43  N   UNL     1       3.328   1.611  14.963  1.00  0.00    -0.354 N 
ATOM     44  C   UNL     1       3.727   5.907  15.284  1.00  0.00     0.074 A 
ATOM     45  C   UNL     1       3.080   6.573  14.176  1.00  0.00     0.031 C 
ATOM     46  C   UNL     1       2.791  -0.319  13.970  1.00  0.00     0.029 A 
ATOM     47  C   UNL     1       3.430   0.254  15.149  1.00  0.00     0.049 A 
ATOM     48  H   UNL     1       3.689   2.270  15.599  1.00  0.00     0.167 HD
ATOM     49  C   UNL     1       4.348   6.554  16.297  1.00  0.00     0.037 A 
ATOM     50  C   UNL     1       3.975  -0.447  16.162  1.00  0.00     0.037 A 
ATOM     51  C   UNL     1       4.920   5.894  17.437  1.00  0.00     0.049 A 
ATOM     52  C   UNL     1       4.605   0.294  17.307  1.00  0.00     0.074 A 
ATOM     53  C   UNL     1       5.506   6.457  18.556  1.00  0.00     0.029 A 
ATOM     54  N   UNL     1       4.955   4.519  17.612  1.00  0.00    -0.354 N 
ATOM     55  N   UNL     1       4.737   1.587  17.481  1.00  0.00    -0.248 NA
ATOM     56  C   UNL     1       5.160  -0.520  18.397  1.00  0.00     0.031 C 
ATOM     57  C   UNL     1       5.914   5.421  19.401  1.00  0.00     0.029 A 
ATOM     58  C   UNL     1       5.551   4.215  18.823  1.00  0.00     0.049 A 
ATOM     59  H   UNL     1       4.608   3.858  16.971  1.00  0.00     0.167 HD
ATOM     60  C   UNL     1       5.364   1.742  18.710  1.00  0.00     0.074 A 
ATOM     61  C   UNL     1       5.575   0.412  19.243  1.00  0.00     0.031 C 
ATOM     62  C   UNL     1       5.734   2.884  19.340  1.00  0.00     0.037 A 
BRANCH  49  63
ATOM     63  C   UNL     1       4.406   8.051  16.226  1.00  0.00     0.057 A 
ATOM     64  C   UNL     1       3.260   8.842  16.390  1.00  0.00     0.134 A 
ATOM     65  C   UNL     1       5.621   8.711  16.007  1.00  0.00     0.134 A 
ATOM     66  F   UNL     1       2.062   8.270  16.583  1.00  0.00    -0.206 F 
ATOM     67  C   UNL     1       3.315  10.233  16.308  1.00  0.00     0.040 A 
ATOM     68  C   UNL     1       5.693  10.104  15.952  1.00  0.00     0.040 A 
ATOM     69  F   UNL     1       6.756   8.015  15.844  1.00  0.00    -0.206 F 
ATOM     70  C   UNL     1       4.537  10.869  16.095  1.00  0.00     0.006 A 
ENDBRANCH  49  63
BRANCH  50  71
ATOM     71  C   UNL     1       3.897  -1.929  16.169  1.00  0.00     0.057 A 
ATOM     72  C   UNL     1       3.038  -2.594  17.053  1.00  0.00     0.134 A 
ATOM     73  C   UNL     1       4.669  -2.715  15.306  1.00  0.00     0.134 A 
ATOM     74  F   UNL     1       2.287  -1.894  17.915  1.00  0.00    -0.206 F 
ATOM     75  C   UNL     1       2.961  -3.986  17.091  1.00  0.00     0.040 A 
ATOM     76  C   UNL     1       4.586  -4.109  15.318  1.00  0.00     0.040 A 
ATOM     77  F   UNL     1       5.504  -2.138  14.430  1.00  0.00    -0.206 F 
ATOM     78  C   UNL     1       3.735  -4.748  16.218  1.00  0.00     0.006 A 
ENDBRANCH  50  71
BRANCH  62  79
ATOM     79  C   UNL     1       6.365   2.747  20.692  1.00  0.00     0.057 A 
ATOM     80  C   UNL     1       7.684   2.308  20.848  1.00  0.00     0.134 A 
ATOM     81  C   UNL     1       5.659   3.112  21.845  1.00  0.00     0.134 A 
ATOM     82  F   UNL     1       8.407   1.935  19.781  1.00  0.00    -0.206 F 
ATOM     83  C   UNL     1       8.277   2.222  22.108  1.00  0.00     0.040 A 
ATOM     84  C   UNL     1       6.247   3.051  23.108  1.00  0.00     0.040 A 
ATOM     85  F   UNL     1       4.393   3.549  21.759  1.00  0.00    -0.206 F 
ATOM     86  C   UNL     1       7.559   2.601  23.242  1.00  0.00     0.006 A 
ENDBRANCH  62  79
ENDBRANCH  36  37
ENDBRANCH  28  31
ENDBRANCH  26  27
ENDBRANCH  25  26
ENDBRANCH   1  25
TORSDOF 15
