REMARK SMILES CN(c1ccccc1)c1nc(OCC(=O)NCCCCNC(=O)c2ccc(-c3c4nc(c(-c5c(F)cccc5F)c5ccc([nH]5)c(-c5c(F)cccc5F)c5nc(c(-c6c(F)cccc6F)c6ccc3[nH]6)C=C5)C=C4)cc2)cc(-c2ccncc2)n1
REMARK SMILES IDX 17 1 16 2 14 3 15 4 13 6 12 7 11 8 9 9 10 10 86 11 79 12
REMARK SMILES IDX 78 13 2 14 1 15 3 16 4 17 8 18 5 19 7 20 6 21 80 22 81 23
REMARK SMILES IDX 85 24 82 25 84 26 83 27 18 28 19 29 20 30 21 31 22 32 23 34
REMARK SMILES IDX 24 35 25 36 77 37 26 38 76 39 27 40 28 41 29 42 70 43 30 44
REMARK SMILES IDX 75 45 69 46 71 47 31 48 74 49 68 50 67 51 32 53 58 54 41 55
REMARK SMILES IDX 57 56 42 57 45 58 56 59 72 60 43 61 44 62 55 64 73 65 46 66
REMARK SMILES IDX 33 67 34 68 39 69 35 70 36 71 38 72 40 73 37 74 59 75 60 76
REMARK SMILES IDX 65 77 61 78 62 79 64 80 66 81 63 82 47 83 48 84 53 85 49 86
REMARK SMILES IDX 50 87 52 88 54 89 51 90
REMARK H PARENT 16 5 21 33 71 52 45 63
REMARK Flexibility Score: inf
ROOT
ATOM      1  C   UNL     1      -2.014  -5.747  -3.626  1.00  0.00     0.116 C 
ENDROOT
BRANCH   1   2
ATOM      2  N   UNL     1      -0.688  -6.248  -3.935  1.00  0.00    -0.353 N 
ATOM      3  C   UNL     1       0.242  -6.762  -3.082  1.00  0.00     0.258 C 
ATOM      4  O   UNL     1       1.329  -7.124  -3.539  1.00  0.00    -0.271 OA
ATOM      5  H   UNL     1      -0.426  -6.212  -4.883  1.00  0.00     0.163 HD
BRANCH   3   6
ATOM      6  C   UNL     1      -0.077  -6.890  -1.588  1.00  0.00     0.331 C 
BRANCH   6   7
ATOM      7  O   UNL     1      -0.402  -5.695  -0.903  1.00  0.00    -0.467 OA
BRANCH   7   8
ATOM      8  C   UNL     1       0.554  -4.727  -0.804  1.00  0.00     0.219 A 
ATOM      9  C   UNL     1       0.910  -2.548  -0.117  1.00  0.00     0.233 A 
ATOM     10  N   UNL     1       0.088  -3.606  -0.240  1.00  0.00    -0.177 NA
ATOM     11  N   UNL     1       2.177  -2.567  -0.565  1.00  0.00    -0.212 NA
ATOM     12  C   UNL     1       2.637  -3.721  -1.085  1.00  0.00     0.080 A 
ATOM     13  C   UNL     1       1.853  -4.846  -1.214  1.00  0.00     0.097 A 
BRANCH   9  14
ATOM     14  N   UNL     1       0.422  -1.404   0.536  1.00  0.00    -0.314 N 
ATOM     15  C   UNL     1       0.961  -0.144   0.047  1.00  0.00     0.153 C 
BRANCH  14  16
ATOM     16  C   UNL     1      -0.483  -1.401   1.610  1.00  0.00     0.043 A 
ATOM     17  C   UNL     1      -0.412  -2.403   2.595  1.00  0.00     0.026 A 
ATOM     18  C   UNL     1      -1.477  -0.423   1.761  1.00  0.00     0.026 A 
ATOM     19  C   UNL     1      -1.277  -2.421   3.692  1.00  0.00     0.002 A 
ATOM     20  C   UNL     1      -2.355  -0.442   2.852  1.00  0.00     0.002 A 
ATOM     21  C   UNL     1      -2.251  -1.438   3.820  1.00  0.00     0.000 A 
ENDBRANCH  14  16
ENDBRANCH   9  14
BRANCH  12  22
ATOM     22  C   UNL     1       4.051  -3.757  -1.464  1.00  0.00     0.004 A 
ATOM     23  C   UNL     1       4.445  -4.085  -2.767  1.00  0.00     0.030 A 
ATOM     24  C   UNL     1       5.050  -3.541  -0.509  1.00  0.00     0.030 A 
ATOM     25  C   UNL     1       5.796  -4.198  -3.048  1.00  0.00     0.111 A 
ATOM     26  C   UNL     1       6.375  -3.688  -0.884  1.00  0.00     0.111 A 
ATOM     27  N   UNL     1       6.770  -4.014  -2.132  1.00  0.00    -0.265 NA
ENDBRANCH  12  22
ENDBRANCH   7   8
ENDBRANCH   6   7
ENDBRANCH   3   6
ENDBRANCH   1   2
BRANCH   1  28
ATOM     28  C   UNL     1      -2.110  -4.231  -3.785  1.00  0.00     0.023 C 
BRANCH  28  29
ATOM     29  C   UNL     1      -1.801  -3.702  -5.190  1.00  0.00     0.023 C 
BRANCH  29  30
ATOM     30  C   UNL     1      -2.587  -4.344  -6.329  1.00  0.00     0.116 C 
BRANCH  30  31
ATOM     31  N   UNL     1      -4.025  -4.172  -6.202  1.00  0.00    -0.352 N 
ATOM     32  C   UNL     1      -4.941  -3.774  -7.147  1.00  0.00     0.251 C 
ATOM     33  H   UNL     1      -4.397  -4.369  -5.312  1.00  0.00     0.163 HD
ATOM     34  O   UNL     1      -6.109  -3.575  -6.827  1.00  0.00    -0.269 OA
BRANCH  32  35
ATOM     35  C   UNL     1      -4.514  -3.549  -8.546  1.00  0.00     0.039 A 
ATOM     36  C   UNL     1      -4.923  -2.379  -9.193  1.00  0.00     0.014 A 
ATOM     37  C   UNL     1      -3.707  -4.473  -9.214  1.00  0.00     0.014 A 
ATOM     38  C   UNL     1      -4.459  -2.099 -10.481  1.00  0.00     0.010 A 
ATOM     39  C   UNL     1      -3.190  -4.160 -10.469  1.00  0.00     0.010 A 
ATOM     40  C   UNL     1      -3.554  -2.967 -11.113  1.00  0.00    -0.014 A 
BRANCH  40  41
ATOM     41  C   UNL     1      -2.960  -2.637 -12.436  1.00  0.00     0.031 A 
ATOM     42  C   UNL     1      -3.223  -3.517 -13.626  1.00  0.00     0.074 A 
ATOM     43  C   UNL     1      -2.114  -1.593 -12.545  1.00  0.00     0.049 A 
ATOM     44  N   UNL     1      -2.713  -3.454 -14.830  1.00  0.00    -0.248 NA
ATOM     45  C   UNL     1      -4.163  -4.633 -13.431  1.00  0.00     0.031 C 
ATOM     46  C   UNL     1      -1.736  -0.691 -11.456  1.00  0.00     0.029 A 
ATOM     47  N   UNL     1      -1.400  -1.128 -13.622  1.00  0.00    -0.354 N 
ATOM     48  C   UNL     1      -3.248  -4.531 -15.525  1.00  0.00     0.074 A 
ATOM     49  C   UNL     1      -4.093  -5.254 -14.600  1.00  0.00     0.031 C 
ATOM     50  C   UNL     1      -0.866   0.221 -11.920  1.00  0.00     0.029 A 
ATOM     51  C   UNL     1      -0.592  -0.055 -13.327  1.00  0.00     0.049 A 
ATOM     52  H   UNL     1      -1.460  -1.525 -14.521  1.00  0.00     0.167 HD
ATOM     53  C   UNL     1      -3.063  -4.876 -16.822  1.00  0.00     0.037 A 
ATOM     54  C   UNL     1       0.285   0.619 -14.096  1.00  0.00     0.037 A 
ATOM     55  C   UNL     1      -2.252  -4.134 -17.751  1.00  0.00     0.049 A 
ATOM     56  C   UNL     1       0.464   0.218 -15.535  1.00  0.00     0.074 A 
ATOM     57  C   UNL     1      -2.076  -4.357 -19.106  1.00  0.00     0.029 A 
ATOM     58  N   UNL     1      -1.479  -3.032 -17.423  1.00  0.00    -0.354 N 
ATOM     59  N   UNL     1      -0.115  -0.752 -16.200  1.00  0.00    -0.248 NA
ATOM     60  C   UNL     1       1.414   1.007 -16.332  1.00  0.00     0.031 C 
ATOM     61  C   UNL     1      -1.155  -3.421 -19.587  1.00  0.00     0.029 A 
ATOM     62  C   UNL     1      -0.800  -2.582 -18.543  1.00  0.00     0.049 A 
ATOM     63  H   UNL     1      -1.422  -2.628 -16.526  1.00  0.00     0.167 HD
ATOM     64  C   UNL     1       0.377  -0.670 -17.497  1.00  0.00     0.074 A 
ATOM     65  C   UNL     1       1.291   0.452 -17.529  1.00  0.00     0.031 C 
ATOM     66  C   UNL     1       0.097  -1.455 -18.565  1.00  0.00     0.037 A 
BRANCH  53  67
ATOM     67  C   UNL     1      -3.750  -6.114 -17.322  1.00  0.00     0.057 A 
ATOM     68  C   UNL     1      -5.136  -6.166 -17.517  1.00  0.00     0.134 A 
ATOM     69  C   UNL     1      -3.005  -7.247 -17.675  1.00  0.00     0.134 A 
ATOM     70  F   UNL     1      -5.908  -5.119 -17.191  1.00  0.00    -0.206 F 
ATOM     71  C   UNL     1      -5.758  -7.307 -18.027  1.00  0.00     0.040 A 
ATOM     72  C   UNL     1      -3.612  -8.383 -18.211  1.00  0.00     0.040 A 
ATOM     73  F   UNL     1      -1.672  -7.261 -17.521  1.00  0.00    -0.206 F 
ATOM     74  C   UNL     1      -4.995  -8.416 -18.384  1.00  0.00     0.006 A 
ENDBRANCH  53  67
BRANCH  54  75
ATOM     75  C   UNL     1       1.068   1.745 -13.525  1.00  0.00     0.057 A 
ATOM     76  C   UNL     1       0.844   3.066 -13.933  1.00  0.00     0.134 A 
ATOM     77  C   UNL     1       2.077   1.526 -12.579  1.00  0.00     0.134 A 
ATOM     78  F   UNL     1      -0.095   3.338 -14.852  1.00  0.00    -0.206 F 
ATOM     79  C   UNL     1       1.612   4.123 -13.444  1.00  0.00     0.040 A 
ATOM     80  C   UNL     1       2.834   2.578 -12.060  1.00  0.00     0.040 A 
ATOM     81  F   UNL     1       2.337   0.286 -12.140  1.00  0.00    -0.206 F 
ATOM     82  C   UNL     1       2.609   3.881 -12.500  1.00  0.00     0.006 A 
ENDBRANCH  54  75
BRANCH  66  83
ATOM     83  C   UNL     1       0.751  -1.108 -19.870  1.00  0.00     0.057 A 
ATOM     84  C   UNL     1       2.115  -1.329 -20.098  1.00  0.00     0.134 A 
ATOM     85  C   UNL     1      -0.006  -0.590 -20.929  1.00  0.00     0.134 A 
ATOM     86  F   UNL     1       2.898  -1.811 -19.120  1.00  0.00    -0.206 F 
ATOM     87  C   UNL     1       2.707  -1.031 -21.326  1.00  0.00     0.040 A 
ATOM     88  C   UNL     1       0.569  -0.314 -22.171  1.00  0.00     0.040 A 
ATOM     89  F   UNL     1      -1.319  -0.362 -20.781  1.00  0.00    -0.206 F 
ATOM     90  C   UNL     1       1.931  -0.529 -22.370  1.00  0.00     0.006 A 
ENDBRANCH  66  83
ENDBRANCH  40  41
ENDBRANCH  32  35
ENDBRANCH  30  31
ENDBRANCH  29  30
ENDBRANCH  28  29
ENDBRANCH   1  28
TORSDOF 16
