REMARK SMILES Cc1cccc(S(=O)(=O)Nc2cc(C(=O)NCCCCNC(=O)c3ccc(-c4c5nc(c(-c6c(F)cccc6F)c6ccc([nH]6)c(-c6c(F)cccc6F)c6nc(c(-c7c(F)cccc7F)c7ccc4[nH]7)C=C6)C=C5)cc3)ccc2N2CCC[C@H](C[NH+]3CCCC3)C2)c1
REMARK SMILES IDX 18 1 17 2 16 3 14 4 15 5 13 7 11 8 12 9 80 10 79 11 78 12
REMARK SMILES IDX 10 13 7 15 8 16 9 17 6 18 1 19 2 20 3 21 93 22 4 23 5 24
REMARK SMILES IDX 81 25 82 26 92 27 83 28 85 29 84 30 86 31 87 32 88 33 91 34
REMARK SMILES IDX 89 36 90 37 19 38 20 39 21 40 22 41 23 43 24 44 25 45 77 46
REMARK SMILES IDX 26 47 76 48 27 49 28 50 29 51 70 52 30 53 75 54 69 55 71 56
REMARK SMILES IDX 31 57 74 58 68 59 67 60 32 62 58 63 41 64 57 65 42 66 45 67
REMARK SMILES IDX 56 68 72 69 43 70 44 71 55 73 73 74 46 75 33 76 34 77 39 78
REMARK SMILES IDX 35 79 36 80 38 81 40 82 37 83 59 84 60 85 65 86 61 87 62 88
REMARK SMILES IDX 64 89 66 90 63 91 47 92 48 93 53 94 49 95 50 96 52 97 54 98
REMARK SMILES IDX 51 99
REMARK H PARENT 16 6 10 14 87 35 21 42 71 61 45 72
REMARK Flexibility Score: inf
ROOT
ATOM      1  C   UNL     1       0.322   1.773  -4.235  1.00  0.00     0.023 C 
ENDROOT
BRANCH   1   2
ATOM      2  C   UNL     1       1.006   0.993  -3.103  1.00  0.00     0.116 C 
BRANCH   2   3
ATOM      3  N   UNL     1       2.426   1.295  -3.018  1.00  0.00    -0.352 N 
ATOM      4  C   UNL     1       3.153   2.219  -2.310  1.00  0.00     0.251 C 
ATOM      5  O   UNL     1       4.378   2.191  -2.440  1.00  0.00    -0.269 OA
ATOM      6  H   UNL     1       2.982   0.715  -3.587  1.00  0.00     0.163 HD
BRANCH   4   7
ATOM      7  C   UNL     1       2.558   3.197  -1.354  1.00  0.00     0.042 A 
ATOM      8  C   UNL     1       0.694   4.304  -0.278  1.00  0.00     0.073 A 
ATOM      9  C   UNL     1       1.218   3.567  -1.341  1.00  0.00     0.042 A 
ATOM     10  C   UNL     1       1.522   4.853   0.717  1.00  0.00     0.061 A 
ATOM     11  C   UNL     1       2.892   4.575   0.632  1.00  0.00     0.029 A 
ATOM     12  C   UNL     1       3.398   3.735  -0.368  1.00  0.00     0.016 A 
BRANCH   8  13
ATOM     13  N   UNL     1      -0.726   4.425  -0.191  1.00  0.00    -0.277 N 
ATOM     14  H   UNL     1      -1.160   5.280  -0.413  1.00  0.00     0.180 HD
BRANCH  13  15
ATOM     15  S   UNL     1      -1.671   3.092   0.297  1.00  0.00     0.261 S 
ATOM     16  O   UNL     1      -2.619   2.909  -0.787  1.00  0.00    -0.201 OA
ATOM     17  O   UNL     1      -2.148   3.397   1.629  1.00  0.00    -0.201 OA
BRANCH  15  18
ATOM     18  C   UNL     1      -0.732   1.576   0.420  1.00  0.00     0.088 A 
ATOM     19  C   UNL     1       2.772   0.228   1.133  1.00  0.00     0.044 C 
ATOM     20  C   UNL     1       1.310   0.299   0.800  1.00  0.00    -0.050 A 
ATOM     21  C   UNL     1       0.697  -0.831   0.265  1.00  0.00     0.003 A 
ATOM     22  C   UNL     1       0.563   1.483   0.945  1.00  0.00     0.025 A 
ATOM     23  C   UNL     1      -0.622  -0.761  -0.158  1.00  0.00     0.002 A 
ATOM     24  C   UNL     1      -1.337   0.429  -0.098  1.00  0.00     0.022 A 
ENDBRANCH  15  18
ENDBRANCH  13  15
ENDBRANCH   8  13
BRANCH  10  25
ATOM     25  N   UNL     1       1.057   5.641   1.753  1.00  0.00    -0.369 N 
ATOM     26  C   UNL     1       1.283   7.080   1.665  1.00  0.00     0.116 C 
ATOM     27  C   UNL     1       0.105   5.157   2.751  1.00  0.00     0.126 C 
ATOM     28  C   UNL     1       1.683   7.612   3.037  1.00  0.00     0.022 C 
ATOM     29  C   UNL     1       0.501   5.644   4.156  1.00  0.00     0.064 C 
ATOM     30  C   UNL     1       0.687   7.171   4.111  1.00  0.00     0.013 C 
BRANCH  29  31
ATOM     31  C   UNL     1       1.718   4.820   4.652  1.00  0.00     0.267 C 
BRANCH  31  32
ATOM     32  N   UNL     1       2.124   4.878   6.059  1.00  0.00    -0.335 N 
ATOM     33  C   UNL     1       1.077   4.579   7.032  1.00  0.00     0.262 C 
ATOM     34  C   UNL     1       2.801   6.099   6.483  1.00  0.00     0.262 C 
ATOM     35  H   UNL     1       2.804   4.118   6.062  1.00  0.00     0.348 HD
ATOM     36  C   UNL     1       0.648   5.925   7.580  1.00  0.00     0.067 C 
ATOM     37  C   UNL     1       1.920   6.752   7.543  1.00  0.00     0.067 C 
ENDBRANCH  31  32
ENDBRANCH  29  31
ENDBRANCH  10  25
ENDBRANCH   4   7
ENDBRANCH   2   3
ENDBRANCH   1   2
BRANCH   1  38
ATOM     38  C   UNL     1       0.744   1.315  -5.630  1.00  0.00     0.023 C 
BRANCH  38  39
ATOM     39  C   UNL     1       0.096   0.003  -6.043  1.00  0.00     0.116 C 
BRANCH  39  40
ATOM     40  N   UNL     1      -1.166   0.157  -6.754  1.00  0.00    -0.352 N 
ATOM     41  C   UNL     1      -2.083  -0.803  -7.156  1.00  0.00     0.251 C 
ATOM     42  H   UNL     1      -1.403   1.084  -6.986  1.00  0.00     0.163 HD
ATOM     43  O   UNL     1      -3.062  -0.478  -7.802  1.00  0.00    -0.269 OA
BRANCH  41  44
ATOM     44  C   UNL     1      -1.956  -2.199  -6.655  1.00  0.00     0.039 A 
ATOM     45  C   UNL     1      -3.125  -2.824  -6.200  1.00  0.00     0.014 A 
ATOM     46  C   UNL     1      -0.717  -2.777  -6.406  1.00  0.00     0.014 A 
ATOM     47  C   UNL     1      -3.031  -3.843  -5.257  1.00  0.00     0.010 A 
ATOM     48  C   UNL     1      -0.615  -3.705  -5.392  1.00  0.00     0.010 A 
ATOM     49  C   UNL     1      -1.772  -4.169  -4.761  1.00  0.00    -0.014 A 
BRANCH  49  50
ATOM     50  C   UNL     1      -1.563  -4.875  -3.506  1.00  0.00     0.031 A 
ATOM     51  C   UNL     1      -1.082  -6.271  -3.510  1.00  0.00     0.074 A 
ATOM     52  C   UNL     1      -1.711  -4.206  -2.340  1.00  0.00     0.049 A 
ATOM     53  N   UNL     1      -1.161  -7.072  -2.504  1.00  0.00    -0.248 NA
ATOM     54  C   UNL     1      -0.513  -6.900  -4.693  1.00  0.00     0.031 C 
ATOM     55  C   UNL     1      -1.294  -4.650  -1.013  1.00  0.00     0.029 A 
ATOM     56  N   UNL     1      -2.465  -3.061  -2.077  1.00  0.00    -0.354 N 
ATOM     57  C   UNL     1      -0.387  -8.176  -2.779  1.00  0.00     0.074 A 
ATOM     58  C   UNL     1      -0.109  -8.070  -4.191  1.00  0.00     0.031 C 
ATOM     59  C   UNL     1      -2.051  -4.029  -0.096  1.00  0.00     0.029 A 
ATOM     60  C   UNL     1      -3.058  -3.274  -0.826  1.00  0.00     0.049 A 
ATOM     61  H   UNL     1      -2.561  -2.268  -2.653  1.00  0.00     0.167 HD
ATOM     62  C   UNL     1       0.038  -8.949  -1.734  1.00  0.00     0.037 A 
ATOM     63  C   UNL     1      -4.399  -3.333  -0.592  1.00  0.00     0.037 A 
ATOM     64  C   UNL     1      -0.642  -8.550  -0.491  1.00  0.00     0.049 A 
ATOM     65  C   UNL     1      -4.771  -4.632   0.084  1.00  0.00     0.074 A 
ATOM     66  C   UNL     1      -0.243  -7.813   0.613  1.00  0.00     0.029 A 
ATOM     67  N   UNL     1      -2.032  -8.655  -0.402  1.00  0.00    -0.354 N 
ATOM     68  N   UNL     1      -4.042  -5.714  -0.007  1.00  0.00    -0.248 NA
ATOM     69  C   UNL     1      -5.940  -4.818   0.937  1.00  0.00     0.031 C 
ATOM     70  C   UNL     1      -1.407  -7.410   1.321  1.00  0.00     0.029 A 
ATOM     71  C   UNL     1      -2.515  -7.925   0.668  1.00  0.00     0.049 A 
ATOM     72  H   UNL     1      -2.593  -9.178  -1.020  1.00  0.00     0.167 HD
ATOM     73  C   UNL     1      -4.559  -6.684   0.805  1.00  0.00     0.074 A 
ATOM     74  C   UNL     1      -5.766  -6.087   1.352  1.00  0.00     0.031 C 
ATOM     75  C   UNL     1      -3.939  -7.888   0.987  1.00  0.00     0.037 A 
BRANCH  62  76
ATOM     76  C   UNL     1       1.276  -9.844  -1.772  1.00  0.00     0.057 A 
ATOM     77  C   UNL     1       1.947 -10.200  -0.582  1.00  0.00     0.134 A 
ATOM     78  C   UNL     1       1.915 -10.323  -2.932  1.00  0.00     0.134 A 
ATOM     79  F   UNL     1       1.440  -9.920   0.626  1.00  0.00    -0.206 F 
ATOM     80  C   UNL     1       3.185 -10.867  -0.559  1.00  0.00     0.040 A 
ATOM     81  C   UNL     1       3.168 -10.958  -2.928  1.00  0.00     0.040 A 
ATOM     82  F   UNL     1       1.346 -10.263  -4.136  1.00  0.00    -0.206 F 
ATOM     83  C   UNL     1       3.818 -11.221  -1.738  1.00  0.00     0.006 A 
ENDBRANCH  62  76
BRANCH  63  84
ATOM     84  C   UNL     1      -5.219  -2.555  -1.551  1.00  0.00     0.057 A 
ATOM     85  C   UNL     1      -5.115  -1.152  -1.510  1.00  0.00     0.134 A 
ATOM     86  C   UNL     1      -5.723  -3.121  -2.725  1.00  0.00     0.134 A 
ATOM     87  F   UNL     1      -4.655  -0.547  -0.405  1.00  0.00    -0.206 F 
ATOM     88  C   UNL     1      -5.355  -0.360  -2.636  1.00  0.00     0.040 A 
ATOM     89  C   UNL     1      -5.983  -2.335  -3.855  1.00  0.00     0.040 A 
ATOM     90  F   UNL     1      -5.829  -4.451  -2.849  1.00  0.00    -0.206 F 
ATOM     91  C   UNL     1      -5.754  -0.959  -3.827  1.00  0.00     0.006 A 
ENDBRANCH  63  84
BRANCH  75  92
ATOM     92  C   UNL     1      -4.583  -9.109   1.594  1.00  0.00     0.057 A 
ATOM     93  C   UNL     1      -5.960  -9.371   1.538  1.00  0.00     0.134 A 
ATOM     94  C   UNL     1      -3.794 -10.162   2.109  1.00  0.00     0.134 A 
ATOM     95  F   UNL     1      -6.817  -8.511   0.971  1.00  0.00    -0.206 F 
ATOM     96  C   UNL     1      -6.519 -10.566   2.010  1.00  0.00     0.040 A 
ATOM     97  C   UNL     1      -4.335 -11.379   2.532  1.00  0.00     0.040 A 
ATOM     98  F   UNL     1      -2.459 -10.069   2.196  1.00  0.00    -0.206 F 
ATOM     99  C   UNL     1      -5.705 -11.581   2.496  1.00  0.00     0.006 A 
ENDBRANCH  75  92
ENDBRANCH  49  50
ENDBRANCH  41  44
ENDBRANCH  39  40
ENDBRANCH  38  39
ENDBRANCH   1  38
TORSDOF 17
