REMARK SMILES C[NH+](C)CCc1nc(Nc2ccc(O)c(C(=O)NCCCCNC(=O)c3ccc(-c4c5nc(c(-c6c(F)cccc6F)c6ccc([nH]6)c(-c6c(F)cccc6F)c6nc(c(-c7c(F)cccc7F)c7ccc4[nH]7)C=C6)C=C5)cc3)c2)c2ccccc2n1
REMARK SMILES IDX 19 1 18 2 16 3 17 4 15 6 10 7 11 8 80 9 12 10 13 11 9 12
REMARK SMILES IDX 8 14 6 15 7 16 87 17 86 18 81 19 85 20 82 21 84 22 83 23
REMARK SMILES IDX 5 24 4 25 2 26 1 27 3 28 14 30 20 32 21 33 22 34 23 35 24 36
REMARK SMILES IDX 25 38 26 39 27 40 79 41 28 42 78 43 29 44 30 45 31 46 72 47
REMARK SMILES IDX 32 48 77 49 71 50 73 51 33 52 76 53 70 54 69 55 34 57 60 58
REMARK SMILES IDX 43 59 59 60 44 61 47 62 58 63 74 64 45 65 46 66 57 68 75 69
REMARK SMILES IDX 48 70 35 71 36 72 41 73 37 74 38 75 40 76 42 77 39 78 61 79
REMARK SMILES IDX 62 80 67 81 63 82 64 83 66 84 68 85 65 86 49 87 50 88 55 89
REMARK SMILES IDX 51 90 52 91 54 92 56 93 53 94
REMARK H PARENT 18 5 9 13 2 29 14 31 23 37 73 56 47 67
REMARK Flexibility Score: inf
ROOT
ATOM      1  C   UNL     1       6.285   6.433   6.477  1.00  0.00     0.116 C 
ENDROOT
BRANCH   1   2
ATOM      2  N   UNL     1       6.769   5.075   6.543  1.00  0.00    -0.352 N 
ATOM      3  C   UNL     1       6.112   3.879   6.650  1.00  0.00     0.255 C 
ATOM      4  O   UNL     1       6.828   2.889   6.836  1.00  0.00    -0.269 OA
ATOM      5  H   UNL     1       7.750   4.994   6.505  1.00  0.00     0.163 HD
BRANCH   3   6
ATOM      6  C   UNL     1       4.643   3.668   6.458  1.00  0.00     0.083 A 
ATOM      7  C   UNL     1       3.021   2.008   5.636  1.00  0.00     0.041 A 
ATOM      8  C   UNL     1       1.986   2.901   5.908  1.00  0.00     0.030 A 
ATOM      9  C   UNL     1       4.333   2.406   5.907  1.00  0.00     0.043 A 
ATOM     10  C   UNL     1       2.254   4.139   6.483  1.00  0.00     0.049 A 
ATOM     11  C   UNL     1       3.571   4.513   6.775  1.00  0.00     0.128 A 
BRANCH   7  12
ATOM     12  N   UNL     1       2.785   0.759   5.044  1.00  0.00    -0.340 N 
ATOM     13  H   UNL     1       3.320   0.004   5.382  1.00  0.00     0.168 HD
BRANCH  12  14
ATOM     14  C   UNL     1       1.866   0.468   4.018  1.00  0.00     0.142 A 
ATOM     15  C   UNL     1       0.584   1.220   2.265  1.00  0.00     0.137 A 
ATOM     16  N   UNL     1       1.451   1.490   3.245  1.00  0.00    -0.215 NA
ATOM     17  N   UNL     1       0.064   0.008   2.034  1.00  0.00    -0.233 NA
ATOM     18  C   UNL     1       0.501  -1.008   2.780  1.00  0.00     0.076 A 
ATOM     19  C   UNL     1       1.420  -0.848   3.821  1.00  0.00     0.043 A 
ATOM     20  C   UNL     1       0.037  -2.283   2.487  1.00  0.00     0.029 A 
ATOM     21  C   UNL     1       1.822  -1.981   4.576  1.00  0.00     0.014 A 
ATOM     22  C   UNL     1       0.456  -3.404   3.207  1.00  0.00     0.002 A 
ATOM     23  C   UNL     1       1.345  -3.252   4.261  1.00  0.00     0.001 A 
BRANCH  15  24
ATOM     24  C   UNL     1       0.188   2.351   1.364  1.00  0.00     0.138 C 
BRANCH  24  25
ATOM     25  C   UNL     1       0.894   2.341  -0.005  1.00  0.00     0.269 C 
BRANCH  25  26
ATOM     26  N   UNL     1       0.470   1.414  -1.069  1.00  0.00    -0.339 N 
ATOM     27  C   UNL     1       1.120   0.108  -1.003  1.00  0.00     0.332 C 
ATOM     28  C   UNL     1      -0.978   1.271  -1.180  1.00  0.00     0.332 C 
ATOM     29  H   UNL     1       0.792   1.863  -1.927  1.00  0.00     0.347 HD
ENDBRANCH  25  26
ENDBRANCH  24  25
ENDBRANCH  15  24
ENDBRANCH  12  14
ENDBRANCH   7  12
BRANCH  11  30
ATOM     30  O   UNL     1       3.728   5.700   7.422  1.00  0.00    -0.507 OA
ATOM     31  H   UNL     1       2.981   6.232   7.613  1.00  0.00     0.293 HD
ENDBRANCH  11  30
ENDBRANCH   3   6
ENDBRANCH   1   2
BRANCH   1  32
ATOM     32  C   UNL     1       6.135   6.995   7.894  1.00  0.00     0.023 C 
BRANCH  32  33
ATOM     33  C   UNL     1       7.435   7.489   8.524  1.00  0.00     0.023 C 
BRANCH  33  34
ATOM     34  C   UNL     1       8.040   8.706   7.843  1.00  0.00     0.116 C 
BRANCH  34  35
ATOM     35  N   UNL     1       7.134   9.844   7.782  1.00  0.00    -0.352 N 
ATOM     36  C   UNL     1       7.450  11.179   7.770  1.00  0.00     0.251 C 
ATOM     37  H   UNL     1       6.174   9.629   7.744  1.00  0.00     0.163 HD
ATOM     38  O   UNL     1       6.571  12.035   7.804  1.00  0.00    -0.269 OA
BRANCH  36  39
ATOM     39  C   UNL     1       8.871  11.569   7.766  1.00  0.00     0.039 A 
ATOM     40  C   UNL     1       9.325  12.460   8.741  1.00  0.00     0.014 A 
ATOM     41  C   UNL     1       9.759  11.002   6.848  1.00  0.00     0.014 A 
ATOM     42  C   UNL     1      10.688  12.731   8.838  1.00  0.00     0.010 A 
ATOM     43  C   UNL     1      11.123  11.217   6.992  1.00  0.00     0.010 A 
ATOM     44  C   UNL     1      11.599  12.082   7.989  1.00  0.00    -0.014 A 
BRANCH  44  45
ATOM     45  C   UNL     1      13.059  12.296   8.125  1.00  0.00     0.031 A 
ATOM     46  C   UNL     1      13.823  12.960   7.016  1.00  0.00     0.074 A 
ATOM     47  C   UNL     1      13.701  11.828   9.211  1.00  0.00     0.049 A 
ATOM     48  N   UNL     1      15.110  13.173   6.913  1.00  0.00    -0.248 NA
ATOM     49  C   UNL     1      13.041  13.418   5.857  1.00  0.00     0.031 C 
ATOM     50  C   UNL     1      13.073  11.116  10.327  1.00  0.00     0.029 A 
ATOM     51  N   UNL     1      15.029  11.871   9.550  1.00  0.00    -0.354 N 
ATOM     52  C   UNL     1      15.292  13.772   5.674  1.00  0.00     0.074 A 
ATOM     53  C   UNL     1      13.994  13.843   5.040  1.00  0.00     0.031 C 
ATOM     54  C   UNL     1      14.013  10.809  11.236  1.00  0.00     0.029 A 
ATOM     55  C   UNL     1      15.310  11.273  10.754  1.00  0.00     0.049 A 
ATOM     56  H   UNL     1      15.716  12.290   8.983  1.00  0.00     0.167 HD
ATOM     57  C   UNL     1      16.436  14.242   5.124  1.00  0.00     0.037 A 
ATOM     58  C   UNL     1      16.484  11.118  11.394  1.00  0.00     0.037 A 
ATOM     59  C   UNL     1      17.720  14.199   5.771  1.00  0.00     0.049 A 
ATOM     60  C   UNL     1      17.737  11.664  10.771  1.00  0.00     0.074 A 
ATOM     61  C   UNL     1      18.927  14.707   5.327  1.00  0.00     0.029 A 
ATOM     62  N   UNL     1      17.959  13.614   7.006  1.00  0.00    -0.354 N 
ATOM     63  N   UNL     1      17.886  12.290   9.628  1.00  0.00    -0.248 NA
ATOM     64  C   UNL     1      18.984  11.488  11.528  1.00  0.00     0.031 C 
ATOM     65  C   UNL     1      19.906  14.402   6.280  1.00  0.00     0.029 A 
ATOM     66  C   UNL     1      19.299  13.736   7.333  1.00  0.00     0.049 A 
ATOM     67  H   UNL     1      17.278  13.177   7.566  1.00  0.00     0.167 HD
ATOM     68  C   UNL     1      19.235  12.605   9.541  1.00  0.00     0.074 A 
ATOM     69  C   UNL     1      19.859  12.112  10.751  1.00  0.00     0.031 C 
ATOM     70  C   UNL     1      19.898  13.245   8.547  1.00  0.00     0.037 A 
BRANCH  57  71
ATOM     71  C   UNL     1      16.342  14.851   3.757  1.00  0.00     0.057 A 
ATOM     72  C   UNL     1      15.727  16.092   3.545  1.00  0.00     0.134 A 
ATOM     73  C   UNL     1      16.890  14.202   2.644  1.00  0.00     0.134 A 
ATOM     74  F   UNL     1      15.169  16.758   4.568  1.00  0.00    -0.206 F 
ATOM     75  C   UNL     1      15.636  16.654   2.271  1.00  0.00     0.040 A 
ATOM     76  C   UNL     1      16.828  14.765   1.369  1.00  0.00     0.040 A 
ATOM     77  F   UNL     1      17.495  13.013   2.778  1.00  0.00    -0.206 F 
ATOM     78  C   UNL     1      16.193  15.992   1.179  1.00  0.00     0.006 A 
ENDBRANCH  57  71
BRANCH  58  79
ATOM     79  C   UNL     1      16.525  10.443  12.714  1.00  0.00     0.057 A 
ATOM     80  C   UNL     1      16.760  11.171  13.886  1.00  0.00     0.134 A 
ATOM     81  C   UNL     1      16.335   9.062  12.838  1.00  0.00     0.134 A 
ATOM     82  F   UNL     1      16.966  12.495  13.828  1.00  0.00    -0.206 F 
ATOM     83  C   UNL     1      16.823  10.548  15.134  1.00  0.00     0.040 A 
ATOM     84  C   UNL     1      16.375   8.428  14.081  1.00  0.00     0.040 A 
ATOM     85  F   UNL     1      16.099   8.311  11.753  1.00  0.00    -0.206 F 
ATOM     86  C   UNL     1      16.625   9.172  15.233  1.00  0.00     0.006 A 
ENDBRANCH  58  79
BRANCH  70  87
ATOM     87  C   UNL     1      21.366  13.475   8.743  1.00  0.00     0.057 A 
ATOM     88  C   UNL     1      22.297  12.437   8.623  1.00  0.00     0.134 A 
ATOM     89  C   UNL     1      21.855  14.759   9.016  1.00  0.00     0.134 A 
ATOM     90  F   UNL     1      21.889  11.183   8.377  1.00  0.00    -0.206 F 
ATOM     91  C   UNL     1      23.665  12.664   8.785  1.00  0.00     0.040 A 
ATOM     92  C   UNL     1      23.221  15.003   9.157  1.00  0.00     0.040 A 
ATOM     93  F   UNL     1      21.014  15.798   9.136  1.00  0.00    -0.206 F 
ATOM     94  C   UNL     1      24.130  13.952   9.046  1.00  0.00     0.006 A 
ENDBRANCH  70  87
ENDBRANCH  44  45
ENDBRANCH  36  39
ENDBRANCH  34  35
ENDBRANCH  33  34
ENDBRANCH  32  33
ENDBRANCH   1  32
TORSDOF 17
