REMARK SMILES NC(=O)C[C@@H](NC(=O)c1ccc(CO)cc1)C(=O)NCCCCNC(=O)c1ccc(-c2c3nc(c(-c4c(F)cccc4F)c4ccc([nH]4)c(-c4c(F)cccc4F)c4nc(c(-c5c(F)cccc5F)c5ccc2[nH]5)C=C4)C=C3)cc1
REMARK SMILES IDX 20 1 19 2 17 3 18 4 5 6 4 7 2 8 1 9 3 12 6 13 7 14 8 16 9 17
REMARK SMILES IDX 10 18 16 19 11 20 15 21 12 22 13 23 14 24 21 26 22 27 23 28
REMARK SMILES IDX 24 29 25 30 26 32 27 33 28 34 80 35 29 36 79 37 30 38 31 39
REMARK SMILES IDX 32 40 73 41 33 42 78 43 72 44 74 45 34 46 77 47 71 48 70 49
REMARK SMILES IDX 35 51 61 52 44 53 60 54 45 55 48 56 59 57 75 58 46 59 47 60
REMARK SMILES IDX 58 62 76 63 49 64 36 65 37 66 42 67 38 68 39 69 41 70 43 71
REMARK SMILES IDX 40 72 62 73 63 74 68 75 64 76 65 77 67 78 69 79 66 80 50 81
REMARK SMILES IDX 51 82 56 83 52 84 53 85 55 86 57 87 54 88
REMARK H PARENT 19 5 1 10 1 11 6 15 14 25 24 31 74 50 48 61
REMARK Flexibility Score: inf
ROOT
ATOM      1  C   UNL     1       3.490   3.675  -0.308  1.00  0.00     0.116 C 
ENDROOT
BRANCH   1   2
ATOM      2  N   UNL     1       2.998   4.231   0.936  1.00  0.00    -0.354 N 
ATOM      3  C   UNL     1       2.298   3.639   1.942  1.00  0.00     0.243 C 
ATOM      4  O   UNL     1       1.839   4.367   2.827  1.00  0.00    -0.273 OA
ATOM      5  H   UNL     1       3.202   5.185   1.075  1.00  0.00     0.163 HD
BRANCH   3   6
ATOM      6  C   UNL     1       1.961   2.139   1.906  1.00  0.00     0.180 C 
BRANCH   6   7
ATOM      7  C   UNL     1       0.773   2.031   0.931  1.00  0.00     0.134 C 
BRANCH   7   8
ATOM      8  C   UNL     1       0.220   0.641   0.798  1.00  0.00     0.220 C 
ATOM      9  N   UNL     1       0.905  -0.179  -0.051  1.00  0.00    -0.370 N 
ATOM     10  H   UNL     1       0.602  -1.106  -0.190  1.00  0.00     0.159 HD
ATOM     11  H   UNL     1       1.701   0.156  -0.523  1.00  0.00     0.159 HD
ATOM     12  O   UNL     1      -0.779   0.255   1.390  1.00  0.00    -0.275 OA
ENDBRANCH   7   8
ENDBRANCH   6   7
BRANCH   6  13
ATOM     13  N   UNL     1       3.079   1.236   1.560  1.00  0.00    -0.340 N 
ATOM     14  C   UNL     1       4.367   1.160   2.046  1.00  0.00     0.251 C 
ATOM     15  H   UNL     1       2.868   0.575   0.862  1.00  0.00     0.164 HD
ATOM     16  O   UNL     1       5.030   0.151   1.821  1.00  0.00    -0.269 OA
BRANCH  14  17
ATOM     17  C   UNL     1       5.024   2.330   2.664  1.00  0.00     0.039 A 
ATOM     18  C   UNL     1       6.132   2.870   1.999  1.00  0.00     0.014 A 
ATOM     19  C   UNL     1       4.537   2.942   3.818  1.00  0.00     0.014 A 
ATOM     20  C   UNL     1       6.660   4.096   2.404  1.00  0.00     0.007 A 
ATOM     21  C   UNL     1       5.064   4.175   4.218  1.00  0.00     0.007 A 
ATOM     22  C   UNL     1       6.097   4.783   3.488  1.00  0.00    -0.023 A 
BRANCH  22  23
ATOM     23  C   UNL     1       6.577   6.169   3.830  1.00  0.00     0.191 C 
BRANCH  23  24
ATOM     24  O   UNL     1       7.937   6.139   4.233  1.00  0.00    -0.392 OA
ATOM     25  H   UNL     1       8.029   5.578   5.019  1.00  0.00     0.211 HD
ENDBRANCH  23  24
ENDBRANCH  22  23
ENDBRANCH  14  17
ENDBRANCH   6  13
ENDBRANCH   3   6
ENDBRANCH   1   2
BRANCH   1  26
ATOM     26  C   UNL     1       3.192   4.616  -1.469  1.00  0.00     0.023 C 
BRANCH  26  27
ATOM     27  C   UNL     1       3.992   5.920  -1.426  1.00  0.00     0.023 C 
BRANCH  27  28
ATOM     28  C   UNL     1       5.505   5.736  -1.400  1.00  0.00     0.116 C 
BRANCH  28  29
ATOM     29  N   UNL     1       5.995   5.008  -2.560  1.00  0.00    -0.352 N 
ATOM     30  C   UNL     1       7.011   5.350  -3.416  1.00  0.00     0.251 C 
ATOM     31  H   UNL     1       5.538   4.159  -2.757  1.00  0.00     0.163 HD
ATOM     32  O   UNL     1       7.190   4.722  -4.455  1.00  0.00    -0.269 OA
BRANCH  30  33
ATOM     33  C   UNL     1       7.874   6.499  -3.082  1.00  0.00     0.039 A 
ATOM     34  C   UNL     1       8.112   7.474  -4.052  1.00  0.00     0.014 A 
ATOM     35  C   UNL     1       8.421   6.620  -1.801  1.00  0.00     0.014 A 
ATOM     36  C   UNL     1       8.861   8.602  -3.720  1.00  0.00     0.010 A 
ATOM     37  C   UNL     1       9.102   7.780  -1.452  1.00  0.00     0.010 A 
ATOM     38  C   UNL     1       9.339   8.777  -2.411  1.00  0.00    -0.014 A 
BRANCH  38  39
ATOM     39  C   UNL     1      10.118   9.981  -2.033  1.00  0.00     0.031 A 
ATOM     40  C   UNL     1      11.555   9.840  -1.612  1.00  0.00     0.074 A 
ATOM     41  C   UNL     1       9.521  11.188  -2.014  1.00  0.00     0.049 A 
ATOM     42  N   UNL     1      12.386  10.757  -1.189  1.00  0.00    -0.248 NA
ATOM     43  C   UNL     1      12.123   8.483  -1.646  1.00  0.00     0.031 C 
ATOM     44  C   UNL     1       8.122  11.448  -2.358  1.00  0.00     0.029 A 
ATOM     45  N   UNL     1      10.017  12.424  -1.684  1.00  0.00    -0.354 N 
ATOM     46  C   UNL     1      13.566  10.086  -0.891  1.00  0.00     0.074 A 
ATOM     47  C   UNL     1      13.326   8.680  -1.127  1.00  0.00     0.031 C 
ATOM     48  C   UNL     1       7.879  12.764  -2.244  1.00  0.00     0.029 A 
ATOM     49  C   UNL     1       9.092  13.434  -1.786  1.00  0.00     0.049 A 
ATOM     50  H   UNL     1      10.948  12.572  -1.401  1.00  0.00     0.167 HD
ATOM     51  C   UNL     1      14.751  10.598  -0.483  1.00  0.00     0.037 A 
ATOM     52  C   UNL     1       9.211  14.752  -1.534  1.00  0.00     0.037 A 
ATOM     53  C   UNL     1      14.995  12.001  -0.274  1.00  0.00     0.049 A 
ATOM     54  C   UNL     1      10.537  15.296  -1.080  1.00  0.00     0.074 A 
ATOM     55  C   UNL     1      16.175  12.626   0.087  1.00  0.00     0.029 A 
ATOM     56  N   UNL     1      14.038  12.995  -0.408  1.00  0.00    -0.354 N 
ATOM     57  N   UNL     1      11.663  14.659  -0.866  1.00  0.00    -0.248 NA
ATOM     58  C   UNL     1      10.611  16.744  -0.840  1.00  0.00     0.031 C 
ATOM     59  C   UNL     1      15.922  13.996   0.212  1.00  0.00     0.029 A 
ATOM     60  C   UNL     1      14.597  14.229  -0.121  1.00  0.00     0.049 A 
ATOM     61  H   UNL     1      13.100  12.846  -0.669  1.00  0.00     0.167 HD
ATOM     62  C   UNL     1      12.587  15.631  -0.501  1.00  0.00     0.074 A 
ATOM     63  C   UNL     1      11.891  16.901  -0.533  1.00  0.00     0.031 C 
ATOM     64  C   UNL     1      13.893  15.485  -0.172  1.00  0.00     0.037 A 
BRANCH  51  65
ATOM     65  C   UNL     1      15.874   9.631  -0.242  1.00  0.00     0.057 A 
ATOM     66  C   UNL     1      16.500   8.950  -1.295  1.00  0.00     0.134 A 
ATOM     67  C   UNL     1      16.350   9.395   1.053  1.00  0.00     0.134 A 
ATOM     68  F   UNL     1      16.083   9.120  -2.559  1.00  0.00    -0.206 F 
ATOM     69  C   UNL     1      17.539   8.047  -1.065  1.00  0.00     0.040 A 
ATOM     70  C   UNL     1      17.408   8.516   1.293  1.00  0.00     0.040 A 
ATOM     71  F   UNL     1      15.800  10.019   2.106  1.00  0.00    -0.206 F 
ATOM     72  C   UNL     1      18.000   7.833   0.233  1.00  0.00     0.006 A 
ENDBRANCH  51  65
BRANCH  52  73
ATOM     73  C   UNL     1       8.050  15.656  -1.734  1.00  0.00     0.057 A 
ATOM     74  C   UNL     1       8.034  16.588  -2.778  1.00  0.00     0.134 A 
ATOM     75  C   UNL     1       6.939  15.621  -0.884  1.00  0.00     0.134 A 
ATOM     76  F   UNL     1       9.078  16.681  -3.615  1.00  0.00    -0.206 F 
ATOM     77  C   UNL     1       6.966  17.468  -2.957  1.00  0.00     0.040 A 
ATOM     78  C   UNL     1       5.852  16.478  -1.066  1.00  0.00     0.040 A 
ATOM     79  F   UNL     1       6.888  14.745   0.130  1.00  0.00    -0.206 F 
ATOM     80  C   UNL     1       5.868  17.411  -2.101  1.00  0.00     0.006 A 
ENDBRANCH  52  73
BRANCH  64  81
ATOM     81  C   UNL     1      14.669  16.733   0.133  1.00  0.00     0.057 A 
ATOM     82  C   UNL     1      14.478  17.456   1.317  1.00  0.00     0.134 A 
ATOM     83  C   UNL     1      15.652  17.192  -0.754  1.00  0.00     0.134 A 
ATOM     84  F   UNL     1      13.544  17.076   2.203  1.00  0.00    -0.206 F 
ATOM     85  C   UNL     1      15.220  18.604   1.597  1.00  0.00     0.040 A 
ATOM     86  C   UNL     1      16.419  18.323  -0.472  1.00  0.00     0.040 A 
ATOM     87  F   UNL     1      15.891  16.541  -1.902  1.00  0.00    -0.206 F 
ATOM     88  C   UNL     1      16.199  19.036   0.704  1.00  0.00     0.006 A 
ENDBRANCH  64  81
ENDBRANCH  38  39
ENDBRANCH  30  33
ENDBRANCH  28  29
ENDBRANCH  27  28
ENDBRANCH  26  27
ENDBRANCH   1  26
TORSDOF 17
