REMARK SMILES Cc1cccc(C[NH2+]Cc2c(C(=O)NCCCCNC(=O)c3ccc(-c4c5nc(c(-c6c(F)cccc6F)c6ccc([nH]6)c(-c6c(F)cccc6F)c6nc(c(-c7c(F)cccc7F)c7ccc4[nH]7)C=C6)C=C5)cc3)c(C)n(Cc3cccc(F)c3)c2C)c1
REMARK SMILES IDX 15 1 14 2 12 3 13 4 11 6 10 7 87 8 76 9 78 10 88 11 77 12
REMARK SMILES IDX 9 13 8 14 7 17 6 18 1 19 2 20 3 21 89 22 4 23 5 24 79 25
REMARK SMILES IDX 80 26 81 27 86 28 82 29 84 30 83 31 85 32 16 33 17 34 18 35
REMARK SMILES IDX 19 36 20 37 21 39 22 40 23 41 75 42 24 43 74 44 25 45 26 46
REMARK SMILES IDX 27 47 68 48 28 49 73 50 67 51 69 52 29 53 72 54 66 55 65 56
REMARK SMILES IDX 30 58 56 59 39 60 55 61 40 62 43 63 54 64 70 65 41 66 42 67
REMARK SMILES IDX 53 69 71 70 44 71 31 72 32 73 37 74 33 75 34 76 36 77 38 78
REMARK SMILES IDX 35 79 57 80 58 81 63 82 59 83 60 84 62 85 64 86 61 87 45 88
REMARK SMILES IDX 46 89 51 90 47 91 48 92 50 93 52 94 49 95
REMARK H PARENT 14 5 8 15 8 16 19 38 69 57 43 68
REMARK Flexibility Score: inf
ROOT
ATOM      1  C   UNL     1      -5.663   5.559  -1.159  1.00  0.00     0.116 C 
ENDROOT
BRANCH   1   2
ATOM      2  N   UNL     1      -4.940   6.789  -0.943  1.00  0.00    -0.352 N 
ATOM      3  C   UNL     1      -3.649   7.231  -0.906  1.00  0.00     0.253 C 
ATOM      4  O   UNL     1      -3.623   8.459  -0.737  1.00  0.00    -0.269 OA
ATOM      5  H   UNL     1      -5.564   7.530  -0.771  1.00  0.00     0.163 HD
BRANCH   3   6
ATOM      6  C   UNL     1      -2.379   6.458  -1.053  1.00  0.00     0.069 A 
ATOM      7  C   UNL     1      -2.004   5.036  -1.039  1.00  0.00     0.040 A 
ATOM      8  C   UNL     1      -0.610   4.981  -1.170  1.00  0.00     0.025 A 
ATOM      9  C   UNL     1      -1.162   7.160  -1.187  1.00  0.00     0.028 A 
ATOM     10  N   UNL     1      -0.137   6.263  -1.379  1.00  0.00    -0.343 N 
ATOM     11  C   UNL     1       0.337   3.829  -1.087  1.00  0.00     0.065 C 
ATOM     12  C   UNL     1      -0.941   8.649  -1.156  1.00  0.00     0.065 C 
BRANCH   7  13
ATOM     13  C   UNL     1      -2.971   3.892  -0.889  1.00  0.00     0.300 C 
BRANCH  13  14
ATOM     14  N   UNL     1      -2.470   2.535  -0.767  1.00  0.00    -0.339 N 
ATOM     15  H   UNL     1      -3.219   1.899  -1.042  1.00  0.00     0.346 HD
ATOM     16  H   UNL     1      -1.646   2.490  -1.367  1.00  0.00     0.346 HD
BRANCH  14  17
ATOM     17  C   UNL     1      -2.017   2.144   0.558  1.00  0.00     0.297 C 
BRANCH  17  18
ATOM     18  C   UNL     1      -1.258   0.836   0.465  1.00  0.00     0.006 A 
ATOM     19  C   UNL     1       2.374  -0.312   0.267  1.00  0.00     0.044 C 
ATOM     20  C   UNL     1       0.874  -0.344   0.274  1.00  0.00    -0.051 A 
ATOM     21  C   UNL     1       0.185  -1.526  -0.008  1.00  0.00     0.003 A 
ATOM     22  C   UNL     1       0.142   0.815   0.554  1.00  0.00     0.013 A 
ATOM     23  C   UNL     1      -1.210  -1.537  -0.045  1.00  0.00     0.001 A 
ATOM     24  C   UNL     1      -1.927  -0.360   0.174  1.00  0.00     0.009 A 
ENDBRANCH  17  18
ENDBRANCH  14  17
ENDBRANCH  13  14
ENDBRANCH   7  13
BRANCH  10  25
ATOM     25  C   UNL     1       1.270   6.603  -1.661  1.00  0.00     0.157 C 
BRANCH  25  26
ATOM     26  C   UNL     1       1.837   5.955  -2.908  1.00  0.00    -0.025 A 
ATOM     27  C   UNL     1       3.202   5.613  -2.936  1.00  0.00     0.006 A 
ATOM     28  C   UNL     1       1.045   5.656  -4.027  1.00  0.00     0.044 A 
ATOM     29  C   UNL     1       3.742   4.921  -4.023  1.00  0.00     0.003 A 
ATOM     30  C   UNL     1       1.592   4.957  -5.097  1.00  0.00     0.123 A 
ATOM     31  C   UNL     1       2.929   4.580  -5.101  1.00  0.00     0.039 A 
ATOM     32  F   UNL     1       0.811   4.622  -6.132  1.00  0.00    -0.207 F 
ENDBRANCH  25  26
ENDBRANCH  10  25
ENDBRANCH   3   6
ENDBRANCH   1   2
BRANCH   1  33
ATOM     33  C   UNL     1      -6.019   4.864   0.164  1.00  0.00     0.023 C 
BRANCH  33  34
ATOM     34  C   UNL     1      -7.218   5.468   0.901  1.00  0.00     0.023 C 
BRANCH  34  35
ATOM     35  C   UNL     1      -8.552   5.160   0.239  1.00  0.00     0.116 C 
BRANCH  35  36
ATOM     36  N   UNL     1      -9.149   3.883   0.613  1.00  0.00    -0.352 N 
ATOM     37  C   UNL     1     -10.169   3.172  -0.008  1.00  0.00     0.251 C 
ATOM     38  H   UNL     1      -8.774   3.464   1.421  1.00  0.00     0.163 HD
ATOM     39  O   UNL     1     -10.581   2.143   0.471  1.00  0.00    -0.269 OA
BRANCH  37  40
ATOM     40  C   UNL     1     -10.651   3.623  -1.347  1.00  0.00     0.039 A 
ATOM     41  C   UNL     1     -10.759   2.659  -2.355  1.00  0.00     0.014 A 
ATOM     42  C   UNL     1     -10.764   4.974  -1.661  1.00  0.00     0.014 A 
ATOM     43  C   UNL     1     -10.695   3.059  -3.689  1.00  0.00     0.010 A 
ATOM     44  C   UNL     1     -10.592   5.368  -2.975  1.00  0.00     0.010 A 
ATOM     45  C   UNL     1     -10.479   4.407  -3.984  1.00  0.00    -0.014 A 
BRANCH  45  46
ATOM     46  C   UNL     1      -9.959   4.861  -5.272  1.00  0.00     0.031 A 
ATOM     47  C   UNL     1     -10.788   5.647  -6.210  1.00  0.00     0.074 A 
ATOM     48  C   UNL     1      -8.671   4.603  -5.599  1.00  0.00     0.049 A 
ATOM     49  N   UNL     1     -10.591   5.679  -7.486  1.00  0.00    -0.248 NA
ATOM     50  C   UNL     1     -11.929   6.450  -5.783  1.00  0.00     0.031 C 
ATOM     51  C   UNL     1      -7.913   5.154  -6.720  1.00  0.00     0.029 A 
ATOM     52  N   UNL     1      -7.842   3.598  -5.082  1.00  0.00    -0.354 N 
ATOM     53  C   UNL     1     -11.400   6.654  -8.014  1.00  0.00     0.074 A 
ATOM     54  C   UNL     1     -12.239   7.085  -6.918  1.00  0.00     0.031 C 
ATOM     55  C   UNL     1      -6.905   4.317  -7.010  1.00  0.00     0.029 A 
ATOM     56  C   UNL     1      -7.047   3.149  -6.162  1.00  0.00     0.049 A 
ATOM     57  H   UNL     1      -7.818   3.270  -4.154  1.00  0.00     0.167 HD
ATOM     58  C   UNL     1     -11.221   7.071  -9.299  1.00  0.00     0.037 A 
ATOM     59  C   UNL     1      -7.130   1.859  -6.598  1.00  0.00     0.037 A 
ATOM     60  C   UNL     1     -10.150   6.351  -9.974  1.00  0.00     0.049 A 
ATOM     61  C   UNL     1      -7.653   1.701  -8.009  1.00  0.00     0.074 A 
ATOM     62  C   UNL     1      -8.811   6.610 -10.216  1.00  0.00     0.029 A 
ATOM     63  N   UNL     1     -10.338   5.013 -10.264  1.00  0.00    -0.354 N 
ATOM     64  N   UNL     1      -7.999   2.690  -8.787  1.00  0.00    -0.248 NA
ATOM     65  C   UNL     1      -7.921   0.396  -8.621  1.00  0.00     0.031 C 
ATOM     66  C   UNL     1      -8.190   5.395 -10.625  1.00  0.00     0.029 A 
ATOM     67  C   UNL     1      -9.155   4.406 -10.636  1.00  0.00     0.049 A 
ATOM     68  H   UNL     1     -11.206   4.552 -10.213  1.00  0.00     0.167 HD
ATOM     69  C   UNL     1      -8.583   2.189  -9.919  1.00  0.00     0.074 A 
ATOM     70  C   UNL     1      -8.495   0.749  -9.783  1.00  0.00     0.031 C 
ATOM     71  C   UNL     1      -9.151   2.976 -10.874  1.00  0.00     0.037 A 
BRANCH  58  72
ATOM     72  C   UNL     1     -11.908   8.282  -9.861  1.00  0.00     0.057 A 
ATOM     73  C   UNL     1     -11.240   9.160 -10.733  1.00  0.00     0.134 A 
ATOM     74  C   UNL     1     -13.230   8.643  -9.552  1.00  0.00     0.134 A 
ATOM     75  F   UNL     1     -10.001   8.905 -11.174  1.00  0.00    -0.206 F 
ATOM     76  C   UNL     1     -11.809  10.357 -11.182  1.00  0.00     0.040 A 
ATOM     77  C   UNL     1     -13.793   9.864  -9.948  1.00  0.00     0.040 A 
ATOM     78  F   UNL     1     -14.035   7.813  -8.873  1.00  0.00    -0.206 F 
ATOM     79  C   UNL     1     -13.076  10.733 -10.759  1.00  0.00     0.006 A 
ENDBRANCH  58  72
BRANCH  59  80
ATOM     80  C   UNL     1      -7.338   0.891  -5.491  1.00  0.00     0.057 A 
ATOM     81  C   UNL     1      -6.319   0.743  -4.532  1.00  0.00     0.134 A 
ATOM     82  C   UNL     1      -8.603   0.405  -5.160  1.00  0.00     0.134 A 
ATOM     83  F   UNL     1      -5.080   1.189  -4.792  1.00  0.00    -0.206 F 
ATOM     84  C   UNL     1      -6.576   0.239  -3.256  1.00  0.00     0.040 A 
ATOM     85  C   UNL     1      -8.870  -0.114  -3.889  1.00  0.00     0.040 A 
ATOM     86  F   UNL     1      -9.628   0.528  -6.016  1.00  0.00    -0.206 F 
ATOM     87  C   UNL     1      -7.866  -0.161  -2.921  1.00  0.00     0.006 A 
ENDBRANCH  59  80
BRANCH  71  88
ATOM     88  C   UNL     1      -9.754   2.425 -12.126  1.00  0.00     0.057 A 
ATOM     89  C   UNL     1      -9.042   1.562 -12.968  1.00  0.00     0.134 A 
ATOM     90  C   UNL     1     -11.009   2.855 -12.590  1.00  0.00     0.134 A 
ATOM     91  F   UNL     1      -7.822   1.120 -12.627  1.00  0.00    -0.206 F 
ATOM     92  C   UNL     1      -9.554   1.141 -14.200  1.00  0.00     0.040 A 
ATOM     93  C   UNL     1     -11.514   2.474 -13.835  1.00  0.00     0.040 A 
ATOM     94  F   UNL     1     -11.794   3.648 -11.845  1.00  0.00    -0.206 F 
ATOM     95  C   UNL     1     -10.787   1.611 -14.644  1.00  0.00     0.006 A 
ENDBRANCH  71  88
ENDBRANCH  45  46
ENDBRANCH  37  40
ENDBRANCH  35  36
ENDBRANCH  34  35
ENDBRANCH  33  34
ENDBRANCH   1  33
TORSDOF 17
