REMARK SMILES Cc1cc(C)c2c(OCCCC(=O)NCCCCNC(=O)c3ccc(-c4c5nc(c(-c6c(F)cccc6F)c6ccc([nH]6)c(-c6c(F)cccc6F)c6nc(c(-c7c(F)cccc7F)c7ccc4[nH]7)C=C6)C=C5)cc3)nsc2n1
REMARK SMILES IDX 15 1 14 2 12 3 13 4 11 6 10 7 9 8 8 9 7 10 1 11 2 12 3 13
REMARK SMILES IDX 79 14 4 15 78 16 5 17 6 18 77 19 76 20 16 21 17 22 18 23
REMARK SMILES IDX 19 24 20 25 21 27 22 28 23 29 75 30 24 31 74 32 25 33 26 34
REMARK SMILES IDX 27 35 68 36 28 37 73 38 67 39 69 40 29 41 72 42 66 43 65 44
REMARK SMILES IDX 30 46 56 47 39 48 55 49 40 50 43 51 54 52 70 53 41 54 42 55
REMARK SMILES IDX 53 57 71 58 44 59 31 60 32 61 37 62 33 63 34 64 36 65 38 66
REMARK SMILES IDX 35 67 57 68 58 69 63 70 59 71 60 72 62 73 64 74 61 75 45 76
REMARK SMILES IDX 46 77 51 78 47 79 48 80 50 81 52 82 49 83
REMARK H PARENT 14 5 19 26 69 45 43 56
REMARK Flexibility Score: inf
ROOT
ATOM      1  C   UNL     1      -3.719   2.613   0.331  1.00  0.00     0.116 C 
ENDROOT
BRANCH   1   2
ATOM      2  N   UNL     1      -3.533   2.038  -1.075  1.00  0.00    -0.356 N 
ATOM      3  C   UNL     1      -2.947   1.999  -2.305  1.00  0.00     0.220 C 
ATOM      4  O   UNL     1      -3.452   1.042  -2.939  1.00  0.00    -0.275 OA
ATOM      5  H   UNL     1      -4.186   1.302  -1.109  1.00  0.00     0.163 HD
BRANCH   3   6
ATOM      6  C   UNL     1      -1.695   2.700  -3.067  1.00  0.00     0.103 C 
BRANCH   6   7
ATOM      7  C   UNL     1      -1.433   4.015  -3.944  1.00  0.00     0.051 C 
BRANCH   7   8
ATOM      8  C   UNL     1      -1.186   5.540  -3.572  1.00  0.00     0.232 C 
BRANCH   8   9
ATOM      9  O   UNL     1       0.083   6.111  -3.216  1.00  0.00    -0.477 OA
BRANCH   9  10
ATOM     10  C   UNL     1       0.705   5.881  -2.030  1.00  0.00     0.235 A 
ATOM     11  C   UNL     1       1.343   1.030   0.360  1.00  0.00     0.067 C 
ATOM     12  C   UNL     1       1.004   2.474   0.096  1.00  0.00     0.039 A 
ATOM     13  C   UNL     1      -0.306   2.818  -0.226  1.00  0.00     0.027 A 
ATOM     14  N   UNL     1       2.009   3.376   0.141  1.00  0.00    -0.240 NA
ATOM     15  C   UNL     1      -0.599   4.102  -0.720  1.00  0.00    -0.034 A 
ATOM     16  C   UNL     1       1.702   4.535  -0.478  1.00  0.00     0.147 A 
ATOM     17  C   UNL     1      -1.923   4.726  -0.916  1.00  0.00     0.045 C 
ATOM     18  C   UNL     1       0.498   4.858  -1.077  1.00  0.00     0.078 A 
ATOM     19  S   UNL     1       2.712   5.895  -0.639  1.00  0.00    -0.012 S 
ATOM     20  N   UNL     1       1.781   6.641  -1.819  1.00  0.00    -0.153 NA
ENDBRANCH   9  10
ENDBRANCH   8   9
ENDBRANCH   7   8
ENDBRANCH   6   7
ENDBRANCH   3   6
ENDBRANCH   1   2
BRANCH   1  21
ATOM     21  C   UNL     1      -4.725   3.811   0.402  1.00  0.00     0.023 C 
BRANCH  21  22
ATOM     22  C   UNL     1      -5.410   4.062   1.757  1.00  0.00     0.023 C 
BRANCH  22  23
ATOM     23  C   UNL     1      -4.551   4.777   2.805  1.00  0.00     0.116 C 
BRANCH  23  24
ATOM     24  N   UNL     1      -4.642   6.239   2.765  1.00  0.00    -0.352 N 
ATOM     25  C   UNL     1      -4.301   7.124   3.793  1.00  0.00     0.251 C 
ATOM     26  H   UNL     1      -4.977   6.639   1.931  1.00  0.00     0.163 HD
ATOM     27  O   UNL     1      -4.631   8.275   3.803  1.00  0.00    -0.269 OA
BRANCH  25  28
ATOM     28  C   UNL     1      -3.470   6.561   4.878  1.00  0.00     0.039 A 
ATOM     29  C   UNL     1      -3.898   6.584   6.208  1.00  0.00     0.014 A 
ATOM     30  C   UNL     1      -2.310   5.893   4.490  1.00  0.00     0.014 A 
ATOM     31  C   UNL     1      -3.194   5.832   7.145  1.00  0.00     0.010 A 
ATOM     32  C   UNL     1      -1.678   5.077   5.393  1.00  0.00     0.010 A 
ATOM     33  C   UNL     1      -2.101   5.061   6.723  1.00  0.00    -0.014 A 
BRANCH  33  34
ATOM     34  C   UNL     1      -1.463   4.122   7.638  1.00  0.00     0.031 A 
ATOM     35  C   UNL     1      -2.345   3.041   8.177  1.00  0.00     0.074 A 
ATOM     36  C   UNL     1      -0.121   4.076   7.770  1.00  0.00     0.049 A 
ATOM     37  N   UNL     1      -2.621   2.771   9.411  1.00  0.00    -0.248 NA
ATOM     38  C   UNL     1      -3.091   2.210   7.214  1.00  0.00     0.031 C 
ATOM     39  C   UNL     1       0.891   4.857   7.049  1.00  0.00     0.029 A 
ATOM     40  N   UNL     1       0.633   3.223   8.511  1.00  0.00    -0.354 N 
ATOM     41  C   UNL     1      -3.426   1.630   9.396  1.00  0.00     0.074 A 
ATOM     42  C   UNL     1      -3.805   1.424   8.023  1.00  0.00     0.031 C 
ATOM     43  C   UNL     1       2.103   4.286   7.211  1.00  0.00     0.029 A 
ATOM     44  C   UNL     1       1.980   3.209   8.174  1.00  0.00     0.049 A 
ATOM     45  H   UNL     1       0.257   2.662   9.227  1.00  0.00     0.167 HD
ATOM     46  C   UNL     1      -3.552   0.825  10.489  1.00  0.00     0.037 A 
ATOM     47  C   UNL     1       2.915   2.338   8.626  1.00  0.00     0.037 A 
ATOM     48  C   UNL     1      -3.122   1.502  11.684  1.00  0.00     0.049 A 
ATOM     49  C   UNL     1       2.381   1.735   9.874  1.00  0.00     0.074 A 
ATOM     50  C   UNL     1      -3.532   2.641  12.348  1.00  0.00     0.029 A 
ATOM     51  N   UNL     1      -1.869   1.220  12.171  1.00  0.00    -0.354 N 
ATOM     52  N   UNL     1       2.169   2.411  10.971  1.00  0.00    -0.248 NA
ATOM     53  C   UNL     1       1.631   0.494   9.751  1.00  0.00     0.031 C 
ATOM     54  C   UNL     1      -2.325   3.259  12.787  1.00  0.00     0.029 A 
ATOM     55  C   UNL     1      -1.264   2.423  12.432  1.00  0.00     0.049 A 
ATOM     56  H   UNL     1      -1.479   0.327  12.306  1.00  0.00     0.167 HD
ATOM     57  C   UNL     1       0.975   1.913  11.473  1.00  0.00     0.074 A 
ATOM     58  C   UNL     1       0.729   0.684  10.718  1.00  0.00     0.031 C 
ATOM     59  C   UNL     1       0.147   2.680  12.242  1.00  0.00     0.037 A 
BRANCH  46  60
ATOM     60  C   UNL     1      -3.752  -0.672  10.448  1.00  0.00     0.057 A 
ATOM     61  C   UNL     1      -3.998  -1.374  11.644  1.00  0.00     0.134 A 
ATOM     62  C   UNL     1      -3.438  -1.483   9.339  1.00  0.00     0.134 A 
ATOM     63  F   UNL     1      -4.291  -0.722  12.780  1.00  0.00    -0.206 F 
ATOM     64  C   UNL     1      -3.872  -2.766  11.742  1.00  0.00     0.040 A 
ATOM     65  C   UNL     1      -3.360  -2.877   9.414  1.00  0.00     0.040 A 
ATOM     66  F   UNL     1      -3.092  -0.971   8.152  1.00  0.00    -0.206 F 
ATOM     67  C   UNL     1      -3.546  -3.523  10.625  1.00  0.00     0.006 A 
ENDBRANCH  46  60
BRANCH  47  68
ATOM     68  C   UNL     1       4.053   1.773   7.864  1.00  0.00     0.057 A 
ATOM     69  C   UNL     1       5.117   1.129   8.507  1.00  0.00     0.134 A 
ATOM     70  C   UNL     1       4.006   1.633   6.463  1.00  0.00     0.134 A 
ATOM     71  F   UNL     1       5.222   1.160   9.844  1.00  0.00    -0.206 F 
ATOM     72  C   UNL     1       6.073   0.382   7.802  1.00  0.00     0.040 A 
ATOM     73  C   UNL     1       4.957   0.900   5.747  1.00  0.00     0.040 A 
ATOM     74  F   UNL     1       2.985   2.129   5.750  1.00  0.00    -0.206 F 
ATOM     75  C   UNL     1       5.991   0.261   6.417  1.00  0.00     0.006 A 
ENDBRANCH  47  68
BRANCH  59  76
ATOM     76  C   UNL     1       0.632   4.029  12.708  1.00  0.00     0.057 A 
ATOM     77  C   UNL     1       0.885   5.106  11.845  1.00  0.00     0.134 A 
ATOM     78  C   UNL     1       0.605   4.317  14.077  1.00  0.00     0.134 A 
ATOM     79  F   UNL     1       0.842   4.955  10.518  1.00  0.00    -0.206 F 
ATOM     80  C   UNL     1       1.109   6.402  12.319  1.00  0.00     0.040 A 
ATOM     81  C   UNL     1       0.795   5.614  14.563  1.00  0.00     0.040 A 
ATOM     82  F   UNL     1       0.313   3.352  14.964  1.00  0.00    -0.206 F 
ATOM     83  C   UNL     1       1.048   6.662  13.683  1.00  0.00     0.006 A 
ENDBRANCH  59  76
ENDBRANCH  33  34
ENDBRANCH  25  28
ENDBRANCH  23  24
ENDBRANCH  22  23
ENDBRANCH  21  22
ENDBRANCH   1  21
TORSDOF 15
