REMARK SMILES CC(C)C[C@H](NC(=O)[C@H](Cc1ccccc1)NC(=O)CNC(=O)CNC(=O)OCc1ccccc1)C(=O)NCCCCNC(=O)c1ccc(-c2c3nc(c(-c4c(F)cccc4F)c4ccc([nH]4)c(-c4c(F)cccc4F)c4nc(c(-c5c(F)cccc5F)c5ccc2[nH]5)C=C4)C=C3)cc1
REMARK SMILES IDX 6 1 7 2 8 3 5 5 4 6 2 7 1 8 3 9 36 10 37 11 38 12 39 14
REMARK SMILES IDX 40 15 41 16 42 17 43 18 44 19 45 21 46 22 47 23 99 24 48 25
REMARK SMILES IDX 98 26 49 27 50 28 51 29 92 30 52 31 97 32 91 33 93 34 53 35
REMARK SMILES IDX 96 36 90 37 89 38 54 40 80 41 63 42 79 43 64 44 67 45 78 46
REMARK SMILES IDX 94 47 65 48 66 49 77 51 95 52 68 53 55 54 56 55 61 56 57 57
REMARK SMILES IDX 58 58 60 59 62 60 59 61 81 62 82 63 87 64 83 65 84 66 86 67
REMARK SMILES IDX 88 68 85 69 69 70 70 71 75 72 71 73 72 74 74 75 76 76 73 77
REMARK SMILES IDX 9 78 17 79 18 80 19 82 20 83 21 84 22 85 23 87 24 88 25 89
REMARK SMILES IDX 26 90 27 92 28 93 29 94 30 95 31 96 35 97 32 98 34 99 33 100
REMARK SMILES IDX 10 101 11 102 12 103 16 104 13 105 15 106 14 107
REMARK H PARENT 6 4 38 13 43 20 93 39 67 50 17 81 21 86 25 91
REMARK Flexibility Score: inf
ROOT
ATOM      1  N   UNL     1      -1.904  -0.339   0.267  1.00  0.00    -0.343 N 
ATOM      2  C   UNL     1      -3.107   0.059   0.780  1.00  0.00     0.243 C 
ATOM      3  O   UNL     1      -3.516  -0.388   1.847  1.00  0.00    -0.273 OA
ATOM      4  H   UNL     1      -1.240  -0.748   0.868  1.00  0.00     0.164 HD
ENDROOT
BRANCH   1   5
ATOM      5  C   UNL     1      -1.578  -0.177  -1.129  1.00  0.00     0.171 C 
BRANCH   5   6
ATOM      6  C   UNL     1      -2.092  -1.473  -1.950  1.00  0.00     0.038 C 
BRANCH   6   7
ATOM      7  C   UNL     1      -3.117  -2.628  -1.465  1.00  0.00    -0.015 C 
ATOM      8  C   UNL     1      -3.777  -2.642  -0.083  1.00  0.00     0.007 C 
ATOM      9  C   UNL     1      -4.239  -2.912  -2.490  1.00  0.00     0.007 C 
ENDBRANCH   6   7
ENDBRANCH   5   6
BRANCH   5  10
ATOM     10  C   UNL     1      -1.270   1.498  -1.470  1.00  0.00     0.242 C 
ATOM     11  O   UNL     1      -0.084   1.830  -1.243  1.00  0.00    -0.273 OA
ATOM     12  N   UNL     1      -2.024   2.632  -1.776  1.00  0.00    -0.354 N 
ATOM     13  H   UNL     1      -1.415   3.379  -1.578  1.00  0.00     0.163 HD
BRANCH  12  14
ATOM     14  C   UNL     1      -3.336   3.343  -2.271  1.00  0.00     0.116 C 
BRANCH  14  15
ATOM     15  C   UNL     1      -4.499   3.733  -1.323  1.00  0.00     0.023 C 
BRANCH  15  16
ATOM     16  C   UNL     1      -5.399   4.853  -1.818  1.00  0.00     0.023 C 
BRANCH  16  17
ATOM     17  C   UNL     1      -6.474   4.298  -2.732  1.00  0.00     0.116 C 
BRANCH  17  18
ATOM     18  N   UNL     1      -7.677   3.889  -1.994  1.00  0.00    -0.352 N 
ATOM     19  C   UNL     1      -8.647   4.647  -1.360  1.00  0.00     0.251 C 
ATOM     20  H   UNL     1      -7.816   2.916  -1.942  1.00  0.00     0.163 HD
ATOM     21  O   UNL     1      -9.480   4.107  -0.641  1.00  0.00    -0.269 OA
BRANCH  19  22
ATOM     22  C   UNL     1      -8.644   6.114  -1.540  1.00  0.00     0.039 A 
ATOM     23  C   UNL     1      -8.896   6.993  -0.484  1.00  0.00     0.014 A 
ATOM     24  C   UNL     1      -8.312   6.619  -2.787  1.00  0.00     0.014 A 
ATOM     25  C   UNL     1      -8.728   8.370  -0.684  1.00  0.00     0.010 A 
ATOM     26  C   UNL     1      -7.903   7.928  -2.907  1.00  0.00     0.010 A 
ATOM     27  C   UNL     1      -8.184   8.844  -1.889  1.00  0.00    -0.014 A 
BRANCH  27  28
ATOM     28  C   UNL     1      -7.990  10.280  -2.214  1.00  0.00     0.031 A 
ATOM     29  C   UNL     1      -8.569  10.813  -3.509  1.00  0.00     0.074 A 
ATOM     30  C   UNL     1      -7.209  11.062  -1.446  1.00  0.00     0.049 A 
ATOM     31  N   UNL     1      -8.324  11.937  -4.132  1.00  0.00    -0.248 NA
ATOM     32  C   UNL     1      -9.477   9.915  -4.251  1.00  0.00     0.031 C 
ATOM     33  C   UNL     1      -6.536  10.652  -0.212  1.00  0.00     0.029 A 
ATOM     34  N   UNL     1      -6.837  12.372  -1.606  1.00  0.00    -0.354 N 
ATOM     35  C   UNL     1      -8.994  11.841  -5.348  1.00  0.00     0.074 A 
ATOM     36  C   UNL     1      -9.552  10.514  -5.427  1.00  0.00     0.031 C 
ATOM     37  C   UNL     1      -5.868  11.702   0.294  1.00  0.00     0.029 A 
ATOM     38  C   UNL     1      -6.022  12.840  -0.604  1.00  0.00     0.049 A 
ATOM     39  H   UNL     1      -7.127  12.925  -2.368  1.00  0.00     0.167 HD
ATOM     40  C   UNL     1      -9.183  12.792  -6.292  1.00  0.00     0.037 A 
ATOM     41  C   UNL     1      -5.463  14.054  -0.440  1.00  0.00     0.037 A 
ATOM     42  C   UNL     1      -8.709  14.139  -6.154  1.00  0.00     0.049 A 
ATOM     43  C   UNL     1      -5.728  15.116  -1.473  1.00  0.00     0.074 A 
ATOM     44  C   UNL     1      -8.915  15.218  -6.992  1.00  0.00     0.029 A 
ATOM     45  N   UNL     1      -7.950  14.594  -5.085  1.00  0.00    -0.354 N 
ATOM     46  N   UNL     1      -6.413  15.034  -2.589  1.00  0.00    -0.248 NA
ATOM     47  C   UNL     1      -5.149  16.442  -1.220  1.00  0.00     0.031 C 
ATOM     48  C   UNL     1      -8.244  16.319  -6.449  1.00  0.00     0.029 A 
ATOM     49  C   UNL     1      -7.667  15.937  -5.248  1.00  0.00     0.049 A 
ATOM     50  H   UNL     1      -7.657  14.042  -4.324  1.00  0.00     0.167 HD
ATOM     51  C   UNL     1      -6.375  16.302  -3.155  1.00  0.00     0.074 A 
ATOM     52  C   UNL     1      -5.612  17.137  -2.249  1.00  0.00     0.031 C 
ATOM     53  C   UNL     1      -6.917  16.741  -4.317  1.00  0.00     0.037 A 
BRANCH  40  54
ATOM     54  C   UNL     1      -9.964  12.412  -7.520  1.00  0.00     0.057 A 
ATOM     55  C   UNL     1     -11.325  12.073  -7.463  1.00  0.00     0.134 A 
ATOM     56  C   UNL     1      -9.351  12.388  -8.779  1.00  0.00     0.134 A 
ATOM     57  F   UNL     1     -11.974  12.059  -6.288  1.00  0.00    -0.206 F 
ATOM     58  C   UNL     1     -12.033  11.685  -8.601  1.00  0.00     0.040 A 
ATOM     59  C   UNL     1     -10.059  12.038  -9.931  1.00  0.00     0.040 A 
ATOM     60  F   UNL     1      -8.054  12.704  -8.912  1.00  0.00    -0.206 F 
ATOM     61  C   UNL     1     -11.401  11.674  -9.842  1.00  0.00     0.006 A 
ENDBRANCH  40  54
BRANCH  41  62
ATOM     62  C   UNL     1      -4.639  14.339   0.762  1.00  0.00     0.057 A 
ATOM     63  C   UNL     1      -5.094  15.211   1.758  1.00  0.00     0.134 A 
ATOM     64  C   UNL     1      -3.383  13.749   0.951  1.00  0.00     0.134 A 
ATOM     65  F   UNL     1      -6.284  15.818   1.631  1.00  0.00    -0.206 F 
ATOM     66  C   UNL     1      -4.323  15.507   2.884  1.00  0.00     0.040 A 
ATOM     67  C   UNL     1      -2.613  14.014   2.086  1.00  0.00     0.040 A 
ATOM     68  F   UNL     1      -2.894  12.892   0.043  1.00  0.00    -0.206 F 
ATOM     69  C   UNL     1      -3.079  14.903   3.052  1.00  0.00     0.006 A 
ENDBRANCH  41  62
BRANCH  53  70
ATOM     70  C   UNL     1      -6.741  18.192  -4.651  1.00  0.00     0.057 A 
ATOM     71  C   UNL     1      -5.504  18.715  -5.046  1.00  0.00     0.134 A 
ATOM     72  C   UNL     1      -7.838  19.062  -4.629  1.00  0.00     0.134 A 
ATOM     73  F   UNL     1      -4.414  17.934  -5.079  1.00  0.00    -0.206 F 
ATOM     74  C   UNL     1      -5.359  20.061  -5.383  1.00  0.00     0.040 A 
ATOM     75  C   UNL     1      -7.712  20.402  -4.994  1.00  0.00     0.040 A 
ATOM     76  F   UNL     1      -9.054  18.619  -4.274  1.00  0.00    -0.206 F 
ATOM     77  C   UNL     1      -6.467  20.906  -5.365  1.00  0.00     0.006 A 
ENDBRANCH  53  70
ENDBRANCH  27  28
ENDBRANCH  19  22
ENDBRANCH  17  18
ENDBRANCH  16  17
ENDBRANCH  15  16
ENDBRANCH  14  15
ENDBRANCH  12  14
ENDBRANCH   5  10
ENDBRANCH   1   5
BRANCH   2  78
ATOM     78  C   UNL     1      -3.786   1.205   0.021  1.00  0.00     0.175 C 
BRANCH  78  79
ATOM     79  N   UNL     1      -2.830   2.323   0.528  1.00  0.00    -0.342 N 
ATOM     80  C   UNL     1      -2.554   3.550   1.020  1.00  0.00     0.240 C 
ATOM     81  H   UNL     1      -1.940   1.910   0.443  1.00  0.00     0.164 HD
ATOM     82  O   UNL     1      -1.333   3.816   0.951  1.00  0.00    -0.273 OA
BRANCH  80  83
ATOM     83  C   UNL     1      -3.396   4.669   1.713  1.00  0.00     0.216 C 
BRANCH  83  84
ATOM     84  N   UNL     1      -4.784   5.081   1.557  1.00  0.00    -0.346 N 
ATOM     85  C   UNL     1      -5.939   4.805   2.208  1.00  0.00     0.239 C 
ATOM     86  H   UNL     1      -4.912   5.703   0.805  1.00  0.00     0.164 HD
ATOM     87  O   UNL     1      -6.864   5.606   2.027  1.00  0.00    -0.273 OA
BRANCH  85  88
ATOM     88  C   UNL     1      -6.116   3.648   3.190  1.00  0.00     0.219 C 
BRANCH  88  89
ATOM     89  N   UNL     1      -5.141   2.600   3.059  1.00  0.00    -0.312 N 
ATOM     90  C   UNL     1      -3.955   2.550   3.701  1.00  0.00     0.407 C 
ATOM     91  H   UNL     1      -5.357   1.857   2.451  1.00  0.00     0.167 HD
ATOM     92  O   UNL     1      -3.027   1.884   3.252  1.00  0.00    -0.225 OA
BRANCH  90  93
ATOM     93  O   UNL     1      -3.865   3.359   4.777  1.00  0.00    -0.445 OA
BRANCH  93  94
ATOM     94  C   UNL     1      -2.538   3.436   5.315  1.00  0.00     0.270 C 
BRANCH  94  95
ATOM     95  C   UNL     1      -2.170   2.281   6.220  1.00  0.00    -0.011 A 
ATOM     96  C   UNL     1      -1.285   2.510   7.278  1.00  0.00     0.007 A 
ATOM     97  C   UNL     1      -2.586   0.960   5.981  1.00  0.00     0.007 A 
ATOM     98  C   UNL     1      -0.846   1.452   8.076  1.00  0.00     0.000 A 
ATOM     99  C   UNL     1      -2.132  -0.099   6.760  1.00  0.00     0.000 A 
ATOM    100  C   UNL     1      -1.265   0.149   7.812  1.00  0.00     0.000 A 
ENDBRANCH  94  95
ENDBRANCH  93  94
ENDBRANCH  90  93
ENDBRANCH  88  89
ENDBRANCH  85  88
ENDBRANCH  83  84
ENDBRANCH  80  83
ENDBRANCH  78  79
BRANCH  78 101
ATOM    101  C   UNL     1      -4.177   0.663  -1.650  1.00  0.00     0.070 C 
BRANCH 101 102
ATOM    102  C   UNL     1      -3.756   0.696  -3.253  1.00  0.00    -0.045 A 
ATOM    103  C   UNL     1      -4.799   0.483  -4.179  1.00  0.00     0.004 A 
ATOM    104  C   UNL     1      -2.521   0.988  -3.919  1.00  0.00     0.004 A 
ATOM    105  C   UNL     1      -4.662   0.760  -5.567  1.00  0.00     0.000 A 
ATOM    106  C   UNL     1      -2.396   1.362  -5.272  1.00  0.00     0.000 A 
ATOM    107  C   UNL     1      -3.485   1.274  -6.100  1.00  0.00     0.000 A 
ENDBRANCH 101 102
ENDBRANCH  78 101
ENDBRANCH   2  78
TORSDOF 25
