REMARK SMILES Cc1ccccc1OCc1nc2cc(C(=O)NCCCCNC(=O)c3ccc(-c4c5nc(c(-c6c(F)cccc6F)c6ccc([nH]6)c(-c6c(F)cccc6F)c6nc(c(-c7c(F)cccc7F)c7ccc4[nH]7)C=C6)C=C5)cc3)ccc2n1C[C@H](C)O
REMARK SMILES IDX 19 1 18 2 17 3 15 4 16 5 14 7 10 8 11 9 82 10 12 11 81 12
REMARK SMILES IDX 13 13 80 14 79 15 9 16 8 17 7 18 1 19 2 20 3 21 4 22 6 23
REMARK SMILES IDX 5 24 83 25 84 26 85 27 86 28 20 30 21 31 22 32 23 33 24 35
REMARK SMILES IDX 25 36 26 37 78 38 27 39 77 40 28 41 29 42 30 43 71 44 31 45
REMARK SMILES IDX 76 46 70 47 72 48 32 49 75 50 69 51 68 52 33 54 59 55 42 56
REMARK SMILES IDX 58 57 43 58 46 59 57 60 73 61 44 62 45 63 56 65 74 66 47 67
REMARK SMILES IDX 34 68 35 69 40 70 36 71 37 72 39 73 41 74 38 75 60 76 61 77
REMARK SMILES IDX 66 78 62 79 63 80 65 81 67 82 64 83 48 84 49 85 54 86 50 87
REMARK SMILES IDX 51 88 53 89 55 90 52 91
REMARK H PARENT 17 6 86 29 22 34 72 53 46 64
REMARK Flexibility Score: inf
ROOT
ATOM      1  C   UNL     1      -2.081   3.531  -1.987  1.00  0.00     0.023 C 
ENDROOT
BRANCH   1   2
ATOM      2  C   UNL     1      -1.799   3.642  -0.483  1.00  0.00     0.116 C 
BRANCH   2   3
ATOM      3  N   UNL     1      -3.034   3.741   0.297  1.00  0.00    -0.352 N 
ATOM      4  C   UNL     1      -3.783   2.714   0.845  1.00  0.00     0.251 C 
ATOM      5  O   UNL     1      -4.821   2.915   1.451  1.00  0.00    -0.269 OA
ATOM      6  H   UNL     1      -3.373   4.652   0.451  1.00  0.00     0.163 HD
BRANCH   4   7
ATOM      7  C   UNL     1      -3.175   1.372   0.783  1.00  0.00     0.042 A 
ATOM      8  C   UNL     1      -0.416  -1.221  -1.544  1.00  0.00     0.148 A 
ATOM      9  N   UNL     1      -1.657  -0.829  -1.810  1.00  0.00    -0.229 NA
ATOM     10  N   UNL     1       0.094  -0.416  -0.556  1.00  0.00    -0.322 N 
ATOM     11  C   UNL     1      -2.027  -0.080  -0.712  1.00  0.00     0.090 A 
ATOM     12  C   UNL     1      -0.992  -0.059   0.217  1.00  0.00     0.068 A 
ATOM     13  C   UNL     1      -3.173   0.674  -0.439  1.00  0.00     0.044 A 
ATOM     14  C   UNL     1      -1.093   0.427   1.520  1.00  0.00     0.029 A 
ATOM     15  C   UNL     1      -2.246   1.138   1.804  1.00  0.00     0.016 A 
BRANCH   8  16
ATOM     16  C   UNL     1       0.232  -2.531  -1.875  1.00  0.00     0.304 C 
BRANCH  16  17
ATOM     17  O   UNL     1       0.254  -3.257  -0.625  1.00  0.00    -0.485 OA
BRANCH  17  18
ATOM     18  C   UNL     1       1.486  -3.680  -0.207  1.00  0.00     0.122 A 
ATOM     19  C   UNL     1       1.357  -2.158   1.845  1.00  0.00     0.048 C 
ATOM     20  C   UNL     1       2.032  -3.188   0.992  1.00  0.00    -0.009 A 
ATOM     21  C   UNL     1       3.271  -3.678   1.431  1.00  0.00     0.007 A 
ATOM     22  C   UNL     1       3.904  -4.711   0.746  1.00  0.00     0.001 A 
ATOM     23  C   UNL     1       2.118  -4.721  -0.887  1.00  0.00     0.047 A 
ATOM     24  C   UNL     1       3.318  -5.244  -0.401  1.00  0.00     0.004 A 
ENDBRANCH  17  18
ENDBRANCH  16  17
ENDBRANCH   8  16
BRANCH  10  25
ATOM     25  C   UNL     1       1.271   0.440  -0.626  1.00  0.00     0.155 C 
BRANCH  25  26
ATOM     26  C   UNL     1       2.562  -0.173  -1.165  1.00  0.00     0.131 C 
ATOM     27  C   UNL     1       3.755   0.344  -0.373  1.00  0.00     0.040 C 
BRANCH  26  28
ATOM     28  O   UNL     1       2.699   0.183  -2.543  1.00  0.00    -0.392 OA
ATOM     29  H   UNL     1       2.731   1.149  -2.626  1.00  0.00     0.211 HD
ENDBRANCH  26  28
ENDBRANCH  25  26
ENDBRANCH  10  25
ENDBRANCH   4   7
ENDBRANCH   2   3
ENDBRANCH   1   2
BRANCH   1  30
ATOM     30  C   UNL     1      -2.557   4.849  -2.595  1.00  0.00     0.023 C 
BRANCH  30  31
ATOM     31  C   UNL     1      -1.419   5.837  -2.797  1.00  0.00     0.116 C 
BRANCH  31  32
ATOM     32  N   UNL     1      -0.744   5.726  -4.080  1.00  0.00    -0.352 N 
ATOM     33  C   UNL     1       0.369   6.392  -4.573  1.00  0.00     0.251 C 
ATOM     34  H   UNL     1      -1.141   5.072  -4.699  1.00  0.00     0.163 HD
ATOM     35  O   UNL     1       0.695   6.231  -5.732  1.00  0.00    -0.269 OA
BRANCH  33  36
ATOM     36  C   UNL     1       1.265   7.154  -3.652  1.00  0.00     0.039 A 
ATOM     37  C   UNL     1       2.642   7.098  -3.917  1.00  0.00     0.014 A 
ATOM     38  C   UNL     1       0.825   7.660  -2.437  1.00  0.00     0.014 A 
ATOM     39  C   UNL     1       3.547   7.241  -2.870  1.00  0.00     0.010 A 
ATOM     40  C   UNL     1       1.698   7.666  -1.373  1.00  0.00     0.010 A 
ATOM     41  C   UNL     1       3.046   7.370  -1.583  1.00  0.00    -0.014 A 
BRANCH  41  42
ATOM     42  C   UNL     1       3.813   7.098  -0.378  1.00  0.00     0.031 A 
ATOM     43  C   UNL     1       4.188   8.207   0.514  1.00  0.00     0.074 A 
ATOM     44  C   UNL     1       4.009   5.809  -0.023  1.00  0.00     0.049 A 
ATOM     45  N   UNL     1       5.021   8.110   1.490  1.00  0.00    -0.248 NA
ATOM     46  C   UNL     1       3.685   9.560   0.321  1.00  0.00     0.031 C 
ATOM     47  C   UNL     1       4.387   5.290   1.287  1.00  0.00     0.029 A 
ATOM     48  N   UNL     1       4.105   4.703  -0.878  1.00  0.00    -0.354 N 
ATOM     49  C   UNL     1       4.978   9.287   2.205  1.00  0.00     0.074 A 
ATOM     50  C   UNL     1       4.199  10.180   1.385  1.00  0.00     0.031 C 
ATOM     51  C   UNL     1       4.926   4.070   1.130  1.00  0.00     0.029 A 
ATOM     52  C   UNL     1       5.069   3.854  -0.301  1.00  0.00     0.049 A 
ATOM     53  H   UNL     1       3.602   4.551  -1.711  1.00  0.00     0.167 HD
ATOM     54  C   UNL     1       5.514   9.301   3.460  1.00  0.00     0.037 A 
ATOM     55  C   UNL     1       6.253   3.588  -0.928  1.00  0.00     0.037 A 
ATOM     56  C   UNL     1       6.263   8.063   3.703  1.00  0.00     0.049 A 
ATOM     57  C   UNL     1       7.451   3.993  -0.104  1.00  0.00     0.074 A 
ATOM     58  C   UNL     1       5.954   6.887   4.368  1.00  0.00     0.029 A 
ATOM     59  N   UNL     1       7.404   7.799   2.948  1.00  0.00    -0.354 N 
ATOM     60  N   UNL     1       7.426   4.927   0.808  1.00  0.00    -0.248 NA
ATOM     61  C   UNL     1       8.760   3.360  -0.226  1.00  0.00     0.031 C 
ATOM     62  C   UNL     1       6.877   5.893   3.951  1.00  0.00     0.029 A 
ATOM     63  C   UNL     1       7.766   6.470   3.058  1.00  0.00     0.049 A 
ATOM     64  H   UNL     1       7.886   8.467   2.409  1.00  0.00     0.167 HD
ATOM     65  C   UNL     1       8.666   5.034   1.383  1.00  0.00     0.074 A 
ATOM     66  C   UNL     1       9.461   4.023   0.710  1.00  0.00     0.031 C 
ATOM     67  C   UNL     1       8.936   5.948   2.362  1.00  0.00     0.037 A 
BRANCH  54  68
ATOM     68  C   UNL     1       5.159  10.291   4.561  1.00  0.00     0.057 A 
ATOM     69  C   UNL     1       5.409   9.970   5.913  1.00  0.00     0.134 A 
ATOM     70  C   UNL     1       4.498  11.522   4.393  1.00  0.00     0.134 A 
ATOM     71  F   UNL     1       6.095   8.873   6.262  1.00  0.00    -0.206 F 
ATOM     72  C   UNL     1       4.961  10.754   6.989  1.00  0.00     0.040 A 
ATOM     73  C   UNL     1       4.022  12.303   5.458  1.00  0.00     0.040 A 
ATOM     74  F   UNL     1       4.307  12.079   3.197  1.00  0.00    -0.206 F 
ATOM     75  C   UNL     1       4.240  11.914   6.766  1.00  0.00     0.006 A 
ENDBRANCH  54  68
BRANCH  55  76
ATOM     76  C   UNL     1       6.165   3.650  -2.414  1.00  0.00     0.057 A 
ATOM     77  C   UNL     1       5.386   2.689  -3.081  1.00  0.00     0.134 A 
ATOM     78  C   UNL     1       6.459   4.819  -3.119  1.00  0.00     0.134 A 
ATOM     79  F   UNL     1       5.133   1.508  -2.502  1.00  0.00    -0.206 F 
ATOM     80  C   UNL     1       4.775   2.947  -4.310  1.00  0.00     0.040 A 
ATOM     81  C   UNL     1       5.888   5.072  -4.374  1.00  0.00     0.040 A 
ATOM     82  F   UNL     1       7.199   5.785  -2.560  1.00  0.00    -0.206 F 
ATOM     83  C   UNL     1       4.997   4.162  -4.944  1.00  0.00     0.006 A 
ENDBRANCH  55  76
BRANCH  67  84
ATOM     84  C   UNL     1      10.314   6.373   2.821  1.00  0.00     0.057 A 
ATOM     85  C   UNL     1      11.475   6.271   2.038  1.00  0.00     0.134 A 
ATOM     86  C   UNL     1      10.483   7.071   4.040  1.00  0.00     0.134 A 
ATOM     87  F   UNL     1      11.452   5.744   0.807  1.00  0.00    -0.206 F 
ATOM     88  C   UNL     1      12.716   6.768   2.458  1.00  0.00     0.040 A 
ATOM     89  C   UNL     1      11.704   7.623   4.440  1.00  0.00     0.040 A 
ATOM     90  F   UNL     1       9.463   7.278   4.885  1.00  0.00    -0.206 F 
ATOM     91  C   UNL     1      12.832   7.459   3.655  1.00  0.00     0.006 A 
ENDBRANCH  67  84
ENDBRANCH  41  42
ENDBRANCH  33  36
ENDBRANCH  31  32
ENDBRANCH  30  31
ENDBRANCH   1  30
TORSDOF 17
