REMARK SMILES Cc1cccc(Cl)c1Nc1ccccc1CC(=O)NCCCCNC(=O)c1ccc(-c2c3nc(c(-c4c(F)cccc4F)c4ccc([nH]4)c(-c4c(F)cccc4F)c4nc(c(-c5c(F)cccc5F)c5ccc2[nH]5)C=C4)C=C3)cc1
REMARK SMILES IDX 21 1 20 2 19 3 17 4 18 5 16 7 15 8 10 9 11 10 12 11 14 12
REMARK SMILES IDX 13 13 9 14 8 16 1 17 2 18 3 19 4 20 6 21 5 22 7 23 22 24
REMARK SMILES IDX 23 25 24 26 25 27 26 29 27 30 28 31 80 32 29 33 79 34 30 35
REMARK SMILES IDX 31 36 32 37 73 38 33 39 78 40 72 41 74 42 34 43 77 44 71 45
REMARK SMILES IDX 70 46 35 48 61 49 44 50 60 51 45 52 48 53 59 54 75 55 46 56
REMARK SMILES IDX 47 57 58 59 76 60 49 61 36 62 37 63 42 64 38 65 39 66 41 67
REMARK SMILES IDX 43 68 40 69 62 70 63 71 68 72 64 73 65 74 67 75 69 76 66 77
REMARK SMILES IDX 50 78 51 79 56 80 52 81 53 82 55 83 57 84 54 85
REMARK H PARENT 19 6 9 15 24 28 74 47 48 58
REMARK Flexibility Score: inf
ROOT
ATOM      1  C   UNL     1       0.649   5.066  -2.135  1.00  0.00     0.023 C 
ENDROOT
BRANCH   1   2
ATOM      2  C   UNL     1       0.078   3.778  -2.728  1.00  0.00     0.116 C 
BRANCH   2   3
ATOM      3  N   UNL     1       1.009   3.149  -3.642  1.00  0.00    -0.356 N 
ATOM      4  C   UNL     1       1.882   2.128  -3.386  1.00  0.00     0.224 C 
ATOM      5  O   UNL     1       2.666   1.793  -4.276  1.00  0.00    -0.275 OA
ATOM      6  H   UNL     1       1.013   3.499  -4.562  1.00  0.00     0.163 HD
BRANCH   4   7
ATOM      7  C   UNL     1       1.839   1.409  -2.046  1.00  0.00     0.137 C 
BRANCH   7   8
ATOM      8  C   UNL     1       2.357   2.233  -0.884  1.00  0.00    -0.015 A 
ATOM      9  C   UNL     1       1.596   2.506   0.274  1.00  0.00     0.042 A 
ATOM     10  C   UNL     1       2.131   3.382   1.238  1.00  0.00     0.026 A 
ATOM     11  C   UNL     1       3.395   3.953   1.086  1.00  0.00     0.002 A 
ATOM     12  C   UNL     1       3.648   2.790  -1.004  1.00  0.00     0.006 A 
ATOM     13  C   UNL     1       4.160   3.646  -0.031  1.00  0.00     0.000 A 
BRANCH   9  14
ATOM     14  N   UNL     1       0.345   1.925   0.567  1.00  0.00    -0.354 N 
ATOM     15  H   UNL     1      -0.313   2.562   0.930  1.00  0.00     0.167 HD
BRANCH  14  16
ATOM     16  C   UNL     1      -0.148   0.604   0.441  1.00  0.00     0.060 A 
ATOM     17  C   UNL     1      -2.465   1.603   0.010  1.00  0.00     0.046 C 
ATOM     18  C   UNL     1      -1.526   0.431   0.141  1.00  0.00    -0.026 A 
ATOM     19  C   UNL     1      -2.044  -0.858  -0.082  1.00  0.00     0.005 A 
ATOM     20  C   UNL     1      -1.225  -1.979  -0.002  1.00  0.00     0.002 A 
ATOM     21  C   UNL     1       0.656  -0.555   0.547  1.00  0.00     0.064 A 
ATOM     22  C   UNL     1       0.119  -1.828   0.320  1.00  0.00     0.023 A 
ATOM     23  Cl  UNL     1       2.308  -0.519   1.067  1.00  0.00    -0.082 Cl
ENDBRANCH  14  16
ENDBRANCH   9  14
ENDBRANCH   7   8
ENDBRANCH   4   7
ENDBRANCH   2   3
ENDBRANCH   1   2
BRANCH   1  24
ATOM     24  C   UNL     1       0.792   6.218  -3.132  1.00  0.00     0.023 C 
BRANCH  24  25
ATOM     25  C   UNL     1      -0.504   6.655  -3.800  1.00  0.00     0.116 C 
BRANCH  25  26
ATOM     26  N   UNL     1      -1.516   7.104  -2.854  1.00  0.00    -0.352 N 
ATOM     27  C   UNL     1      -2.460   8.088  -3.024  1.00  0.00     0.251 C 
ATOM     28  H   UNL     1      -1.525   6.645  -1.983  1.00  0.00     0.163 HD
ATOM     29  O   UNL     1      -3.184   8.428  -2.095  1.00  0.00    -0.269 OA
BRANCH  27  30
ATOM     30  C   UNL     1      -2.562   8.763  -4.334  1.00  0.00     0.039 A 
ATOM     31  C   UNL     1      -2.527  10.159  -4.379  1.00  0.00     0.014 A 
ATOM     32  C   UNL     1      -2.639   8.016  -5.512  1.00  0.00     0.014 A 
ATOM     33  C   UNL     1      -2.496  10.807  -5.615  1.00  0.00     0.010 A 
ATOM     34  C   UNL     1      -2.543   8.660  -6.741  1.00  0.00     0.010 A 
ATOM     35  C   UNL     1      -2.464  10.060  -6.803  1.00  0.00    -0.014 A 
BRANCH  35  36
ATOM     36  C   UNL     1      -2.341  10.716  -8.128  1.00  0.00     0.031 A 
ATOM     37  C   UNL     1      -3.458  10.604  -9.126  1.00  0.00     0.074 A 
ATOM     38  C   UNL     1      -1.192  11.333  -8.465  1.00  0.00     0.049 A 
ATOM     39  N   UNL     1      -3.496  10.998 -10.373  1.00  0.00    -0.248 NA
ATOM     40  C   UNL     1      -4.684   9.931  -8.669  1.00  0.00     0.031 C 
ATOM     41  C   UNL     1      -0.018  11.471  -7.600  1.00  0.00     0.029 A 
ATOM     42  N   UNL     1      -0.815  11.944  -9.635  1.00  0.00    -0.354 N 
ATOM     43  C   UNL     1      -4.737  10.602 -10.855  1.00  0.00     0.074 A 
ATOM     44  C   UNL     1      -5.405   9.900  -9.781  1.00  0.00     0.031 C 
ATOM     45  C   UNL     1       0.942  12.134  -8.265  1.00  0.00     0.029 A 
ATOM     46  C   UNL     1       0.468  12.434  -9.612  1.00  0.00     0.049 A 
ATOM     47  H   UNL     1      -1.409  12.022 -10.417  1.00  0.00     0.167 HD
ATOM     48  C   UNL     1      -5.277  10.821 -12.077  1.00  0.00     0.037 A 
ATOM     49  C   UNL     1       1.185  13.046 -10.574  1.00  0.00     0.037 A 
ATOM     50  C   UNL     1      -4.624  11.548 -13.133  1.00  0.00     0.049 A 
ATOM     51  C   UNL     1       0.560  13.281 -11.921  1.00  0.00     0.074 A 
ATOM     52  C   UNL     1      -5.114  11.877 -14.384  1.00  0.00     0.029 A 
ATOM     53  N   UNL     1      -3.337  12.059 -13.059  1.00  0.00    -0.354 N 
ATOM     54  N   UNL     1      -0.637  12.954 -12.344  1.00  0.00    -0.248 NA
ATOM     55  C   UNL     1       1.384  13.973 -12.923  1.00  0.00     0.031 C 
ATOM     56  C   UNL     1      -4.111  12.559 -15.081  1.00  0.00     0.029 A 
ATOM     57  C   UNL     1      -3.011  12.689 -14.248  1.00  0.00     0.049 A 
ATOM     58  H   UNL     1      -2.744  11.986 -12.277  1.00  0.00     0.167 HD
ATOM     59  C   UNL     1      -0.721  13.426 -13.648  1.00  0.00     0.074 A 
ATOM     60  C   UNL     1       0.543  14.067 -13.944  1.00  0.00     0.031 C 
ATOM     61  C   UNL     1      -1.754  13.337 -14.520  1.00  0.00     0.037 A 
BRANCH  48  62
ATOM     62  C   UNL     1      -6.648  10.270 -12.334  1.00  0.00     0.057 A 
ATOM     63  C   UNL     1      -7.788  10.820 -11.734  1.00  0.00     0.134 A 
ATOM     64  C   UNL     1      -6.835   9.198 -13.216  1.00  0.00     0.134 A 
ATOM     65  F   UNL     1      -7.676  11.840 -10.869  1.00  0.00    -0.206 F 
ATOM     66  C   UNL     1      -9.063  10.308 -11.982  1.00  0.00     0.040 A 
ATOM     67  C   UNL     1      -8.106   8.694 -13.492  1.00  0.00     0.040 A 
ATOM     68  F   UNL     1      -5.785   8.629 -13.828  1.00  0.00    -0.206 F 
ATOM     69  C   UNL     1      -9.225   9.246 -12.869  1.00  0.00     0.006 A 
ENDBRANCH  48  62
BRANCH  49  70
ATOM     70  C   UNL     1       2.570  13.498 -10.293  1.00  0.00     0.057 A 
ATOM     71  C   UNL     1       2.870  14.859 -10.168  1.00  0.00     0.134 A 
ATOM     72  C   UNL     1       3.623  12.587 -10.148  1.00  0.00     0.134 A 
ATOM     73  F   UNL     1       1.906  15.779 -10.316  1.00  0.00    -0.206 F 
ATOM     74  C   UNL     1       4.172  15.301  -9.925  1.00  0.00     0.040 A 
ATOM     75  C   UNL     1       4.925  13.014  -9.883  1.00  0.00     0.040 A 
ATOM     76  F   UNL     1       3.398  11.269 -10.250  1.00  0.00    -0.206 F 
ATOM     77  C   UNL     1       5.203  14.376  -9.777  1.00  0.00     0.006 A 
ENDBRANCH  49  70
BRANCH  61  78
ATOM     78  C   UNL     1      -1.581  13.984 -15.861  1.00  0.00     0.057 A 
ATOM     79  C   UNL     1      -0.777  13.416 -16.857  1.00  0.00     0.134 A 
ATOM     80  C   UNL     1      -2.270  15.162 -16.176  1.00  0.00     0.134 A 
ATOM     81  F   UNL     1      -0.081  12.295 -16.612  1.00  0.00    -0.206 F 
ATOM     82  C   UNL     1      -0.655  14.005 -18.116  1.00  0.00     0.040 A 
ATOM     83  C   UNL     1      -2.174  15.748 -17.438  1.00  0.00     0.040 A 
ATOM     84  F   UNL     1      -3.062  15.751 -15.267  1.00  0.00    -0.206 F 
ATOM     85  C   UNL     1      -1.361  15.170 -18.412  1.00  0.00     0.006 A 
ENDBRANCH  61  78
ENDBRANCH  35  36
ENDBRANCH  27  30
ENDBRANCH  25  26
ENDBRANCH  24  25
ENDBRANCH   1  24
TORSDOF 14
