REMARK SMILES CC1=C([C@H](NC(=O)[C@@H]2[C@H](C)c3cc(F)ccc3N2C)C(=O)NCCCCNC(=O)c2ccc(-c3c4nc(c(-c5c(F)cccc5F)c5ccc([nH]5)c(-c5c(F)cccc5F)c5nc(c(-c6c(F)cccc6F)c6ccc3[nH]6)C=C5)C=C4)cc2)[C@@H](C)N=N1
REMARK SMILES IDX 24 1 23 2 22 3 20 4 21 5 4 7 3 8 1 9 2 10 87 11 84 12 86 13
REMARK SMILES IDX 85 14 5 15 6 16 7 18 8 19 9 20 18 21 11 22 10 23 17 24 19 25
REMARK SMILES IDX 12 26 16 27 13 28 15 29 14 30 25 31 26 32 27 33 28 34 29 36
REMARK SMILES IDX 30 37 31 38 83 39 32 40 82 41 33 42 34 43 35 44 76 45 36 46
REMARK SMILES IDX 81 47 75 48 77 49 37 50 80 51 74 52 73 53 38 55 64 56 47 57
REMARK SMILES IDX 63 58 48 59 51 60 62 61 78 62 49 63 50 64 61 66 79 67 52 68
REMARK SMILES IDX 39 69 40 70 45 71 41 72 42 73 44 74 46 75 43 76 65 77 66 78
REMARK SMILES IDX 71 79 67 80 68 81 70 82 72 83 69 84 53 85 54 86 59 87 55 88
REMARK SMILES IDX 56 89 58 90 60 91 57 92
REMARK H PARENT 22 6 5 17 27 35 77 54 51 65
REMARK Flexibility Score: inf
ROOT
ATOM      1  C   UNL     1       0.796   6.159   3.416  1.00  0.00     0.023 C 
ENDROOT
BRANCH   1   2
ATOM      2  C   UNL     1       0.984   6.328   1.912  1.00  0.00     0.116 C 
BRANCH   2   3
ATOM      3  N   UNL     1       2.056   5.559   1.322  1.00  0.00    -0.354 N 
ATOM      4  C   UNL     1       2.020   4.455   0.529  1.00  0.00     0.247 C 
ATOM      5  O   UNL     1       3.022   4.265  -0.177  1.00  0.00    -0.272 OA
ATOM      6  H   UNL     1       2.961   5.889   1.528  1.00  0.00     0.163 HD
BRANCH   4   7
ATOM      7  C   UNL     1       0.847   3.430   0.462  1.00  0.00     0.202 C 
BRANCH   7   8
ATOM      8  C   UNL     1      -0.349   4.010  -0.243  1.00  0.00     0.011 C 
ATOM      9  C   UNL     1       0.652   4.695  -2.502  1.00  0.00     0.069 C 
ATOM     10  C   UNL     1      -0.426   4.510  -1.486  1.00  0.00     0.064 C 
ATOM     11  N   UNL     1      -1.707   4.848  -1.841  1.00  0.00    -0.160 NA
ATOM     12  C   UNL     1      -1.773   3.972   0.233  1.00  0.00     0.156 C 
ATOM     13  N   UNL     1      -2.511   4.559  -0.917  1.00  0.00    -0.181 NA
ATOM     14  C   UNL     1      -2.136   4.779   1.473  1.00  0.00     0.040 C 
ENDBRANCH   7   8
BRANCH   7  15
ATOM     15  N   UNL     1       0.411   2.683   1.651  1.00  0.00    -0.339 N 
ATOM     16  C   UNL     1       1.167   2.092   2.635  1.00  0.00     0.244 C 
ATOM     17  H   UNL     1      -0.564   2.593   1.758  1.00  0.00     0.164 HD
ATOM     18  O   UNL     1       0.778   0.991   3.053  1.00  0.00    -0.273 OA
BRANCH  16  19
ATOM     19  C   UNL     1       2.298   2.888   3.281  1.00  0.00     0.178 C 
ATOM     20  C   UNL     1       3.708   2.783   2.673  1.00  0.00     0.050 C 
ATOM     21  N   UNL     1       2.462   2.731   4.754  1.00  0.00    -0.362 N 
ATOM     22  C   UNL     1       4.481   3.378   3.816  1.00  0.00    -0.016 A 
ATOM     23  C   UNL     1       4.128   1.395   2.234  1.00  0.00     0.015 C 
ATOM     24  C   UNL     1       3.709   3.327   4.990  1.00  0.00     0.041 A 
ATOM     25  C   UNL     1       1.362   2.890   5.682  1.00  0.00     0.144 C 
ATOM     26  C   UNL     1       5.670   4.085   3.747  1.00  0.00     0.045 A 
ATOM     27  C   UNL     1       4.164   3.945   6.144  1.00  0.00     0.029 A 
ATOM     28  C   UNL     1       6.085   4.750   4.893  1.00  0.00     0.123 A 
ATOM     29  C   UNL     1       5.354   4.680   6.085  1.00  0.00     0.041 A 
ATOM     30  F   UNL     1       7.181   5.519   4.840  1.00  0.00    -0.207 F 
ENDBRANCH  16  19
ENDBRANCH   7  15
ENDBRANCH   4   7
ENDBRANCH   2   3
ENDBRANCH   1   2
BRANCH   1  31
ATOM     31  C   UNL     1       2.006   6.580   4.272  1.00  0.00     0.023 C 
BRANCH  31  32
ATOM     32  C   UNL     1       1.998   8.052   4.692  1.00  0.00     0.116 C 
BRANCH  32  33
ATOM     33  N   UNL     1       0.717   8.435   5.255  1.00  0.00    -0.352 N 
ATOM     34  C   UNL     1       0.130   8.331   6.472  1.00  0.00     0.251 C 
ATOM     35  H   UNL     1       0.135   8.876   4.594  1.00  0.00     0.163 HD
ATOM     36  O   UNL     1      -1.085   8.623   6.503  1.00  0.00    -0.269 OA
BRANCH  34  37
ATOM     37  C   UNL     1       0.781   7.934   7.743  1.00  0.00     0.039 A 
ATOM     38  C   UNL     1       1.993   7.251   7.877  1.00  0.00     0.014 A 
ATOM     39  C   UNL     1       0.064   8.267   8.908  1.00  0.00     0.014 A 
ATOM     40  C   UNL     1       2.448   6.877   9.146  1.00  0.00     0.010 A 
ATOM     41  C   UNL     1       0.519   7.910  10.169  1.00  0.00     0.010 A 
ATOM     42  C   UNL     1       1.697   7.181  10.290  1.00  0.00    -0.014 A 
BRANCH  42  43
ATOM     43  C   UNL     1       2.221   6.820  11.610  1.00  0.00     0.031 A 
ATOM     44  C   UNL     1       3.515   7.464  11.982  1.00  0.00     0.074 A 
ATOM     45  C   UNL     1       1.528   6.108  12.525  1.00  0.00     0.049 A 
ATOM     46  N   UNL     1       4.641   6.899  12.277  1.00  0.00    -0.248 NA
ATOM     47  C   UNL     1       3.578   8.933  11.941  1.00  0.00     0.031 C 
ATOM     48  C   UNL     1       0.131   5.671  12.453  1.00  0.00     0.029 A 
ATOM     49  N   UNL     1       1.911   5.704  13.774  1.00  0.00    -0.354 N 
ATOM     50  C   UNL     1       5.511   7.932  12.636  1.00  0.00     0.074 A 
ATOM     51  C   UNL     1       4.849   9.158  12.277  1.00  0.00     0.031 C 
ATOM     52  C   UNL     1      -0.273   5.250  13.672  1.00  0.00     0.029 A 
ATOM     53  C   UNL     1       0.868   5.253  14.572  1.00  0.00     0.049 A 
ATOM     54  H   UNL     1       2.846   5.731  14.081  1.00  0.00     0.167 HD
ATOM     55  C   UNL     1       6.615   7.702  13.401  1.00  0.00     0.037 A 
ATOM     56  C   UNL     1       0.917   4.931  15.888  1.00  0.00     0.037 A 
ATOM     57  C   UNL     1       6.984   6.309  13.377  1.00  0.00     0.049 A 
ATOM     58  C   UNL     1       2.330   4.697  16.253  1.00  0.00     0.074 A 
ATOM     59  C   UNL     1       7.385   5.407  12.413  1.00  0.00     0.029 A 
ATOM     60  N   UNL     1       6.676   5.557  14.482  1.00  0.00    -0.354 N 
ATOM     61  N   UNL     1       3.030   3.675  15.854  1.00  0.00    -0.248 NA
ATOM     62  C   UNL     1       3.102   5.817  16.769  1.00  0.00     0.031 C 
ATOM     63  C   UNL     1       6.854   4.151  12.834  1.00  0.00     0.029 A 
ATOM     64  C   UNL     1       6.192   4.356  14.045  1.00  0.00     0.049 A 
ATOM     65  H   UNL     1       6.785   5.833  15.421  1.00  0.00     0.167 HD
ATOM     66  C   UNL     1       4.306   4.179  15.655  1.00  0.00     0.074 A 
ATOM     67  C   UNL     1       4.320   5.457  16.358  1.00  0.00     0.031 C 
ATOM     68  C   UNL     1       5.128   3.640  14.707  1.00  0.00     0.037 A 
BRANCH  55  69
ATOM     69  C   UNL     1       7.112   8.631  14.496  1.00  0.00     0.057 A 
ATOM     70  C   UNL     1       6.346   9.661  15.079  1.00  0.00     0.134 A 
ATOM     71  C   UNL     1       8.260   8.264  15.229  1.00  0.00     0.134 A 
ATOM     72  F   UNL     1       5.222  10.128  14.528  1.00  0.00    -0.206 F 
ATOM     73  C   UNL     1       6.645  10.212  16.330  1.00  0.00     0.040 A 
ATOM     74  C   UNL     1       8.539   8.774  16.503  1.00  0.00     0.040 A 
ATOM     75  F   UNL     1       9.095   7.316  14.775  1.00  0.00    -0.206 F 
ATOM     76  C   UNL     1       7.716   9.738  17.068  1.00  0.00     0.006 A 
ENDBRANCH  55  69
BRANCH  56  77
ATOM     77  C   UNL     1      -0.150   5.023  16.906  1.00  0.00     0.057 A 
ATOM     78  C   UNL     1      -1.101   6.057  16.861  1.00  0.00     0.134 A 
ATOM     79  C   UNL     1      -0.117   4.267  18.086  1.00  0.00     0.134 A 
ATOM     80  F   UNL     1      -1.160   6.892  15.813  1.00  0.00    -0.206 F 
ATOM     81  C   UNL     1      -1.966   6.328  17.925  1.00  0.00     0.040 A 
ATOM     82  C   UNL     1      -0.974   4.531  19.163  1.00  0.00     0.040 A 
ATOM     83  F   UNL     1       0.787   3.289  18.242  1.00  0.00    -0.206 F 
ATOM     84  C   UNL     1      -1.896   5.571  19.088  1.00  0.00     0.006 A 
ENDBRANCH  56  77
BRANCH  68  85
ATOM     85  C   UNL     1       4.738   2.309  14.132  1.00  0.00     0.057 A 
ATOM     86  C   UNL     1       5.627   1.237  14.253  1.00  0.00     0.134 A 
ATOM     87  C   UNL     1       3.577   2.092  13.375  1.00  0.00     0.134 A 
ATOM     88  F   UNL     1       6.786   1.390  14.912  1.00  0.00    -0.206 F 
ATOM     89  C   UNL     1       5.367  -0.004  13.667  1.00  0.00     0.040 A 
ATOM     90  C   UNL     1       3.288   0.845  12.814  1.00  0.00     0.040 A 
ATOM     91  F   UNL     1       2.719   3.087  13.119  1.00  0.00    -0.206 F 
ATOM     92  C   UNL     1       4.187  -0.207  12.957  1.00  0.00     0.006 A 
ENDBRANCH  68  85
ENDBRANCH  42  43
ENDBRANCH  34  37
ENDBRANCH  32  33
ENDBRANCH  31  32
ENDBRANCH   1  31
TORSDOF 14
