REMARK SMILES O=C(CC1CCN(S(=O)(=O)c2cc[nH]c2)CC1)NCCCCNC(=O)c1ccc(-c2c3nc(c(-c4c(F)cccc4F)c4ccc([nH]4)c(-c4c(F)cccc4F)c4nc(c(-c5c(F)cccc5F)c5ccc2[nH]5)C=C4)C=C3)cc1
REMARK SMILES IDX 20 1 19 2 18 3 1 4 2 5 3 7 4 8 5 9 17 10 6 11 16 12 7 13
REMARK SMILES IDX 8 14 9 15 10 16 11 17 12 18 15 19 13 20 14 21 21 23 22 24
REMARK SMILES IDX 23 25 24 26 25 28 26 29 27 30 79 31 28 32 78 33 29 34 30 35
REMARK SMILES IDX 31 36 72 37 32 38 77 39 71 40 73 41 33 42 76 43 70 44 69 45
REMARK SMILES IDX 34 47 60 48 43 49 59 50 44 51 47 52 58 53 74 54 45 55 46 56
REMARK SMILES IDX 57 58 75 59 48 60 35 61 36 62 41 63 37 64 38 65 40 66 42 67
REMARK SMILES IDX 39 68 61 69 62 70 67 71 63 72 64 73 66 74 68 75 65 76 49 77
REMARK SMILES IDX 50 78 55 79 51 80 52 81 54 82 56 83 53 84
REMARK H PARENT 18 6 14 22 23 27 73 46 47 57
REMARK Flexibility Score: inf
ROOT
ATOM      1  C   UNL     1       2.357  -0.278   3.722  1.00  0.00     0.023 C 
ENDROOT
BRANCH   1   2
ATOM      2  C   UNL     1       1.891   0.407   2.436  1.00  0.00     0.116 C 
BRANCH   2   3
ATOM      3  N   UNL     1       2.565  -0.098   1.252  1.00  0.00    -0.356 N 
ATOM      4  O   UNL     1       0.932   0.532  -0.239  1.00  0.00    -0.275 OA
ATOM      5  C   UNL     1       2.041   0.067  -0.012  1.00  0.00     0.220 C 
ATOM      6  H   UNL     1       3.421  -0.572   1.356  1.00  0.00     0.163 HD
BRANCH   5   7
ATOM      7  C   UNL     1       2.988  -0.342  -1.124  1.00  0.00     0.103 C 
BRANCH   7   8
ATOM      8  C   UNL     1       3.988   0.723  -1.624  1.00  0.00     0.001 C 
ATOM      9  C   UNL     1       4.750   1.497  -0.544  1.00  0.00     0.021 C 
ATOM     10  C   UNL     1       3.400   1.717  -2.632  1.00  0.00     0.021 C 
ATOM     11  C   UNL     1       3.975   2.663   0.060  1.00  0.00     0.103 C 
ATOM     12  C   UNL     1       2.609   2.855  -1.997  1.00  0.00     0.103 C 
ATOM     13  N   UNL     1       3.423   3.578  -0.977  1.00  0.00    -0.198 NA
BRANCH  13  14
ATOM     14  S   UNL     1       2.560   4.873  -0.210  1.00  0.00     0.244 S 
ATOM     15  O   UNL     1       1.246   4.401   0.147  1.00  0.00    -0.207 OA
ATOM     16  O   UNL     1       3.450   5.443   0.791  1.00  0.00    -0.207 OA
BRANCH  14  17
ATOM     17  C   UNL     1       2.276   6.170  -1.318  1.00  0.00     0.100 A 
ATOM     18  C   UNL     1       1.485   6.120  -2.496  1.00  0.00     0.041 A 
ATOM     19  C   UNL     1       2.708   7.476  -1.176  1.00  0.00     0.104 A 
ATOM     20  C   UNL     1       1.500   7.380  -3.055  1.00  0.00     0.083 A 
ATOM     21  N   UNL     1       2.231   8.201  -2.235  1.00  0.00    -0.366 N 
ATOM     22  H   UNL     1       2.388   9.161  -2.384  1.00  0.00     0.165 HD
ENDBRANCH  14  17
ENDBRANCH  13  14
ENDBRANCH   7   8
ENDBRANCH   5   7
ENDBRANCH   2   3
ENDBRANCH   1   2
BRANCH   1  23
ATOM     23  C   UNL     1       3.861  -0.171   4.028  1.00  0.00     0.023 C 
BRANCH  23  24
ATOM     24  C   UNL     1       4.353   1.249   4.303  1.00  0.00     0.116 C 
BRANCH  24  25
ATOM     25  N   UNL     1       3.887   1.732   5.591  1.00  0.00    -0.352 N 
ATOM     26  C   UNL     1       4.326   2.798   6.334  1.00  0.00     0.251 C 
ATOM     27  H   UNL     1       3.147   1.219   5.989  1.00  0.00     0.163 HD
ATOM     28  O   UNL     1       4.070   2.832   7.536  1.00  0.00    -0.269 OA
BRANCH  26  29
ATOM     29  C   UNL     1       5.101   3.902   5.727  1.00  0.00     0.039 A 
ATOM     30  C   UNL     1       6.050   4.559   6.525  1.00  0.00     0.014 A 
ATOM     31  C   UNL     1       4.830   4.367   4.436  1.00  0.00     0.014 A 
ATOM     32  C   UNL     1       6.752   5.647   6.018  1.00  0.00     0.010 A 
ATOM     33  C   UNL     1       5.552   5.431   3.912  1.00  0.00     0.010 A 
ATOM     34  C   UNL     1       6.514   6.066   4.703  1.00  0.00    -0.014 A 
BRANCH  34  35
ATOM     35  C   UNL     1       7.398   7.087   4.101  1.00  0.00     0.031 A 
ATOM     36  C   UNL     1       8.789   6.474   3.748  1.00  0.00     0.074 A 
ATOM     37  C   UNL     1       6.848   8.336   3.979  1.00  0.00     0.049 A 
ATOM     38  N   UNL     1       9.978   7.003   3.688  1.00  0.00    -0.248 NA
ATOM     39  C   UNL     1       8.860   5.001   3.502  1.00  0.00     0.031 C 
ATOM     40  C   UNL     1       5.468   8.719   4.370  1.00  0.00     0.029 A 
ATOM     41  N   UNL     1       7.317   9.542   3.515  1.00  0.00    -0.354 N 
ATOM     42  C   UNL     1      10.877   5.997   3.241  1.00  0.00     0.074 A 
ATOM     43  C   UNL     1      10.150   4.766   3.256  1.00  0.00     0.031 C 
ATOM     44  C   UNL     1       5.267  10.050   4.236  1.00  0.00     0.029 A 
ATOM     45  C   UNL     1       6.479  10.670   3.748  1.00  0.00     0.049 A 
ATOM     46  H   UNL     1       8.181   9.621   3.050  1.00  0.00     0.167 HD
ATOM     47  C   UNL     1      12.121   6.256   2.733  1.00  0.00     0.037 A 
ATOM     48  C   UNL     1       6.796  12.005   3.651  1.00  0.00     0.037 A 
ATOM     49  C   UNL     1      12.369   7.655   2.717  1.00  0.00     0.049 A 
ATOM     50  C   UNL     1       8.204  11.989   3.236  1.00  0.00     0.074 A 
ATOM     51  C   UNL     1      12.980   8.581   3.520  1.00  0.00     0.029 A 
ATOM     52  N   UNL     1      11.824   8.306   1.644  1.00  0.00    -0.354 N 
ATOM     53  N   UNL     1       8.636  11.669   2.057  1.00  0.00    -0.248 NA
ATOM     54  C   UNL     1       9.174  12.002   4.327  1.00  0.00     0.031 C 
ATOM     55  C   UNL     1      12.632   9.842   2.973  1.00  0.00     0.029 A 
ATOM     56  C   UNL     1      11.653   9.607   2.010  1.00  0.00     0.049 A 
ATOM     57  H   UNL     1      11.599   7.909   0.771  1.00  0.00     0.167 HD
ATOM     58  C   UNL     1       9.900  11.182   2.299  1.00  0.00     0.074 A 
ATOM     59  C   UNL     1      10.202  11.452   3.699  1.00  0.00     0.031 C 
ATOM     60  C   UNL     1      10.505  10.284   1.485  1.00  0.00     0.037 A 
BRANCH  47  61
ATOM     61  C   UNL     1      13.091   5.439   1.891  1.00  0.00     0.057 A 
ATOM     62  C   UNL     1      14.418   5.926   1.750  1.00  0.00     0.134 A 
ATOM     63  C   UNL     1      12.691   4.520   0.914  1.00  0.00     0.134 A 
ATOM     64  F   UNL     1      14.951   6.752   2.664  1.00  0.00    -0.206 F 
ATOM     65  C   UNL     1      15.213   5.663   0.630  1.00  0.00     0.040 A 
ATOM     66  C   UNL     1      13.509   4.200  -0.186  1.00  0.00     0.040 A 
ATOM     67  F   UNL     1      11.469   3.972   0.930  1.00  0.00    -0.206 F 
ATOM     68  C   UNL     1      14.747   4.813  -0.359  1.00  0.00     0.006 A 
ENDBRANCH  47  61
BRANCH  48  69
ATOM     69  C   UNL     1       6.228  13.332   4.099  1.00  0.00     0.057 A 
ATOM     70  C   UNL     1       4.893  13.589   4.417  1.00  0.00     0.134 A 
ATOM     71  C   UNL     1       7.090  14.449   4.296  1.00  0.00     0.134 A 
ATOM     72  F   UNL     1       3.936  12.692   4.158  1.00  0.00    -0.206 F 
ATOM     73  C   UNL     1       4.477  14.807   5.002  1.00  0.00     0.040 A 
ATOM     74  C   UNL     1       6.701  15.646   4.908  1.00  0.00     0.040 A 
ATOM     75  F   UNL     1       8.373  14.429   3.906  1.00  0.00    -0.206 F 
ATOM     76  C   UNL     1       5.386  15.822   5.287  1.00  0.00     0.006 A 
ENDBRANCH  48  69
BRANCH  60  77
ATOM     77  C   UNL     1       9.663   9.804   0.319  1.00  0.00     0.057 A 
ATOM     78  C   UNL     1       9.535  10.554  -0.847  1.00  0.00     0.134 A 
ATOM     79  C   UNL     1       8.894   8.623   0.370  1.00  0.00     0.134 A 
ATOM     80  F   UNL     1      10.219  11.698  -0.989  1.00  0.00    -0.206 F 
ATOM     81  C   UNL     1       8.705  10.144  -1.903  1.00  0.00     0.040 A 
ATOM     82  C   UNL     1       8.066   8.194  -0.672  1.00  0.00     0.040 A 
ATOM     83  F   UNL     1       8.941   7.829   1.440  1.00  0.00    -0.206 F 
ATOM     84  C   UNL     1       7.968   8.962  -1.821  1.00  0.00     0.006 A 
ENDBRANCH  60  77
ENDBRANCH  34  35
ENDBRANCH  26  29
ENDBRANCH  24  25
ENDBRANCH  23  24
ENDBRANCH   1  23
TORSDOF 14
