REMARK SMILES CC(C)Cc1cc2c(cc1Cl)C=C(C(=O)NCCCCNC(=O)c1ccc(-c3c4nc(c(-c5c(F)cccc5F)c5ccc([nH]5)c(-c5c(F)cccc5F)c5nc(c(-c6c(F)cccc6F)c6ccc3[nH]6)C=C5)C=C4)cc1)[C@@H](C(F)(F)F)O2
REMARK SMILES IDX 18 1 17 2 16 3 14 4 15 5 13 7 5 8 6 9 10 10 7 11 9 12 11 13
REMARK SMILES IDX 8 14 83 15 12 16 78 17 4 18 2 19 1 20 3 21 79 22 80 23 81 24
REMARK SMILES IDX 82 25 19 26 20 27 21 28 22 29 23 31 24 32 25 33 77 34 26 35
REMARK SMILES IDX 76 36 27 37 28 38 29 39 70 40 30 41 75 42 69 43 71 44 31 45
REMARK SMILES IDX 74 46 68 47 67 48 32 50 58 51 41 52 57 53 42 54 45 55 56 56
REMARK SMILES IDX 72 57 43 58 44 59 55 61 73 62 46 63 33 64 34 65 39 66 35 67
REMARK SMILES IDX 36 68 38 69 40 70 37 71 59 72 60 73 65 74 61 75 62 76 64 77
REMARK SMILES IDX 66 78 63 79 47 80 48 81 53 82 49 83 50 84 52 85 54 86 51 87
REMARK H PARENT 16 6 21 30 71 49 45 60
REMARK Flexibility Score: inf
ROOT
ATOM      1  C   UNL     1      -4.299   4.558   6.412  1.00  0.00     0.023 C 
ENDROOT
BRANCH   1   2
ATOM      2  C   UNL     1      -5.008   4.935   5.114  1.00  0.00     0.116 C 
BRANCH   2   3
ATOM      3  N   UNL     1      -4.239   5.885   4.330  1.00  0.00    -0.352 N 
ATOM      4  C   UNL     1      -3.492   5.862   3.202  1.00  0.00     0.251 C 
ATOM      5  O   UNL     1      -3.009   6.950   2.872  1.00  0.00    -0.270 OA
ATOM      6  H   UNL     1      -4.270   6.787   4.724  1.00  0.00     0.163 HD
BRANCH   4   7
ATOM      7  C   UNL     1      -3.217   4.652   2.371  1.00  0.00     0.067 C 
ATOM      8  C   UNL     1      -1.233   1.412  -0.967  1.00  0.00    -0.025 A 
ATOM      9  C   UNL     1      -1.969   1.281   0.222  1.00  0.00     0.052 A 
ATOM     10  C   UNL     1      -0.946   2.706  -1.433  1.00  0.00     0.045 A 
ATOM     11  C   UNL     1      -2.375   2.406   0.934  1.00  0.00     0.128 A 
ATOM     12  C   UNL     1      -1.338   3.834  -0.701  1.00  0.00     0.032 A 
ATOM     13  Cl  UNL     1      -0.096   2.974  -2.913  1.00  0.00    -0.084 Cl
ATOM     14  C   UNL     1      -2.042   3.686   0.496  1.00  0.00     0.019 A 
ATOM     15  O   UNL     1      -3.053   2.179   2.097  1.00  0.00    -0.475 OA
ATOM     16  C   UNL     1      -2.377   4.831   1.333  1.00  0.00     0.025 C 
ATOM     17  C   UNL     1      -3.825   3.299   2.611  1.00  0.00     0.314 C 
BRANCH   8  18
ATOM     18  C   UNL     1      -0.743   0.153  -1.646  1.00  0.00     0.040 C 
BRANCH  18  19
ATOM     19  C   UNL     1       0.758  -0.136  -1.427  1.00  0.00    -0.013 C 
ATOM     20  C   UNL     1       1.134  -0.239   0.054  1.00  0.00     0.008 C 
ATOM     21  C   UNL     1       1.144  -1.431  -2.145  1.00  0.00     0.008 C 
ENDBRANCH  18  19
ENDBRANCH   8  18
BRANCH  17  22
ATOM     22  C   UNL     1      -5.273   3.209   2.089  1.00  0.00     0.429 C 
ATOM     23  F   UNL     1      -5.898   2.123   2.607  1.00  0.00    -0.167 F 
ATOM     24  F   UNL     1      -6.017   4.284   2.446  1.00  0.00    -0.167 F 
ATOM     25  F   UNL     1      -5.341   3.114   0.743  1.00  0.00    -0.167 F 
ENDBRANCH  17  22
ENDBRANCH   4   7
ENDBRANCH   2   3
ENDBRANCH   1   2
BRANCH   1  26
ATOM     26  C   UNL     1      -4.515   5.549   7.557  1.00  0.00     0.023 C 
BRANCH  26  27
ATOM     27  C   UNL     1      -5.973   5.846   7.901  1.00  0.00     0.116 C 
BRANCH  27  28
ATOM     28  N   UNL     1      -6.791   4.661   8.123  1.00  0.00    -0.352 N 
ATOM     29  C   UNL     1      -7.886   4.525   8.946  1.00  0.00     0.251 C 
ATOM     30  H   UNL     1      -6.526   3.856   7.622  1.00  0.00     0.163 HD
ATOM     31  O   UNL     1      -8.436   3.437   9.083  1.00  0.00    -0.269 OA
BRANCH  29  32
ATOM     32  C   UNL     1      -8.353   5.700   9.708  1.00  0.00     0.039 A 
ATOM     33  C   UNL     1      -8.556   6.920   9.062  1.00  0.00     0.014 A 
ATOM     34  C   UNL     1      -8.495   5.595  11.094  1.00  0.00     0.014 A 
ATOM     35  C   UNL     1      -8.717   8.072   9.821  1.00  0.00     0.010 A 
ATOM     36  C   UNL     1      -8.739   6.745  11.848  1.00  0.00     0.010 A 
ATOM     37  C   UNL     1      -8.789   8.000  11.222  1.00  0.00    -0.014 A 
BRANCH  37  38
ATOM     38  C   UNL     1      -8.877   9.257  12.007  1.00  0.00     0.031 A 
ATOM     39  C   UNL     1      -7.747   9.682  12.906  1.00  0.00     0.074 A 
ATOM     40  C   UNL     1      -9.949  10.056  11.847  1.00  0.00     0.049 A 
ATOM     41  N   UNL     1      -7.632  10.768  13.630  1.00  0.00    -0.248 NA
ATOM     42  C   UNL     1      -6.597   8.771  13.011  1.00  0.00     0.031 C 
ATOM     43  C   UNL     1     -11.102   9.759  10.995  1.00  0.00     0.029 A 
ATOM     44  N   UNL     1     -10.229  11.292  12.368  1.00  0.00    -0.354 N 
ATOM     45  C   UNL     1      -6.414  10.660  14.290  1.00  0.00     0.074 A 
ATOM     46  C   UNL     1      -5.836   9.391  13.902  1.00  0.00     0.031 C 
ATOM     47  C   UNL     1     -11.937  10.809  11.006  1.00  0.00     0.029 A 
ATOM     48  C   UNL     1     -11.406  11.827  11.906  1.00  0.00     0.049 A 
ATOM     49  H   UNL     1      -9.642  11.753  13.011  1.00  0.00     0.167 HD
ATOM     50  C   UNL     1      -5.825  11.541  15.134  1.00  0.00     0.037 A 
ATOM     51  C   UNL     1     -11.995  13.004  12.181  1.00  0.00     0.037 A 
ATOM     52  C   UNL     1      -6.386  12.815  15.501  1.00  0.00     0.049 A 
ATOM     53  C   UNL     1     -11.332  13.950  13.139  1.00  0.00     0.074 A 
ATOM     54  C   UNL     1      -5.856  13.786  16.333  1.00  0.00     0.029 A 
ATOM     55  N   UNL     1      -7.606  13.297  15.051  1.00  0.00    -0.354 N 
ATOM     56  N   UNL     1     -10.180  13.833  13.752  1.00  0.00    -0.248 NA
ATOM     57  C   UNL     1     -12.060  15.188  13.450  1.00  0.00     0.031 C 
ATOM     58  C   UNL     1      -6.771  14.843  16.412  1.00  0.00     0.029 A 
ATOM     59  C   UNL     1      -7.854  14.545  15.601  1.00  0.00     0.049 A 
ATOM     60  H   UNL     1      -8.208  12.823  14.433  1.00  0.00     0.167 HD
ATOM     61  C   UNL     1     -10.038  14.984  14.512  1.00  0.00     0.074 A 
ATOM     62  C   UNL     1     -11.212  15.797  14.266  1.00  0.00     0.031 C 
ATOM     63  C   UNL     1      -9.029  15.336  15.346  1.00  0.00     0.037 A 
BRANCH  50  64
ATOM     64  C   UNL     1      -4.505  11.148  15.731  1.00  0.00     0.057 A 
ATOM     65  C   UNL     1      -4.412  10.791  17.082  1.00  0.00     0.134 A 
ATOM     66  C   UNL     1      -3.323  11.149  14.980  1.00  0.00     0.134 A 
ATOM     67  F   UNL     1      -5.506  10.774  17.859  1.00  0.00    -0.206 F 
ATOM     68  C   UNL     1      -3.191  10.448  17.665  1.00  0.00     0.040 A 
ATOM     69  C   UNL     1      -2.099  10.787  15.546  1.00  0.00     0.040 A 
ATOM     70  F   UNL     1      -3.346  11.466  13.677  1.00  0.00    -0.206 F 
ATOM     71  C   UNL     1      -2.030  10.441  16.894  1.00  0.00     0.006 A 
ENDBRANCH  50  64
BRANCH  51  72
ATOM     72  C   UNL     1     -13.285  13.351  11.539  1.00  0.00     0.057 A 
ATOM     73  C   UNL     1     -14.471  12.690  11.880  1.00  0.00     0.134 A 
ATOM     74  C   UNL     1     -13.360  14.354  10.567  1.00  0.00     0.134 A 
ATOM     75  F   UNL     1     -14.461  11.715  12.802  1.00  0.00    -0.206 F 
ATOM     76  C   UNL     1     -15.684  13.005  11.269  1.00  0.00     0.040 A 
ATOM     77  C   UNL     1     -14.571  14.697   9.964  1.00  0.00     0.040 A 
ATOM     78  F   UNL     1     -12.259  15.034  10.213  1.00  0.00    -0.206 F 
ATOM     79  C   UNL     1     -15.737  14.016  10.312  1.00  0.00     0.006 A 
ENDBRANCH  51  72
BRANCH  63  80
ATOM     80  C   UNL     1      -9.153  16.663  16.031  1.00  0.00     0.057 A 
ATOM     81  C   UNL     1      -8.374  17.753  15.625  1.00  0.00     0.134 A 
ATOM     82  C   UNL     1     -10.039  16.858  17.098  1.00  0.00     0.134 A 
ATOM     83  F   UNL     1      -7.503  17.628  14.612  1.00  0.00    -0.206 F 
ATOM     84  C   UNL     1      -8.476  18.994  16.253  1.00  0.00     0.040 A 
ATOM     85  C   UNL     1     -10.165  18.100  17.720  1.00  0.00     0.040 A 
ATOM     86  F   UNL     1     -10.824  15.856  17.521  1.00  0.00    -0.206 F 
ATOM     87  C   UNL     1      -9.379  19.172  17.300  1.00  0.00     0.006 A 
ENDBRANCH  63  80
ENDBRANCH  37  38
ENDBRANCH  29  32
ENDBRANCH  27  28
ENDBRANCH  26  27
ENDBRANCH   1  26
TORSDOF 14
