REMARK SMILES CC(C)[C@H](C(=O)NCCCCNC(=O)c1ccc(-c2c3nc(c(-c4c(F)cccc4F)c4ccc([nH]4)c(-c4c(F)cccc4F)c4nc(c(-c5c(F)cccc5F)c5ccc2[nH]5)C=C4)C=C3)cc1)n1cc(Cl)c(=O)[nH]c1=O
REMARK SMILES IDX 10 1 9 2 8 3 7 4 5 5 6 6 4 8 2 9 1 10 3 11 69 12 70 13 76 14
REMARK SMILES IDX 71 15 75 16 77 17 72 18 73 19 74 21 11 22 12 23 13 24 14 26
REMARK SMILES IDX 15 27 16 28 68 29 17 30 67 31 18 32 19 33 20 34 61 35 21 36
REMARK SMILES IDX 66 37 60 38 62 39 22 40 65 41 59 42 58 43 23 45 49 46 32 47
REMARK SMILES IDX 48 48 33 49 36 50 47 51 63 52 34 53 35 54 46 56 64 57 37 58
REMARK SMILES IDX 24 59 25 60 30 61 26 62 27 63 29 64 31 65 28 66 50 67 51 68
REMARK SMILES IDX 56 69 52 70 53 71 55 72 57 73 54 74 38 75 39 76 44 77 40 78
REMARK SMILES IDX 41 79 43 80 45 81 42 82
REMARK H PARENT 7 7 75 20 12 25 62 44 36 55
REMARK Flexibility Score: inf
ROOT
ATOM      1  C   UNL     1       1.866   4.808  -1.000  1.00  0.00     0.023 C 
ENDROOT
BRANCH   1   2
ATOM      2  C   UNL     1       0.367   4.488  -0.986  1.00  0.00     0.023 C 
BRANCH   2   3
ATOM      3  C   UNL     1       0.004   3.034  -1.287  1.00  0.00     0.116 C 
BRANCH   3   4
ATOM      4  N   UNL     1       0.704   2.105  -0.430  1.00  0.00    -0.354 N 
ATOM      5  C   UNL     1       0.275   1.383   0.641  1.00  0.00     0.243 C 
ATOM      6  O   UNL     1       1.125   0.705   1.227  1.00  0.00    -0.273 OA
ATOM      7  H   UNL     1       1.651   1.971  -0.661  1.00  0.00     0.163 HD
BRANCH   5   8
ATOM      8  C   UNL     1      -1.224   1.400   1.081  1.00  0.00     0.183 C 
BRANCH   8   9
ATOM      9  C   UNL     1      -1.528  -0.005   1.722  1.00  0.00     0.015 C 
ATOM     10  C   UNL     1      -2.897  -0.194   2.378  1.00  0.00     0.010 C 
ATOM     11  C   UNL     1      -1.407  -1.090   0.625  1.00  0.00     0.010 C 
ENDBRANCH   8   9
BRANCH   8  12
ATOM     12  N   UNL     1      -1.628   2.623   1.855  1.00  0.00    -0.286 N 
ATOM     13  C   UNL     1      -2.986   2.897   1.998  1.00  0.00     0.118 A 
ATOM     14  C   UNL     1      -0.679   3.507   2.382  1.00  0.00     0.329 A 
ATOM     15  C   UNL     1      -3.459   3.990   2.606  1.00  0.00     0.122 A 
ATOM     16  N   UNL     1      -1.184   4.665   2.927  1.00  0.00    -0.273 N 
ATOM     17  O   UNL     1       0.535   3.374   2.343  1.00  0.00    -0.248 OA
ATOM     18  Cl  UNL     1      -5.138   4.254   2.835  1.00  0.00    -0.077 Cl
ATOM     19  C   UNL     1      -2.498   5.015   3.058  1.00  0.00     0.272 A 
ATOM     20  H   UNL     1      -0.524   5.315   3.260  1.00  0.00     0.175 HD
ATOM     21  O   UNL     1      -2.834   6.111   3.495  1.00  0.00    -0.268 OA
ENDBRANCH   8  12
ENDBRANCH   5   8
ENDBRANCH   3   4
ENDBRANCH   2   3
ENDBRANCH   1   2
BRANCH   1  22
ATOM     22  C   UNL     1       2.590   4.500  -2.306  1.00  0.00     0.116 C 
BRANCH  22  23
ATOM     23  N   UNL     1       2.049   5.246  -3.429  1.00  0.00    -0.352 N 
ATOM     24  C   UNL     1       2.690   5.980  -4.395  1.00  0.00     0.251 C 
ATOM     25  H   UNL     1       1.068   5.220  -3.510  1.00  0.00     0.163 HD
ATOM     26  O   UNL     1       2.025   6.668  -5.165  1.00  0.00    -0.269 OA
BRANCH  24  27
ATOM     27  C   UNL     1       4.166   5.963  -4.519  1.00  0.00     0.039 A 
ATOM     28  C   UNL     1       4.820   7.151  -4.863  1.00  0.00     0.014 A 
ATOM     29  C   UNL     1       4.902   4.784  -4.372  1.00  0.00     0.014 A 
ATOM     30  C   UNL     1       6.207   7.163  -5.034  1.00  0.00     0.010 A 
ATOM     31  C   UNL     1       6.292   4.811  -4.474  1.00  0.00     0.010 A 
ATOM     32  C   UNL     1       6.956   5.995  -4.830  1.00  0.00    -0.014 A 
BRANCH  32  33
ATOM     33  C   UNL     1       8.424   5.975  -5.049  1.00  0.00     0.031 A 
ATOM     34  C   UNL     1       9.003   5.147  -6.165  1.00  0.00     0.074 A 
ATOM     35  C   UNL     1       9.240   6.657  -4.223  1.00  0.00     0.049 A 
ATOM     36  N   UNL     1      10.256   4.936  -6.479  1.00  0.00    -0.248 NA
ATOM     37  C   UNL     1       8.043   4.436  -7.026  1.00  0.00     0.031 C 
ATOM     38  C   UNL     1       8.807   7.464  -3.081  1.00  0.00     0.029 A 
ATOM     39  N   UNL     1      10.607   6.772  -4.214  1.00  0.00    -0.354 N 
ATOM     40  C   UNL     1      10.235   4.052  -7.550  1.00  0.00     0.074 A 
ATOM     41  C   UNL     1       8.848   3.728  -7.803  1.00  0.00     0.031 C 
ATOM     42  C   UNL     1       9.886   8.007  -2.494  1.00  0.00     0.029 A 
ATOM     43  C   UNL     1      11.086   7.564  -3.199  1.00  0.00     0.049 A 
ATOM     44  H   UNL     1      11.189   6.329  -4.872  1.00  0.00     0.167 HD
ATOM     45  C   UNL     1      11.273   3.572  -8.275  1.00  0.00     0.037 A 
ATOM     46  C   UNL     1      12.351   7.893  -2.875  1.00  0.00     0.037 A 
ATOM     47  C   UNL     1      12.649   3.928  -8.050  1.00  0.00     0.049 A 
ATOM     48  C   UNL     1      13.485   7.372  -3.713  1.00  0.00     0.074 A 
ATOM     49  C   UNL     1      13.770   3.538  -8.761  1.00  0.00     0.029 A 
ATOM     50  N   UNL     1      13.088   4.768  -7.038  1.00  0.00    -0.354 N 
ATOM     51  N   UNL     1      13.446   6.579  -4.756  1.00  0.00    -0.248 NA
ATOM     52  C   UNL     1      14.839   7.803  -3.336  1.00  0.00     0.031 C 
ATOM     53  C   UNL     1      14.892   4.121  -8.162  1.00  0.00     0.029 A 
ATOM     54  C   UNL     1      14.464   4.905  -7.103  1.00  0.00     0.049 A 
ATOM     55  H   UNL     1      12.508   5.203  -6.372  1.00  0.00     0.167 HD
ATOM     56  C   UNL     1      14.762   6.442  -5.179  1.00  0.00     0.074 A 
ATOM     57  C   UNL     1      15.574   7.241  -4.285  1.00  0.00     0.031 C 
ATOM     58  C   UNL     1      15.253   5.721  -6.216  1.00  0.00     0.037 A 
BRANCH  45  59
ATOM     59  C   UNL     1      10.954   2.613  -9.385  1.00  0.00     0.057 A 
ATOM     60  C   UNL     1      10.316   3.030 -10.560  1.00  0.00     0.134 A 
ATOM     61  C   UNL     1      11.306   1.261  -9.287  1.00  0.00     0.134 A 
ATOM     62  F   UNL     1       9.939   4.309 -10.712  1.00  0.00    -0.206 F 
ATOM     63  C   UNL     1      10.011   2.132 -11.585  1.00  0.00     0.040 A 
ATOM     64  C   UNL     1      11.031   0.359 -10.316  1.00  0.00     0.040 A 
ATOM     65  F   UNL     1      11.925   0.795  -8.192  1.00  0.00    -0.206 F 
ATOM     66  C   UNL     1      10.374   0.793 -11.466  1.00  0.00     0.006 A 
ENDBRANCH  45  59
BRANCH  46  67
ATOM     67  C   UNL     1      12.611   8.796  -1.726  1.00  0.00     0.057 A 
ATOM     68  C   UNL     1      13.045  10.111  -1.928  1.00  0.00     0.134 A 
ATOM     69  C   UNL     1      12.440   8.368  -0.404  1.00  0.00     0.134 A 
ATOM     70  F   UNL     1      13.244  10.571  -3.172  1.00  0.00    -0.206 F 
ATOM     71  C   UNL     1      13.319  10.963  -0.858  1.00  0.00     0.040 A 
ATOM     72  C   UNL     1      12.688   9.217   0.675  1.00  0.00     0.040 A 
ATOM     73  F   UNL     1      12.019   7.121  -0.145  1.00  0.00    -0.206 F 
ATOM     74  C   UNL     1      13.136  10.517   0.450  1.00  0.00     0.006 A 
ENDBRANCH  46  67
BRANCH  58  75
ATOM     75  C   UNL     1      16.729   5.803  -6.470  1.00  0.00     0.057 A 
ATOM     76  C   UNL     1      17.659   5.161  -5.645  1.00  0.00     0.134 A 
ATOM     77  C   UNL     1      17.219   6.505  -7.579  1.00  0.00     0.134 A 
ATOM     78  F   UNL     1      17.253   4.483  -4.561  1.00  0.00    -0.206 F 
ATOM     79  C   UNL     1      19.029   5.232  -5.901  1.00  0.00     0.040 A 
ATOM     80  C   UNL     1      18.584   6.564  -7.858  1.00  0.00     0.040 A 
ATOM     81  F   UNL     1      16.378   7.136  -8.413  1.00  0.00    -0.206 F 
ATOM     82  C   UNL     1      19.494   5.930  -7.015  1.00  0.00     0.006 A 
ENDBRANCH  58  75
ENDBRANCH  32  33
ENDBRANCH  24  27
ENDBRANCH  22  23
ENDBRANCH   1  22
TORSDOF 13
