REMARK SMILES [NH3+][C@]1(C(=O)NCCCCNC(=O)c2ccc(-c3c4nc(c(-c5c(F)cccc5F)c5ccc([nH]5)c(-c5c(F)cccc5F)c5nc(c(-c6c(F)cccc6F)c6ccc3[nH]6)C=C5)C=C4)cc2)CC[C@@H]([NH+]2CCC(C(F)(F)F)CC2)C1
REMARK SMILES IDX 7 1 6 2 5 3 3 4 4 5 2 7 67 8 80 9 68 10 69 11 1 12 70 16
REMARK SMILES IDX 71 17 79 18 72 20 78 21 73 22 74 23 75 24 76 25 77 26 8 27
REMARK SMILES IDX 9 28 10 29 11 30 12 32 13 33 14 34 66 35 15 36 65 37 16 38
REMARK SMILES IDX 17 39 18 40 59 41 19 42 64 43 58 44 60 45 20 46 63 47 57 48
REMARK SMILES IDX 56 49 21 51 47 52 30 53 46 54 31 55 34 56 45 57 61 58 32 59
REMARK SMILES IDX 33 60 44 62 62 63 35 64 22 65 23 66 28 67 24 68 25 69 27 70
REMARK SMILES IDX 29 71 26 72 48 73 49 74 54 75 50 76 51 77 53 78 55 79 52 80
REMARK SMILES IDX 36 81 37 82 42 83 38 84 39 85 41 86 43 87 40 88
REMARK H PARENT 5 6 1 13 1 14 1 15 70 19 10 31 60 50 34 61
REMARK Flexibility Score: inf
ROOT
ATOM      1  C   UNL     1       1.674  -1.964   3.009  1.00  0.00     0.023 C 
ENDROOT
BRANCH   1   2
ATOM      2  C   UNL     1       2.192  -0.723   2.293  1.00  0.00     0.116 C 
BRANCH   2   3
ATOM      3  N   UNL     1       1.839  -0.686   0.891  1.00  0.00    -0.351 N 
ATOM      4  C   UNL     1       1.129   0.215   0.160  1.00  0.00     0.281 C 
ATOM      5  O   UNL     1       0.995  -0.063  -1.040  1.00  0.00    -0.268 OA
ATOM      6  H   UNL     1       2.173  -1.452   0.371  1.00  0.00     0.163 HD
BRANCH   4   7
ATOM      7  C   UNL     1       0.400   1.454   0.779  1.00  0.00     0.179 C 
ATOM      8  C   UNL     1       1.145   2.216   1.880  1.00  0.00     0.085 C 
ATOM      9  C   UNL     1       0.165   2.522  -0.332  1.00  0.00     0.144 C 
ATOM     10  C   UNL     1       0.791   3.681   1.700  1.00  0.00     0.072 C 
ATOM     11  C   UNL     1       0.669   3.883   0.192  1.00  0.00     0.191 C 
BRANCH   7  12
ATOM     12  N   UNL     1      -0.901   0.979   1.308  1.00  0.00    -0.345 N 
ATOM     13  H   UNL     1      -1.407   1.763   1.722  1.00  0.00     0.345 HD
ATOM     14  H   UNL     1      -0.739   0.266   2.019  1.00  0.00     0.345 HD
ATOM     15  H   UNL     1      -1.453   0.582   0.548  1.00  0.00     0.345 HD
ENDBRANCH   7  12
BRANCH  11  16
ATOM     16  N   UNL     1       1.888   4.439  -0.433  1.00  0.00    -0.332 N 
ATOM     17  C   UNL     1       3.091   3.606  -0.351  1.00  0.00     0.263 C 
ATOM     18  C   UNL     1       1.623   4.882  -1.810  1.00  0.00     0.263 C 
ATOM     19  H   UNL     1       2.119   5.249   0.144  1.00  0.00     0.348 HD
ATOM     20  C   UNL     1       4.320   4.325  -0.908  1.00  0.00     0.074 C 
ATOM     21  C   UNL     1       2.809   5.657  -2.382  1.00  0.00     0.074 C 
ATOM     22  C   UNL     1       4.086   4.816  -2.336  1.00  0.00     0.106 C 
BRANCH  22  23
ATOM     23  C   UNL     1       5.280   5.603  -2.841  1.00  0.00     0.392 C 
ATOM     24  F   UNL     1       6.398   4.842  -2.829  1.00  0.00    -0.171 F 
ATOM     25  F   UNL     1       5.085   6.011  -4.114  1.00  0.00    -0.171 F 
ATOM     26  F   UNL     1       5.520   6.697  -2.089  1.00  0.00    -0.171 F 
ENDBRANCH  22  23
ENDBRANCH  11  16
ENDBRANCH   4   7
ENDBRANCH   2   3
ENDBRANCH   1   2
BRANCH   1  27
ATOM     27  C   UNL     1       2.278  -3.289   2.549  1.00  0.00     0.023 C 
BRANCH  27  28
ATOM     28  C   UNL     1       3.800  -3.341   2.490  1.00  0.00     0.116 C 
BRANCH  28  29
ATOM     29  N   UNL     1       4.450  -2.959   3.736  1.00  0.00    -0.352 N 
ATOM     30  C   UNL     1       5.498  -3.561   4.390  1.00  0.00     0.251 C 
ATOM     31  H   UNL     1       4.085  -2.155   4.173  1.00  0.00     0.163 HD
ATOM     32  O   UNL     1       5.873  -3.140   5.480  1.00  0.00    -0.269 OA
BRANCH  30  33
ATOM     33  C   UNL     1       6.146  -4.747   3.794  1.00  0.00     0.039 A 
ATOM     34  C   UNL     1       6.329  -5.882   4.588  1.00  0.00     0.014 A 
ATOM     35  C   UNL     1       6.531  -4.754   2.451  1.00  0.00     0.014 A 
ATOM     36  C   UNL     1       6.824  -7.053   4.013  1.00  0.00     0.010 A 
ATOM     37  C   UNL     1       6.954  -5.942   1.863  1.00  0.00     0.010 A 
ATOM     38  C   UNL     1       7.098  -7.104   2.637  1.00  0.00    -0.014 A 
BRANCH  38  39
ATOM     39  C   UNL     1       7.530  -8.365   1.984  1.00  0.00     0.031 A 
ATOM     40  C   UNL     1       8.891  -8.459   1.353  1.00  0.00     0.074 A 
ATOM     41  C   UNL     1       6.670  -9.398   1.893  1.00  0.00     0.049 A 
ATOM     42  N   UNL     1       9.418  -9.441   0.668  1.00  0.00    -0.248 NA
ATOM     43  C   UNL     1       9.762  -7.281   1.484  1.00  0.00     0.031 C 
ATOM     44  C   UNL     1       5.303  -9.412   2.417  1.00  0.00     0.029 A 
ATOM     45  N   UNL     1       6.816 -10.634   1.315  1.00  0.00    -0.354 N 
ATOM     46  C   UNL     1      10.671  -8.993   0.270  1.00  0.00     0.074 A 
ATOM     47  C   UNL     1      10.805  -7.634   0.748  1.00  0.00     0.031 C 
ATOM     48  C   UNL     1       4.745 -10.605   2.156  1.00  0.00     0.029 A 
ATOM     49  C   UNL     1       5.699 -11.427   1.419  1.00  0.00     0.049 A 
ATOM     50  H   UNL     1       7.644 -10.926   0.869  1.00  0.00     0.167 HD
ATOM     51  C   UNL     1      11.632  -9.661  -0.410  1.00  0.00     0.037 A 
ATOM     52  C   UNL     1       5.470 -12.674   0.966  1.00  0.00     0.037 A 
ATOM     53  C   UNL     1      11.510 -11.024  -0.855  1.00  0.00     0.049 A 
ATOM     54  C   UNL     1       6.558 -13.400   0.226  1.00  0.00     0.074 A 
ATOM     55  C   UNL     1      12.453 -11.810  -1.496  1.00  0.00     0.029 A 
ATOM     56  N   UNL     1      10.374 -11.804  -0.704  1.00  0.00    -0.354 N 
ATOM     57  N   UNL     1       7.763 -12.987  -0.085  1.00  0.00    -0.248 NA
ATOM     58  C   UNL     1       6.257 -14.768  -0.220  1.00  0.00     0.031 C 
ATOM     59  C   UNL     1      11.874 -13.055  -1.762  1.00  0.00     0.029 A 
ATOM     60  C   UNL     1      10.586 -13.058  -1.252  1.00  0.00     0.049 A 
ATOM     61  H   UNL     1       9.540 -11.509  -0.271  1.00  0.00     0.167 HD
ATOM     62  C   UNL     1       8.372 -14.050  -0.737  1.00  0.00     0.074 A 
ATOM     63  C   UNL     1       7.409 -15.131  -0.767  1.00  0.00     0.031 C 
ATOM     64  C   UNL     1       9.619 -14.125  -1.264  1.00  0.00     0.037 A 
BRANCH  51  65
ATOM     65  C   UNL     1      12.905  -8.923  -0.706  1.00  0.00     0.057 A 
ATOM     66  C   UNL     1      13.825  -8.608   0.303  1.00  0.00     0.134 A 
ATOM     67  C   UNL     1      13.226  -8.544  -2.015  1.00  0.00     0.134 A 
ATOM     68  F   UNL     1      13.571  -8.931   1.580  1.00  0.00    -0.206 F 
ATOM     69  C   UNL     1      15.005  -7.917   0.024  1.00  0.00     0.040 A 
ATOM     70  C   UNL     1      14.415  -7.876  -2.310  1.00  0.00     0.040 A 
ATOM     71  F   UNL     1      12.391  -8.820  -3.028  1.00  0.00    -0.206 F 
ATOM     72  C   UNL     1      15.306  -7.554  -1.287  1.00  0.00     0.006 A 
ENDBRANCH  51  65
BRANCH  52  73
ATOM     73  C   UNL     1       4.165 -13.330   1.228  1.00  0.00     0.057 A 
ATOM     74  C   UNL     1       4.060 -14.383   2.144  1.00  0.00     0.134 A 
ATOM     75  C   UNL     1       2.997 -12.929   0.569  1.00  0.00     0.134 A 
ATOM     76  F   UNL     1       5.149 -14.823   2.792  1.00  0.00    -0.206 F 
ATOM     77  C   UNL     1       2.845 -15.026   2.385  1.00  0.00     0.040 A 
ATOM     78  C   UNL     1       1.770 -13.548   0.816  1.00  0.00     0.040 A 
ATOM     79  F   UNL     1       3.030 -11.922  -0.316  1.00  0.00    -0.206 F 
ATOM     80  C   UNL     1       1.694 -14.605   1.722  1.00  0.00     0.006 A 
ENDBRANCH  52  73
BRANCH  64  81
ATOM     81  C   UNL     1      10.023 -15.429  -1.885  1.00  0.00     0.057 A 
ATOM     82  C   UNL     1       9.523 -15.843  -3.125  1.00  0.00     0.134 A 
ATOM     83  C   UNL     1      10.954 -16.260  -1.250  1.00  0.00     0.134 A 
ATOM     84  F   UNL     1       8.618 -15.097  -3.777  1.00  0.00    -0.206 F 
ATOM     85  C   UNL     1       9.920 -17.049  -3.704  1.00  0.00     0.040 A 
ATOM     86  C   UNL     1      11.377 -17.457  -1.830  1.00  0.00     0.040 A 
ATOM     87  F   UNL     1      11.477 -15.917  -0.063  1.00  0.00    -0.206 F 
ATOM     88  C   UNL     1      10.855 -17.856  -3.059  1.00  0.00     0.006 A 
ENDBRANCH  64  81
ENDBRANCH  38  39
ENDBRANCH  30  33
ENDBRANCH  28  29
ENDBRANCH  27  28
ENDBRANCH   1  27
TORSDOF 14
