REMARK SMILES C[C@H]1[NH2+]CC[C@H]1C(=O)N1CC(C(=O)NCCCCNC(=O)c2ccc(-c3c4nc(c(-c5c(F)cccc5F)c5ccc([nH]5)c(-c5c(F)cccc5F)c5nc(c(-c6c(F)cccc6F)c6ccc3[nH]6)C=C5)C=C4)cc2)C1
REMARK SMILES IDX 17 1 16 2 15 3 14 4 12 5 13 6 11 8 7 9 8 10 9 11 10 12 76 13
REMARK SMILES IDX 6 14 1 15 2 16 3 17 4 18 5 21 18 22 19 23 20 24 21 26 22 27
REMARK SMILES IDX 23 28 75 29 24 30 74 31 25 32 26 33 27 34 68 35 28 36 73 37
REMARK SMILES IDX 67 38 69 39 29 40 72 41 66 42 65 43 30 45 56 46 39 47 55 48
REMARK SMILES IDX 40 49 43 50 54 51 70 52 41 53 42 54 53 56 71 57 44 58 31 59
REMARK SMILES IDX 32 60 37 61 33 62 34 63 36 64 38 65 35 66 57 67 58 68 63 69
REMARK SMILES IDX 59 70 60 71 62 72 64 73 61 74 45 75 46 76 51 77 47 78 48 79
REMARK SMILES IDX 50 80 52 81 49 82
REMARK H PARENT 14 7 3 19 3 20 19 25 69 44 43 55
REMARK Flexibility Score: inf
ROOT
ATOM      1  C   UNL     1       2.232  -0.121   6.365  1.00  0.00     0.023 C 
ENDROOT
BRANCH   1   2
ATOM      2  C   UNL     1       1.821   0.173   4.921  1.00  0.00     0.023 C 
BRANCH   2   3
ATOM      3  C   UNL     1       1.415   1.618   4.645  1.00  0.00     0.116 C 
BRANCH   3   4
ATOM      4  N   UNL     1       2.509   2.550   4.841  1.00  0.00    -0.356 N 
ATOM      5  C   UNL     1       3.121   3.424   3.974  1.00  0.00     0.226 C 
ATOM      6  O   UNL     1       4.022   4.118   4.469  1.00  0.00    -0.275 OA
ATOM      7  H   UNL     1       2.878   2.557   5.754  1.00  0.00     0.163 HD
BRANCH   5   8
ATOM      8  C   UNL     1       2.741   3.529   2.493  1.00  0.00     0.117 C 
ATOM      9  C   UNL     1       0.957   2.387  -0.035  1.00  0.00     0.231 C 
ATOM     10  O   UNL     1       1.254   3.242  -0.868  1.00  0.00    -0.274 OA
ATOM     11  N   UNL     1       1.383   2.464   1.279  1.00  0.00    -0.341 N 
ATOM     12  C   UNL     1       1.304   3.731   2.044  1.00  0.00     0.134 C 
ATOM     13  C   UNL     1       2.810   2.291   1.623  1.00  0.00     0.134 C 
BRANCH   9  14
ATOM     14  C   UNL     1       0.086   1.190  -0.394  1.00  0.00     0.142 C 
ATOM     15  C   UNL     1       1.812  -0.577   0.456  1.00  0.00     0.076 C 
ATOM     16  C   UNL     1       0.769  -0.165  -0.578  1.00  0.00     0.192 C 
ATOM     17  N   UNL     1      -0.356  -1.119  -0.546  1.00  0.00    -0.343 N 
ATOM     18  C   UNL     1      -1.448  -0.533   0.232  1.00  0.00     0.261 C 
ATOM     19  H   UNL     1      -0.054  -1.991  -0.112  1.00  0.00     0.346 HD
ATOM     20  H   UNL     1      -0.672  -1.313  -1.496  1.00  0.00     0.346 HD
ATOM     21  C   UNL     1      -1.039   0.889   0.582  1.00  0.00     0.081 C 
ENDBRANCH   9  14
ENDBRANCH   5   8
ENDBRANCH   3   4
ENDBRANCH   2   3
ENDBRANCH   1   2
BRANCH   1  22
ATOM     22  C   UNL     1       1.222   0.288   7.432  1.00  0.00     0.116 C 
BRANCH  22  23
ATOM     23  N   UNL     1      -0.072  -0.356   7.274  1.00  0.00    -0.352 N 
ATOM     24  C   UNL     1      -0.860  -0.966   8.222  1.00  0.00     0.251 C 
ATOM     25  H   UNL     1      -0.436  -0.355   6.360  1.00  0.00     0.163 HD
ATOM     26  O   UNL     1      -1.876  -1.565   7.883  1.00  0.00    -0.269 OA
BRANCH  24  27
ATOM     27  C   UNL     1      -0.462  -0.933   9.646  1.00  0.00     0.039 A 
ATOM     28  C   UNL     1      -0.509  -2.117  10.386  1.00  0.00     0.014 A 
ATOM     29  C   UNL     1      -0.026   0.252  10.244  1.00  0.00     0.014 A 
ATOM     30  C   UNL     1      -0.046  -2.128  11.704  1.00  0.00     0.010 A 
ATOM     31  C   UNL     1       0.506   0.223  11.530  1.00  0.00     0.010 A 
ATOM     32  C   UNL     1       0.504  -0.968  12.273  1.00  0.00    -0.014 A 
BRANCH  32  33
ATOM     33  C   UNL     1       1.092  -0.982  13.637  1.00  0.00     0.031 A 
ATOM     34  C   UNL     1       0.490  -0.144  14.731  1.00  0.00     0.074 A 
ATOM     35  C   UNL     1       2.208  -1.698  13.876  1.00  0.00     0.049 A 
ATOM     36  N   UNL     1       0.900   0.029  15.962  1.00  0.00    -0.248 NA
ATOM     37  C   UNL     1      -0.718   0.622  14.387  1.00  0.00     0.031 C 
ATOM     38  C   UNL     1       2.916  -2.519  12.891  1.00  0.00     0.029 A 
ATOM     39  N   UNL     1       2.950  -1.845  15.022  1.00  0.00    -0.354 N 
ATOM     40  C   UNL     1       0.010   0.929  16.534  1.00  0.00     0.074 A 
ATOM     41  C   UNL     1      -0.927   1.310  15.499  1.00  0.00     0.031 C 
ATOM     42  C   UNL     1       3.971  -3.102  13.481  1.00  0.00     0.029 A 
ATOM     43  C   UNL     1       4.040  -2.667  14.872  1.00  0.00     0.049 A 
ATOM     44  H   UNL     1       2.721  -1.402  15.871  1.00  0.00     0.167 HD
ATOM     45  C   UNL     1      -0.040   1.377  17.811  1.00  0.00     0.037 A 
ATOM     46  C   UNL     1       4.992  -3.026  15.755  1.00  0.00     0.037 A 
ATOM     47  C   UNL     1       0.883   0.985  18.844  1.00  0.00     0.049 A 
ATOM     48  C   UNL     1       4.929  -2.495  17.161  1.00  0.00     0.074 A 
ATOM     49  C   UNL     1       0.887   1.345  20.180  1.00  0.00     0.029 A 
ATOM     50  N   UNL     1       1.971   0.145  18.653  1.00  0.00    -0.354 N 
ATOM     51  N   UNL     1       4.043  -1.696  17.705  1.00  0.00    -0.248 NA
ATOM     52  C   UNL     1       5.996  -2.922  18.077  1.00  0.00     0.031 C 
ATOM     53  C   UNL     1       2.003   0.760  20.788  1.00  0.00     0.029 A 
ATOM     54  C   UNL     1       2.665  -0.007  19.843  1.00  0.00     0.049 A 
ATOM     55  H   UNL     1       2.213  -0.281  17.799  1.00  0.00     0.167 HD
ATOM     56  C   UNL     1       4.428  -1.549  19.031  1.00  0.00     0.074 A 
ATOM     57  C   UNL     1       5.620  -2.352  19.213  1.00  0.00     0.031 C 
ATOM     58  C   UNL     1       3.845  -0.816  20.011  1.00  0.00     0.037 A 
BRANCH  45  59
ATOM     59  C   UNL     1      -1.134   2.344  18.160  1.00  0.00     0.057 A 
ATOM     60  C   UNL     1      -2.479   1.950  18.212  1.00  0.00     0.134 A 
ATOM     61  C   UNL     1      -0.841   3.678  18.473  1.00  0.00     0.134 A 
ATOM     62  F   UNL     1      -2.830   0.691  17.913  1.00  0.00    -0.206 F 
ATOM     63  C   UNL     1      -3.494   2.854  18.531  1.00  0.00     0.040 A 
ATOM     64  C   UNL     1      -1.845   4.584  18.822  1.00  0.00     0.040 A 
ATOM     65  F   UNL     1       0.425   4.121  18.450  1.00  0.00    -0.206 F 
ATOM     66  C   UNL     1      -3.176   4.174  18.843  1.00  0.00     0.006 A 
ENDBRANCH  45  59
BRANCH  46  67
ATOM     67  C   UNL     1       6.074  -3.956  15.346  1.00  0.00     0.057 A 
ATOM     68  C   UNL     1       6.132  -5.260  15.853  1.00  0.00     0.134 A 
ATOM     69  C   UNL     1       7.079  -3.567  14.453  1.00  0.00     0.134 A 
ATOM     70  F   UNL     1       5.208  -5.685  16.727  1.00  0.00    -0.206 F 
ATOM     71  C   UNL     1       7.160  -6.136  15.503  1.00  0.00     0.040 A 
ATOM     72  C   UNL     1       8.099  -4.441  14.074  1.00  0.00     0.040 A 
ATOM     73  F   UNL     1       7.077  -2.333  13.926  1.00  0.00    -0.206 F 
ATOM     74  C   UNL     1       8.145  -5.728  14.606  1.00  0.00     0.006 A 
ENDBRANCH  46  67
BRANCH  58  75
ATOM     75  C   UNL     1       4.464  -0.880  21.378  1.00  0.00     0.057 A 
ATOM     76  C   UNL     1       5.687  -0.264  21.668  1.00  0.00     0.134 A 
ATOM     77  C   UNL     1       3.806  -1.536  22.426  1.00  0.00     0.134 A 
ATOM     78  F   UNL     1       6.375   0.370  20.705  1.00  0.00    -0.206 F 
ATOM     79  C   UNL     1       6.246  -0.318  22.946  1.00  0.00     0.040 A 
ATOM     80  C   UNL     1       4.341  -1.574  23.714  1.00  0.00     0.040 A 
ATOM     81  F   UNL     1       2.626  -2.140  22.218  1.00  0.00    -0.206 F 
ATOM     82  C   UNL     1       5.568  -0.969  23.975  1.00  0.00     0.006 A 
ENDBRANCH  58  75
ENDBRANCH  32  33
ENDBRANCH  24  27
ENDBRANCH  22  23
ENDBRANCH   1  22
TORSDOF 12
