REMARK SMILES [NH3+][C@H](CC(=O)NCCCCNC(=O)c1ccc(-c2c3nc(c(-c4c(F)cccc4F)c4ccc([nH]4)c(-c4c(F)cccc4F)c4nc(c(-c5c(F)cccc5F)c5ccc2[nH]5)C=C4)C=C3)cc1)c1ccccc1Br
REMARK SMILES IDX 8 1 7 2 6 3 4 4 5 5 3 7 2 8 1 9 68 13 69 14 73 15 70 16
REMARK SMILES IDX 72 17 74 18 71 19 9 20 10 21 11 22 12 23 13 25 14 26 15 27
REMARK SMILES IDX 67 28 16 29 66 30 17 31 18 32 19 33 60 34 20 35 65 36 59 37
REMARK SMILES IDX 61 38 21 39 64 40 58 41 57 42 22 44 48 45 31 46 47 47 32 48
REMARK SMILES IDX 35 49 46 50 62 51 33 52 34 53 45 55 63 56 36 57 23 58 24 59
REMARK SMILES IDX 29 60 25 61 26 62 28 63 30 64 27 65 49 66 50 67 55 68 51 69
REMARK SMILES IDX 52 70 54 71 56 72 53 73 37 74 38 75 43 76 39 77 40 78 42 79
REMARK SMILES IDX 44 80 41 81
REMARK H PARENT 6 6 1 10 1 11 1 12 11 24 61 43 35 54
REMARK Flexibility Score: inf
ROOT
ATOM      1  C   UNL     1      -2.806  -0.477  -0.198  1.00  0.00     0.023 C 
ENDROOT
BRANCH   1   2
ATOM      2  C   UNL     1      -1.755  -0.885  -1.224  1.00  0.00     0.116 C 
BRANCH   2   3
ATOM      3  N   UNL     1      -0.905   0.248  -1.544  1.00  0.00    -0.356 N 
ATOM      4  C   UNL     1       0.162   0.738  -0.848  1.00  0.00     0.226 C 
ATOM      5  O   UNL     1       0.591   1.855  -1.147  1.00  0.00    -0.275 OA
ATOM      6  H   UNL     1      -1.127   0.726  -2.375  1.00  0.00     0.163 HD
BRANCH   4   7
ATOM      7  C   UNL     1       0.841  -0.098   0.223  1.00  0.00     0.170 C 
BRANCH   7   8
ATOM      8  C   UNL     1       0.832   0.514   1.642  1.00  0.00     0.222 C 
BRANCH   8   9
ATOM      9  N   UNL     1       1.477   1.839   1.678  1.00  0.00    -0.351 N 
ATOM     10  H   UNL     1       1.449   2.205   2.629  1.00  0.00     0.345 HD
ATOM     11  H   UNL     1       0.981   2.475   1.054  1.00  0.00     0.345 HD
ATOM     12  H   UNL     1       2.447   1.753   1.375  1.00  0.00     0.345 HD
ENDBRANCH   8   9
BRANCH   8  13
ATOM     13  C   UNL     1      -0.539   0.493   2.315  1.00  0.00     0.024 A 
ATOM     14  C   UNL     1      -1.313   1.671   2.403  1.00  0.00     0.011 A 
ATOM     15  C   UNL     1      -1.106  -0.689   2.841  1.00  0.00     0.027 A 
ATOM     16  C   UNL     1      -2.599   1.664   2.955  1.00  0.00     0.001 A 
ATOM     17  C   UNL     1      -2.398  -0.692   3.390  1.00  0.00     0.016 A 
ATOM     18  Br  UNL     1      -0.205  -2.366   2.832  1.00  0.00    -0.050 Br
ATOM     19  C   UNL     1      -3.146   0.481   3.438  1.00  0.00     0.001 A 
ENDBRANCH   8  13
ENDBRANCH   7   8
ENDBRANCH   4   7
ENDBRANCH   2   3
ENDBRANCH   1   2
BRANCH   1  20
ATOM     20  C   UNL     1      -4.096   0.075  -0.787  1.00  0.00     0.023 C 
BRANCH  20  21
ATOM     21  C   UNL     1      -5.005  -0.995  -1.368  1.00  0.00     0.116 C 
BRANCH  21  22
ATOM     22  N   UNL     1      -5.492  -1.942  -0.368  1.00  0.00    -0.352 N 
ATOM     23  C   UNL     1      -6.779  -2.336  -0.084  1.00  0.00     0.251 C 
ATOM     24  H   UNL     1      -4.795  -2.361   0.186  1.00  0.00     0.163 HD
ATOM     25  O   UNL     1      -7.010  -3.067   0.874  1.00  0.00    -0.269 OA
BRANCH  23  26
ATOM     26  C   UNL     1      -7.890  -1.823  -0.911  1.00  0.00     0.039 A 
ATOM     27  C   UNL     1      -9.011  -1.280  -0.279  1.00  0.00     0.014 A 
ATOM     28  C   UNL     1      -7.775  -1.788  -2.301  1.00  0.00     0.014 A 
ATOM     29  C   UNL     1      -9.953  -0.582  -1.036  1.00  0.00     0.010 A 
ATOM     30  C   UNL     1      -8.653  -1.004  -3.035  1.00  0.00     0.010 A 
ATOM     31  C   UNL     1      -9.739  -0.373  -2.407  1.00  0.00    -0.014 A 
BRANCH  31  32
ATOM     32  C   UNL     1     -10.595   0.538  -3.208  1.00  0.00     0.031 A 
ATOM     33  C   UNL     1     -11.303   0.022  -4.428  1.00  0.00     0.074 A 
ATOM     34  C   UNL     1     -10.625   1.854  -2.914  1.00  0.00     0.049 A 
ATOM     35  N   UNL     1     -11.940   0.686  -5.358  1.00  0.00    -0.248 NA
ATOM     36  C   UNL     1     -11.248  -1.431  -4.657  1.00  0.00     0.031 C 
ATOM     37  C   UNL     1      -9.923   2.495  -1.799  1.00  0.00     0.029 A 
ATOM     38  N   UNL     1     -11.256   2.897  -3.547  1.00  0.00    -0.354 N 
ATOM     39  C   UNL     1     -12.322  -0.260  -6.299  1.00  0.00     0.074 A 
ATOM     40  C   UNL     1     -11.810  -1.537  -5.852  1.00  0.00     0.031 C 
ATOM     41  C   UNL     1     -10.182   3.812  -1.812  1.00  0.00     0.029 A 
ATOM     42  C   UNL     1     -11.026   4.118  -2.961  1.00  0.00     0.049 A 
ATOM     43  H   UNL     1     -11.820   2.780  -4.345  1.00  0.00     0.167 HD
ATOM     44  C   UNL     1     -13.053  -0.084  -7.425  1.00  0.00     0.037 A 
ATOM     45  C   UNL     1     -11.435   5.350  -3.318  1.00  0.00     0.037 A 
ATOM     46  C   UNL     1     -13.614   1.176  -7.834  1.00  0.00     0.049 A 
ATOM     47  C   UNL     1     -12.275   5.514  -4.552  1.00  0.00     0.074 A 
ATOM     48  C   UNL     1     -14.458   1.438  -8.898  1.00  0.00     0.029 A 
ATOM     49  N   UNL     1     -13.392   2.383  -7.189  1.00  0.00    -0.354 N 
ATOM     50  N   UNL     1     -12.685   4.600  -5.397  1.00  0.00    -0.248 NA
ATOM     51  C   UNL     1     -12.703   6.880  -4.886  1.00  0.00     0.031 C 
ATOM     52  C   UNL     1     -14.723   2.812  -8.916  1.00  0.00     0.029 A 
ATOM     53  C   UNL     1     -14.067   3.398  -7.845  1.00  0.00     0.049 A 
ATOM     54  H   UNL     1     -12.836   2.501  -6.385  1.00  0.00     0.167 HD
ATOM     55  C   UNL     1     -13.428   5.276  -6.356  1.00  0.00     0.074 A 
ATOM     56  C   UNL     1     -13.427   6.674  -5.978  1.00  0.00     0.031 C 
ATOM     57  C   UNL     1     -14.050   4.783  -7.453  1.00  0.00     0.037 A 
BRANCH  44  58
ATOM     58  C   UNL     1     -13.300  -1.288  -8.283  1.00  0.00     0.057 A 
ATOM     59  C   UNL     1     -14.168  -2.313  -7.884  1.00  0.00     0.134 A 
ATOM     60  C   UNL     1     -12.678  -1.415  -9.531  1.00  0.00     0.134 A 
ATOM     61  F   UNL     1     -14.782  -2.258  -6.692  1.00  0.00    -0.206 F 
ATOM     62  C   UNL     1     -14.388  -3.435  -8.684  1.00  0.00     0.040 A 
ATOM     63  C   UNL     1     -12.910  -2.520 -10.351  1.00  0.00     0.040 A 
ATOM     64  F   UNL     1     -11.838  -0.468  -9.974  1.00  0.00    -0.206 F 
ATOM     65  C   UNL     1     -13.762  -3.538  -9.925  1.00  0.00     0.006 A 
ENDBRANCH  44  58
BRANCH  45  66
ATOM     66  C   UNL     1     -11.066   6.525  -2.491  1.00  0.00     0.057 A 
ATOM     67  C   UNL     1     -12.021   7.168  -1.695  1.00  0.00     0.134 A 
ATOM     68  C   UNL     1      -9.762   7.032  -2.474  1.00  0.00     0.134 A 
ATOM     69  F   UNL     1     -13.291   6.738  -1.685  1.00  0.00    -0.206 F 
ATOM     70  C   UNL     1     -11.696   8.283  -0.921  1.00  0.00     0.040 A 
ATOM     71  C   UNL     1      -9.418   8.134  -1.690  1.00  0.00     0.040 A 
ATOM     72  F   UNL     1      -8.801   6.455  -3.211  1.00  0.00    -0.206 F 
ATOM     73  C   UNL     1     -10.389   8.766  -0.914  1.00  0.00     0.006 A 
ENDBRANCH  45  66
BRANCH  57  74
ATOM     74  C   UNL     1     -14.787   5.761  -8.316  1.00  0.00     0.057 A 
ATOM     75  C   UNL     1     -14.109   6.626  -9.183  1.00  0.00     0.134 A 
ATOM     76  C   UNL     1     -16.186   5.806  -8.313  1.00  0.00     0.134 A 
ATOM     77  F   UNL     1     -12.768   6.638  -9.219  1.00  0.00    -0.206 F 
ATOM     78  C   UNL     1     -14.798   7.512 -10.012  1.00  0.00     0.040 A 
ATOM     79  C   UNL     1     -16.887   6.673  -9.151  1.00  0.00     0.040 A 
ATOM     80  F   UNL     1     -16.892   4.999  -7.507  1.00  0.00    -0.206 F 
ATOM     81  C   UNL     1     -16.192   7.531 -10.002  1.00  0.00     0.006 A 
ENDBRANCH  57  74
ENDBRANCH  31  32
ENDBRANCH  23  26
ENDBRANCH  21  22
ENDBRANCH  20  21
ENDBRANCH   1  20
TORSDOF 14
