REMARK SMILES NC(=O)[C@H]1CC(C(=O)NCCCCNC(=O)c2ccc(-c3c4nc(c(-c5c(F)cccc5F)c5ccc([nH]5)c(-c5c(F)cccc5F)c5nc(c(-c6c(F)cccc6F)c6ccc3[nH]6)C=C5)C=C4)cc2)=NN1c1ccc(F)cc1
REMARK SMILES IDX 12 1 11 2 10 3 9 4 7 5 8 6 6 8 4 9 5 10 72 11 71 12 2 13
REMARK SMILES IDX 1 14 3 17 73 18 74 19 79 20 75 21 78 22 76 23 77 24 13 25
REMARK SMILES IDX 14 26 15 27 16 29 17 30 18 31 70 32 19 33 69 34 20 35 21 36
REMARK SMILES IDX 22 37 63 38 23 39 68 40 62 41 64 42 24 43 67 44 61 45 60 46
REMARK SMILES IDX 25 48 51 49 34 50 50 51 35 52 38 53 49 54 65 55 36 56 37 57
REMARK SMILES IDX 48 59 66 60 39 61 26 62 27 63 32 64 28 65 29 66 31 67 33 68
REMARK SMILES IDX 30 69 52 70 53 71 58 72 54 73 55 74 57 75 59 76 56 77 40 78
REMARK SMILES IDX 41 79 46 80 42 81 43 82 45 83 47 84 44 85
REMARK H PARENT 9 7 1 15 1 16 14 28 64 47 38 58
REMARK Flexibility Score: inf
ROOT
ATOM      1  C   UNL     1      -0.117   7.392   1.541  1.00  0.00     0.023 C 
ENDROOT
BRANCH   1   2
ATOM      2  C   UNL     1       0.177   5.903   1.336  1.00  0.00     0.023 C 
BRANCH   2   3
ATOM      3  C   UNL     1       1.244   5.346   2.273  1.00  0.00     0.116 C 
BRANCH   3   4
ATOM      4  N   UNL     1       0.715   5.101   3.599  1.00  0.00    -0.351 N 
ATOM      5  C   UNL     1       0.294   3.977   4.267  1.00  0.00     0.267 C 
ATOM      6  O   UNL     1      -0.163   4.130   5.397  1.00  0.00    -0.268 OA
ATOM      7  H   UNL     1       0.641   5.920   4.141  1.00  0.00     0.163 HD
BRANCH   5   8
ATOM      8  C   UNL     1       0.401   2.565   3.706  1.00  0.00     0.128 C 
ATOM      9  C   UNL     1       1.023   0.723   2.431  1.00  0.00     0.203 C 
ATOM     10  C   UNL     1       1.120   2.240   2.439  1.00  0.00     0.101 C 
ATOM     11  N   UNL     1       0.272   0.434   3.640  1.00  0.00    -0.252 N 
ATOM     12  N   UNL     1      -0.080   1.543   4.350  1.00  0.00    -0.171 NA
BRANCH   9  13
ATOM     13  C   UNL     1       0.273   0.277   1.170  1.00  0.00     0.242 C 
ATOM     14  N   UNL     1       1.050  -0.257   0.177  1.00  0.00    -0.368 N 
ATOM     15  H   UNL     1       0.635  -0.565  -0.661  1.00  0.00     0.159 HD
ATOM     16  H   UNL     1       2.024  -0.334   0.301  1.00  0.00     0.159 HD
ATOM     17  O   UNL     1      -0.926   0.445   0.967  1.00  0.00    -0.273 OA
ENDBRANCH   9  13
BRANCH  11  18
ATOM     18  C   UNL     1       0.084  -0.835   4.169  1.00  0.00     0.061 A 
ATOM     19  C   UNL     1      -1.135  -1.173   4.778  1.00  0.00     0.031 A 
ATOM     20  C   UNL     1       1.091  -1.812   4.128  1.00  0.00     0.031 A 
ATOM     21  C   UNL     1      -1.358  -2.454   5.290  1.00  0.00     0.041 A 
ATOM     22  C   UNL     1       0.886  -3.085   4.666  1.00  0.00     0.041 A 
ATOM     23  C   UNL     1      -0.343  -3.397   5.232  1.00  0.00     0.123 A 
ATOM     24  F   UNL     1      -0.545  -4.623   5.731  1.00  0.00    -0.207 F 
ENDBRANCH  11  18
ENDBRANCH   5   8
ENDBRANCH   3   4
ENDBRANCH   2   3
ENDBRANCH   1   2
BRANCH   1  25
ATOM     25  C   UNL     1       1.095   8.315   1.447  1.00  0.00     0.116 C 
BRANCH  25  26
ATOM     26  N   UNL     1       1.859   8.150   0.219  1.00  0.00    -0.352 N 
ATOM     27  C   UNL     1       2.534   9.103  -0.504  1.00  0.00     0.251 C 
ATOM     28  H   UNL     1       1.896   7.235  -0.141  1.00  0.00     0.163 HD
ATOM     29  O   UNL     1       3.053   8.814  -1.578  1.00  0.00    -0.269 OA
BRANCH  27  30
ATOM     30  C   UNL     1       2.596  10.488   0.003  1.00  0.00     0.039 A 
ATOM     31  C   UNL     1       2.264  11.536  -0.859  1.00  0.00     0.014 A 
ATOM     32  C   UNL     1       2.944  10.747   1.331  1.00  0.00     0.014 A 
ATOM     33  C   UNL     1       2.219  12.841  -0.369  1.00  0.00     0.010 A 
ATOM     34  C   UNL     1       2.826  12.037   1.835  1.00  0.00     0.010 A 
ATOM     35  C   UNL     1       2.465  13.098   0.990  1.00  0.00    -0.014 A 
BRANCH  35  36
ATOM     36  C   UNL     1       2.353  14.470   1.544  1.00  0.00     0.031 A 
ATOM     37  C   UNL     1       3.566  15.157   2.107  1.00  0.00     0.074 A 
ATOM     38  C   UNL     1       1.149  15.071   1.598  1.00  0.00     0.049 A 
ATOM     39  N   UNL     1       3.660  16.328   2.682  1.00  0.00    -0.248 NA
ATOM     40  C   UNL     1       4.837  14.417   2.040  1.00  0.00     0.031 C 
ATOM     41  C   UNL     1      -0.112  14.486   1.137  1.00  0.00     0.029 A 
ATOM     42  N   UNL     1       0.787  16.306   2.074  1.00  0.00    -0.354 N 
ATOM     43  C   UNL     1       4.991  16.458   3.058  1.00  0.00     0.074 A 
ATOM     44  C   UNL     1       5.655  15.225   2.698  1.00  0.00     0.031 C 
ATOM     45  C   UNL     1      -1.103  15.371   1.327  1.00  0.00     0.029 A 
ATOM     46  C   UNL     1      -0.556  16.570   1.954  1.00  0.00     0.049 A 
ATOM     47  H   UNL     1       1.429  16.942   2.463  1.00  0.00     0.167 HD
ATOM     48  C   UNL     1       5.610  17.519   3.627  1.00  0.00     0.037 A 
ATOM     49  C   UNL     1      -1.265  17.658   2.312  1.00  0.00     0.037 A 
ATOM     50  C   UNL     1       4.953  18.756   3.958  1.00  0.00     0.049 A 
ATOM     51  C   UNL     1      -0.553  18.826   2.934  1.00  0.00     0.074 A 
ATOM     52  C   UNL     1       5.504  19.912   4.481  1.00  0.00     0.029 A 
ATOM     53  N   UNL     1       3.596  18.995   3.796  1.00  0.00    -0.354 N 
ATOM     54  N   UNL     1       0.720  18.964   3.217  1.00  0.00    -0.248 NA
ATOM     55  C   UNL     1      -1.375  19.995   3.279  1.00  0.00     0.031 C 
ATOM     56  C   UNL     1       4.474  20.838   4.674  1.00  0.00     0.029 A 
ATOM     57  C   UNL     1       3.289  20.276   4.226  1.00  0.00     0.049 A 
ATOM     58  H   UNL     1       2.948  18.351   3.431  1.00  0.00     0.167 HD
ATOM     59  C   UNL     1       0.857  20.242   3.742  1.00  0.00     0.074 A 
ATOM     60  C   UNL     1      -0.460  20.843   3.728  1.00  0.00     0.031 C 
ATOM     61  C   UNL     1       1.974  20.863   4.193  1.00  0.00     0.037 A 
BRANCH  48  62
ATOM     62  C   UNL     1       7.077  17.389   3.919  1.00  0.00     0.057 A 
ATOM     63  C   UNL     1       8.033  17.351   2.896  1.00  0.00     0.134 A 
ATOM     64  C   UNL     1       7.542  17.329   5.239  1.00  0.00     0.134 A 
ATOM     65  F   UNL     1       7.654  17.390   1.609  1.00  0.00    -0.206 F 
ATOM     66  C   UNL     1       9.396  17.230   3.173  1.00  0.00     0.040 A 
ATOM     67  C   UNL     1       8.904  17.237   5.529  1.00  0.00     0.040 A 
ATOM     68  F   UNL     1       6.681  17.366   6.267  1.00  0.00    -0.206 F 
ATOM     69  C   UNL     1       9.835  17.180   4.494  1.00  0.00     0.006 A 
ENDBRANCH  48  62
BRANCH  49  70
ATOM     70  C   UNL     1      -2.727  17.708   2.059  1.00  0.00     0.057 A 
ATOM     71  C   UNL     1      -3.261  18.556   1.081  1.00  0.00     0.134 A 
ATOM     72  C   UNL     1      -3.625  16.920   2.788  1.00  0.00     0.134 A 
ATOM     73  F   UNL     1      -2.452  19.348   0.361  1.00  0.00    -0.206 F 
ATOM     74  C   UNL     1      -4.635  18.634   0.851  1.00  0.00     0.040 A 
ATOM     75  C   UNL     1      -5.000  16.970   2.552  1.00  0.00     0.040 A 
ATOM     76  F   UNL     1      -3.176  16.080   3.732  1.00  0.00    -0.206 F 
ATOM     77  C   UNL     1      -5.509  17.835   1.586  1.00  0.00     0.006 A 
ENDBRANCH  49  70
BRANCH  61  78
ATOM     78  C   UNL     1       1.829  22.279   4.668  1.00  0.00     0.057 A 
ATOM     79  C   UNL     1       1.200  22.593   5.879  1.00  0.00     0.134 A 
ATOM     80  C   UNL     1       2.365  23.337   3.922  1.00  0.00     0.134 A 
ATOM     81  F   UNL     1       0.655  21.627   6.634  1.00  0.00    -0.206 F 
ATOM     82  C   UNL     1       1.089  23.913   6.320  1.00  0.00     0.040 A 
ATOM     83  C   UNL     1       2.284  24.657   4.365  1.00  0.00     0.040 A 
ATOM     84  F   UNL     1       2.988  23.102   2.758  1.00  0.00    -0.206 F 
ATOM     85  C   UNL     1       1.638  24.948   5.566  1.00  0.00     0.006 A 
ENDBRANCH  61  78
ENDBRANCH  35  36
ENDBRANCH  27  30
ENDBRANCH  25  26
ENDBRANCH   1  25
TORSDOF 13
