REMARK SMILES CC(C)[C@@H](CCC(=O)NCCCCNC(=O)c1ccc(-c2c3nc(c(-c4c(F)cccc4F)c4ccc([nH]4)c(-c4c(F)cccc4F)c4nc(c(-c5c(F)cccc5F)c5ccc2[nH]5)C=C4)C=C3)cc1)CC[NH+]1CC2(CC2)C1
REMARK SMILES IDX 10 1 9 2 7 3 8 4 6 6 5 7 4 8 2 9 1 10 3 11 71 12 72 13 73 14
REMARK SMILES IDX 74 15 78 16 75 18 76 19 77 20 11 21 12 22 13 23 14 24 15 25
REMARK SMILES IDX 16 27 17 28 18 29 70 30 19 31 69 32 20 33 21 34 22 35 63 36
REMARK SMILES IDX 23 37 68 38 62 39 64 40 24 41 67 42 61 43 60 44 25 46 51 47
REMARK SMILES IDX 34 48 50 49 35 50 38 51 49 52 65 53 36 54 37 55 48 57 66 58
REMARK SMILES IDX 39 59 26 60 27 61 32 62 28 63 29 64 31 65 33 66 30 67 52 68
REMARK SMILES IDX 53 69 58 70 54 71 55 72 57 73 59 74 56 75 40 76 41 77 46 78
REMARK SMILES IDX 42 79 43 80 45 81 47 82 44 83
REMARK H PARENT 9 5 73 17 14 26 64 45 38 56
REMARK Flexibility Score: inf
ROOT
ATOM      1  C   UNL     1       0.353  -4.590   1.474  1.00  0.00     0.116 C 
ENDROOT
BRANCH   1   2
ATOM      2  N   UNL     1      -0.985  -4.716   0.932  1.00  0.00    -0.356 N 
ATOM      3  C   UNL     1      -1.624  -4.040  -0.059  1.00  0.00     0.220 C 
ATOM      4  O   UNL     1      -2.804  -4.323  -0.280  1.00  0.00    -0.275 OA
ATOM      5  H   UNL     1      -1.528  -5.418   1.359  1.00  0.00     0.163 HD
BRANCH   3   6
ATOM      6  C   UNL     1      -0.909  -2.987  -0.878  1.00  0.00     0.100 C 
BRANCH   6   7
ATOM      7  C   UNL     1      -1.496  -1.570  -0.729  1.00  0.00     0.014 C 
BRANCH   7   8
ATOM      8  C   UNL     1      -1.078  -0.732   0.535  1.00  0.00    -0.003 C 
BRANCH   8   9
ATOM      9  C   UNL     1       0.489  -0.683   0.673  1.00  0.00    -0.014 C 
ATOM     10  C   UNL     1       1.106   0.096  -0.505  1.00  0.00     0.007 C 
ATOM     11  C   UNL     1       1.076  -0.106   1.962  1.00  0.00     0.007 C 
ENDBRANCH   8   9
BRANCH   8  12
ATOM     12  C   UNL     1      -1.990  -1.198   1.704  1.00  0.00     0.065 C 
BRANCH  12  13
ATOM     13  C   UNL     1      -1.940  -0.564   3.106  1.00  0.00     0.262 C 
BRANCH  13  14
ATOM     14  N   UNL     1      -2.604   0.699   3.447  1.00  0.00    -0.334 N 
ATOM     15  C   UNL     1      -1.639   1.729   3.877  1.00  0.00     0.275 C 
ATOM     16  C   UNL     1      -3.042   1.546   2.332  1.00  0.00     0.275 C 
ATOM     17  H   UNL     1      -3.323   0.331   4.069  1.00  0.00     0.348 HD
ATOM     18  C   UNL     1      -1.844   2.376   2.566  1.00  0.00     0.068 C 
ATOM     19  C   UNL     1      -0.830   2.815   1.558  1.00  0.00     0.020 C 
ATOM     20  C   UNL     1      -1.683   3.831   2.261  1.00  0.00     0.020 C 
ENDBRANCH  13  14
ENDBRANCH  12  13
ENDBRANCH   8  12
ENDBRANCH   7   8
ENDBRANCH   6   7
ENDBRANCH   3   6
ENDBRANCH   1   2
BRANCH   1  21
ATOM     21  C   UNL     1       0.417  -3.674   2.692  1.00  0.00     0.023 C 
BRANCH  21  22
ATOM     22  C   UNL     1      -0.596  -3.989   3.792  1.00  0.00     0.023 C 
BRANCH  22  23
ATOM     23  C   UNL     1       0.042  -3.987   5.164  1.00  0.00     0.116 C 
BRANCH  23  24
ATOM     24  N   UNL     1       0.697  -2.752   5.572  1.00  0.00    -0.352 N 
ATOM     25  C   UNL     1       1.185  -2.440   6.828  1.00  0.00     0.251 C 
ATOM     26  H   UNL     1       0.804  -2.063   4.877  1.00  0.00     0.163 HD
ATOM     27  O   UNL     1       1.669  -1.334   7.052  1.00  0.00    -0.269 OA
BRANCH  25  28
ATOM     28  C   UNL     1       1.054  -3.434   7.924  1.00  0.00     0.039 A 
ATOM     29  C   UNL     1       0.655  -3.021   9.197  1.00  0.00     0.014 A 
ATOM     30  C   UNL     1       1.246  -4.790   7.675  1.00  0.00     0.014 A 
ATOM     31  C   UNL     1       0.369  -3.979  10.175  1.00  0.00     0.010 A 
ATOM     32  C   UNL     1       0.785  -5.735   8.574  1.00  0.00     0.010 A 
ATOM     33  C   UNL     1       0.385  -5.347   9.855  1.00  0.00    -0.014 A 
BRANCH  33  34
ATOM     34  C   UNL     1       0.063  -6.406  10.844  1.00  0.00     0.031 A 
ATOM     35  C   UNL     1       1.075  -7.492  11.127  1.00  0.00     0.074 A 
ATOM     36  C   UNL     1      -1.155  -6.447  11.416  1.00  0.00     0.049 A 
ATOM     37  N   UNL     1       0.959  -8.562  11.872  1.00  0.00    -0.248 NA
ATOM     38  C   UNL     1       2.369  -7.398  10.427  1.00  0.00     0.031 C 
ATOM     39  C   UNL     1      -2.255  -5.516  11.150  1.00  0.00     0.029 A 
ATOM     40  N   UNL     1      -1.674  -7.313  12.345  1.00  0.00    -0.354 N 
ATOM     41  C   UNL     1       2.138  -9.275  11.690  1.00  0.00     0.074 A 
ATOM     42  C   UNL     1       2.914  -8.572  10.698  1.00  0.00     0.031 C 
ATOM     43  C   UNL     1      -3.296  -5.826  11.939  1.00  0.00     0.029 A 
ATOM     44  C   UNL     1      -2.950  -6.994  12.742  1.00  0.00     0.049 A 
ATOM     45  H   UNL     1      -1.179  -8.089  12.693  1.00  0.00     0.167 HD
ATOM     46  C   UNL     1       2.566 -10.389  12.330  1.00  0.00     0.037 A 
ATOM     47  C   UNL     1      -3.740  -7.573  13.665  1.00  0.00     0.037 A 
ATOM     48  C   UNL     1       1.825 -11.033  13.379  1.00  0.00     0.049 A 
ATOM     49  C   UNL     1      -3.211  -8.755  14.429  1.00  0.00     0.074 A 
ATOM     50  C   UNL     1       2.194 -12.111  14.163  1.00  0.00     0.029 A 
ATOM     51  N   UNL     1       0.566 -10.636  13.803  1.00  0.00    -0.354 N 
ATOM     52  N   UNL     1      -2.061  -9.374  14.304  1.00  0.00    -0.248 NA
ATOM     53  C   UNL     1      -4.082  -9.309  15.473  1.00  0.00     0.031 C 
ATOM     54  C   UNL     1       1.144 -12.381  15.048  1.00  0.00     0.029 A 
ATOM     55  C   UNL     1       0.140 -11.449  14.838  1.00  0.00     0.049 A 
ATOM     56  H   UNL     1       0.051  -9.887  13.424  1.00  0.00     0.167 HD
ATOM     57  C   UNL     1      -2.060 -10.374  15.267  1.00  0.00     0.074 A 
ATOM     58  C   UNL     1      -3.315 -10.262  15.983  1.00  0.00     0.031 C 
ATOM     59  C   UNL     1      -1.113 -11.307  15.534  1.00  0.00     0.037 A 
BRANCH  46  60
ATOM     60  C   UNL     1       3.905 -10.943  11.934  1.00  0.00     0.057 A 
ATOM     61  C   UNL     1       5.099 -10.255  12.198  1.00  0.00     0.134 A 
ATOM     62  C   UNL     1       4.006 -12.174  11.274  1.00  0.00     0.134 A 
ATOM     63  F   UNL     1       5.074  -9.061  12.811  1.00  0.00    -0.206 F 
ATOM     64  C   UNL     1       6.337 -10.749  11.784  1.00  0.00     0.040 A 
ATOM     65  C   UNL     1       5.242 -12.694  10.885  1.00  0.00     0.040 A 
ATOM     66  F   UNL     1       2.907 -12.889  10.992  1.00  0.00    -0.206 F 
ATOM     67  C   UNL     1       6.411 -11.976  11.130  1.00  0.00     0.006 A 
ENDBRANCH  46  60
BRANCH  47  68
ATOM     68  C   UNL     1      -5.076  -7.003  13.969  1.00  0.00     0.057 A 
ATOM     69  C   UNL     1      -5.314  -6.335  15.177  1.00  0.00     0.134 A 
ATOM     70  C   UNL     1      -6.144  -7.106  13.070  1.00  0.00     0.134 A 
ATOM     71  F   UNL     1      -4.334  -6.215  16.084  1.00  0.00    -0.206 F 
ATOM     72  C   UNL     1      -6.569  -5.812  15.491  1.00  0.00     0.040 A 
ATOM     73  C   UNL     1      -7.399  -6.567  13.361  1.00  0.00     0.040 A 
ATOM     74  F   UNL     1      -5.979  -7.722  11.891  1.00  0.00    -0.206 F 
ATOM     75  C   UNL     1      -7.616  -5.924  14.579  1.00  0.00     0.006 A 
ENDBRANCH  47  68
BRANCH  59  76
ATOM     76  C   UNL     1      -1.394 -12.253  16.662  1.00  0.00     0.057 A 
ATOM     77  C   UNL     1      -2.344 -13.274  16.546  1.00  0.00     0.134 A 
ATOM     78  C   UNL     1      -0.686 -12.155  17.867  1.00  0.00     0.134 A 
ATOM     79  F   UNL     1      -3.061 -13.412  15.421  1.00  0.00    -0.206 F 
ATOM     80  C   UNL     1      -2.603 -14.149  17.602  1.00  0.00     0.040 A 
ATOM     81  C   UNL     1      -0.917 -13.040  18.919  1.00  0.00     0.040 A 
ATOM     82  F   UNL     1       0.245 -11.204  18.035  1.00  0.00    -0.206 F 
ATOM     83  C   UNL     1      -1.884 -14.036  18.790  1.00  0.00     0.006 A 
ENDBRANCH  59  76
ENDBRANCH  33  34
ENDBRANCH  25  28
ENDBRANCH  23  24
ENDBRANCH  22  23
ENDBRANCH  21  22
ENDBRANCH   1  21
TORSDOF 17
