REMARK SMILES C/C(=N/[NH+]=C1\NC(=O)[C@H](CC(=O)NCCCCNC(=O)c2ccc(-c3c4nc(c(-c5c(F)cccc5F)c5ccc([nH]5)c(-c5c(F)cccc5F)c5nc(c(-c6c(F)cccc6F)c6ccc3[nH]6)C=C5)C=C4)cc2)S1)c1ccc(OC(C)C)cc1
REMARK SMILES IDX 14 1 13 2 11 3 12 4 10 6 9 7 4 8 5 9 6 11 75 12 7 13 8 15
REMARK SMILES IDX 3 16 1 17 2 18 76 19 77 20 85 21 78 22 84 23 79 24 80 25
REMARK SMILES IDX 81 26 82 27 83 28 15 29 16 30 17 31 18 32 19 33 20 35 21 36
REMARK SMILES IDX 22 37 74 38 23 39 73 40 24 41 25 42 26 43 67 44 27 45 72 46
REMARK SMILES IDX 66 47 68 48 28 49 71 50 65 51 64 52 29 54 55 55 38 56 54 57
REMARK SMILES IDX 39 58 42 59 53 60 69 61 40 62 41 63 52 65 70 66 43 67 30 68
REMARK SMILES IDX 31 69 36 70 32 71 33 72 35 73 37 74 34 75 56 76 57 77 62 78
REMARK SMILES IDX 58 79 59 80 61 81 63 82 60 83 44 84 45 85 50 86 46 87 47 88
REMARK SMILES IDX 49 89 51 90 48 91
REMARK H PARENT 13 5 4 10 6 14 18 34 68 53 42 64
REMARK Flexibility Score: inf
ROOT
ATOM      1  C   UNL     1       3.740  -3.054   4.467  1.00  0.00     0.116 C 
ENDROOT
BRANCH   1   2
ATOM      2  N   UNL     1       3.773  -3.501   5.843  1.00  0.00    -0.356 N 
ATOM      3  C   UNL     1       2.730  -3.787   6.676  1.00  0.00     0.221 C 
ATOM      4  O   UNL     1       2.966  -4.187   7.815  1.00  0.00    -0.275 OA
ATOM      5  H   UNL     1       4.670  -3.615   6.231  1.00  0.00     0.163 HD
BRANCH   3   6
ATOM      6  C   UNL     1       1.310  -3.613   6.190  1.00  0.00     0.127 C 
BRANCH   6   7
ATOM      7  C   UNL     1       0.744  -2.241   6.545  1.00  0.00     0.183 C 
ATOM      8  N   UNL     1      -0.872  -0.951   3.342  1.00  0.00    -0.142 N 
ATOM      9  C   UNL     1      -0.248  -1.123   4.455  1.00  0.00     0.337 C 
ATOM     10  H   UNL     1      -1.773  -1.319   3.196  1.00  0.00     0.343 HD
ATOM     11  N   UNL     1       0.974  -0.649   4.775  1.00  0.00    -0.202 N 
ATOM     12  S   UNL     1      -0.901  -2.090   5.746  1.00  0.00    -0.020 SA
ATOM     13  C   UNL     1       1.522  -1.078   5.949  1.00  0.00     0.322 C 
ATOM     14  H   UNL     1       1.450  -0.021   4.186  1.00  0.00     0.316 HD
ATOM     15  O   UNL     1       2.539  -0.598   6.430  1.00  0.00    -0.246 OA
BRANCH   8  16
ATOM     16  N   UNL     1      -0.211  -0.219   2.352  1.00  0.00    -0.090 NA
ATOM     17  C   UNL     1       0.967  -0.122   0.258  1.00  0.00     0.071 C 
ATOM     18  C   UNL     1       0.431  -0.902   1.441  1.00  0.00     0.088 C 
BRANCH  18  19
ATOM     19  C   UNL     1       0.763  -2.361   1.494  1.00  0.00    -0.000 A 
ATOM     20  C   UNL     1      -0.160  -3.304   1.940  1.00  0.00     0.014 A 
ATOM     21  C   UNL     1       2.073  -2.775   1.217  1.00  0.00     0.014 A 
ATOM     22  C   UNL     1       0.256  -4.608   2.221  1.00  0.00     0.047 A 
ATOM     23  C   UNL     1       2.477  -4.096   1.477  1.00  0.00     0.047 A 
ATOM     24  C   UNL     1       1.581  -5.009   2.020  1.00  0.00     0.119 A 
BRANCH  24  25
ATOM     25  O   UNL     1       1.828  -6.278   2.436  1.00  0.00    -0.491 OA
BRANCH  25  26
ATOM     26  C   UNL     1       3.044  -7.000   2.237  1.00  0.00     0.167 C 
ATOM     27  C   UNL     1       3.439  -7.168   0.776  1.00  0.00     0.052 C 
ATOM     28  C   UNL     1       4.190  -6.541   3.129  1.00  0.00     0.052 C 
ENDBRANCH  25  26
ENDBRANCH  24  25
ENDBRANCH  18  19
ENDBRANCH   8  16
ENDBRANCH   6   7
ENDBRANCH   3   6
ENDBRANCH   1   2
BRANCH   1  29
ATOM     29  C   UNL     1       4.609  -1.829   4.206  1.00  0.00     0.023 C 
BRANCH  29  30
ATOM     30  C   UNL     1       6.109  -2.102   4.163  1.00  0.00     0.023 C 
BRANCH  30  31
ATOM     31  C   UNL     1       6.574  -3.072   3.083  1.00  0.00     0.116 C 
BRANCH  31  32
ATOM     32  N   UNL     1       6.138  -2.709   1.740  1.00  0.00    -0.352 N 
ATOM     33  C   UNL     1       6.875  -2.642   0.581  1.00  0.00     0.251 C 
ATOM     34  H   UNL     1       5.185  -2.480   1.651  1.00  0.00     0.163 HD
ATOM     35  O   UNL     1       6.365  -2.241  -0.459  1.00  0.00    -0.269 OA
BRANCH  33  36
ATOM     36  C   UNL     1       8.302  -3.015   0.626  1.00  0.00     0.039 A 
ATOM     37  C   UNL     1       9.258  -2.076   0.233  1.00  0.00     0.014 A 
ATOM     38  C   UNL     1       8.686  -4.246   1.162  1.00  0.00     0.014 A 
ATOM     39  C   UNL     1      10.608  -2.332   0.477  1.00  0.00     0.010 A 
ATOM     40  C   UNL     1      10.024  -4.468   1.468  1.00  0.00     0.010 A 
ATOM     41  C   UNL     1      10.994  -3.504   1.150  1.00  0.00    -0.014 A 
BRANCH  41  42
ATOM     42  C   UNL     1      12.400  -3.720   1.575  1.00  0.00     0.031 A 
ATOM     43  C   UNL     1      13.191  -4.866   1.013  1.00  0.00     0.074 A 
ATOM     44  C   UNL     1      12.933  -2.937   2.533  1.00  0.00     0.049 A 
ATOM     45  N   UNL     1      14.393  -5.273   1.329  1.00  0.00    -0.248 NA
ATOM     46  C   UNL     1      12.531  -5.678  -0.021  1.00  0.00     0.031 C 
ATOM     47  C   UNL     1      12.250  -1.822   3.194  1.00  0.00     0.029 A 
ATOM     48  N   UNL     1      14.168  -2.968   3.131  1.00  0.00    -0.354 N 
ATOM     49  C   UNL     1      14.630  -6.392   0.542  1.00  0.00     0.074 A 
ATOM     50  C   UNL     1      13.428  -6.631  -0.227  1.00  0.00     0.031 C 
ATOM     51  C   UNL     1      13.080  -1.266   4.090  1.00  0.00     0.029 A 
ATOM     52  C   UNL     1      14.337  -2.007   4.100  1.00  0.00     0.049 A 
ATOM     53  H   UNL     1      14.867  -3.617   2.890  1.00  0.00     0.167 HD
ATOM     54  C   UNL     1      15.756  -7.139   0.452  1.00  0.00     0.037 A 
ATOM     55  C   UNL     1      15.382  -1.761   4.913  1.00  0.00     0.037 A 
ATOM     56  C   UNL     1      16.956  -6.887   1.205  1.00  0.00     0.049 A 
ATOM     57  C   UNL     1      16.610  -2.622   4.813  1.00  0.00     0.074 A 
ATOM     58  C   UNL     1      18.171  -7.546   1.135  1.00  0.00     0.029 A 
ATOM     59  N   UNL     1      17.090  -5.903   2.173  1.00  0.00    -0.354 N 
ATOM     60  N   UNL     1      16.849  -3.630   4.009  1.00  0.00    -0.248 NA
ATOM     61  C   UNL     1      17.714  -2.312   5.733  1.00  0.00     0.031 C 
ATOM     62  C   UNL     1      19.025  -6.992   2.095  1.00  0.00     0.029 A 
ATOM     63  C   UNL     1      18.358  -5.957   2.729  1.00  0.00     0.049 A 
ATOM     64  H   UNL     1      16.389  -5.260   2.426  1.00  0.00     0.167 HD
ATOM     65  C   UNL     1      18.134  -4.062   4.312  1.00  0.00     0.074 A 
ATOM     66  C   UNL     1      18.631  -3.194   5.359  1.00  0.00     0.031 C 
ATOM     67  C   UNL     1      18.837  -5.087   3.773  1.00  0.00     0.037 A 
BRANCH  54  68
ATOM     68  C   UNL     1      15.740  -8.299  -0.499  1.00  0.00     0.057 A 
ATOM     69  C   UNL     1      15.729  -8.115  -1.888  1.00  0.00     0.134 A 
ATOM     70  C   UNL     1      15.767  -9.616  -0.022  1.00  0.00     0.134 A 
ATOM     71  F   UNL     1      15.690  -6.880  -2.410  1.00  0.00    -0.206 F 
ATOM     72  C   UNL     1      15.717  -9.198  -2.768  1.00  0.00     0.040 A 
ATOM     73  C   UNL     1      15.783 -10.707  -0.893  1.00  0.00     0.040 A 
ATOM     74  F   UNL     1      15.783  -9.863   1.296  1.00  0.00    -0.206 F 
ATOM     75  C   UNL     1      15.751 -10.499  -2.270  1.00  0.00     0.006 A 
ENDBRANCH  54  68
BRANCH  55  76
ATOM     76  C   UNL     1      15.318  -0.645   5.892  1.00  0.00     0.057 A 
ATOM     77  C   UNL     1      16.110   0.498   5.734  1.00  0.00     0.134 A 
ATOM     78  C   UNL     1      14.480  -0.699   7.013  1.00  0.00     0.134 A 
ATOM     79  F   UNL     1      16.948   0.600   4.692  1.00  0.00    -0.206 F 
ATOM     80  C   UNL     1      16.085   1.540   6.663  1.00  0.00     0.040 A 
ATOM     81  C   UNL     1      14.426   0.346   7.936  1.00  0.00     0.040 A 
ATOM     82  F   UNL     1      13.692  -1.765   7.218  1.00  0.00    -0.206 F 
ATOM     83  C   UNL     1      15.237   1.467   7.767  1.00  0.00     0.006 A 
ENDBRANCH  55  76
BRANCH  67  84
ATOM     84  C   UNL     1      20.226  -5.317   4.295  1.00  0.00     0.057 A 
ATOM     85  C   UNL     1      20.454  -5.860   5.565  1.00  0.00     0.134 A 
ATOM     86  C   UNL     1      21.344  -5.034   3.500  1.00  0.00     0.134 A 
ATOM     87  F   UNL     1      19.426  -6.140   6.380  1.00  0.00    -0.206 F 
ATOM     88  C   UNL     1      21.748  -6.097   6.034  1.00  0.00     0.040 A 
ATOM     89  C   UNL     1      22.640  -5.291   3.947  1.00  0.00     0.040 A 
ATOM     90  F   UNL     1      21.194  -4.519   2.270  1.00  0.00    -0.206 F 
ATOM     91  C   UNL     1      22.845  -5.820   5.220  1.00  0.00     0.006 A 
ENDBRANCH  67  84
ENDBRANCH  41  42
ENDBRANCH  33  36
ENDBRANCH  31  32
ENDBRANCH  30  31
ENDBRANCH  29  30
ENDBRANCH   1  29
TORSDOF 16
