REMARK SMILES CC(=O)[C@@H]1CCCC[N@H+]1CC(C)(C)C(=O)NCCCCNC(=O)c1ccc(-c2c3nc(c(-c4c(F)cccc4F)c4ccc([nH]4)c(-c4c(F)cccc4F)c4nc(c(-c5c(F)cccc5F)c5ccc2[nH]5)C=C4)C=C3)cc1
REMARK SMILES IDX 18 1 17 2 16 3 14 4 15 5 11 7 12 8 13 9 10 10 9 11 4 12 5 13
REMARK SMILES IDX 6 14 8 15 7 17 2 18 1 19 3 20 19 21 20 22 21 23 22 24 23 26
REMARK SMILES IDX 24 27 25 28 77 29 26 30 76 31 27 32 28 33 29 34 70 35 30 36
REMARK SMILES IDX 75 37 69 38 71 39 31 40 74 41 68 42 67 43 32 45 58 46 41 47
REMARK SMILES IDX 57 48 42 49 45 50 56 51 72 52 43 53 44 54 55 56 73 57 46 58
REMARK SMILES IDX 33 59 34 60 39 61 35 62 36 63 38 64 40 65 37 66 59 67 60 68
REMARK SMILES IDX 65 69 61 70 62 71 64 72 66 73 63 74 47 75 48 76 53 77 49 78
REMARK SMILES IDX 50 79 52 80 54 81 51 82
REMARK H PARENT 16 6 9 16 21 25 71 44 45 55
REMARK Flexibility Score: inf
ROOT
ATOM      1  C   UNL     1       6.280   5.287   2.658  1.00  0.00     0.023 C 
ENDROOT
BRANCH   1   2
ATOM      2  C   UNL     1       5.458   4.004   2.579  1.00  0.00     0.116 C 
BRANCH   2   3
ATOM      3  N   UNL     1       4.299   4.085   3.441  1.00  0.00    -0.355 N 
ATOM      4  C   UNL     1       2.979   4.215   3.157  1.00  0.00     0.231 C 
ATOM      5  O   UNL     1       2.312   4.746   4.051  1.00  0.00    -0.274 OA
ATOM      6  H   UNL     1       4.505   4.037   4.402  1.00  0.00     0.163 HD
BRANCH   4   7
ATOM      7  C   UNL     1       2.363   3.818   1.802  1.00  0.00     0.092 C 
ATOM      8  C   UNL     1       3.020   2.607   1.126  1.00  0.00     0.027 C 
ATOM      9  C   UNL     1       2.535   5.047   0.880  1.00  0.00     0.027 C 
BRANCH   7  10
ATOM     10  C   UNL     1       0.812   3.566   1.968  1.00  0.00     0.279 C 
BRANCH  10  11
ATOM     11  N   UNL     1       0.234   2.431   2.732  1.00  0.00    -0.325 N 
ATOM     12  C   UNL     1       0.460   1.060   2.228  1.00  0.00     0.251 C 
ATOM     13  C   UNL     1      -0.310   0.008   3.049  1.00  0.00     0.074 C 
ATOM     14  C   UNL     1      -0.027   0.131   4.539  1.00  0.00     0.012 C 
ATOM     15  C   UNL     1       0.458   2.557   4.177  1.00  0.00     0.262 C 
ATOM     16  H   UNL     1      -0.763   2.542   2.547  1.00  0.00     0.348 HD
ATOM     17  C   UNL     1      -0.340   1.545   4.995  1.00  0.00     0.062 C 
BRANCH  12  18
ATOM     18  C   UNL     1       0.009   0.879   0.762  1.00  0.00     0.186 C 
ATOM     19  C   UNL     1       0.692  -0.228  -0.009  1.00  0.00     0.094 C 
ATOM     20  O   UNL     1      -0.892   1.530   0.229  1.00  0.00    -0.293 OA
ENDBRANCH  12  18
ENDBRANCH  10  11
ENDBRANCH   7  10
ENDBRANCH   4   7
ENDBRANCH   2   3
ENDBRANCH   1   2
BRANCH   1  21
ATOM     21  C   UNL     1       6.913   5.556   4.023  1.00  0.00     0.023 C 
BRANCH  21  22
ATOM     22  C   UNL     1       7.733   4.404   4.590  1.00  0.00     0.116 C 
BRANCH  22  23
ATOM     23  N   UNL     1       8.767   3.943   3.676  1.00  0.00    -0.352 N 
ATOM     24  C   UNL     1      10.094   3.692   3.924  1.00  0.00     0.251 C 
ATOM     25  H   UNL     1       8.473   3.788   2.749  1.00  0.00     0.163 HD
ATOM     26  O   UNL     1      10.859   3.433   3.005  1.00  0.00    -0.269 OA
BRANCH  24  27
ATOM     27  C   UNL     1      10.595   3.771   5.310  1.00  0.00     0.039 A 
ATOM     28  C   UNL     1      11.749   4.514   5.566  1.00  0.00     0.014 A 
ATOM     29  C   UNL     1       9.909   3.141   6.351  1.00  0.00     0.014 A 
ATOM     30  C   UNL     1      12.180   4.679   6.883  1.00  0.00     0.010 A 
ATOM     31  C   UNL     1      10.296   3.370   7.667  1.00  0.00     0.010 A 
ATOM     32  C   UNL     1      11.437   4.138   7.944  1.00  0.00    -0.014 A 
BRANCH  32  33
ATOM     33  C   UNL     1      11.840   4.362   9.354  1.00  0.00     0.031 A 
ATOM     34  C   UNL     1      12.248   3.198  10.213  1.00  0.00     0.074 A 
ATOM     35  C   UNL     1      11.777   5.602   9.877  1.00  0.00     0.049 A 
ATOM     36  N   UNL     1      12.574   3.180  11.480  1.00  0.00    -0.248 NA
ATOM     37  C   UNL     1      12.264   1.874   9.570  1.00  0.00     0.031 C 
ATOM     38  C   UNL     1      11.342   6.803   9.160  1.00  0.00     0.029 A 
ATOM     39  N   UNL     1      12.069   6.056  11.137  1.00  0.00    -0.354 N 
ATOM     40  C   UNL     1      12.816   1.848  11.788  1.00  0.00     0.074 A 
ATOM     41  C   UNL     1      12.546   1.081  10.592  1.00  0.00     0.031 C 
ATOM     42  C   UNL     1      11.420   7.859   9.985  1.00  0.00     0.029 A 
ATOM     43  C   UNL     1      11.876   7.407  11.295  1.00  0.00     0.049 A 
ATOM     44  H   UNL     1      12.387   5.469  11.861  1.00  0.00     0.167 HD
ATOM     45  C   UNL     1      13.249   1.315  12.954  1.00  0.00     0.037 A 
ATOM     46  C   UNL     1      12.046   8.190  12.377  1.00  0.00     0.037 A 
ATOM     47  C   UNL     1      13.545   2.085  14.133  1.00  0.00     0.049 A 
ATOM     48  C   UNL     1      12.538   7.576  13.657  1.00  0.00     0.074 A 
ATOM     49  C   UNL     1      14.050   1.648  15.345  1.00  0.00     0.029 A 
ATOM     50  N   UNL     1      13.364   3.456  14.246  1.00  0.00    -0.354 N 
ATOM     51  N   UNL     1      12.831   6.324  13.914  1.00  0.00    -0.248 NA
ATOM     52  C   UNL     1      12.732   8.484  14.796  1.00  0.00     0.031 C 
ATOM     53  C   UNL     1      14.136   2.748  16.205  1.00  0.00     0.029 A 
ATOM     54  C   UNL     1      13.729   3.877  15.513  1.00  0.00     0.049 A 
ATOM     55  H   UNL     1      13.025   4.042  13.531  1.00  0.00     0.167 HD
ATOM     56  C   UNL     1      13.269   6.299  15.232  1.00  0.00     0.074 A 
ATOM     57  C   UNL     1      13.217   7.663  15.716  1.00  0.00     0.031 C 
ATOM     58  C   UNL     1      13.678   5.241  15.975  1.00  0.00     0.037 A 
BRANCH  45  59
ATOM     59  C   UNL     1      13.436  -0.173  13.007  1.00  0.00     0.057 A 
ATOM     60  C   UNL     1      14.470  -0.813  12.310  1.00  0.00     0.134 A 
ATOM     61  C   UNL     1      12.590  -0.974  13.785  1.00  0.00     0.134 A 
ATOM     62  F   UNL     1      15.306  -0.106  11.535  1.00  0.00    -0.206 F 
ATOM     63  C   UNL     1      14.640  -2.197  12.364  1.00  0.00     0.040 A 
ATOM     64  C   UNL     1      12.767  -2.356  13.868  1.00  0.00     0.040 A 
ATOM     65  F   UNL     1      11.582  -0.426  14.481  1.00  0.00    -0.206 F 
ATOM     66  C   UNL     1      13.791  -2.972  13.151  1.00  0.00     0.006 A 
ENDBRANCH  45  59
BRANCH  46  67
ATOM     67  C   UNL     1      11.777   9.648  12.289  1.00  0.00     0.057 A 
ATOM     68  C   UNL     1      12.822  10.578  12.328  1.00  0.00     0.134 A 
ATOM     69  C   UNL     1      10.474  10.146  12.170  1.00  0.00     0.134 A 
ATOM     70  F   UNL     1      14.090  10.162  12.458  1.00  0.00    -0.206 F 
ATOM     71  C   UNL     1      12.581  11.951  12.273  1.00  0.00     0.040 A 
ATOM     72  C   UNL     1      10.220  11.516  12.090  1.00  0.00     0.040 A 
ATOM     73  F   UNL     1       9.430   9.306  12.118  1.00  0.00    -0.206 F 
ATOM     74  C   UNL     1      11.276  12.423  12.149  1.00  0.00     0.006 A 
ENDBRANCH  46  67
BRANCH  58  75
ATOM     75  C   UNL     1      14.133   5.523  17.376  1.00  0.00     0.057 A 
ATOM     76  C   UNL     1      13.232   5.858  18.394  1.00  0.00     0.134 A 
ATOM     77  C   UNL     1      15.488   5.423  17.717  1.00  0.00     0.134 A 
ATOM     78  F   UNL     1      11.923   5.983  18.129  1.00  0.00    -0.206 F 
ATOM     79  C   UNL     1      13.665   6.105  19.697  1.00  0.00     0.040 A 
ATOM     80  C   UNL     1      15.930   5.642  19.022  1.00  0.00     0.040 A 
ATOM     81  F   UNL     1      16.402   5.097  16.790  1.00  0.00    -0.206 F 
ATOM     82  C   UNL     1      15.017   5.990  20.015  1.00  0.00     0.006 A 
ENDBRANCH  58  75
ENDBRANCH  32  33
ENDBRANCH  24  27
ENDBRANCH  22  23
ENDBRANCH  21  22
ENDBRANCH   1  21
TORSDOF 14
