REMARK SMILES C=CC[NH+](CC=C)[C@@H](C(=O)NCCCCNC(=O)c1ccc(-c2c3nc(c(-c4c(F)cccc4F)c4ccc([nH]4)c(-c4c(F)cccc4F)c4nc(c(-c5c(F)cccc5F)c5ccc2[nH]5)C=C4)C=C3)cc1)c1ccc(F)c(C)c1
REMARK SMILES IDX 13 1 12 2 11 3 9 4 10 5 8 7 4 8 3 10 2 11 1 12 5 13 6 14
REMARK SMILES IDX 7 15 73 16 74 17 80 18 75 19 78 20 76 21 79 22 77 23 14 24
REMARK SMILES IDX 15 25 16 26 17 27 18 29 19 30 20 31 72 32 21 33 71 34 22 35
REMARK SMILES IDX 23 36 24 37 65 38 25 39 70 40 64 41 66 42 26 43 69 44 63 45
REMARK SMILES IDX 62 46 27 48 53 49 36 50 52 51 37 52 40 53 51 54 67 55 38 56
REMARK SMILES IDX 39 57 50 59 68 60 41 61 28 62 29 63 34 64 30 65 31 66 33 67
REMARK SMILES IDX 35 68 32 69 54 70 55 71 60 72 56 73 57 74 59 75 61 76 58 77
REMARK SMILES IDX 42 78 43 79 48 80 44 81 45 82 47 83 49 84 46 85
REMARK H PARENT 11 6 4 9 16 28 66 47 40 58
REMARK Flexibility Score: inf
ROOT
ATOM      1  C   UNL     1      -5.242  -2.691   0.753  1.00  0.00     0.023 C 
ENDROOT
BRANCH   1   2
ATOM      2  C   UNL     1      -4.106  -3.614   0.259  1.00  0.00     0.116 C 
BRANCH   2   3
ATOM      3  N   UNL     1      -3.221  -3.134  -0.797  1.00  0.00    -0.351 N 
ATOM      4  C   UNL     1      -1.945  -2.614  -0.827  1.00  0.00     0.283 C 
ATOM      5  O   UNL     1      -1.407  -2.631  -1.942  1.00  0.00    -0.268 OA
ATOM      6  H   UNL     1      -3.628  -3.197  -1.692  1.00  0.00     0.163 HD
BRANCH   4   7
ATOM      7  C   UNL     1      -1.233  -1.975   0.437  1.00  0.00     0.306 C 
BRANCH   7   8
ATOM      8  N   UNL     1      -1.408  -0.457   0.413  1.00  0.00    -0.314 N 
ATOM      9  H   UNL     1      -0.893  -0.168  -0.418  1.00  0.00     0.349 HD
BRANCH   8  10
ATOM     10  C   UNL     1      -0.820   0.274   1.553  1.00  0.00     0.291 C 
BRANCH  10  11
ATOM     11  C   UNL     1       0.524   0.912   1.327  1.00  0.00     0.025 C 
ATOM     12  C   UNL     1       0.830   1.769   0.340  1.00  0.00     0.010 C 
ENDBRANCH  10  11
ENDBRANCH   8  10
BRANCH   8  13
ATOM     13  C   UNL     1      -2.829  -0.101   0.334  1.00  0.00     0.291 C 
BRANCH  13  14
ATOM     14  C   UNL     1      -3.116   0.822  -0.808  1.00  0.00     0.025 C 
ATOM     15  C   UNL     1      -3.406   0.412  -2.051  1.00  0.00     0.010 C 
ENDBRANCH  13  14
ENDBRANCH   8  13
ENDBRANCH   7   8
BRANCH   7  16
ATOM     16  C   UNL     1       0.240  -2.461   0.476  1.00  0.00     0.020 A 
ATOM     17  C   UNL     1       0.563  -3.736   0.972  1.00  0.00     0.013 A 
ATOM     18  C   UNL     1       1.308  -1.669   0.017  1.00  0.00     0.017 A 
ATOM     19  C   UNL     1       1.900  -4.143   1.093  1.00  0.00     0.040 A 
ATOM     20  C   UNL     1       2.649  -1.995   0.281  1.00  0.00    -0.015 A 
ATOM     21  C   UNL     1       2.929  -3.257   0.787  1.00  0.00     0.126 A 
ATOM     22  C   UNL     1       3.739  -0.991   0.050  1.00  0.00     0.047 C 
ATOM     23  F   UNL     1       4.199  -3.633   0.997  1.00  0.00    -0.207 F 
ENDBRANCH   7  16
ENDBRANCH   4   7
ENDBRANCH   2   3
ENDBRANCH   1   2
BRANCH   1  24
ATOM     24  C   UNL     1      -5.988  -1.805  -0.257  1.00  0.00     0.023 C 
BRANCH  24  25
ATOM     25  C   UNL     1      -6.944  -2.487  -1.230  1.00  0.00     0.116 C 
BRANCH  25  26
ATOM     26  N   UNL     1      -8.171  -2.929  -0.587  1.00  0.00    -0.352 N 
ATOM     27  C   UNL     1      -9.480  -2.689  -0.927  1.00  0.00     0.251 C 
ATOM     28  H   UNL     1      -8.045  -3.486   0.215  1.00  0.00     0.163 HD
ATOM     29  O   UNL     1     -10.373  -2.993  -0.126  1.00  0.00    -0.269 OA
BRANCH  27  30
ATOM     30  C   UNL     1      -9.857  -2.074  -2.223  1.00  0.00     0.039 A 
ATOM     31  C   UNL     1     -10.924  -1.166  -2.261  1.00  0.00     0.014 A 
ATOM     32  C   UNL     1      -9.226  -2.441  -3.416  1.00  0.00     0.014 A 
ATOM     33  C   UNL     1     -11.327  -0.597  -3.475  1.00  0.00     0.010 A 
ATOM     34  C   UNL     1      -9.595  -1.836  -4.619  1.00  0.00     0.010 A 
ATOM     35  C   UNL     1     -10.653  -0.914  -4.664  1.00  0.00    -0.014 A 
BRANCH  35  36
ATOM     36  C   UNL     1     -11.041  -0.309  -5.967  1.00  0.00     0.031 A 
ATOM     37  C   UNL     1     -11.610  -1.173  -7.061  1.00  0.00     0.074 A 
ATOM     38  C   UNL     1     -10.803   0.997  -6.197  1.00  0.00     0.049 A 
ATOM     39  N   UNL     1     -11.894  -0.861  -8.300  1.00  0.00    -0.248 NA
ATOM     40  C   UNL     1     -11.870  -2.581  -6.722  1.00  0.00     0.031 C 
ATOM     41  C   UNL     1     -10.222   1.933  -5.233  1.00  0.00     0.029 A 
ATOM     42  N   UNL     1     -10.994   1.758  -7.325  1.00  0.00    -0.354 N 
ATOM     43  C   UNL     1     -12.337  -2.036  -8.895  1.00  0.00     0.074 A 
ATOM     44  C   UNL     1     -12.257  -3.075  -7.890  1.00  0.00     0.031 C 
ATOM     45  C   UNL     1     -10.100   3.139  -5.811  1.00  0.00     0.029 A 
ATOM     46  C   UNL     1     -10.559   3.055  -7.194  1.00  0.00     0.049 A 
ATOM     47  H   UNL     1     -11.405   1.407  -8.148  1.00  0.00     0.167 HD
ATOM     48  C   UNL     1     -12.783  -2.228 -10.160  1.00  0.00     0.037 A 
ATOM     49  C   UNL     1     -10.512   4.057  -8.094  1.00  0.00     0.037 A 
ATOM     50  C   UNL     1     -12.900  -1.185 -11.144  1.00  0.00     0.049 A 
ATOM     51  C   UNL     1     -11.011   3.816  -9.492  1.00  0.00     0.074 A 
ATOM     52  C   UNL     1     -13.432  -1.260 -12.420  1.00  0.00     0.029 A 
ATOM     53  N   UNL     1     -12.472   0.121 -10.964  1.00  0.00    -0.354 N 
ATOM     54  N   UNL     1     -11.506   2.720 -10.015  1.00  0.00    -0.248 NA
ATOM     55  C   UNL     1     -10.944   4.949 -10.427  1.00  0.00     0.031 C 
ATOM     56  C   UNL     1     -13.282  -0.010 -13.030  1.00  0.00     0.029 A 
ATOM     57  C   UNL     1     -12.697   0.854 -12.118  1.00  0.00     0.049 A 
ATOM     58  H   UNL     1     -12.068   0.475 -10.139  1.00  0.00     0.167 HD
ATOM     59  C   UNL     1     -11.828   3.036 -11.328  1.00  0.00     0.074 A 
ATOM     60  C   UNL     1     -11.487   4.430 -11.520  1.00  0.00     0.031 C 
ATOM     61  C   UNL     1     -12.356   2.242 -12.291  1.00  0.00     0.037 A 
BRANCH  48  62
ATOM     62  C   UNL     1     -13.180  -3.620 -10.559  1.00  0.00     0.057 A 
ATOM     63  C   UNL     1     -14.351  -4.222 -10.082  1.00  0.00     0.134 A 
ATOM     64  C   UNL     1     -12.411  -4.343 -11.480  1.00  0.00     0.134 A 
ATOM     65  F   UNL     1     -15.129  -3.586  -9.194  1.00  0.00    -0.206 F 
ATOM     66  C   UNL     1     -14.732  -5.502 -10.491  1.00  0.00     0.040 A 
ATOM     67  C   UNL     1     -12.794  -5.614 -11.914  1.00  0.00     0.040 A 
ATOM     68  F   UNL     1     -11.282  -3.821 -11.984  1.00  0.00    -0.206 F 
ATOM     69  C   UNL     1     -13.956  -6.198 -11.415  1.00  0.00     0.006 A 
ENDBRANCH  48  62
BRANCH  49  70
ATOM     70  C   UNL     1      -9.966   5.382  -7.705  1.00  0.00     0.057 A 
ATOM     71  C   UNL     1     -10.797   6.501  -7.587  1.00  0.00     0.134 A 
ATOM     72  C   UNL     1      -8.600   5.565  -7.457  1.00  0.00     0.134 A 
ATOM     73  F   UNL     1     -12.111   6.394  -7.833  1.00  0.00    -0.206 F 
ATOM     74  C   UNL     1     -10.290   7.759  -7.255  1.00  0.00     0.040 A 
ATOM     75  C   UNL     1      -8.082   6.812  -7.100  1.00  0.00     0.040 A 
ATOM     76  F   UNL     1      -7.750   4.532  -7.549  1.00  0.00    -0.206 F 
ATOM     77  C   UNL     1      -8.928   7.915  -7.006  1.00  0.00     0.006 A 
ENDBRANCH  49  70
BRANCH  61  78
ATOM     78  C   UNL     1     -12.616   2.862 -13.630  1.00  0.00     0.057 A 
ATOM     79  C   UNL     1     -11.575   3.154 -14.520  1.00  0.00     0.134 A 
ATOM     80  C   UNL     1     -13.925   3.118 -14.058  1.00  0.00     0.134 A 
ATOM     81  F   UNL     1     -10.298   2.945 -14.164  1.00  0.00    -0.206 F 
ATOM     82  C   UNL     1     -11.826   3.689 -15.784  1.00  0.00     0.040 A 
ATOM     83  C   UNL     1     -14.190   3.631 -15.328  1.00  0.00     0.040 A 
ATOM     84  F   UNL     1     -14.968   2.853 -13.255  1.00  0.00    -0.206 F 
ATOM     85  C   UNL     1     -13.138   3.921 -16.194  1.00  0.00     0.006 A 
ENDBRANCH  61  78
ENDBRANCH  35  36
ENDBRANCH  27  30
ENDBRANCH  25  26
ENDBRANCH  24  25
ENDBRANCH   1  24
TORSDOF 17
