REMARK SMILES O=C(CCc1cc2n(n1)CCCN(C(=O)[C@H]1CC(=O)Nc3ccccc31)C2)NCCCCNC(=O)c1ccc(-c2c3nc(c(-c4c(F)cccc4F)c4ccc([nH]4)c(-c4c(F)cccc4F)c4nc(c(-c5c(F)cccc5F)c5ccc2[nH]5)C=C4)C=C3)cc1
REMARK SMILES IDX 1 1 2 2 28 3 3 5 4 6 5 7 6 8 9 9 7 10 8 11 27 12 13 13 12 14
REMARK SMILES IDX 14 16 15 17 16 18 17 19 26 20 18 21 21 22 25 23 19 24 20 25
REMARK SMILES IDX 22 26 24 27 23 29 10 30 11 31 29 33 30 34 31 35 32 36 33 37
REMARK SMILES IDX 34 38 35 40 36 41 37 42 89 43 38 44 88 45 39 46 40 47 41 48
REMARK SMILES IDX 82 49 42 50 87 51 81 52 83 53 43 54 86 55 80 56 79 57 44 59
REMARK SMILES IDX 70 60 53 61 69 62 54 63 57 64 68 65 84 66 55 67 56 68 67 70
REMARK SMILES IDX 85 71 58 72 45 73 46 74 51 75 47 76 48 77 50 78 52 79 49 80
REMARK SMILES IDX 71 81 72 82 77 83 73 84 74 85 76 86 78 87 75 88 59 89 60 90
REMARK SMILES IDX 65 91 61 92 62 93 64 94 66 95 63 96
REMARK H PARENT 28 4 20 28 33 39 83 58 57 69
REMARK Flexibility Score: 90.00
ROOT
ATOM      1  O   UNL     1       4.761 -14.941  -3.951  1.00  0.00    -0.275 OA
ATOM      2  C   UNL     1       4.135 -13.980  -3.513  1.00  0.00     0.220 C 
ATOM      3  N   UNL     1       4.378 -12.672  -3.909  1.00  0.00    -0.356 N 
ATOM      4  H   UNL     1       3.822 -11.953  -3.532  1.00  0.00     0.163 HD
ENDROOT
BRANCH   2   5
ATOM      5  C   UNL     1       3.027 -14.163  -2.473  1.00  0.00     0.106 C 
BRANCH   5   6
ATOM      6  C   UNL     1       3.536 -14.189  -1.027  1.00  0.00     0.068 C 
BRANCH   6   7
ATOM      7  C   UNL     1       4.121 -12.874  -0.686  1.00  0.00     0.063 A 
ATOM      8  C   UNL     1       5.466 -12.554  -0.903  1.00  0.00     0.051 A 
ATOM      9  N   UNL     1       3.363 -11.797  -0.415  1.00  0.00    -0.178 NA
ATOM     10  C   UNL     1       5.412 -11.201  -1.052  1.00  0.00     0.058 A 
ATOM     11  N   UNL     1       4.234 -10.780  -0.525  1.00  0.00    -0.267 N 
BRANCH  10  12
ATOM     12  C   UNL     1       6.394 -10.298  -1.588  1.00  0.00     0.175 C 
BRANCH  12  13
ATOM     13  N   UNL     1       7.102  -9.781  -0.470  1.00  0.00    -0.336 N 
BRANCH  13  14
ATOM     14  C   UNL     1       6.332  -9.118   0.608  1.00  0.00     0.122 CG0
ATOM     15  G   UNL     1       5.013  -8.458   0.169  1.00  0.00     0.000 G0
ENDBRANCH  13  14
BRANCH  13  16
ATOM     16  C   UNL     1       8.492  -9.809  -0.653  1.00  0.00     0.231 C 
ATOM     17  O   UNL     1       9.069 -10.741  -1.207  1.00  0.00    -0.274 OA
BRANCH  16  18
ATOM     18  C   UNL     1       9.035  -8.421  -0.589  1.00  0.00     0.120 C 
ATOM     19  C   UNL     1       9.188  -7.588   1.238  1.00  0.00     0.118 C 
ATOM     20  C   UNL     1      10.353  -7.880  -1.978  1.00  0.00    -0.011 A 
ATOM     21  C   UNL     1      10.745  -6.300   1.417  1.00  0.00     0.225 C 
ATOM     22  C   UNL     1      11.592  -6.686  -1.569  1.00  0.00     0.045 A 
ATOM     23  C   UNL     1      10.341  -8.331  -3.280  1.00  0.00     0.007 A 
ATOM     24  O   UNL     1      11.186  -5.917   2.469  1.00  0.00    -0.275 OA
ATOM     25  N   UNL     1      11.743  -5.959   0.026  1.00  0.00    -0.326 N 
ATOM     26  C   UNL     1      12.426  -6.153  -2.518  1.00  0.00     0.026 A 
ATOM     27  C   UNL     1      11.235  -7.649  -4.162  1.00  0.00     0.000 A 
ATOM     28  H   UNL     1      12.460  -5.295   0.146  1.00  0.00     0.169 HD
ATOM     29  C   UNL     1      12.193  -6.612  -3.814  1.00  0.00     0.002 A 
ENDBRANCH  16  18
ENDBRANCH  13  16
ENDBRANCH  12  13
ENDBRANCH  10  12
BRANCH  11  30
ATOM     30  C   UNL     1       3.862  -9.413  -0.212  1.00  0.00     0.146 C 
BRANCH  30  31
ATOM     31  C   UNL     1       5.013  -8.458   0.169  1.00  0.00     0.045 CG0
ATOM     32  G   UNL     1       6.332  -9.118   0.608  1.00  0.00     0.000 G0
ENDBRANCH  30  31
ENDBRANCH  11  30
ENDBRANCH   6   7
ENDBRANCH   5   6
ENDBRANCH   2   5
BRANCH   3  33
ATOM     33  C   UNL     1       5.426 -12.321  -4.865  1.00  0.00     0.116 C 
BRANCH  33  34
ATOM     34  C   UNL     1       5.007 -11.263  -5.903  1.00  0.00     0.023 C 
BRANCH  34  35
ATOM     35  C   UNL     1       4.766  -9.837  -5.390  1.00  0.00     0.023 C 
BRANCH  35  36
ATOM     36  C   UNL     1       5.994  -9.065  -4.902  1.00  0.00     0.116 C 
BRANCH  36  37
ATOM     37  N   UNL     1       6.786  -8.323  -5.884  1.00  0.00    -0.352 N 
ATOM     38  C   UNL     1       7.617  -7.202  -5.740  1.00  0.00     0.251 C 
ATOM     39  H   UNL     1       6.726  -8.670  -6.803  1.00  0.00     0.163 HD
ATOM     40  O   UNL     1       8.213  -6.783  -6.731  1.00  0.00    -0.269 OA
BRANCH  38  41
ATOM     41  C   UNL     1       7.839  -6.507  -4.424  1.00  0.00     0.039 A 
ATOM     42  C   UNL     1       8.689  -5.386  -4.236  1.00  0.00     0.014 A 
ATOM     43  C   UNL     1       7.428  -7.112  -3.264  1.00  0.00     0.014 A 
ATOM     44  C   UNL     1       9.282  -5.138  -2.941  1.00  0.00     0.010 A 
ATOM     45  C   UNL     1       7.591  -6.411  -2.095  1.00  0.00     0.010 A 
ATOM     46  C   UNL     1       8.889  -5.950  -1.876  1.00  0.00    -0.014 A 
BRANCH  46  47
ATOM     47  C   UNL     1       9.752  -6.492  -0.411  1.00  0.00     0.031 A 
ATOM     48  C   UNL     1       8.872  -5.203   0.514  1.00  0.00     0.074 A 
ATOM     49  C   UNL     1      10.856  -7.888   0.127  1.00  0.00     0.049 A 
ATOM     50  N   UNL     1       9.349  -4.322   1.357  1.00  0.00    -0.248 NA
ATOM     51  C   UNL     1       7.373  -5.186   0.540  1.00  0.00     0.031 C 
ATOM     52  C   UNL     1      11.511  -9.296  -0.458  1.00  0.00     0.029 A 
ATOM     53  N   UNL     1      11.300  -8.417   1.537  1.00  0.00    -0.354 N 
ATOM     54  C   UNL     1       8.325  -4.109   2.281  1.00  0.00     0.074 A 
ATOM     55  C   UNL     1       7.100  -4.413   1.592  1.00  0.00     0.031 C 
ATOM     56  C   UNL     1      11.632 -10.297   0.458  1.00  0.00     0.029 A 
ATOM     57  C   UNL     1      11.473  -9.793   1.783  1.00  0.00     0.049 A 
ATOM     58  H   UNL     1      11.460  -7.773   2.265  1.00  0.00     0.167 HD
ATOM     59  C   UNL     1       8.528  -4.113   3.634  1.00  0.00     0.037 A 
ATOM     60  C   UNL     1      11.522 -10.406   3.011  1.00  0.00     0.037 A 
ATOM     61  C   UNL     1       9.905  -3.981   4.085  1.00  0.00     0.049 A 
ATOM     62  C   UNL     1      11.689  -9.354   4.054  1.00  0.00     0.074 A 
ATOM     63  C   UNL     1      10.888  -3.022   4.011  1.00  0.00     0.029 A 
ATOM     64  N   UNL     1      10.511  -5.104   4.631  1.00  0.00    -0.354 N 
ATOM     65  N   UNL     1      12.730  -8.583   4.157  1.00  0.00    -0.248 NA
ATOM     66  C   UNL     1      10.599  -9.037   4.972  1.00  0.00     0.031 C 
ATOM     67  C   UNL     1      12.131  -3.645   4.365  1.00  0.00     0.029 A 
ATOM     68  C   UNL     1      11.912  -4.993   4.645  1.00  0.00     0.049 A 
ATOM     69  H   UNL     1      10.017  -5.886   4.970  1.00  0.00     0.167 HD
ATOM     70  C   UNL     1      12.270  -7.450   4.790  1.00  0.00     0.074 A 
ATOM     71  C   UNL     1      11.026  -7.856   5.433  1.00  0.00     0.031 C 
ATOM     72  C   UNL     1      12.765  -6.210   4.490  1.00  0.00     0.037 A 
BRANCH  59  73
ATOM     73  C   UNL     1       7.488  -4.550   4.651  1.00  0.00     0.057 A 
ATOM     74  C   UNL     1       7.589  -4.039   5.957  1.00  0.00     0.134 A 
ATOM     75  C   UNL     1       6.605  -5.639   4.493  1.00  0.00     0.134 A 
ATOM     76  F   UNL     1       8.394  -3.000   6.221  1.00  0.00    -0.206 F 
ATOM     77  C   UNL     1       6.923  -4.614   7.044  1.00  0.00     0.040 A 
ATOM     78  C   UNL     1       5.885  -6.183   5.567  1.00  0.00     0.040 A 
ATOM     79  F   UNL     1       6.461  -6.274   3.320  1.00  0.00    -0.206 F 
ATOM     80  C   UNL     1       6.070  -5.693   6.853  1.00  0.00     0.006 A 
ENDBRANCH  59  73
BRANCH  60  81
ATOM     81  C   UNL     1      11.369 -11.810   3.538  1.00  0.00     0.057 A 
ATOM     82  C   UNL     1      12.030 -12.216   4.723  1.00  0.00     0.134 A 
ATOM     83  C   UNL     1      10.322 -12.647   3.131  1.00  0.00     0.134 A 
ATOM     84  F   UNL     1      13.030 -11.480   5.230  1.00  0.00    -0.206 F 
ATOM     85  C   UNL     1      11.641 -13.338   5.477  1.00  0.00     0.040 A 
ATOM     86  C   UNL     1       9.927 -13.781   3.874  1.00  0.00     0.040 A 
ATOM     87  F   UNL     1       9.579 -12.329   2.062  1.00  0.00    -0.206 F 
ATOM     88  C   UNL     1      10.572 -14.118   5.062  1.00  0.00     0.006 A 
ENDBRANCH  60  81
BRANCH  72  89
ATOM     89  C   UNL     1      14.076  -6.170   3.659  1.00  0.00     0.057 A 
ATOM     90  C   UNL     1      14.398  -6.946   2.514  1.00  0.00     0.134 A 
ATOM     91  C   UNL     1      15.089  -5.287   4.028  1.00  0.00     0.134 A 
ATOM     92  F   UNL     1      13.551  -7.819   1.976  1.00  0.00    -0.206 F 
ATOM     93  C   UNL     1      15.614  -6.880   1.819  1.00  0.00     0.040 A 
ATOM     94  C   UNL     1      16.306  -5.184   3.326  1.00  0.00     0.040 A 
ATOM     95  F   UNL     1      14.938  -4.499   5.102  1.00  0.00    -0.206 F 
ATOM     96  C   UNL     1      16.580  -5.988   2.225  1.00  0.00     0.006 A 
ENDBRANCH  72  89
ENDBRANCH  46  47
ENDBRANCH  38  41
ENDBRANCH  36  37
ENDBRANCH  35  36
ENDBRANCH  34  35
ENDBRANCH  33  34
ENDBRANCH   3  33
TORSDOF 15
