REMARK SMILES CCOc1c(CNC(=O)[C@H]2CCCC[C@@H]2C(=O)NCCCCNC(=O)c2ccc(-c3c4nc(c(-c5c(F)cccc5F)c5ccc([nH]5)c(-c5c(F)cccc5F)c5nc(c(-c6c(F)cccc6F)c6ccc3[nH]6)C=C5)C=C4)cc2)cccc1OC
REMARK SMILES IDX 19 1 18 2 16 3 17 4 15 6 10 7 11 8 12 9 14 10 13 11 8 12
REMARK SMILES IDX 7 13 9 15 6 16 5 17 4 18 83 19 80 20 82 21 81 22 3 23 2 24
REMARK SMILES IDX 1 25 84 26 85 27 20 28 21 29 22 30 23 31 24 32 25 34 26 35
REMARK SMILES IDX 27 36 79 37 28 38 78 39 29 40 30 41 31 42 72 43 32 44 77 45
REMARK SMILES IDX 71 46 73 47 33 48 76 49 70 50 69 51 34 53 60 54 43 55 59 56
REMARK SMILES IDX 44 57 47 58 58 59 74 60 45 61 46 62 57 64 75 65 48 66 35 67
REMARK SMILES IDX 36 68 41 69 37 70 38 71 40 72 42 73 39 74 61 75 62 76 67 77
REMARK SMILES IDX 63 78 64 79 66 80 68 81 65 82 49 83 50 84 55 85 51 86 52 87
REMARK SMILES IDX 54 88 56 89 53 90
REMARK H PARENT 18 5 7 14 23 33 73 52 47 63
REMARK Flexibility Score: inf
ROOT
ATOM      1  C   UNL     1       1.358  -1.198  -5.463  1.00  0.00     0.116 C 
ENDROOT
BRANCH   1   2
ATOM      2  N   UNL     1       2.746  -1.324  -5.106  1.00  0.00    -0.356 N 
ATOM      3  C   UNL     1       3.868  -1.264  -5.862  1.00  0.00     0.223 C 
ATOM      4  O   UNL     1       4.931  -1.167  -5.233  1.00  0.00    -0.275 OA
ATOM      5  H   UNL     1       2.908  -1.479  -4.147  1.00  0.00     0.163 HD
BRANCH   3   6
ATOM      6  C   UNL     1       3.920  -1.415  -7.396  1.00  0.00     0.091 C 
ATOM      7  C   UNL     1       3.142  -0.426  -8.272  1.00  0.00     0.091 C 
ATOM      8  C   UNL     1       1.851  -0.943  -8.954  1.00  0.00     0.014 C 
ATOM      9  C   UNL     1       1.756  -2.435  -9.231  1.00  0.00     0.001 C 
ATOM     10  C   UNL     1       3.799  -2.886  -7.792  1.00  0.00     0.014 C 
ATOM     11  C   UNL     1       2.406  -3.327  -8.195  1.00  0.00     0.001 C 
BRANCH   7  12
ATOM     12  C   UNL     1       3.922   0.330  -9.368  1.00  0.00     0.224 C 
ATOM     13  N   UNL     1       4.701  -0.291 -10.297  1.00  0.00    -0.352 N 
ATOM     14  H   UNL     1       4.383  -0.242 -11.227  1.00  0.00     0.163 HD
ATOM     15  O   UNL     1       3.641   1.513  -9.595  1.00  0.00    -0.275 OA
BRANCH  13  16
ATOM     16  C   UNL     1       5.945  -1.020 -10.086  1.00  0.00     0.155 C 
BRANCH  16  17
ATOM     17  C   UNL     1       6.093  -2.292 -10.897  1.00  0.00     0.017 A 
ATOM     18  C   UNL     1       7.350  -2.929 -11.057  1.00  0.00     0.166 A 
ATOM     19  C   UNL     1       7.397  -4.289 -11.424  1.00  0.00     0.161 A 
ATOM     20  C   UNL     1       4.939  -2.980 -11.313  1.00  0.00     0.010 A 
ATOM     21  C   UNL     1       6.214  -4.964 -11.745  1.00  0.00     0.050 A 
ATOM     22  C   UNL     1       4.994  -4.304 -11.733  1.00  0.00     0.004 A 
BRANCH  18  23
ATOM     23  O   UNL     1       8.521  -2.284 -10.741  1.00  0.00    -0.490 OA
BRANCH  23  24
ATOM     24  C   UNL     1       8.762  -1.096 -11.515  1.00  0.00     0.226 C 
ATOM     25  C   UNL     1      10.063  -1.205 -12.289  1.00  0.00     0.049 C 
ENDBRANCH  23  24
ENDBRANCH  18  23
BRANCH  19  26
ATOM     26  O   UNL     1       8.482  -5.127 -11.416  1.00  0.00    -0.493 OA
ATOM     27  C   UNL     1       9.729  -4.582 -11.806  1.00  0.00     0.278 C 
ENDBRANCH  19  26
ENDBRANCH  16  17
ENDBRANCH  13  16
ENDBRANCH   7  12
ENDBRANCH   3   6
ENDBRANCH   1   2
BRANCH   1  28
ATOM     28  C   UNL     1       0.536  -2.457  -5.209  1.00  0.00     0.023 C 
BRANCH  28  29
ATOM     29  C   UNL     1      -0.016  -2.617  -3.802  1.00  0.00     0.023 C 
BRANCH  29  30
ATOM     30  C   UNL     1      -0.753  -1.414  -3.244  1.00  0.00     0.116 C 
BRANCH  30  31
ATOM     31  N   UNL     1      -1.813  -0.897  -4.101  1.00  0.00    -0.352 N 
ATOM     32  C   UNL     1      -3.014  -0.349  -3.704  1.00  0.00     0.251 C 
ATOM     33  H   UNL     1      -1.654  -0.945  -5.071  1.00  0.00     0.163 HD
ATOM     34  O   UNL     1      -3.850   0.020  -4.521  1.00  0.00    -0.269 OA
BRANCH  32  35
ATOM     35  C   UNL     1      -3.289  -0.275  -2.257  1.00  0.00     0.039 A 
ATOM     36  C   UNL     1      -4.396  -0.954  -1.747  1.00  0.00     0.014 A 
ATOM     37  C   UNL     1      -2.352   0.317  -1.406  1.00  0.00     0.014 A 
ATOM     38  C   UNL     1      -4.512  -1.125  -0.368  1.00  0.00     0.010 A 
ATOM     39  C   UNL     1      -2.421   0.062  -0.044  1.00  0.00     0.010 A 
ATOM     40  C   UNL     1      -3.497  -0.667   0.488  1.00  0.00    -0.014 A 
BRANCH  40  41
ATOM     41  C   UNL     1      -3.536  -0.927   1.948  1.00  0.00     0.031 A 
ATOM     42  C   UNL     1      -3.587   0.233   2.903  1.00  0.00     0.074 A 
ATOM     43  C   UNL     1      -3.444  -2.188   2.416  1.00  0.00     0.049 A 
ATOM     44  N   UNL     1      -3.507   0.235   4.208  1.00  0.00    -0.248 NA
ATOM     45  C   UNL     1      -3.702   1.574   2.305  1.00  0.00     0.031 C 
ATOM     46  C   UNL     1      -3.331  -3.396   1.595  1.00  0.00     0.029 A 
ATOM     47  N   UNL     1      -3.420  -2.661   3.704  1.00  0.00    -0.354 N 
ATOM     48  C   UNL     1      -3.539   1.572   4.582  1.00  0.00     0.074 A 
ATOM     49  C   UNL     1      -3.580   2.354   3.367  1.00  0.00     0.031 C 
ATOM     50  C   UNL     1      -3.280  -4.471   2.398  1.00  0.00     0.029 A 
ATOM     51  C   UNL     1      -3.321  -4.029   3.788  1.00  0.00     0.049 A 
ATOM     52  H   UNL     1      -3.469  -2.075   4.493  1.00  0.00     0.167 HD
ATOM     53  C   UNL     1      -3.565   2.102   5.827  1.00  0.00     0.037 A 
ATOM     54  C   UNL     1      -3.269  -4.832   4.867  1.00  0.00     0.037 A 
ATOM     55  C   UNL     1      -3.569   1.324   7.035  1.00  0.00     0.049 A 
ATOM     56  C   UNL     1      -3.324  -4.220   6.240  1.00  0.00     0.074 A 
ATOM     57  C   UNL     1      -3.638   1.763   8.345  1.00  0.00     0.029 A 
ATOM     58  N   UNL     1      -3.516  -0.061   7.076  1.00  0.00    -0.354 N 
ATOM     59  N   UNL     1      -3.401  -2.956   6.579  1.00  0.00    -0.248 NA
ATOM     60  C   UNL     1      -3.290  -5.146   7.381  1.00  0.00     0.031 C 
ATOM     61  C   UNL     1      -3.609   0.642   9.181  1.00  0.00     0.029 A 
ATOM     62  C   UNL     1      -3.552  -0.494   8.389  1.00  0.00     0.049 A 
ATOM     63  H   UNL     1      -3.460  -0.648   6.288  1.00  0.00     0.167 HD
ATOM     64  C   UNL     1      -3.456  -2.936   7.966  1.00  0.00     0.074 A 
ATOM     65  C   UNL     1      -3.413  -4.315   8.406  1.00  0.00     0.031 C 
ATOM     66  C   UNL     1      -3.532  -1.873   8.802  1.00  0.00     0.037 A 
BRANCH  53  67
ATOM     67  C   UNL     1      -3.617   3.597   5.932  1.00  0.00     0.057 A 
ATOM     68  C   UNL     1      -4.769   4.315   5.585  1.00  0.00     0.134 A 
ATOM     69  C   UNL     1      -2.512   4.325   6.388  1.00  0.00     0.134 A 
ATOM     70  F   UNL     1      -5.855   3.676   5.123  1.00  0.00    -0.206 F 
ATOM     71  C   UNL     1      -4.812   5.707   5.662  1.00  0.00     0.040 A 
ATOM     72  C   UNL     1      -2.552   5.716   6.494  1.00  0.00     0.040 A 
ATOM     73  F   UNL     1      -1.379   3.698   6.737  1.00  0.00    -0.206 F 
ATOM     74  C   UNL     1      -3.702   6.412   6.124  1.00  0.00     0.006 A 
ENDBRANCH  53  67
BRANCH  54  75
ATOM     75  C   UNL     1      -3.194  -6.306   4.705  1.00  0.00     0.057 A 
ATOM     76  C   UNL     1      -4.290  -7.119   5.019  1.00  0.00     0.134 A 
ATOM     77  C   UNL     1      -2.028  -6.939   4.261  1.00  0.00     0.134 A 
ATOM     78  F   UNL     1      -5.429  -6.571   5.467  1.00  0.00    -0.206 F 
ATOM     79  C   UNL     1      -4.222  -8.510   4.922  1.00  0.00     0.040 A 
ATOM     80  C   UNL     1      -1.952  -8.328   4.139  1.00  0.00     0.040 A 
ATOM     81  F   UNL     1      -0.946  -6.216   3.938  1.00  0.00    -0.206 F 
ATOM     82  C   UNL     1      -3.050  -9.118   4.479  1.00  0.00     0.006 A 
ENDBRANCH  54  75
BRANCH  66  83
ATOM     83  C   UNL     1      -3.621  -2.161  10.269  1.00  0.00     0.057 A 
ATOM     84  C   UNL     1      -2.506  -2.574  11.008  1.00  0.00     0.134 A 
ATOM     85  C   UNL     1      -4.827  -1.979  10.957  1.00  0.00     0.134 A 
ATOM     86  F   UNL     1      -1.327  -2.778  10.402  1.00  0.00    -0.206 F 
ATOM     87  C   UNL     1      -2.592  -2.813  12.380  1.00  0.00     0.040 A 
ATOM     88  C   UNL     1      -4.920  -2.194  12.332  1.00  0.00     0.040 A 
ATOM     89  F   UNL     1      -5.929  -1.578  10.305  1.00  0.00    -0.206 F 
ATOM     90  C   UNL     1      -3.801  -2.616  13.046  1.00  0.00     0.006 A 
ENDBRANCH  66  83
ENDBRANCH  40  41
ENDBRANCH  32  35
ENDBRANCH  30  31
ENDBRANCH  29  30
ENDBRANCH  28  29
ENDBRANCH   1  28
TORSDOF 17
