REMARK SMILES Cc1cc(C(=O)NCCCCNC(=O)c2ccc(-c3c4nc(c(-c5c(F)cccc5F)c5ccc([nH]5)c(-c5c(F)cccc5F)c5nc(c(-c6c(F)cccc6F)c6ccc3[nH]6)C=C5)C=C4)cc2)ccc1NS(=O)(=O)c1ccc(C#N)cc1C
REMARK SMILES IDX 8 1 7 2 5 3 6 4 4 6 1 7 2 8 3 9 71 10 70 11 69 12 72 13
REMARK SMILES IDX 73 15 74 16 75 17 76 18 77 19 83 20 78 21 82 22 84 23 79 24
REMARK SMILES IDX 80 25 81 26 9 27 10 28 11 29 12 30 13 31 14 33 15 34 16 35
REMARK SMILES IDX 68 36 17 37 67 38 18 39 19 40 20 41 61 42 21 43 66 44 60 45
REMARK SMILES IDX 62 46 22 47 65 48 59 49 58 50 23 52 49 53 32 54 48 55 33 56
REMARK SMILES IDX 36 57 47 58 63 59 34 60 35 61 46 63 64 64 37 65 24 66 25 67
REMARK SMILES IDX 30 68 26 69 27 70 29 71 31 72 28 73 50 74 51 75 56 76 52 77
REMARK SMILES IDX 53 78 55 79 57 80 54 81 38 82 39 83 44 84 40 85 41 86 43 87
REMARK SMILES IDX 45 88 42 89
REMARK H PARENT 7 5 72 14 12 32 62 51 36 62
REMARK Flexibility Score: inf
ROOT
ATOM      1  C   UNL     1      -3.905  -1.441  -0.001  1.00  0.00     0.116 C 
ENDROOT
BRANCH   1   2
ATOM      2  N   UNL     1      -2.949  -2.527  -0.138  1.00  0.00    -0.352 N 
ATOM      3  C   UNL     1      -1.581  -2.521  -0.298  1.00  0.00     0.251 C 
ATOM      4  O   UNL     1      -0.978  -3.589  -0.202  1.00  0.00    -0.269 OA
ATOM      5  H   UNL     1      -3.349  -3.426  -0.111  1.00  0.00     0.163 HD
BRANCH   3   6
ATOM      6  C   UNL     1      -0.807  -1.264  -0.499  1.00  0.00     0.040 A 
ATOM      7  C   UNL     1       2.658   0.015   0.326  1.00  0.00     0.046 C 
ATOM      8  C   UNL     1       1.187   0.035   0.016  1.00  0.00    -0.026 A 
ATOM      9  C   UNL     1       0.495  -1.191  -0.002  1.00  0.00     0.019 A 
ATOM     10  C   UNL     1       0.512   1.204  -0.373  1.00  0.00     0.052 A 
ATOM     11  C   UNL     1      -0.637   1.071  -1.138  1.00  0.00     0.028 A 
ATOM     12  C   UNL     1      -1.292  -0.160  -1.193  1.00  0.00     0.016 A 
BRANCH  10  13
ATOM     13  N   UNL     1       0.768   2.398   0.370  1.00  0.00    -0.279 N 
ATOM     14  H   UNL     1       1.409   2.315   1.112  1.00  0.00     0.180 HD
BRANCH  13  15
ATOM     15  S   UNL     1       0.114   3.920   0.137  1.00  0.00     0.262 S 
ATOM     16  O   UNL     1       0.666   4.728   1.204  1.00  0.00    -0.201 OA
ATOM     17  O   UNL     1       0.311   4.267  -1.254  1.00  0.00    -0.201 OA
BRANCH  15  18
ATOM     18  C   UNL     1      -1.670   3.892   0.408  1.00  0.00     0.090 A 
ATOM     19  C   UNL     1      -2.326   2.711   0.773  1.00  0.00     0.024 A 
ATOM     20  C   UNL     1      -2.429   5.008  -0.006  1.00  0.00    -0.029 A 
ATOM     21  C   UNL     1      -3.691   2.557   0.494  1.00  0.00     0.021 A 
ATOM     22  C   UNL     1      -3.802   4.840  -0.265  1.00  0.00     0.024 A 
ATOM     23  C   UNL     1      -1.878   6.404  -0.122  1.00  0.00     0.046 C 
ATOM     24  C   UNL     1      -4.410   3.597  -0.097  1.00  0.00     0.052 A 
BRANCH  24  25
ATOM     25  C   UNL     1      -5.733   3.370  -0.605  1.00  0.00     0.099 C 
ATOM     26  N   UNL     1      -6.765   3.157  -1.081  1.00  0.00    -0.192 NA
ENDBRANCH  24  25
ENDBRANCH  15  18
ENDBRANCH  13  15
ENDBRANCH  10  13
ENDBRANCH   3   6
ENDBRANCH   1   2
BRANCH   1  27
ATOM     27  C   UNL     1      -4.634  -1.116  -1.313  1.00  0.00     0.023 C 
BRANCH  27  28
ATOM     28  C   UNL     1      -5.571  -2.200  -1.821  1.00  0.00     0.023 C 
BRANCH  28  29
ATOM     29  C   UNL     1      -6.825  -2.374  -0.995  1.00  0.00     0.116 C 
BRANCH  29  30
ATOM     30  N   UNL     1      -7.871  -1.399  -1.257  1.00  0.00    -0.352 N 
ATOM     31  C   UNL     1      -9.216  -1.431  -0.923  1.00  0.00     0.251 C 
ATOM     32  H   UNL     1      -7.580  -0.595  -1.746  1.00  0.00     0.163 HD
ATOM     33  O   UNL     1      -9.970  -0.588  -1.404  1.00  0.00    -0.269 OA
BRANCH  31  34
ATOM     34  C   UNL     1      -9.721  -2.321   0.169  1.00  0.00     0.039 A 
ATOM     35  C   UNL     1     -10.666  -1.721   1.017  1.00  0.00     0.014 A 
ATOM     36  C   UNL     1      -8.912  -3.328   0.665  1.00  0.00     0.014 A 
ATOM     37  C   UNL     1     -10.482  -1.802   2.386  1.00  0.00     0.010 A 
ATOM     38  C   UNL     1      -8.568  -3.238   1.980  1.00  0.00     0.010 A 
ATOM     39  C   UNL     1      -9.322  -2.417   2.818  1.00  0.00    -0.014 A 
BRANCH  39  40
ATOM     40  C   UNL     1      -8.810  -2.375   4.162  1.00  0.00     0.031 A 
ATOM     41  C   UNL     1      -9.150  -3.541   4.986  1.00  0.00     0.074 A 
ATOM     42  C   UNL     1      -7.853  -1.448   4.392  1.00  0.00     0.049 A 
ATOM     43  N   UNL     1      -9.043  -3.596   6.258  1.00  0.00    -0.248 NA
ATOM     44  C   UNL     1      -9.721  -4.766   4.416  1.00  0.00     0.031 C 
ATOM     45  C   UNL     1      -6.831  -1.389   5.427  1.00  0.00     0.029 A 
ATOM     46  N   UNL     1      -7.746  -0.207   3.749  1.00  0.00    -0.354 N 
ATOM     47  C   UNL     1      -9.120  -4.931   6.605  1.00  0.00     0.074 A 
ATOM     48  C   UNL     1      -9.717  -5.581   5.472  1.00  0.00     0.031 C 
ATOM     49  C   UNL     1      -6.427  -0.110   5.567  1.00  0.00     0.029 A 
ATOM     50  C   UNL     1      -7.289   0.705   4.723  1.00  0.00     0.049 A 
ATOM     51  H   UNL     1      -7.948  -0.011   2.806  1.00  0.00     0.167 HD
ATOM     52  C   UNL     1      -8.460  -5.323   7.731  1.00  0.00     0.037 A 
ATOM     53  C   UNL     1      -8.153   1.660   5.189  1.00  0.00     0.037 A 
ATOM     54  C   UNL     1      -7.910  -4.133   8.386  1.00  0.00     0.049 A 
ATOM     55  C   UNL     1      -8.540   1.396   6.628  1.00  0.00     0.074 A 
ATOM     56  C   UNL     1      -6.651  -3.557   8.350  1.00  0.00     0.029 A 
ATOM     57  N   UNL     1      -8.784  -3.147   8.831  1.00  0.00    -0.354 N 
ATOM     58  N   UNL     1      -8.557   0.207   7.173  1.00  0.00    -0.248 NA
ATOM     59  C   UNL     1      -8.852   2.456   7.581  1.00  0.00     0.031 C 
ATOM     60  C   UNL     1      -6.796  -2.183   8.686  1.00  0.00     0.029 A 
ATOM     61  C   UNL     1      -8.135  -1.932   8.937  1.00  0.00     0.049 A 
ATOM     62  H   UNL     1      -9.735  -3.295   9.042  1.00  0.00     0.167 HD
ATOM     63  C   UNL     1      -8.831   0.323   8.510  1.00  0.00     0.074 A 
ATOM     64  C   UNL     1      -9.014   1.750   8.714  1.00  0.00     0.031 C 
ATOM     65  C   UNL     1      -8.866  -0.746   9.361  1.00  0.00     0.037 A 
BRANCH  52  66
ATOM     66  C   UNL     1      -8.034  -6.733   8.090  1.00  0.00     0.057 A 
ATOM     67  C   UNL     1      -7.073  -6.927   9.105  1.00  0.00     0.134 A 
ATOM     68  C   UNL     1      -8.454  -7.926   7.473  1.00  0.00     0.134 A 
ATOM     69  F   UNL     1      -6.607  -5.906   9.838  1.00  0.00    -0.206 F 
ATOM     70  C   UNL     1      -6.532  -8.179   9.428  1.00  0.00     0.040 A 
ATOM     71  C   UNL     1      -7.916  -9.187   7.782  1.00  0.00     0.040 A 
ATOM     72  F   UNL     1      -9.422  -7.963   6.557  1.00  0.00    -0.206 F 
ATOM     73  C   UNL     1      -6.943  -9.316   8.757  1.00  0.00     0.006 A 
ENDBRANCH  52  66
BRANCH  53  74
ATOM     74  C   UNL     1      -9.061   2.151   4.103  1.00  0.00     0.057 A 
ATOM     75  C   UNL     1      -8.458   2.777   2.993  1.00  0.00     0.134 A 
ATOM     76  C   UNL     1     -10.332   1.602   3.902  1.00  0.00     0.134 A 
ATOM     77  F   UNL     1      -7.249   3.350   3.118  1.00  0.00    -0.206 F 
ATOM     78  C   UNL     1      -8.998   2.679   1.709  1.00  0.00     0.040 A 
ATOM     79  C   UNL     1     -10.893   1.528   2.618  1.00  0.00     0.040 A 
ATOM     80  F   UNL     1     -10.985   1.000   4.905  1.00  0.00    -0.206 F 
ATOM     81  C   UNL     1     -10.194   2.001   1.510  1.00  0.00     0.006 A 
ENDBRANCH  53  74
BRANCH  65  82
ATOM     82  C   UNL     1      -9.523  -0.753  10.721  1.00  0.00     0.057 A 
ATOM     83  C   UNL     1     -10.541   0.132  11.102  1.00  0.00     0.134 A 
ATOM     84  C   UNL     1      -9.259  -1.790  11.648  1.00  0.00     0.134 A 
ATOM     85  F   UNL     1     -11.005   1.076  10.273  1.00  0.00    -0.206 F 
ATOM     86  C   UNL     1     -11.182   0.050  12.343  1.00  0.00     0.040 A 
ATOM     87  C   UNL     1      -9.952  -1.931  12.851  1.00  0.00     0.040 A 
ATOM     88  F   UNL     1      -8.338  -2.737  11.418  1.00  0.00    -0.206 F 
ATOM     89  C   UNL     1     -10.899  -0.991  13.217  1.00  0.00     0.006 A 
ENDBRANCH  65  82
ENDBRANCH  39  40
ENDBRANCH  31  34
ENDBRANCH  29  30
ENDBRANCH  28  29
ENDBRANCH  27  28
ENDBRANCH   1  27
TORSDOF 15
