REMARK SMILES O=C(NCCCCNC(=O)c1ccc(C[NH2+]Cc2cc(F)ccc2F)nc1)c1ccc(-c2c3nc(c(-c4c(F)cccc4F)c4ccc([nH]4)c(-c4c(F)cccc4F)c4nc(c(-c5c(F)cccc5F)c5ccc2[nH]5)C=C4)C=C3)cc1
REMARK SMILES IDX 6 1 5 2 4 3 3 4 1 5 2 6 28 8 29 9 81 10 30 11 80 12 31 13
REMARK SMILES IDX 32 14 33 15 74 16 34 17 79 18 73 19 75 20 35 21 78 22 72 23
REMARK SMILES IDX 71 24 36 26 62 27 45 28 61 29 46 30 49 31 60 32 76 33 47 34
REMARK SMILES IDX 48 35 59 37 77 38 50 39 37 40 38 41 43 42 39 43 40 44 42 45
REMARK SMILES IDX 44 46 41 47 63 48 64 49 69 50 65 51 66 52 68 53 70 54 67 55
REMARK SMILES IDX 51 56 52 57 57 58 53 59 54 60 56 61 58 62 55 63 7 64 8 65
REMARK SMILES IDX 9 66 10 68 11 69 12 70 27 71 13 72 26 73 14 74 15 75 16 76
REMARK SMILES IDX 17 79 18 80 19 81 24 82 20 83 23 84 25 85 21 86 22 87
REMARK H PARENT 3 7 75 25 49 36 8 67 16 77 16 78
REMARK Flexibility Score: inf
ROOT
ATOM      1  C   UNL     1       4.456  -0.152   3.686  1.00  0.00     0.023 C 
ENDROOT
BRANCH   1   2
ATOM      2  C   UNL     1       4.908   0.469   2.367  1.00  0.00     0.023 C 
BRANCH   2   3
ATOM      3  C   UNL     1       4.552  -0.335   1.124  1.00  0.00     0.116 C 
BRANCH   3   4
ATOM      4  N   UNL     1       3.116  -0.483   0.944  1.00  0.00    -0.352 N 
ATOM      5  O   UNL     1       1.106  -0.152  -0.029  1.00  0.00    -0.269 OA
ATOM      6  C   UNL     1       2.329  -0.089  -0.111  1.00  0.00     0.251 C 
ATOM      7  H   UNL     1       2.641  -0.929   1.682  1.00  0.00     0.163 HD
BRANCH   6   8
ATOM      8  C   UNL     1       2.962   0.434  -1.339  1.00  0.00     0.039 A 
ATOM      9  C   UNL     1       4.053  -0.224  -1.912  1.00  0.00     0.014 A 
ATOM     10  C   UNL     1       2.457   1.601  -1.919  1.00  0.00     0.014 A 
ATOM     11  C   UNL     1       4.727   0.358  -2.979  1.00  0.00     0.010 A 
ATOM     12  C   UNL     1       3.082   2.136  -3.046  1.00  0.00     0.010 A 
ATOM     13  C   UNL     1       4.238   1.533  -3.569  1.00  0.00    -0.014 A 
BRANCH  13  14
ATOM     14  C   UNL     1       4.900   2.082  -4.777  1.00  0.00     0.031 A 
ATOM     15  C   UNL     1       5.547   3.436  -4.761  1.00  0.00     0.074 A 
ATOM     16  C   UNL     1       4.890   1.349  -5.906  1.00  0.00     0.049 A 
ATOM     17  N   UNL     1       6.111   4.091  -5.744  1.00  0.00    -0.248 NA
ATOM     18  C   UNL     1       5.551   4.154  -3.478  1.00  0.00     0.031 C 
ATOM     19  C   UNL     1       4.279   0.024  -6.043  1.00  0.00     0.029 A 
ATOM     20  N   UNL     1       5.394   1.614  -7.153  1.00  0.00    -0.354 N 
ATOM     21  C   UNL     1       6.517   5.306  -5.207  1.00  0.00     0.074 A 
ATOM     22  C   UNL     1       6.110   5.307  -3.817  1.00  0.00     0.031 C 
ATOM     23  C   UNL     1       4.453  -0.411  -7.298  1.00  0.00     0.029 A 
ATOM     24  C   UNL     1       5.125   0.628  -8.069  1.00  0.00     0.049 A 
ATOM     25  H   UNL     1       5.899   2.431  -7.370  1.00  0.00     0.167 HD
ATOM     26  C   UNL     1       7.171   6.323  -5.820  1.00  0.00     0.037 A 
ATOM     27  C   UNL     1       5.354   0.577  -9.394  1.00  0.00     0.037 A 
ATOM     28  C   UNL     1       7.570   6.307  -7.205  1.00  0.00     0.049 A 
ATOM     29  C   UNL     1       6.044   1.730 -10.060  1.00  0.00     0.074 A 
ATOM     30  C   UNL     1       8.283   7.264  -7.907  1.00  0.00     0.029 A 
ATOM     31  N   UNL     1       7.276   5.290  -8.103  1.00  0.00    -0.354 N 
ATOM     32  N   UNL     1       6.470   2.851  -9.531  1.00  0.00    -0.248 NA
ATOM     33  C   UNL     1       6.287   1.613 -11.503  1.00  0.00     0.031 C 
ATOM     34  C   UNL     1       8.364   6.856  -9.243  1.00  0.00     0.029 A 
ATOM     35  C   UNL     1       7.760   5.614  -9.361  1.00  0.00     0.049 A 
ATOM     36  H   UNL     1       6.795   4.461  -7.879  1.00  0.00     0.167 HD
ATOM     37  C   UNL     1       7.049   3.566 -10.570  1.00  0.00     0.074 A 
ATOM     38  C   UNL     1       6.927   2.746 -11.759  1.00  0.00     0.031 C 
ATOM     39  C   UNL     1       7.632   4.789 -10.537  1.00  0.00     0.037 A 
BRANCH  26  40
ATOM     40  C   UNL     1       7.460   7.553  -5.005  1.00  0.00     0.057 A 
ATOM     41  C   UNL     1       8.386   7.553  -3.953  1.00  0.00     0.134 A 
ATOM     42  C   UNL     1       6.812   8.762  -5.290  1.00  0.00     0.134 A 
ATOM     43  F   UNL     1       9.037   6.428  -3.621  1.00  0.00    -0.206 F 
ATOM     44  C   UNL     1       8.628   8.698  -3.192  1.00  0.00     0.040 A 
ATOM     45  C   UNL     1       7.068   9.922  -4.556  1.00  0.00     0.040 A 
ATOM     46  F   UNL     1       5.922   8.840  -6.291  1.00  0.00    -0.206 F 
ATOM     47  C   UNL     1       7.971   9.889  -3.495  1.00  0.00     0.006 A 
ENDBRANCH  26  40
BRANCH  27  48
ATOM     48  C   UNL     1       4.897  -0.607 -10.161  1.00  0.00     0.057 A 
ATOM     49  C   UNL     1       5.805  -1.539 -10.670  1.00  0.00     0.134 A 
ATOM     50  C   UNL     1       3.532  -0.862 -10.351  1.00  0.00     0.134 A 
ATOM     51  F   UNL     1       7.124  -1.343 -10.529  1.00  0.00    -0.206 F 
ATOM     52  C   UNL     1       5.374  -2.682 -11.345  1.00  0.00     0.040 A 
ATOM     53  C   UNL     1       3.086  -2.013 -10.999  1.00  0.00     0.040 A 
ATOM     54  F   UNL     1       2.611  -0.012  -9.871  1.00  0.00    -0.206 F 
ATOM     55  C   UNL     1       4.010  -2.926 -11.502  1.00  0.00     0.006 A 
ENDBRANCH  27  48
BRANCH  39  56
ATOM     56  C   UNL     1       8.215   5.309 -11.819  1.00  0.00     0.057 A 
ATOM     57  C   UNL     1       7.409   5.764 -12.870  1.00  0.00     0.134 A 
ATOM     58  C   UNL     1       9.603   5.412 -11.976  1.00  0.00     0.134 A 
ATOM     59  F   UNL     1       6.073   5.678 -12.789  1.00  0.00    -0.206 F 
ATOM     60  C   UNL     1       7.964   6.295 -14.035  1.00  0.00     0.040 A 
ATOM     61  C   UNL     1      10.169   5.966 -13.124  1.00  0.00     0.040 A 
ATOM     62  F   UNL     1      10.431   4.999 -11.004  1.00  0.00    -0.206 F 
ATOM     63  C   UNL     1       9.348   6.407 -14.160  1.00  0.00     0.006 A 
ENDBRANCH  39  56
ENDBRANCH  13  14
ENDBRANCH   6   8
ENDBRANCH   3   4
ENDBRANCH   2   3
ENDBRANCH   1   2
BRANCH   1  64
ATOM     64  C   UNL     1       4.882  -1.602   3.896  1.00  0.00     0.116 C 
BRANCH  64  65
ATOM     65  N   UNL     1       6.327  -1.765   3.873  1.00  0.00    -0.352 N 
ATOM     66  C   UNL     1       7.149  -2.289   4.839  1.00  0.00     0.252 C 
ATOM     67  H   UNL     1       6.777  -1.456   3.053  1.00  0.00     0.163 HD
ATOM     68  O   UNL     1       8.368  -2.200   4.738  1.00  0.00    -0.269 OA
BRANCH  66  69
ATOM     69  C   UNL     1       6.555  -2.943   6.010  1.00  0.00     0.058 A 
ATOM     70  C   UNL     1       5.626  -3.974   5.885  1.00  0.00     0.017 A 
ATOM     71  C   UNL     1       6.908  -2.509   7.276  1.00  0.00     0.125 A 
ATOM     72  C   UNL     1       5.027  -4.480   7.034  1.00  0.00     0.030 A 
ATOM     73  N   UNL     1       6.330  -2.976   8.407  1.00  0.00    -0.255 NA
ATOM     74  C   UNL     1       5.385  -3.942   8.273  1.00  0.00     0.094 A 
BRANCH  74  75
ATOM     75  C   UNL     1       4.688  -4.430   9.528  1.00  0.00     0.318 C 
BRANCH  75  76
ATOM     76  N   UNL     1       5.441  -5.468  10.228  1.00  0.00    -0.337 N 
ATOM     77  H   UNL     1       6.313  -5.062  10.568  1.00  0.00     0.346 HD
ATOM     78  H   UNL     1       5.602  -6.225   9.563  1.00  0.00     0.346 HD
BRANCH  76  79
ATOM     79  C   UNL     1       4.721  -6.038  11.364  1.00  0.00     0.300 C 
BRANCH  79  80
ATOM     80  C   UNL     1       3.647  -7.014  10.955  1.00  0.00     0.045 A 
ATOM     81  C   UNL     1       2.350  -6.577  10.646  1.00  0.00     0.051 A 
ATOM     82  C   UNL     1       3.936  -8.377  10.825  1.00  0.00     0.132 A 
ATOM     83  C   UNL     1       1.401  -7.482  10.180  1.00  0.00     0.123 A 
ATOM     84  C   UNL     1       2.975  -9.285  10.381  1.00  0.00     0.043 A 
ATOM     85  F   UNL     1       5.161  -8.834  11.120  1.00  0.00    -0.206 F 
ATOM     86  F   UNL     1       0.184  -7.039   9.841  1.00  0.00    -0.207 F 
ATOM     87  C   UNL     1       1.702  -8.832  10.044  1.00  0.00     0.042 A 
ENDBRANCH  79  80
ENDBRANCH  76  79
ENDBRANCH  75  76
ENDBRANCH  74  75
ENDBRANCH  66  69
ENDBRANCH  64  65
ENDBRANCH   1  64
TORSDOF 15
