REMARK SMILES CCC1(C(=O)NCCc2ccc(C(=O)NCCCCNC(=O)c3ccc(-c4c5nc(c(-c6c(F)cccc6F)c6ccc([nH]6)c(-c6c(F)cccc6F)c6nc(c(-c7c(F)cccc7F)c7ccc4[nH]7)C=C6)C=C5)cc3)cc2)CCCC1
REMARK SMILES IDX 16 1 15 2 13 3 14 4 12 6 9 7 10 8 78 9 11 10 77 11 8 12 7 13
REMARK SMILES IDX 6 14 4 15 5 16 3 18 79 19 82 20 80 21 81 22 2 23 1 24 17 25
REMARK SMILES IDX 18 26 19 27 20 28 21 29 22 31 23 32 24 33 76 34 25 35 75 36
REMARK SMILES IDX 26 37 27 38 28 39 69 40 29 41 74 42 68 43 70 44 30 45 73 46
REMARK SMILES IDX 67 47 66 48 31 50 57 51 40 52 56 53 41 54 44 55 55 56 71 57
REMARK SMILES IDX 42 58 43 59 54 61 72 62 45 63 32 64 33 65 38 66 34 67 35 68
REMARK SMILES IDX 37 69 39 70 36 71 58 72 59 73 64 74 60 75 61 76 63 77 65 78
REMARK SMILES IDX 62 79 46 80 47 81 52 82 48 83 49 84 51 85 53 86 50 87
REMARK H PARENT 15 5 6 17 20 30 70 49 44 60
REMARK Flexibility Score: inf
ROOT
ATOM      1  C   UNL     1       9.346   8.038  -2.347  1.00  0.00     0.116 C 
ENDROOT
BRANCH   1   2
ATOM      2  N   UNL     1       9.859   6.698  -2.167  1.00  0.00    -0.352 N 
ATOM      3  C   UNL     1       9.297   5.576  -1.616  1.00  0.00     0.251 C 
ATOM      4  O   UNL     1      10.004   4.571  -1.541  1.00  0.00    -0.269 OA
ATOM      5  H   UNL     1      10.777   6.569  -2.499  1.00  0.00     0.163 HD
BRANCH   3   6
ATOM      6  C   UNL     1       7.870   5.500  -1.192  1.00  0.00     0.039 A 
ATOM      7  C   UNL     1       5.104   5.168  -0.693  1.00  0.00    -0.046 A 
ATOM      8  C   UNL     1       5.924   4.067  -0.956  1.00  0.00     0.004 A 
ATOM      9  C   UNL     1       5.713   6.417  -0.543  1.00  0.00     0.004 A 
ATOM     10  C   UNL     1       7.283   4.234  -1.229  1.00  0.00     0.014 A 
ATOM     11  C   UNL     1       7.084   6.573  -0.768  1.00  0.00     0.014 A 
BRANCH   7  12
ATOM     12  C   UNL     1       3.604   5.059  -0.534  1.00  0.00     0.056 C 
BRANCH  12  13
ATOM     13  C   UNL     1       2.908   4.154  -1.567  1.00  0.00     0.120 C 
BRANCH  13  14
ATOM     14  N   UNL     1       2.941   2.759  -1.175  1.00  0.00    -0.355 N 
ATOM     15  C   UNL     1       2.265   2.116  -0.191  1.00  0.00     0.226 C 
ATOM     16  O   UNL     1       2.933   1.294   0.446  1.00  0.00    -0.274 OA
ATOM     17  H   UNL     1       3.546   2.191  -1.704  1.00  0.00     0.163 HD
BRANCH  15  18
ATOM     18  C   UNL     1       0.770   2.364   0.118  1.00  0.00     0.049 C 
ATOM     19  C   UNL     1      -0.089   2.664  -1.127  1.00  0.00     0.017 C 
ATOM     20  C   UNL     1       0.556   3.564   1.062  1.00  0.00     0.017 C 
ATOM     21  C   UNL     1      -0.647   4.079  -0.982  1.00  0.00     0.001 C 
ATOM     22  C   UNL     1       0.022   4.712   0.223  1.00  0.00     0.001 C 
BRANCH  18  23
ATOM     23  C   UNL     1       0.236   1.081   0.837  1.00  0.00     0.013 C 
ATOM     24  C   UNL     1       0.357  -0.216   0.035  1.00  0.00     0.005 C 
ENDBRANCH  18  23
ENDBRANCH  15  18
ENDBRANCH  13  14
ENDBRANCH  12  13
ENDBRANCH   7  12
ENDBRANCH   3   6
ENDBRANCH   1   2
BRANCH   1  25
ATOM     25  C   UNL     1       9.675   8.894  -1.122  1.00  0.00     0.023 C 
BRANCH  25  26
ATOM     26  C   UNL     1      11.149   9.291  -1.018  1.00  0.00     0.023 C 
BRANCH  26  27
ATOM     27  C   UNL     1      11.658  10.127  -2.182  1.00  0.00     0.116 C 
BRANCH  27  28
ATOM     28  N   UNL     1      10.889  11.342  -2.391  1.00  0.00    -0.352 N 
ATOM     29  C   UNL     1      11.317  12.533  -2.930  1.00  0.00     0.251 C 
ATOM     30  H   UNL     1       9.945  11.310  -2.112  1.00  0.00     0.163 HD
ATOM     31  O   UNL     1      10.591  13.511  -2.951  1.00  0.00    -0.269 OA
BRANCH  29  32
ATOM     32  C   UNL     1      12.700  12.609  -3.441  1.00  0.00     0.039 A 
ATOM     33  C   UNL     1      13.539  13.612  -2.952  1.00  0.00     0.014 A 
ATOM     34  C   UNL     1      13.173  11.655  -4.345  1.00  0.00     0.014 A 
ATOM     35  C   UNL     1      14.881  13.622  -3.328  1.00  0.00     0.010 A 
ATOM     36  C   UNL     1      14.525  11.627  -4.665  1.00  0.00     0.010 A 
ATOM     37  C   UNL     1      15.389  12.610  -4.159  1.00  0.00    -0.014 A 
BRANCH  37  38
ATOM     38  C   UNL     1      16.826  12.566  -4.518  1.00  0.00     0.031 A 
ATOM     39  C   UNL     1      17.246  12.771  -5.945  1.00  0.00     0.074 A 
ATOM     40  C   UNL     1      17.739  12.278  -3.572  1.00  0.00     0.049 A 
ATOM     41  N   UNL     1      18.441  12.700  -6.473  1.00  0.00    -0.248 NA
ATOM     42  C   UNL     1      16.177  13.067  -6.913  1.00  0.00     0.031 C 
ATOM     43  C   UNL     1      17.446  12.009  -2.163  1.00  0.00     0.029 A 
ATOM     44  N   UNL     1      19.102  12.152  -3.657  1.00  0.00    -0.354 N 
ATOM     45  C   UNL     1      18.266  12.929  -7.831  1.00  0.00     0.074 A 
ATOM     46  C   UNL     1      16.846  13.089  -8.056  1.00  0.00     0.031 C 
ATOM     47  C   UNL     1      18.596  11.770  -1.512  1.00  0.00     0.029 A 
ATOM     48  C   UNL     1      19.702  11.837  -2.462  1.00  0.00     0.049 A 
ATOM     49  H   UNL     1      19.604  12.276  -4.495  1.00  0.00     0.167 HD
ATOM     50  C   UNL     1      19.207  13.022  -8.799  1.00  0.00     0.037 A 
ATOM     51  C   UNL     1      20.999  11.624  -2.169  1.00  0.00     0.037 A 
ATOM     52  C   UNL     1      20.621  12.891  -8.565  1.00  0.00     0.049 A 
ATOM     53  C   UNL     1      22.024  11.743  -3.262  1.00  0.00     0.074 A 
ATOM     54  C   UNL     1      21.660  13.023  -9.469  1.00  0.00     0.029 A 
ATOM     55  N   UNL     1      21.192  12.603  -7.335  1.00  0.00    -0.354 N 
ATOM     56  N   UNL     1      21.852  12.023  -4.531  1.00  0.00    -0.248 NA
ATOM     57  C   UNL     1      23.427  11.523  -2.880  1.00  0.00     0.031 C 
ATOM     58  C   UNL     1      22.860  12.783  -8.792  1.00  0.00     0.029 A 
ATOM     59  C   UNL     1      22.570  12.541  -7.459  1.00  0.00     0.049 A 
ATOM     60  H   UNL     1      20.692  12.463  -6.498  1.00  0.00     0.167 HD
ATOM     61  C   UNL     1      23.121  12.040  -5.093  1.00  0.00     0.074 A 
ATOM     62  C   UNL     1      24.056  11.755  -4.023  1.00  0.00     0.031 C 
ATOM     63  C   UNL     1      23.482  12.270  -6.378  1.00  0.00     0.037 A 
BRANCH  50  64
ATOM     64  C   UNL     1      18.736  13.290 -10.197  1.00  0.00     0.057 A 
ATOM     65  C   UNL     1      18.231  14.541 -10.574  1.00  0.00     0.134 A 
ATOM     66  C   UNL     1      18.820  12.301 -11.184  1.00  0.00     0.134 A 
ATOM     67  F   UNL     1      18.111  15.526  -9.671  1.00  0.00    -0.206 F 
ATOM     68  C   UNL     1      17.805  14.793 -11.879  1.00  0.00     0.040 A 
ATOM     69  C   UNL     1      18.420  12.549 -12.498  1.00  0.00     0.040 A 
ATOM     70  F   UNL     1      19.297  11.082 -10.890  1.00  0.00    -0.206 F 
ATOM     71  C   UNL     1      17.906  13.796 -12.847  1.00  0.00     0.006 A 
ENDBRANCH  50  64
BRANCH  51  72
ATOM     72  C   UNL     1      21.407  11.303  -0.779  1.00  0.00     0.057 A 
ATOM     73  C   UNL     1      22.115  12.229  -0.005  1.00  0.00     0.134 A 
ATOM     74  C   UNL     1      21.118  10.063  -0.199  1.00  0.00     0.134 A 
ATOM     75  F   UNL     1      22.437  13.428  -0.514  1.00  0.00    -0.206 F 
ATOM     76  C   UNL     1      22.541  11.927   1.289  1.00  0.00     0.040 A 
ATOM     77  C   UNL     1      21.517   9.755   1.103  1.00  0.00     0.040 A 
ATOM     78  F   UNL     1      20.435   9.136  -0.887  1.00  0.00    -0.206 F 
ATOM     79  C   UNL     1      22.239  10.686   1.847  1.00  0.00     0.006 A 
ENDBRANCH  51  72
BRANCH  63  80
ATOM     80  C   UNL     1      24.948  12.260  -6.689  1.00  0.00     0.057 A 
ATOM     81  C   UNL     1      25.683  11.070  -6.746  1.00  0.00     0.134 A 
ATOM     82  C   UNL     1      25.623  13.454  -6.975  1.00  0.00     0.134 A 
ATOM     83  F   UNL     1      25.096   9.895  -6.470  1.00  0.00    -0.206 F 
ATOM     84  C   UNL     1      27.043  11.069  -7.058  1.00  0.00     0.040 A 
ATOM     85  C   UNL     1      26.976  13.463  -7.311  1.00  0.00     0.040 A 
ATOM     86  F   UNL     1      24.973  14.628  -6.945  1.00  0.00    -0.206 F 
ATOM     87  C   UNL     1      27.692  12.268  -7.348  1.00  0.00     0.006 A 
ENDBRANCH  63  80
ENDBRANCH  37  38
ENDBRANCH  29  32
ENDBRANCH  27  28
ENDBRANCH  26  27
ENDBRANCH  25  26
ENDBRANCH   1  25
TORSDOF 16
