REMARK SMILES Cc1ccc(C(=O)NCCCCNC(=O)c2ccc(-c3c4nc(c(-c5c(F)cccc5F)c5ccc([nH]5)c(-c5c(F)cccc5F)c5nc(c(-c6c(F)cccc6F)c6ccc3[nH]6)C=C5)C=C4)cc2)c(Oc2cccc(F)c2C(N)=O)c1
REMARK SMILES IDX 10 1 9 2 8 3 6 4 7 5 5 7 1 8 2 9 3 10 82 11 4 12 70 13 71 14
REMARK SMILES IDX 72 15 73 16 78 17 74 18 76 19 75 20 77 21 79 22 80 23 81 24
REMARK SMILES IDX 11 27 12 28 13 29 14 30 15 32 16 33 17 34 69 35 18 36 68 37
REMARK SMILES IDX 19 38 20 39 21 40 62 41 22 42 67 43 61 44 63 45 23 46 66 47
REMARK SMILES IDX 60 48 59 49 24 51 50 52 33 53 49 54 34 55 37 56 48 57 64 58
REMARK SMILES IDX 35 59 36 60 47 62 65 63 38 64 25 65 26 66 31 67 27 68 28 69
REMARK SMILES IDX 30 70 32 71 29 72 51 73 52 74 57 75 53 76 54 77 56 78 58 79
REMARK SMILES IDX 55 80 39 81 40 82 45 83 41 84 42 85 44 86 46 87 43 88
REMARK H PARENT 8 6 80 25 80 26 13 31 63 50 37 61
REMARK Flexibility Score: inf
ROOT
ATOM      1  C   UNL     1      -3.881   3.037  -2.129  1.00  0.00     0.023 C 
ENDROOT
BRANCH   1   2
ATOM      2  C   UNL     1      -3.506   2.630  -0.706  1.00  0.00     0.116 C 
BRANCH   2   3
ATOM      3  N   UNL     1      -3.779   1.256  -0.346  1.00  0.00    -0.352 N 
ATOM      4  C   UNL     1      -3.000   0.210   0.100  1.00  0.00     0.255 C 
ATOM      5  O   UNL     1      -3.619  -0.801   0.449  1.00  0.00    -0.269 OA
ATOM      6  H   UNL     1      -4.729   1.015  -0.440  1.00  0.00     0.163 HD
BRANCH   4   7
ATOM      7  C   UNL     1      -1.500   0.140   0.110  1.00  0.00     0.082 A 
ATOM      8  C   UNL     1       2.784  -0.589   0.037  1.00  0.00     0.044 C 
ATOM      9  C   UNL     1       1.303  -0.358   0.084  1.00  0.00    -0.047 A 
ATOM     10  C   UNL     1       0.405  -1.376  -0.226  1.00  0.00     0.004 A 
ATOM     11  C   UNL     1       0.798   0.881   0.479  1.00  0.00     0.051 A 
ATOM     12  C   UNL     1      -0.974  -1.132  -0.202  1.00  0.00     0.018 A 
ATOM     13  C   UNL     1      -0.585   1.145   0.457  1.00  0.00     0.140 A 
BRANCH  13  14
ATOM     14  O   UNL     1      -1.028   2.362   0.889  1.00  0.00    -0.456 OA
BRANCH  14  15
ATOM     15  C   UNL     1      -0.431   3.537   0.465  1.00  0.00     0.143 A 
ATOM     16  C   UNL     1      -0.587   4.547   1.435  1.00  0.00     0.048 A 
ATOM     17  C   UNL     1       0.165   3.849  -0.775  1.00  0.00     0.117 A 
ATOM     18  C   UNL     1      -0.147   5.847   1.204  1.00  0.00     0.007 A 
ATOM     19  C   UNL     1       0.577   5.175  -0.989  1.00  0.00     0.139 A 
ATOM     20  C   UNL     1       0.429   6.163  -0.017  1.00  0.00     0.040 A 
ATOM     21  F   UNL     1       1.099   5.551  -2.167  1.00  0.00    -0.206 F 
BRANCH  17  22
ATOM     22  C   UNL     1       0.484   2.931  -1.898  1.00  0.00     0.255 C 
ATOM     23  N   UNL     1      -0.474   2.106  -2.410  1.00  0.00    -0.365 N 
ATOM     24  O   UNL     1       1.607   2.920  -2.392  1.00  0.00    -0.269 OA
ATOM     25  H   UNL     1      -1.380   2.104  -2.023  1.00  0.00     0.159 HD
ATOM     26  H   UNL     1      -0.261   1.513  -3.166  1.00  0.00     0.159 HD
ENDBRANCH  17  22
ENDBRANCH  14  15
ENDBRANCH  13  14
ENDBRANCH   4   7
ENDBRANCH   2   3
ENDBRANCH   1   2
BRANCH   1  27
ATOM     27  C   UNL     1      -5.349   3.343  -2.389  1.00  0.00     0.023 C 
BRANCH  27  28
ATOM     28  C   UNL     1      -5.964   4.394  -1.484  1.00  0.00     0.116 C 
BRANCH  28  29
ATOM     29  N   UNL     1      -5.535   5.771  -1.688  1.00  0.00    -0.352 N 
ATOM     30  C   UNL     1      -5.914   6.930  -1.030  1.00  0.00     0.251 C 
ATOM     31  H   UNL     1      -4.872   5.899  -2.406  1.00  0.00     0.163 HD
ATOM     32  O   UNL     1      -5.528   8.000  -1.446  1.00  0.00    -0.269 OA
BRANCH  30  33
ATOM     33  C   UNL     1      -6.656   6.876   0.277  1.00  0.00     0.039 A 
ATOM     34  C   UNL     1      -6.475   7.940   1.177  1.00  0.00     0.014 A 
ATOM     35  C   UNL     1      -7.315   5.737   0.714  1.00  0.00     0.014 A 
ATOM     36  C   UNL     1      -6.687   7.739   2.540  1.00  0.00     0.010 A 
ATOM     37  C   UNL     1      -7.387   5.480   2.059  1.00  0.00     0.010 A 
ATOM     38  C   UNL     1      -7.006   6.461   2.973  1.00  0.00    -0.014 A 
BRANCH  38  39
ATOM     39  C   UNL     1      -6.916   5.985   4.341  1.00  0.00     0.031 A 
ATOM     40  C   UNL     1      -8.154   5.685   5.082  1.00  0.00     0.074 A 
ATOM     41  C   UNL     1      -5.707   5.548   4.761  1.00  0.00     0.049 A 
ATOM     42  N   UNL     1      -8.187   5.331   6.318  1.00  0.00    -0.248 NA
ATOM     43  C   UNL     1      -9.487   5.804   4.486  1.00  0.00     0.031 C 
ATOM     44  C   UNL     1      -5.407   4.613   5.842  1.00  0.00     0.029 A 
ATOM     45  N   UNL     1      -4.452   6.059   4.391  1.00  0.00    -0.354 N 
ATOM     46  C   UNL     1      -9.452   4.859   6.571  1.00  0.00     0.074 A 
ATOM     47  C   UNL     1     -10.253   5.310   5.464  1.00  0.00     0.031 C 
ATOM     48  C   UNL     1      -4.143   4.819   6.254  1.00  0.00     0.029 A 
ATOM     49  C   UNL     1      -3.676   6.016   5.574  1.00  0.00     0.049 A 
ATOM     50  H   UNL     1      -4.173   6.378   3.503  1.00  0.00     0.167 HD
ATOM     51  C   UNL     1      -9.622   4.002   7.612  1.00  0.00     0.037 A 
ATOM     52  C   UNL     1      -3.324   7.172   6.214  1.00  0.00     0.037 A 
ATOM     53  C   UNL     1      -8.456   4.034   8.494  1.00  0.00     0.049 A 
ATOM     54  C   UNL     1      -3.857   7.267   7.628  1.00  0.00     0.074 A 
ATOM     55  C   UNL     1      -7.410   3.160   8.727  1.00  0.00     0.029 A 
ATOM     56  N   UNL     1      -8.094   5.248   9.077  1.00  0.00    -0.354 N 
ATOM     57  N   UNL     1      -4.891   6.601   8.066  1.00  0.00    -0.248 NA
ATOM     58  C   UNL     1      -3.267   8.121   8.655  1.00  0.00     0.031 C 
ATOM     59  C   UNL     1      -6.354   3.905   9.325  1.00  0.00     0.029 A 
ATOM     60  C   UNL     1      -6.785   5.209   9.511  1.00  0.00     0.049 A 
ATOM     61  H   UNL     1      -8.690   6.026   9.166  1.00  0.00     0.167 HD
ATOM     62  C   UNL     1      -5.121   6.923   9.377  1.00  0.00     0.074 A 
ATOM     63  C   UNL     1      -4.069   7.868   9.704  1.00  0.00     0.031 C 
ATOM     64  C   UNL     1      -6.161   6.394  10.088  1.00  0.00     0.037 A 
BRANCH  51  65
ATOM     65  C   UNL     1     -10.740   2.989   7.731  1.00  0.00     0.057 A 
ATOM     66  C   UNL     1     -10.854   2.200   8.892  1.00  0.00     0.134 A 
ATOM     67  C   UNL     1     -11.641   2.635   6.703  1.00  0.00     0.134 A 
ATOM     68  F   UNL     1     -10.053   2.397   9.949  1.00  0.00    -0.206 F 
ATOM     69  C   UNL     1     -11.779   1.151   9.016  1.00  0.00     0.040 A 
ATOM     70  C   UNL     1     -12.604   1.625   6.835  1.00  0.00     0.040 A 
ATOM     71  F   UNL     1     -11.604   3.194   5.489  1.00  0.00    -0.206 F 
ATOM     72  C   UNL     1     -12.668   0.867   7.990  1.00  0.00     0.006 A 
ENDBRANCH  51  65
BRANCH  52  73
ATOM     73  C   UNL     1      -3.170   8.324   5.280  1.00  0.00     0.057 A 
ATOM     74  C   UNL     1      -2.184   8.250   4.277  1.00  0.00     0.134 A 
ATOM     75  C   UNL     1      -4.192   9.260   5.095  1.00  0.00     0.134 A 
ATOM     76  F   UNL     1      -1.173   7.373   4.388  1.00  0.00    -0.206 F 
ATOM     77  C   UNL     1      -2.285   8.974   3.086  1.00  0.00     0.040 A 
ATOM     78  C   UNL     1      -4.290  10.006   3.913  1.00  0.00     0.040 A 
ATOM     79  F   UNL     1      -5.178   9.382   5.994  1.00  0.00    -0.206 F 
ATOM     80  C   UNL     1      -3.363   9.829   2.886  1.00  0.00     0.006 A 
ENDBRANCH  52  73
BRANCH  64  81
ATOM     81  C   UNL     1      -6.647   6.901  11.425  1.00  0.00     0.057 A 
ATOM     82  C   UNL     1      -6.531   8.232  11.852  1.00  0.00     0.134 A 
ATOM     83  C   UNL     1      -7.406   6.065  12.274  1.00  0.00     0.134 A 
ATOM     84  F   UNL     1      -5.945   9.167  11.091  1.00  0.00    -0.206 F 
ATOM     85  C   UNL     1      -7.067   8.683  13.066  1.00  0.00     0.040 A 
ATOM     86  C   UNL     1      -7.993   6.518  13.459  1.00  0.00     0.040 A 
ATOM     87  F   UNL     1      -7.632   4.777  11.976  1.00  0.00    -0.206 F 
ATOM     88  C   UNL     1      -7.810   7.828  13.870  1.00  0.00     0.006 A 
ENDBRANCH  64  81
ENDBRANCH  38  39
ENDBRANCH  30  33
ENDBRANCH  28  29
ENDBRANCH  27  28
ENDBRANCH   1  27
TORSDOF 14
