REMARK SMILES Cc1ccccc1NC(=S)NN1C(=O)CS[C@H]1c1ccccc1C(=O)NCCCCNC(=O)c1ccc(-c2c3nc(c(-c4c(F)cccc4F)c4ccc([nH]4)c(-c4c(F)cccc4F)c4nc(c(-c5c(F)cccc5F)c5ccc2[nH]5)C=C4)C=C3)cc1
REMARK SMILES IDX 27 1 26 2 24 3 25 4 23 6 18 7 19 8 20 9 22 10 21 11 17 12
REMARK SMILES IDX 12 13 13 14 14 15 15 16 16 17 11 18 9 20 10 21 8 22 7 24
REMARK SMILES IDX 1 25 2 26 3 27 4 28 6 29 5 30 28 31 29 32 30 33 31 34 32 35
REMARK SMILES IDX 33 37 34 38 35 39 87 40 36 41 86 42 37 43 38 44 39 45 80 46
REMARK SMILES IDX 40 47 85 48 79 49 81 50 41 51 84 52 78 53 77 54 42 56 68 57
REMARK SMILES IDX 51 58 67 59 52 60 55 61 66 62 82 63 53 64 54 65 65 67 83 68
REMARK SMILES IDX 56 69 43 70 44 71 49 72 45 73 46 74 48 75 50 76 47 77 69 78
REMARK SMILES IDX 70 79 75 80 71 81 72 82 74 83 76 84 73 85 57 86 58 87 63 88
REMARK SMILES IDX 59 89 60 90 62 91 64 92 61 93
REMARK H PARENT 26 5 11 19 8 23 31 36 81 55 55 66
REMARK Flexibility Score: inf
ROOT
ATOM      1  C   UNL     1      -3.383   2.920   0.477  1.00  0.00     0.116 C 
ENDROOT
BRANCH   1   2
ATOM      2  N   UNL     1      -2.564   4.104   1.323  1.00  0.00    -0.352 N 
ATOM      3  C   UNL     1      -2.522   5.447   1.091  1.00  0.00     0.251 C 
ATOM      4  O   UNL     1      -1.734   6.184   1.666  1.00  0.00    -0.269 OA
ATOM      5  H   UNL     1      -2.039   3.789   2.095  1.00  0.00     0.163 HD
BRANCH   3   6
ATOM      6  C   UNL     1      -3.552   5.952   0.185  1.00  0.00     0.046 A 
ATOM      7  C   UNL     1      -4.059   5.157  -0.857  1.00  0.00    -0.001 A 
ATOM      8  C   UNL     1      -5.372   5.459  -1.270  1.00  0.00     0.007 A 
ATOM      9  C   UNL     1      -6.081   6.543  -0.722  1.00  0.00     0.000 A 
ATOM     10  C   UNL     1      -4.199   7.111   0.642  1.00  0.00     0.014 A 
ATOM     11  C   UNL     1      -5.473   7.405   0.186  1.00  0.00     0.001 A 
BRANCH   7  12
ATOM     12  C   UNL     1      -3.296   3.913  -1.424  1.00  0.00     0.197 C 
ATOM     13  N   UNL     1      -1.743   3.431  -0.581  1.00  0.00    -0.236 N 
ATOM     14  C   UNL     1      -1.776   2.053   0.494  1.00  0.00     0.252 C 
ATOM     15  O   UNL     1      -0.641   1.918   0.396  1.00  0.00    -0.272 OA
ATOM     16  C   UNL     1      -3.486   0.939   0.422  1.00  0.00     0.174 C 
ATOM     17  S   UNL     1      -4.862   2.174  -1.085  1.00  0.00    -0.120 SA
BRANCH  13  18
ATOM     18  N   UNL     1      -0.282   3.955  -0.813  1.00  0.00    -0.270 N 
ATOM     19  H   UNL     1      -0.194   4.709  -1.440  1.00  0.00     0.191 HD
BRANCH  18  20
ATOM     20  C   UNL     1       0.968   3.472  -0.222  1.00  0.00     0.189 C 
ATOM     21  S   UNL     1       2.202   4.627  -0.070  1.00  0.00    -0.039 S 
BRANCH  20  22
ATOM     22  N   UNL     1       1.332   2.141   0.271  1.00  0.00    -0.331 N 
ATOM     23  H   UNL     1       2.027   2.142   0.969  1.00  0.00     0.169 HD
BRANCH  22  24
ATOM     24  C   UNL     1       0.791   0.668  -0.132  1.00  0.00     0.043 A 
ATOM     25  C   UNL     1       2.701   0.496  -1.994  1.00  0.00     0.046 C 
ATOM     26  C   UNL     1       1.243   0.230  -1.752  1.00  0.00    -0.028 A 
ATOM     27  C   UNL     1       0.261  -0.907  -2.741  1.00  0.00     0.005 A 
ATOM     28  C   UNL     1      -1.202  -1.728  -2.064  1.00  0.00     0.000 A 
ATOM     29  C   UNL     1      -0.711  -0.167   0.611  1.00  0.00     0.026 A 
ATOM     30  C   UNL     1      -1.758  -1.292  -0.391  1.00  0.00     0.002 A 
ENDBRANCH  22  24
ENDBRANCH  20  22
ENDBRANCH  18  20
ENDBRANCH  13  18
ENDBRANCH   7  12
ENDBRANCH   3   6
ENDBRANCH   1   2
BRANCH   1  31
ATOM     31  C   UNL     1      -2.554   1.657  -1.159  1.00  0.00     0.023 C 
BRANCH  31  32
ATOM     32  C   UNL     1      -1.026   0.345  -1.415  1.00  0.00     0.023 C 
BRANCH  32  33
ATOM     33  C   UNL     1       0.235  -1.323  -0.685  1.00  0.00     0.116 C 
BRANCH  33  34
ATOM     34  N   UNL     1      -0.167  -2.812   0.013  1.00  0.00    -0.352 N 
ATOM     35  C   UNL     1       0.629  -3.951  -0.095  1.00  0.00     0.251 C 
ATOM     36  H   UNL     1      -1.007  -2.876   0.522  1.00  0.00     0.163 HD
ATOM     37  O   UNL     1       0.567  -4.789  -0.976  1.00  0.00    -0.269 OA
BRANCH  35  38
ATOM     38  C   UNL     1       1.524  -4.090   1.090  1.00  0.00     0.039 A 
ATOM     39  C   UNL     1       0.961  -4.771   2.179  1.00  0.00     0.014 A 
ATOM     40  C   UNL     1       2.258  -2.921   1.280  1.00  0.00     0.014 A 
ATOM     41  C   UNL     1       0.845  -4.104   3.392  1.00  0.00     0.010 A 
ATOM     42  C   UNL     1       1.954  -2.183   2.399  1.00  0.00     0.010 A 
ATOM     43  C   UNL     1       1.220  -2.766   3.440  1.00  0.00    -0.014 A 
BRANCH  43  44
ATOM     44  C   UNL     1       1.091  -1.919   4.607  1.00  0.00     0.031 A 
ATOM     45  C   UNL     1       2.335  -1.762   5.389  1.00  0.00     0.074 A 
ATOM     46  C   UNL     1      -0.050  -1.254   4.899  1.00  0.00     0.049 A 
ATOM     47  N   UNL     1       2.377  -1.306   6.586  1.00  0.00    -0.248 NA
ATOM     48  C   UNL     1       3.652  -2.187   4.895  1.00  0.00     0.031 C 
ATOM     49  C   UNL     1      -0.231  -0.192   5.887  1.00  0.00     0.029 A 
ATOM     50  N   UNL     1      -1.359  -1.577   4.505  1.00  0.00    -0.354 N 
ATOM     51  C   UNL     1       3.699  -1.089   6.886  1.00  0.00     0.074 A 
ATOM     52  C   UNL     1       4.452  -1.766   5.873  1.00  0.00     0.031 C 
ATOM     53  C   UNL     1      -1.520  -0.166   6.269  1.00  0.00     0.029 A 
ATOM     54  C   UNL     1      -2.172  -1.296   5.634  1.00  0.00     0.049 A 
ATOM     55  H   UNL     1      -1.651  -1.925   3.631  1.00  0.00     0.167 HD
ATOM     56  C   UNL     1       3.984  -0.221   7.886  1.00  0.00     0.037 A 
ATOM     57  C   UNL     1      -2.812  -2.301   6.303  1.00  0.00     0.037 A 
ATOM     58  C   UNL     1       2.796  -0.020   8.712  1.00  0.00     0.049 A 
ATOM     59  C   UNL     1      -2.328  -2.466   7.727  1.00  0.00     0.074 A 
ATOM     60  C   UNL     1       1.868   0.999   8.814  1.00  0.00     0.029 A 
ATOM     61  N   UNL     1       2.221  -1.140   9.314  1.00  0.00    -0.354 N 
ATOM     62  N   UNL     1      -1.193  -1.990   8.168  1.00  0.00    -0.248 NA
ATOM     63  C   UNL     1      -3.083  -3.155   8.769  1.00  0.00     0.031 C 
ATOM     64  C   UNL     1       0.672   0.434   9.348  1.00  0.00     0.029 A 
ATOM     65  C   UNL     1       0.897  -0.905   9.629  1.00  0.00     0.049 A 
ATOM     66  H   UNL     1       2.696  -1.984   9.490  1.00  0.00     0.167 HD
ATOM     67  C   UNL     1      -1.042  -2.306   9.494  1.00  0.00     0.074 A 
ATOM     68  C   UNL     1      -2.262  -3.021   9.826  1.00  0.00     0.031 C 
ATOM     69  C   UNL     1       0.074  -1.965  10.207  1.00  0.00     0.037 A 
BRANCH  56  70
ATOM     70  C   UNL     1       5.262   0.571   7.980  1.00  0.00     0.057 A 
ATOM     71  C   UNL     1       5.492   1.393   9.096  1.00  0.00     0.134 A 
ATOM     72  C   UNL     1       6.234   0.691   6.960  1.00  0.00     0.134 A 
ATOM     73  F   UNL     1       4.637   1.414  10.129  1.00  0.00    -0.206 F 
ATOM     74  C   UNL     1       6.595   2.254   9.191  1.00  0.00     0.040 A 
ATOM     75  C   UNL     1       7.367   1.506   7.066  1.00  0.00     0.040 A 
ATOM     76  F   UNL     1       6.114   0.085   5.773  1.00  0.00    -0.206 F 
ATOM     77  C   UNL     1       7.546   2.304   8.181  1.00  0.00     0.006 A 
ENDBRANCH  56  70
BRANCH  57  78
ATOM     78  C   UNL     1      -3.269  -3.375   5.376  1.00  0.00     0.057 A 
ATOM     79  C   UNL     1      -4.258  -3.032   4.432  1.00  0.00     0.134 A 
ATOM     80  C   UNL     1      -2.449  -4.463   5.065  1.00  0.00     0.134 A 
ATOM     81  F   UNL     1      -5.091  -2.008   4.675  1.00  0.00    -0.206 F 
ATOM     82  C   UNL     1      -4.306  -3.620   3.164  1.00  0.00     0.040 A 
ATOM     83  C   UNL     1      -2.499  -5.067   3.800  1.00  0.00     0.040 A 
ATOM     84  F   UNL     1      -1.489  -4.857   5.913  1.00  0.00    -0.206 F 
ATOM     85  C   UNL     1      -3.388  -4.608   2.828  1.00  0.00     0.006 A 
ENDBRANCH  57  78
BRANCH  69  86
ATOM     86  C   UNL     1       0.471  -2.552  11.548  1.00  0.00     0.057 A 
ATOM     87  C   UNL     1       0.058  -3.808  12.020  1.00  0.00     0.134 A 
ATOM     88  C   UNL     1       1.441  -1.910  12.354  1.00  0.00     0.134 A 
ATOM     89  F   UNL     1      -0.758  -4.596  11.309  1.00  0.00    -0.206 F 
ATOM     90  C   UNL     1       0.517  -4.349  13.230  1.00  0.00     0.040 A 
ATOM     91  C   UNL     1       1.958  -2.472  13.524  1.00  0.00     0.040 A 
ATOM     92  F   UNL     1       1.958  -0.717  12.024  1.00  0.00    -0.206 F 
ATOM     93  C   UNL     1       1.480  -3.689  13.980  1.00  0.00     0.006 A 
ENDBRANCH  69  86
ENDBRANCH  43  44
ENDBRANCH  35  38
ENDBRANCH  33  34
ENDBRANCH  32  33
ENDBRANCH  31  32
ENDBRANCH   1  31
TORSDOF 16
