REMARK SMILES Cc1nnc(SCCC(=O)NCCCCNC(=O)c2ccc(-c3c4nc(c(-c5c(F)cccc5F)c5ccc([nH]5)c(-c5c(F)cccc5F)c5nc(c(-c6c(F)cccc6F)c6ccc3[nH]6)C=C5)C=C4)cc2)s1
REMARK SMILES IDX 13 1 12 2 11 3 9 4 10 5 8 7 7 8 6 9 5 10 1 11 2 12 3 13
REMARK SMILES IDX 73 14 4 15 14 16 15 17 16 18 17 19 18 21 19 22 20 23 72 24
REMARK SMILES IDX 21 25 71 26 22 27 23 28 24 29 65 30 25 31 70 32 64 33 66 34
REMARK SMILES IDX 26 35 69 36 63 37 62 38 27 40 53 41 36 42 52 43 37 44 40 45
REMARK SMILES IDX 51 46 67 47 38 48 39 49 50 51 68 52 41 53 28 54 29 55 34 56
REMARK SMILES IDX 30 57 31 58 33 59 35 60 32 61 54 62 55 63 60 64 56 65 57 66
REMARK SMILES IDX 59 67 61 68 58 69 42 70 43 71 48 72 44 73 45 74 47 75 49 76
REMARK SMILES IDX 46 77
REMARK H PARENT 11 6 16 20 66 39 40 50
REMARK Flexibility Score: inf
ROOT
ATOM      1  C   UNL     1       1.738   1.667   1.090  1.00  0.00     0.023 C 
ENDROOT
BRANCH   1   2
ATOM      2  C   UNL     1       2.354   0.810   2.196  1.00  0.00     0.116 C 
BRANCH   2   3
ATOM      3  N   UNL     1       2.139  -0.614   2.023  1.00  0.00    -0.356 N 
ATOM      4  C   UNL     1       2.933  -1.558   1.445  1.00  0.00     0.220 C 
ATOM      5  O   UNL     1       2.653  -2.745   1.611  1.00  0.00    -0.275 OA
ATOM      6  H   UNL     1       1.286  -0.951   2.379  1.00  0.00     0.163 HD
BRANCH   4   7
ATOM      7  C   UNL     1       4.154  -1.147   0.658  1.00  0.00     0.111 C 
BRANCH   7   8
ATOM      8  C   UNL     1       4.131  -1.690  -0.771  1.00  0.00     0.087 C 
BRANCH   8   9
ATOM      9  S   UNL     1       3.258  -0.613  -1.960  1.00  0.00    -0.093 SA
BRANCH   9  10
ATOM     10  C   UNL     1       1.589  -1.078  -1.737  1.00  0.00     0.174 A 
ATOM     11  C   UNL     1      -2.223  -0.948  -1.370  1.00  0.00     0.081 C 
ATOM     12  C   UNL     1      -0.767  -1.214  -1.488  1.00  0.00     0.115 A 
ATOM     13  N   UNL     1      -0.146  -2.198  -0.875  1.00  0.00    -0.143 NA
ATOM     14  S   UNL     1       0.275  -0.178  -2.381  1.00  0.00    -0.091 S 
ATOM     15  N   UNL     1       1.222  -2.126  -1.037  1.00  0.00    -0.132 NA
ENDBRANCH   9  10
ENDBRANCH   8   9
ENDBRANCH   7   8
ENDBRANCH   4   7
ENDBRANCH   2   3
ENDBRANCH   1   2
BRANCH   1  16
ATOM     16  C   UNL     1       0.240   1.442   0.875  1.00  0.00     0.023 C 
BRANCH  16  17
ATOM     17  C   UNL     1      -0.659   1.890   2.018  1.00  0.00     0.116 C 
BRANCH  17  18
ATOM     18  N   UNL     1      -0.827   3.333   2.048  1.00  0.00    -0.352 N 
ATOM     19  C   UNL     1      -1.930   4.114   1.805  1.00  0.00     0.251 C 
ATOM     20  H   UNL     1      -0.012   3.835   2.281  1.00  0.00     0.163 HD
ATOM     21  O   UNL     1      -1.781   5.328   1.680  1.00  0.00    -0.269 OA
BRANCH  19  22
ATOM     22  C   UNL     1      -3.293   3.535   1.682  1.00  0.00     0.039 A 
ATOM     23  C   UNL     1      -4.203   4.146   0.810  1.00  0.00     0.014 A 
ATOM     24  C   UNL     1      -3.718   2.460   2.465  1.00  0.00     0.014 A 
ATOM     25  C   UNL     1      -5.512   3.663   0.702  1.00  0.00     0.010 A 
ATOM     26  C   UNL     1      -4.992   1.919   2.288  1.00  0.00     0.010 A 
ATOM     27  C   UNL     1      -5.914   2.531   1.427  1.00  0.00    -0.014 A 
BRANCH  27  28
ATOM     28  C   UNL     1      -7.306   2.012   1.353  1.00  0.00     0.031 A 
ATOM     29  C   UNL     1      -8.169   1.992   2.590  1.00  0.00     0.074 A 
ATOM     30  C   UNL     1      -7.784   1.507   0.200  1.00  0.00     0.049 A 
ATOM     31  N   UNL     1      -9.366   1.490   2.760  1.00  0.00    -0.248 NA
ATOM     32  C   UNL     1      -7.592   2.585   3.807  1.00  0.00     0.031 C 
ATOM     33  C   UNL     1      -7.048   1.431  -1.063  1.00  0.00     0.029 A 
ATOM     34  N   UNL     1      -9.006   0.954  -0.094  1.00  0.00    -0.354 N 
ATOM     35  C   UNL     1      -9.666   1.672   4.105  1.00  0.00     0.074 A 
ATOM     36  C   UNL     1      -8.509   2.289   4.715  1.00  0.00     0.031 C 
ATOM     37  C   UNL     1      -7.842   0.890  -2.002  1.00  0.00     0.029 A 
ATOM     38  C   UNL     1      -9.127   0.547  -1.400  1.00  0.00     0.049 A 
ATOM     39  H   UNL     1      -9.728   0.858   0.569  1.00  0.00     0.167 HD
ATOM     40  C   UNL     1     -10.808   1.374   4.770  1.00  0.00     0.037 A 
ATOM     41  C   UNL     1     -10.157  -0.039  -2.041  1.00  0.00     0.037 A 
ATOM     42  C   UNL     1     -11.982   0.816   4.154  1.00  0.00     0.049 A 
ATOM     43  C   UNL     1     -11.425  -0.333  -1.291  1.00  0.00     0.074 A 
ATOM     44  C   UNL     1     -13.215   0.554   4.726  1.00  0.00     0.029 A 
ATOM     45  N   UNL     1     -12.071   0.443   2.822  1.00  0.00    -0.354 N 
ATOM     46  N   UNL     1     -11.711  -0.109  -0.032  1.00  0.00    -0.248 NA
ATOM     47  C   UNL     1     -12.516  -0.959  -2.053  1.00  0.00     0.031 C 
ATOM     48  C   UNL     1     -14.042  -0.006   3.745  1.00  0.00     0.029 A 
ATOM     49  C   UNL     1     -13.333  -0.060   2.556  1.00  0.00     0.049 A 
ATOM     50  H   UNL     1     -11.344   0.524   2.163  1.00  0.00     0.167 HD
ATOM     51  C   UNL     1     -13.018  -0.544   0.145  1.00  0.00     0.074 A 
ATOM     52  C   UNL     1     -13.474  -1.034  -1.140  1.00  0.00     0.031 C 
ATOM     53  C   UNL     1     -13.773  -0.538   1.270  1.00  0.00     0.037 A 
BRANCH  40  54
ATOM     54  C   UNL     1     -10.840   1.654   6.245  1.00  0.00     0.057 A 
ATOM     55  C   UNL     1     -10.882   2.960   6.751  1.00  0.00     0.134 A 
ATOM     56  C   UNL     1     -10.845   0.603   7.170  1.00  0.00     0.134 A 
ATOM     57  F   UNL     1     -10.867   4.012   5.918  1.00  0.00    -0.206 F 
ATOM     58  C   UNL     1     -10.893   3.211   8.124  1.00  0.00     0.040 A 
ATOM     59  C   UNL     1     -10.883   0.841   8.545  1.00  0.00     0.040 A 
ATOM     60  F   UNL     1     -10.813  -0.672   6.754  1.00  0.00    -0.206 F 
ATOM     61  C   UNL     1     -10.899   2.149   9.026  1.00  0.00     0.006 A 
ENDBRANCH  40  54
BRANCH  41  62
ATOM     62  C   UNL     1     -10.041  -0.355  -3.486  1.00  0.00     0.057 A 
ATOM     63  C   UNL     1     -10.735   0.396  -4.442  1.00  0.00     0.134 A 
ATOM     64  C   UNL     1      -9.234  -1.401  -3.947  1.00  0.00     0.134 A 
ATOM     65  F   UNL     1     -11.539   1.399  -4.058  1.00  0.00    -0.206 F 
ATOM     66  C   UNL     1     -10.640   0.112  -5.804  1.00  0.00     0.040 A 
ATOM     67  C   UNL     1      -9.113  -1.684  -5.308  1.00  0.00     0.040 A 
ATOM     68  F   UNL     1      -8.538  -2.152  -3.080  1.00  0.00    -0.206 F 
ATOM     69  C   UNL     1      -9.821  -0.928  -6.241  1.00  0.00     0.006 A 
ENDBRANCH  41  62
BRANCH  53  70
ATOM     70  C   UNL     1     -15.177  -1.050   1.156  1.00  0.00     0.057 A 
ATOM     71  C   UNL     1     -15.456  -2.417   1.051  1.00  0.00     0.134 A 
ATOM     72  C   UNL     1     -16.263  -0.166   1.193  1.00  0.00     0.134 A 
ATOM     73  F   UNL     1     -14.459  -3.312   0.998  1.00  0.00    -0.206 F 
ATOM     74  C   UNL     1     -16.768  -2.888   0.968  1.00  0.00     0.040 A 
ATOM     75  C   UNL     1     -17.579  -0.626   1.133  1.00  0.00     0.040 A 
ATOM     76  F   UNL     1     -16.062   1.156   1.300  1.00  0.00    -0.206 F 
ATOM     77  C   UNL     1     -17.834  -1.991   1.015  1.00  0.00     0.006 A 
ENDBRANCH  53  70
ENDBRANCH  27  28
ENDBRANCH  19  22
ENDBRANCH  17  18
ENDBRANCH  16  17
ENDBRANCH   1  16
TORSDOF 14
