REMARK SMILES CC[C@@H]([NH3+])C(=O)NCCOCC(=O)NCCCCNC(=O)c1ccc(-c2c3nc(c(-c4c(F)cccc4F)c4ccc([nH]4)c(-c4c(F)cccc4F)c4nc(c(-c5c(F)cccc5F)c5ccc2[nH]5)C=C4)C=C3)cc1
REMARK SMILES IDX 12 1 13 2 14 3 11 5 10 6 9 7 8 8 7 9 5 10 6 11 3 13 2 14
REMARK SMILES IDX 1 15 4 16 15 20 16 21 17 22 18 23 19 24 20 25 21 27 22 28
REMARK SMILES IDX 23 29 75 30 24 31 74 32 25 33 26 34 27 35 68 36 28 37 73 38
REMARK SMILES IDX 67 39 69 40 29 41 72 42 66 43 65 44 30 46 56 47 39 48 55 49
REMARK SMILES IDX 40 50 43 51 54 52 70 53 41 54 42 55 53 57 71 58 44 59 31 60
REMARK SMILES IDX 32 61 37 62 33 63 34 64 36 65 38 66 35 67 57 68 58 69 63 70
REMARK SMILES IDX 59 71 60 72 62 73 64 74 61 75 45 76 46 77 51 78 47 79 48 80
REMARK SMILES IDX 50 81 52 82 49 83
REMARK H PARENT 14 4 7 12 4 17 4 18 4 19 19 26 69 45 43 56
REMARK Flexibility Score: inf
ROOT
ATOM      1  C   UNL     1      -2.007   3.991  -3.943  1.00  0.00     0.245 C 
ATOM      2  O   UNL     1      -0.778   4.003  -3.982  1.00  0.00    -0.272 OA
ATOM      3  N   UNL     1      -2.658   4.981  -3.265  1.00  0.00    -0.354 N 
ATOM      4  H   UNL     1      -2.091   5.676  -2.860  1.00  0.00     0.163 HD
ENDROOT
BRANCH   1   5
ATOM      5  C   UNL     1      -2.837   2.898  -4.624  1.00  0.00     0.260 C 
BRANCH   5   6
ATOM      6  O   UNL     1      -3.560   2.021  -3.773  1.00  0.00    -0.370 OA
BRANCH   6   7
ATOM      7  C   UNL     1      -2.772   1.345  -2.786  1.00  0.00     0.182 C 
BRANCH   7   8
ATOM      8  C   UNL     1      -1.979   0.152  -3.340  1.00  0.00     0.144 C 
BRANCH   8   9
ATOM      9  N   UNL     1      -0.779   0.550  -4.062  1.00  0.00    -0.349 N 
ATOM     10  C   UNL     1       0.534   0.515  -3.709  1.00  0.00     0.278 C 
ATOM     11  O   UNL     1       1.357   0.927  -4.532  1.00  0.00    -0.268 OA
ATOM     12  H   UNL     1      -0.948   0.906  -4.964  1.00  0.00     0.163 HD
BRANCH  10  13
ATOM     13  C   UNL     1       1.007  -0.100  -2.377  1.00  0.00     0.270 C 
BRANCH  13  14
ATOM     14  C   UNL     1       0.555   0.690  -1.144  1.00  0.00     0.072 C 
ATOM     15  C   UNL     1       1.081   0.111   0.165  1.00  0.00     0.011 C 
ENDBRANCH  13  14
BRANCH  13  16
ATOM     16  N   UNL     1       0.617  -1.526  -2.333  1.00  0.00    -0.347 N 
ATOM     17  H   UNL     1      -0.399  -1.602  -2.368  1.00  0.00     0.345 HD
ATOM     18  H   UNL     1       0.960  -1.946  -1.469  1.00  0.00     0.345 HD
ATOM     19  H   UNL     1       1.022  -2.014  -3.132  1.00  0.00     0.345 HD
ENDBRANCH  13  16
ENDBRANCH  10  13
ENDBRANCH   8   9
ENDBRANCH   7   8
ENDBRANCH   6   7
ENDBRANCH   5   6
ENDBRANCH   1   5
BRANCH   3  20
ATOM     20  C   UNL     1      -4.086   5.128  -3.073  1.00  0.00     0.116 C 
BRANCH  20  21
ATOM     21  C   UNL     1      -4.481   4.968  -1.608  1.00  0.00     0.023 C 
BRANCH  21  22
ATOM     22  C   UNL     1      -3.882   6.015  -0.666  1.00  0.00     0.023 C 
BRANCH  22  23
ATOM     23  C   UNL     1      -4.072   7.463  -1.101  1.00  0.00     0.116 C 
BRANCH  23  24
ATOM     24  N   UNL     1      -5.468   7.826  -1.275  1.00  0.00    -0.352 N 
ATOM     25  C   UNL     1      -6.117   8.972  -0.883  1.00  0.00     0.251 C 
ATOM     26  H   UNL     1      -6.025   7.160  -1.738  1.00  0.00     0.163 HD
ATOM     27  O   UNL     1      -7.333   9.062  -0.996  1.00  0.00    -0.269 OA
BRANCH  25  28
ATOM     28  C   UNL     1      -5.343  10.086  -0.293  1.00  0.00     0.039 A 
ATOM     29  C   UNL     1      -5.831  10.709   0.857  1.00  0.00     0.014 A 
ATOM     30  C   UNL     1      -4.142  10.509  -0.868  1.00  0.00     0.014 A 
ATOM     31  C   UNL     1      -5.089  11.728   1.459  1.00  0.00     0.010 A 
ATOM     32  C   UNL     1      -3.365  11.465  -0.221  1.00  0.00     0.010 A 
ATOM     33  C   UNL     1      -3.837  12.096   0.940  1.00  0.00    -0.014 A 
BRANCH  33  34
ATOM     34  C   UNL     1      -3.028  13.171   1.569  1.00  0.00     0.031 A 
ATOM     35  C   UNL     1      -2.724  14.427   0.798  1.00  0.00     0.074 A 
ATOM     36  C   UNL     1      -2.531  13.003   2.810  1.00  0.00     0.049 A 
ATOM     37  N   UNL     1      -1.979  15.448   1.138  1.00  0.00    -0.248 NA
ATOM     38  C   UNL     1      -3.314  14.538  -0.547  1.00  0.00     0.031 C 
ATOM     39  C   UNL     1      -2.716  11.814   3.645  1.00  0.00     0.029 A 
ATOM     40  N   UNL     1      -1.755  13.832   3.582  1.00  0.00    -0.354 N 
ATOM     41  C   UNL     1      -2.006  16.313   0.051  1.00  0.00     0.074 A 
ATOM     42  C   UNL     1      -2.782  15.669  -0.985  1.00  0.00     0.031 C 
ATOM     43  C   UNL     1      -2.088  11.999   4.818  1.00  0.00     0.029 A 
ATOM     44  C   UNL     1      -1.425  13.299   4.804  1.00  0.00     0.049 A 
ATOM     45  H   UNL     1      -1.464  14.725   3.287  1.00  0.00     0.167 HD
ATOM     46  C   UNL     1      -1.463  17.548  -0.064  1.00  0.00     0.037 A 
ATOM     47  C   UNL     1      -0.665  13.800   5.797  1.00  0.00     0.037 A 
ATOM     48  C   UNL     1      -0.707  18.197   0.974  1.00  0.00     0.049 A 
ATOM     49  C   UNL     1      -0.063  15.171   5.640  1.00  0.00     0.074 A 
ATOM     50  C   UNL     1      -0.135  19.457   0.965  1.00  0.00     0.029 A 
ATOM     51  N   UNL     1      -0.423  17.637   2.210  1.00  0.00    -0.354 N 
ATOM     52  N   UNL     1      -0.139  15.997   4.625  1.00  0.00    -0.248 NA
ATOM     53  C   UNL     1       0.719  15.685   6.774  1.00  0.00     0.031 C 
ATOM     54  C   UNL     1       0.528  19.645   2.181  1.00  0.00     0.029 A 
ATOM     55  C   UNL     1       0.321  18.525   2.969  1.00  0.00     0.049 A 
ATOM     56  H   UNL     1      -0.708  16.742   2.504  1.00  0.00     0.167 HD
ATOM     57  C   UNL     1       0.547  17.141   5.013  1.00  0.00     0.074 A 
ATOM     58  C   UNL     1       1.023  16.906   6.360  1.00  0.00     0.031 C 
ATOM     59  C   UNL     1       0.764  18.285   4.319  1.00  0.00     0.037 A 
BRANCH  46  60
ATOM     60  C   UNL     1      -1.683  18.285  -1.354  1.00  0.00     0.057 A 
ATOM     61  C   UNL     1      -2.947  18.772  -1.716  1.00  0.00     0.134 A 
ATOM     62  C   UNL     1      -0.619  18.547  -2.225  1.00  0.00     0.134 A 
ATOM     63  F   UNL     1      -4.013  18.544  -0.934  1.00  0.00    -0.206 F 
ATOM     64  C   UNL     1      -3.148  19.471  -2.907  1.00  0.00     0.040 A 
ATOM     65  C   UNL     1      -0.801  19.271  -3.405  1.00  0.00     0.040 A 
ATOM     66  F   UNL     1       0.619  18.114  -1.938  1.00  0.00    -0.206 F 
ATOM     67  C   UNL     1      -2.071  19.730  -3.751  1.00  0.00     0.006 A 
ENDBRANCH  46  60
BRANCH  47  68
ATOM     68  C   UNL     1      -0.436  13.013   7.037  1.00  0.00     0.057 A 
ATOM     69  C   UNL     1      -0.964  13.425   8.267  1.00  0.00     0.134 A 
ATOM     70  C   UNL     1       0.345  11.851   7.030  1.00  0.00     0.134 A 
ATOM     71  F   UNL     1      -1.707  14.539   8.344  1.00  0.00    -0.206 F 
ATOM     72  C   UNL     1      -0.694  12.732   9.449  1.00  0.00     0.040 A 
ATOM     73  C   UNL     1       0.598  11.132   8.199  1.00  0.00     0.040 A 
ATOM     74  F   UNL     1       0.872  11.396   5.883  1.00  0.00    -0.206 F 
ATOM     75  C   UNL     1       0.088  11.579   9.416  1.00  0.00     0.006 A 
ENDBRANCH  47  68
BRANCH  59  76
ATOM     76  C   UNL     1       1.490  19.394   5.024  1.00  0.00     0.057 A 
ATOM     77  C   UNL     1       2.855  19.322   5.326  1.00  0.00     0.134 A 
ATOM     78  C   UNL     1       0.811  20.569   5.377  1.00  0.00     0.134 A 
ATOM     79  F   UNL     1       3.561  18.221   5.025  1.00  0.00    -0.206 F 
ATOM     80  C   UNL     1       3.513  20.365   5.980  1.00  0.00     0.040 A 
ATOM     81  C   UNL     1       1.465  21.630   6.003  1.00  0.00     0.040 A 
ATOM     82  F   UNL     1      -0.495  20.709   5.107  1.00  0.00    -0.206 F 
ATOM     83  C   UNL     1       2.819  21.526   6.314  1.00  0.00     0.006 A 
ENDBRANCH  59  76
ENDBRANCH  33  34
ENDBRANCH  25  28
ENDBRANCH  23  24
ENDBRANCH  22  23
ENDBRANCH  21  22
ENDBRANCH  20  21
ENDBRANCH   3  20
TORSDOF 18
