REMARK SMILES C[C@@H](NC1=[NH+]CCC1)C(=O)NCCCCNC(=O)c1ccc(-c2c3nc(c(-c4c(F)cccc4F)c4ccc([nH]4)c(-c4c(F)cccc4F)c4nc(c(-c5c(F)cccc5F)c5ccc2[nH]5)C=C4)C=C3)cc1
REMARK SMILES IDX 14 1 13 2 12 3 11 4 9 5 10 6 2 8 1 9 3 10 4 11 5 13 8 14
REMARK SMILES IDX 6 15 7 17 15 18 16 19 17 20 18 22 19 23 20 24 72 25 21 26
REMARK SMILES IDX 71 27 22 28 23 29 24 30 65 31 25 32 70 33 64 34 66 35 26 36
REMARK SMILES IDX 69 37 63 38 62 39 27 41 53 42 36 43 52 44 37 45 40 46 51 47
REMARK SMILES IDX 67 48 38 49 39 50 50 52 68 53 41 54 28 55 29 56 34 57 30 58
REMARK SMILES IDX 31 59 33 60 35 61 32 62 54 63 55 64 60 65 56 66 57 67 59 68
REMARK SMILES IDX 61 69 58 70 42 71 43 72 48 73 44 74 45 75 47 76 49 77 46 78
REMARK H PARENT 11 7 3 12 5 16 16 21 66 40 40 51
REMARK Flexibility Score: inf
ROOT
ATOM      1  C   UNL     1      -2.766   2.597   1.631  1.00  0.00     0.023 C 
ENDROOT
BRANCH   1   2
ATOM      2  C   UNL     1      -1.283   2.251   1.505  1.00  0.00     0.023 C 
BRANCH   2   3
ATOM      3  C   UNL     1      -0.938   0.828   1.925  1.00  0.00     0.116 C 
BRANCH   3   4
ATOM      4  N   UNL     1      -1.504  -0.145   1.008  1.00  0.00    -0.352 N 
ATOM      5  C   UNL     1      -0.922  -1.223   0.407  1.00  0.00     0.264 C 
ATOM      6  O   UNL     1      -1.626  -1.903  -0.346  1.00  0.00    -0.270 OA
ATOM      7  H   UNL     1      -2.453  -0.006   0.785  1.00  0.00     0.163 HD
BRANCH   5   8
ATOM      8  C   UNL     1       0.561  -1.577   0.631  1.00  0.00     0.258 C 
ATOM      9  C   UNL     1       1.434  -0.588  -0.143  1.00  0.00     0.069 C 
BRANCH   8  10
ATOM     10  N   UNL     1       0.957  -1.607   2.037  1.00  0.00    -0.267 N 
ATOM     11  C   UNL     1       0.179  -1.910   3.113  1.00  0.00     0.243 C 
ATOM     12  H   UNL     1       1.896  -1.382   2.228  1.00  0.00     0.305 HD
ATOM     13  N   UNL     1       0.403  -1.312   4.248  1.00  0.00    -0.279 N 
ATOM     14  C   UNL     1      -0.957  -2.894   3.111  1.00  0.00     0.131 C 
ATOM     15  C   UNL     1      -0.668  -1.768   5.158  1.00  0.00     0.234 C 
ATOM     16  H   UNL     1       1.133  -0.687   4.457  1.00  0.00     0.304 HD
ATOM     17  C   UNL     1      -1.756  -2.322   4.257  1.00  0.00     0.058 C 
ENDBRANCH   8  10
ENDBRANCH   5   8
ENDBRANCH   3   4
ENDBRANCH   2   3
ENDBRANCH   1   2
BRANCH   1  18
ATOM     18  C   UNL     1      -3.353   2.409   3.026  1.00  0.00     0.116 C 
BRANCH  18  19
ATOM     19  N   UNL     1      -2.686   3.221   4.032  1.00  0.00    -0.352 N 
ATOM     20  C   UNL     1      -3.240   4.074   4.955  1.00  0.00     0.251 C 
ATOM     21  H   UNL     1      -1.705   3.149   4.055  1.00  0.00     0.163 HD
ATOM     22  O   UNL     1      -2.530   4.816   5.627  1.00  0.00    -0.269 OA
BRANCH  20  23
ATOM     23  C   UNL     1      -4.708   4.112   5.112  1.00  0.00     0.039 A 
ATOM     24  C   UNL     1      -5.358   5.348   5.116  1.00  0.00     0.014 A 
ATOM     25  C   UNL     1      -5.440   2.926   5.220  1.00  0.00     0.014 A 
ATOM     26  C   UNL     1      -6.752   5.391   5.157  1.00  0.00     0.010 A 
ATOM     27  C   UNL     1      -6.829   2.968   5.180  1.00  0.00     0.010 A 
ATOM     28  C   UNL     1      -7.499   4.201   5.149  1.00  0.00    -0.014 A 
BRANCH  28  29
ATOM     29  C   UNL     1      -8.983   4.225   5.103  1.00  0.00     0.031 A 
ATOM     30  C   UNL     1      -9.784   3.656   6.240  1.00  0.00     0.074 A 
ATOM     31  C   UNL     1      -9.608   4.700   4.008  1.00  0.00     0.049 A 
ATOM     32  N   UNL     1     -11.081   3.528   6.356  1.00  0.00    -0.248 NA
ATOM     33  C   UNL     1      -9.024   3.138   7.389  1.00  0.00     0.031 C 
ATOM     34  C   UNL     1      -8.944   5.232   2.816  1.00  0.00     0.029 A 
ATOM     35  N   UNL     1     -10.945   4.802   3.715  1.00  0.00    -0.354 N 
ATOM     36  C   UNL     1     -11.291   2.908   7.580  1.00  0.00     0.074 A 
ATOM     37  C   UNL     1      -9.988   2.630   8.143  1.00  0.00     0.031 C 
ATOM     38  C   UNL     1      -9.875   5.624   1.932  1.00  0.00     0.029 A 
ATOM     39  C   UNL     1     -11.199   5.336   2.474  1.00  0.00     0.049 A 
ATOM     40  H   UNL     1     -11.656   4.520   4.335  1.00  0.00     0.167 HD
ATOM     41  C   UNL     1     -12.464   2.620   8.194  1.00  0.00     0.037 A 
ATOM     42  C   UNL     1     -12.366   5.559   1.842  1.00  0.00     0.037 A 
ATOM     43  C   UNL     1     -13.759   2.911   7.638  1.00  0.00     0.049 A 
ATOM     44  C   UNL     1     -13.655   5.218   2.537  1.00  0.00     0.074 A 
ATOM     45  C   UNL     1     -15.005   2.705   8.203  1.00  0.00     0.029 A 
ATOM     46  N   UNL     1     -13.975   3.467   6.386  1.00  0.00    -0.354 N 
ATOM     47  N   UNL     1     -13.840   4.695   3.725  1.00  0.00    -0.248 NA
ATOM     48  C   UNL     1     -14.898   5.504   1.807  1.00  0.00     0.031 C 
ATOM     49  C   UNL     1     -15.976   3.091   7.273  1.00  0.00     0.029 A 
ATOM     50  C   UNL     1     -15.334   3.590   6.151  1.00  0.00     0.049 A 
ATOM     51  H   UNL     1     -13.266   3.735   5.757  1.00  0.00     0.167 HD
ATOM     52  C   UNL     1     -15.217   4.616   3.897  1.00  0.00     0.074 A 
ATOM     53  C   UNL     1     -15.818   5.159   2.696  1.00  0.00     0.031 C 
ATOM     54  C   UNL     1     -15.919   4.137   4.953  1.00  0.00     0.037 A 
BRANCH  41  55
ATOM     55  C   UNL     1     -12.394   1.958   9.541  1.00  0.00     0.057 A 
ATOM     56  C   UNL     1     -11.923   2.637  10.674  1.00  0.00     0.134 A 
ATOM     57  C   UNL     1     -12.826   0.638   9.714  1.00  0.00     0.134 A 
ATOM     58  F   UNL     1     -11.482   3.900  10.575  1.00  0.00    -0.206 F 
ATOM     59  C   UNL     1     -11.856   2.016  11.922  1.00  0.00     0.040 A 
ATOM     60  C   UNL     1     -12.793   0.016  10.964  1.00  0.00     0.040 A 
ATOM     61  F   UNL     1     -13.295  -0.069   8.674  1.00  0.00    -0.206 F 
ATOM     62  C   UNL     1     -12.299   0.704  12.071  1.00  0.00     0.006 A 
ENDBRANCH  41  55
BRANCH  42  63
ATOM     63  C   UNL     1     -12.372   6.152   0.480  1.00  0.00     0.057 A 
ATOM     64  C   UNL     1     -12.841   7.453   0.260  1.00  0.00     0.134 A 
ATOM     65  C   UNL     1     -11.915   5.435  -0.632  1.00  0.00     0.134 A 
ATOM     66  F   UNL     1     -13.308   8.184   1.282  1.00  0.00    -0.206 F 
ATOM     67  C   UNL     1     -12.876   8.011  -1.019  1.00  0.00     0.040 A 
ATOM     68  C   UNL     1     -11.918   5.991  -1.912  1.00  0.00     0.040 A 
ATOM     69  F   UNL     1     -11.444   4.188  -0.487  1.00  0.00    -0.206 F 
ATOM     70  C   UNL     1     -12.408   7.280  -2.109  1.00  0.00     0.006 A 
ENDBRANCH  42  63
BRANCH  54  71
ATOM     71  C   UNL     1     -17.416   4.212   4.874  1.00  0.00     0.057 A 
ATOM     72  C   UNL     1     -18.157   3.386   4.020  1.00  0.00     0.134 A 
ATOM     73  C   UNL     1     -18.128   5.097   5.695  1.00  0.00     0.134 A 
ATOM     74  F   UNL     1     -17.536   2.525   3.199  1.00  0.00    -0.206 F 
ATOM     75  C   UNL     1     -19.550   3.453   3.967  1.00  0.00     0.040 A 
ATOM     76  C   UNL     1     -19.522   5.153   5.672  1.00  0.00     0.040 A 
ATOM     77  F   UNL     1     -17.481   5.910   6.543  1.00  0.00    -0.206 F 
ATOM     78  C   UNL     1     -20.237   4.334   4.801  1.00  0.00     0.006 A 
ENDBRANCH  54  71
ENDBRANCH  28  29
ENDBRANCH  20  23
ENDBRANCH  18  19
ENDBRANCH   1  18
TORSDOF 12
