REMARK SMILES CN(C(=O)CC(=O)NCCCCNC(=O)c1ccc(-c2c3nc(c(-c4c(F)cccc4F)c4ccc([nH]4)c(-c4c(F)cccc4F)c4nc(c(-c5c(F)cccc5F)c5ccc2[nH]5)C=C4)C=C3)cc1)C1CCC(C)(C)CC1
REMARK SMILES IDX 10 1 9 2 8 3 6 4 7 5 5 7 3 8 4 9 2 10 1 11 70 12 71 13 77 14
REMARK SMILES IDX 72 15 76 16 73 17 74 18 75 19 11 20 12 21 13 22 14 23 15 25
REMARK SMILES IDX 16 26 17 27 69 28 18 29 68 30 19 31 20 32 21 33 62 34 22 35
REMARK SMILES IDX 67 36 61 37 63 38 23 39 66 40 60 41 59 42 24 44 50 45 33 46
REMARK SMILES IDX 49 47 34 48 37 49 48 50 64 51 35 52 36 53 47 55 65 56 38 57
REMARK SMILES IDX 25 58 26 59 31 60 27 61 28 62 30 63 32 64 29 65 51 66 52 67
REMARK SMILES IDX 57 68 53 69 54 70 56 71 58 72 55 73 39 74 40 75 45 76 41 77
REMARK SMILES IDX 42 78 44 79 46 80 43 81
REMARK H PARENT 8 6 13 24 63 43 37 54
REMARK Flexibility Score: inf
ROOT
ATOM      1  C   UNL     1       2.059  -0.069   4.434  1.00  0.00     0.023 C 
ENDROOT
BRANCH   1   2
ATOM      2  C   UNL     1       0.901   0.915   4.539  1.00  0.00     0.116 C 
BRANCH   2   3
ATOM      3  N   UNL     1       0.930   1.833   3.415  1.00  0.00    -0.356 N 
ATOM      4  C   UNL     1       0.286   1.730   2.216  1.00  0.00     0.229 C 
ATOM      5  O   UNL     1       0.624   2.502   1.315  1.00  0.00    -0.275 OA
ATOM      6  H   UNL     1       1.488   2.635   3.534  1.00  0.00     0.163 HD
BRANCH   4   7
ATOM      7  C   UNL     1      -0.850   0.755   2.021  1.00  0.00     0.200 C 
BRANCH   7   8
ATOM      8  C   UNL     1      -0.466  -0.698   1.831  1.00  0.00     0.231 C 
ATOM      9  O   UNL     1      -0.801  -1.486   2.718  1.00  0.00    -0.274 OA
BRANCH   8  10
ATOM     10  N   UNL     1       0.208  -1.102   0.682  1.00  0.00    -0.342 N 
ATOM     11  C   UNL     1       0.522  -0.161  -0.394  1.00  0.00     0.147 C 
BRANCH  10  12
ATOM     12  C   UNL     1       0.843  -2.450   0.543  1.00  0.00     0.084 C 
ATOM     13  C   UNL     1       2.184  -2.548   1.271  1.00  0.00     0.025 C 
ATOM     14  C   UNL     1      -0.029  -3.694   0.805  1.00  0.00     0.025 C 
ATOM     15  C   UNL     1       2.006  -2.872   2.742  1.00  0.00     0.008 C 
ATOM     16  C   UNL     1      -0.050  -4.274   2.228  1.00  0.00     0.008 C 
ATOM     17  C   UNL     1       1.258  -4.170   3.048  1.00  0.00    -0.035 C 
ATOM     18  C   UNL     1       0.899  -4.159   4.553  1.00  0.00     0.011 C 
ATOM     19  C   UNL     1       2.184  -5.366   2.787  1.00  0.00     0.011 C 
ENDBRANCH  10  12
ENDBRANCH   8  10
ENDBRANCH   7   8
ENDBRANCH   4   7
ENDBRANCH   2   3
ENDBRANCH   1   2
BRANCH   1  20
ATOM     20  C   UNL     1       3.416   0.403   4.926  1.00  0.00     0.023 C 
BRANCH  20  21
ATOM     21  C   UNL     1       3.509   0.627   6.424  1.00  0.00     0.116 C 
BRANCH  21  22
ATOM     22  N   UNL     1       3.256  -0.563   7.228  1.00  0.00    -0.352 N 
ATOM     23  C   UNL     1       3.962  -1.062   8.301  1.00  0.00     0.251 C 
ATOM     24  H   UNL     1       2.465  -1.087   6.965  1.00  0.00     0.163 HD
ATOM     25  O   UNL     1       3.625  -2.119   8.826  1.00  0.00    -0.269 OA
BRANCH  23  26
ATOM     26  C   UNL     1       5.165  -0.349   8.784  1.00  0.00     0.039 A 
ATOM     27  C   UNL     1       6.319  -1.081   9.076  1.00  0.00     0.014 A 
ATOM     28  C   UNL     1       5.179   1.042   8.878  1.00  0.00     0.014 A 
ATOM     29  C   UNL     1       7.513  -0.409   9.351  1.00  0.00     0.010 A 
ATOM     30  C   UNL     1       6.388   1.707   9.024  1.00  0.00     0.010 A 
ATOM     31  C   UNL     1       7.570   0.991   9.266  1.00  0.00    -0.014 A 
BRANCH  31  32
ATOM     32  C   UNL     1       8.841   1.741   9.433  1.00  0.00     0.031 A 
ATOM     33  C   UNL     1       8.954   2.789  10.507  1.00  0.00     0.074 A 
ATOM     34  C   UNL     1       9.854   1.557   8.564  1.00  0.00     0.049 A 
ATOM     35  N   UNL     1       9.918   3.644  10.733  1.00  0.00    -0.248 NA
ATOM     36  C   UNL     1       7.805   2.925  11.417  1.00  0.00     0.031 C 
ATOM     37  C   UNL     1       9.852   0.619   7.439  1.00  0.00     0.029 A 
ATOM     38  N   UNL     1      11.083   2.163   8.486  1.00  0.00    -0.354 N 
ATOM     39  C   UNL     1       9.473   4.441  11.781  1.00  0.00     0.074 A 
ATOM     40  C   UNL     1       8.130   4.010  12.101  1.00  0.00     0.031 C 
ATOM     41  C   UNL     1      11.038   0.681   6.812  1.00  0.00     0.029 A 
ATOM     42  C   UNL     1      11.867   1.691   7.462  1.00  0.00     0.049 A 
ATOM     43  H   UNL     1      11.375   2.870   9.107  1.00  0.00     0.167 HD
ATOM     44  C   UNL     1      10.133   5.422  12.441  1.00  0.00     0.037 A 
ATOM     45  C   UNL     1      13.115   2.033   7.092  1.00  0.00     0.037 A 
ATOM     46  C   UNL     1      11.488   5.810  12.161  1.00  0.00     0.049 A 
ATOM     47  C   UNL     1      13.842   3.102   7.856  1.00  0.00     0.074 A 
ATOM     48  C   UNL     1      12.277   6.734  12.822  1.00  0.00     0.029 A 
ATOM     49  N   UNL     1      12.260   5.283  11.136  1.00  0.00    -0.354 N 
ATOM     50  N   UNL     1      13.433   3.807   8.883  1.00  0.00    -0.248 NA
ATOM     51  C   UNL     1      15.206   3.422   7.411  1.00  0.00     0.031 C 
ATOM     52  C   UNL     1      13.519   6.787  12.179  1.00  0.00     0.029 A 
ATOM     53  C   UNL     1      13.514   5.871  11.139  1.00  0.00     0.049 A 
ATOM     54  H   UNL     1      11.961   4.593  10.500  1.00  0.00     0.167 HD
ATOM     55  C   UNL     1      14.495   4.634   9.224  1.00  0.00     0.074 A 
ATOM     56  C   UNL     1      15.570   4.337   8.299  1.00  0.00     0.031 C 
ATOM     57  C   UNL     1      14.573   5.556  10.215  1.00  0.00     0.037 A 
BRANCH  44  58
ATOM     58  C   UNL     1       9.387   6.126  13.537  1.00  0.00     0.057 A 
ATOM     59  C   UNL     1       9.054   5.482  14.737  1.00  0.00     0.134 A 
ATOM     60  C   UNL     1       8.982   7.458  13.386  1.00  0.00     0.134 A 
ATOM     61  F   UNL     1       9.398   4.200  14.938  1.00  0.00    -0.206 F 
ATOM     62  C   UNL     1       8.308   6.122  15.727  1.00  0.00     0.040 A 
ATOM     63  C   UNL     1       8.261   8.118  14.383  1.00  0.00     0.040 A 
ATOM     64  F   UNL     1       9.272   8.136  12.265  1.00  0.00    -0.206 F 
ATOM     65  C   UNL     1       7.912   7.446  15.552  1.00  0.00     0.006 A 
ENDBRANCH  44  58
BRANCH  45  66
ATOM     66  C   UNL     1      13.778   1.314   5.976  1.00  0.00     0.057 A 
ATOM     67  C   UNL     1      14.796   0.389   6.231  1.00  0.00     0.134 A 
ATOM     68  C   UNL     1      13.407   1.517   4.642  1.00  0.00     0.134 A 
ATOM     69  F   UNL     1      15.205   0.166   7.488  1.00  0.00    -0.206 F 
ATOM     70  C   UNL     1      15.432  -0.303   5.199  1.00  0.00     0.040 A 
ATOM     71  C   UNL     1      14.021   0.818   3.601  1.00  0.00     0.040 A 
ATOM     72  F   UNL     1      12.433   2.385   4.334  1.00  0.00    -0.206 F 
ATOM     73  C   UNL     1      15.040  -0.092   3.878  1.00  0.00     0.006 A 
ENDBRANCH  45  66
BRANCH  57  74
ATOM     74  C   UNL     1      15.874   6.282  10.371  1.00  0.00     0.057 A 
ATOM     75  C   UNL     1      16.266   7.292   9.484  1.00  0.00     0.134 A 
ATOM     76  C   UNL     1      16.724   5.997  11.447  1.00  0.00     0.134 A 
ATOM     77  F   UNL     1      15.502   7.601   8.426  1.00  0.00    -0.206 F 
ATOM     78  C   UNL     1      17.468   7.981   9.652  1.00  0.00     0.040 A 
ATOM     79  C   UNL     1      17.916   6.694  11.639  1.00  0.00     0.040 A 
ATOM     80  F   UNL     1      16.401   5.045  12.336  1.00  0.00    -0.206 F 
ATOM     81  C   UNL     1      18.293   7.687  10.736  1.00  0.00     0.006 A 
ENDBRANCH  57  74
ENDBRANCH  31  32
ENDBRANCH  23  26
ENDBRANCH  21  22
ENDBRANCH  20  21
ENDBRANCH   1  20
TORSDOF 14
