REMARK SMILES N#Cc1cccc(C(=O)N2CCC(CC(=O)NCCCCNC(=O)c3ccc(-c4c5nc(c(-c6c(F)cccc6F)c6ccc([nH]6)c(-c6c(F)cccc6F)c6nc(c(-c7c(F)cccc7F)c7ccc4[nH]7)C=C6)C=C5)cc3)CC2)c1
REMARK SMILES IDX 19 1 18 2 17 3 15 4 16 5 14 7 13 8 8 9 9 10 10 11 11 12
REMARK SMILES IDX 80 13 12 14 79 15 7 16 3 17 4 18 81 19 5 20 6 21 2 22 1 23
REMARK SMILES IDX 20 24 21 25 22 26 23 27 24 29 25 30 26 31 78 32 27 33 77 34
REMARK SMILES IDX 28 35 29 36 30 37 71 38 31 39 76 40 70 41 72 42 32 43 75 44
REMARK SMILES IDX 69 45 68 46 33 48 59 49 42 50 58 51 43 52 46 53 57 54 73 55
REMARK SMILES IDX 44 56 45 57 56 59 74 60 47 61 34 62 35 63 40 64 36 65 37 66
REMARK SMILES IDX 39 67 41 68 38 69 60 70 61 71 66 72 62 73 63 74 65 75 67 76
REMARK SMILES IDX 64 77 48 78 49 79 54 80 50 81 51 82 53 83 55 84 52 85
REMARK H PARENT 17 6 22 28 72 47 46 58
REMARK Flexibility Score: inf
ROOT
ATOM      1  C   UNL     1       2.948  -6.434   3.392  1.00  0.00     0.023 C 
ENDROOT
BRANCH   1   2
ATOM      2  C   UNL     1       3.367  -7.539   2.405  1.00  0.00     0.116 C 
BRANCH   2   3
ATOM      3  N   UNL     1       2.292  -8.488   2.152  1.00  0.00    -0.356 N 
ATOM      4  C   UNL     1       1.488  -8.680   1.063  1.00  0.00     0.220 C 
ATOM      5  O   UNL     1       0.632  -9.564   1.140  1.00  0.00    -0.275 OA
ATOM      6  H   UNL     1       2.112  -9.102   2.900  1.00  0.00     0.163 HD
BRANCH   4   7
ATOM      7  C   UNL     1       1.625  -7.843  -0.213  1.00  0.00     0.103 C 
BRANCH   7   8
ATOM      8  C   UNL     1       0.834  -6.510  -0.218  1.00  0.00     0.002 C 
ATOM      9  C   UNL     1       1.974  -2.564  -0.293  1.00  0.00     0.253 C 
ATOM     10  O   UNL     1       3.187  -2.728  -0.239  1.00  0.00    -0.269 OA
ATOM     11  N   UNL     1       1.066  -3.602  -0.236  1.00  0.00    -0.339 N 
ATOM     12  C   UNL     1       0.826  -4.239   1.028  1.00  0.00     0.120 C 
ATOM     13  C   UNL     1       0.536  -4.267  -1.415  1.00  0.00     0.120 C 
ATOM     14  C   UNL     1       1.275  -5.670   0.964  1.00  0.00     0.026 C 
ATOM     15  C   UNL     1       1.021  -5.720  -1.526  1.00  0.00     0.026 C 
BRANCH   9  16
ATOM     16  C   UNL     1       1.363  -1.202  -0.243  1.00  0.00     0.041 A 
ATOM     17  C   UNL     1      -0.601   0.220  -0.097  1.00  0.00     0.053 A 
ATOM     18  C   UNL     1       0.222   1.346  -0.036  1.00  0.00     0.019 A 
ATOM     19  C   UNL     1      -0.029  -1.048  -0.201  1.00  0.00     0.033 A 
ATOM     20  C   UNL     1       1.612   1.200  -0.072  1.00  0.00     0.002 A 
ATOM     21  C   UNL     1       2.184  -0.071  -0.173  1.00  0.00     0.014 A 
BRANCH  17  22
ATOM     22  C   UNL     1      -2.026   0.337  -0.041  1.00  0.00     0.099 C 
ATOM     23  N   UNL     1      -3.187   0.391   0.006  1.00  0.00    -0.192 NA
ENDBRANCH  17  22
ENDBRANCH   9  16
ENDBRANCH   7   8
ENDBRANCH   4   7
ENDBRANCH   2   3
ENDBRANCH   1   2
BRANCH   1  24
ATOM     24  C   UNL     1       3.064  -6.777   4.860  1.00  0.00     0.023 C 
BRANCH  24  25
ATOM     25  C   UNL     1       4.491  -6.942   5.310  1.00  0.00     0.116 C 
BRANCH  25  26
ATOM     26  N   UNL     1       5.292  -5.738   5.111  1.00  0.00    -0.352 N 
ATOM     27  C   UNL     1       6.134  -5.128   6.010  1.00  0.00     0.251 C 
ATOM     28  H   UNL     1       5.221  -5.312   4.227  1.00  0.00     0.163 HD
ATOM     29  O   UNL     1       6.629  -4.033   5.778  1.00  0.00    -0.269 OA
BRANCH  27  30
ATOM     30  C   UNL     1       6.386  -5.820   7.285  1.00  0.00     0.039 A 
ATOM     31  C   UNL     1       6.240  -5.119   8.480  1.00  0.00     0.014 A 
ATOM     32  C   UNL     1       6.629  -7.196   7.282  1.00  0.00     0.014 A 
ATOM     33  C   UNL     1       6.271  -5.824   9.681  1.00  0.00     0.010 A 
ATOM     34  C   UNL     1       6.504  -7.908   8.460  1.00  0.00     0.010 A 
ATOM     35  C   UNL     1       6.356  -7.228   9.676  1.00  0.00    -0.014 A 
BRANCH  35  36
ATOM     36  C   UNL     1       6.336  -8.005  10.936  1.00  0.00     0.031 A 
ATOM     37  C   UNL     1       7.508  -8.881  11.284  1.00  0.00     0.074 A 
ATOM     38  C   UNL     1       5.254  -7.956  11.736  1.00  0.00     0.049 A 
ATOM     39  N   UNL     1       7.677  -9.660  12.320  1.00  0.00    -0.248 NA
ATOM     40  C   UNL     1       8.626  -8.915  10.324  1.00  0.00     0.031 C 
ATOM     41  C   UNL     1       4.035  -7.188  11.473  1.00  0.00     0.029 A 
ATOM     42  N   UNL     1       5.007  -8.565  12.940  1.00  0.00    -0.354 N 
ATOM     43  C   UNL     1       8.908 -10.274  12.130  1.00  0.00     0.074 A 
ATOM     44  C   UNL     1       9.405  -9.849  10.843  1.00  0.00     0.031 C 
ATOM     45  C   UNL     1       3.191  -7.334  12.507  1.00  0.00     0.029 A 
ATOM     46  C   UNL     1       3.786  -8.244  13.479  1.00  0.00     0.049 A 
ATOM     47  H   UNL     1       5.646  -9.175  13.376  1.00  0.00     0.167 HD
ATOM     48  C   UNL     1       9.583 -11.091  12.970  1.00  0.00     0.037 A 
ATOM     49  C   UNL     1       3.211  -8.645  14.629  1.00  0.00     0.037 A 
ATOM     50  C   UNL     1       9.087 -11.499  14.256  1.00  0.00     0.049 A 
ATOM     51  C   UNL     1       3.970  -9.579  15.532  1.00  0.00     0.074 A 
ATOM     52  C   UNL     1       9.707 -12.289  15.206  1.00  0.00     0.029 A 
ATOM     53  N   UNL     1       7.843 -11.156  14.767  1.00  0.00    -0.354 N 
ATOM     54  N   UNL     1       5.165 -10.095  15.375  1.00  0.00    -0.248 NA
ATOM     55  C   UNL     1       3.303  -9.979  16.777  1.00  0.00     0.031 C 
ATOM     56  C   UNL     1       8.812 -12.480  16.262  1.00  0.00     0.029 A 
ATOM     57  C   UNL     1       7.667 -11.743  16.008  1.00  0.00     0.049 A 
ATOM     58  H   UNL     1       7.185 -10.580  14.314  1.00  0.00     0.167 HD
ATOM     59  C   UNL     1       5.409 -10.847  16.517  1.00  0.00     0.074 A 
ATOM     60  C   UNL     1       4.242 -10.707  17.363  1.00  0.00     0.031 C 
ATOM     61  C   UNL     1       6.501 -11.583  16.841  1.00  0.00     0.037 A 
BRANCH  48  62
ATOM     62  C   UNL     1      10.924 -11.595  12.519  1.00  0.00     0.057 A 
ATOM     63  C   UNL     1      12.024 -10.741  12.357  1.00  0.00     0.134 A 
ATOM     64  C   UNL     1      11.125 -12.957  12.264  1.00  0.00     0.134 A 
ATOM     65  F   UNL     1      11.899  -9.421  12.567  1.00  0.00    -0.206 F 
ATOM     66  C   UNL     1      13.264 -11.217  11.930  1.00  0.00     0.040 A 
ATOM     67  C   UNL     1      12.370 -13.451  11.872  1.00  0.00     0.040 A 
ATOM     68  F   UNL     1      10.118 -13.833  12.400  1.00  0.00    -0.206 F 
ATOM     69  C   UNL     1      13.442 -12.579  11.695  1.00  0.00     0.006 A 
ENDBRANCH  48  62
BRANCH  49  70
ATOM     70  C   UNL     1       1.859  -8.153  15.002  1.00  0.00     0.057 A 
ATOM     71  C   UNL     1       1.671  -7.319  16.111  1.00  0.00     0.134 A 
ATOM     72  C   UNL     1       0.721  -8.521  14.275  1.00  0.00     0.134 A 
ATOM     73  F   UNL     1       2.719  -6.941  16.858  1.00  0.00    -0.206 F 
ATOM     74  C   UNL     1       0.399  -6.896  16.502  1.00  0.00     0.040 A 
ATOM     75  C   UNL     1      -0.553  -8.079  14.634  1.00  0.00     0.040 A 
ATOM     76  F   UNL     1       0.832  -9.307  13.194  1.00  0.00    -0.206 F 
ATOM     77  C   UNL     1      -0.718  -7.273  15.759  1.00  0.00     0.006 A 
ENDBRANCH  49  70
BRANCH  61  78
ATOM     78  C   UNL     1       6.513 -12.244  18.190  1.00  0.00     0.057 A 
ATOM     79  C   UNL     1       5.666 -13.312  18.510  1.00  0.00     0.134 A 
ATOM     80  C   UNL     1       7.420 -11.823  19.174  1.00  0.00     0.134 A 
ATOM     81  F   UNL     1       4.769 -13.759  17.618  1.00  0.00    -0.206 F 
ATOM     82  C   UNL     1       5.694 -13.913  19.769  1.00  0.00     0.040 A 
ATOM     83  C   UNL     1       7.484 -12.441  20.422  1.00  0.00     0.040 A 
ATOM     84  F   UNL     1       8.271 -10.815  18.930  1.00  0.00    -0.206 F 
ATOM     85  C   UNL     1       6.611 -13.482  20.727  1.00  0.00     0.006 A 
ENDBRANCH  61  78
ENDBRANCH  35  36
ENDBRANCH  27  30
ENDBRANCH  25  26
ENDBRANCH  24  25
ENDBRANCH   1  24
TORSDOF 14
