REMARK SMILES O=C(CSc1ccc2ccccc2n1)NCc1ccc(C(=O)NCCCCNC(=O)c2ccc(-c3c4nc(c(-c5c(F)cccc5F)c5ccc([nH]5)c(-c5c(F)cccc5F)c5nc(c(-c6c(F)cccc6F)c6ccc3[nH]6)C=C5)C=C4)cc2)cc1
REMARK SMILES IDX 24 1 23 2 21 3 22 4 20 6 17 7 18 8 86 9 19 10 85 11 16 12
REMARK SMILES IDX 15 13 1 14 2 15 3 17 4 18 5 19 6 20 14 21 7 22 13 23 8 24
REMARK SMILES IDX 12 25 9 26 11 27 10 28 25 29 26 30 27 31 28 32 29 33 30 35
REMARK SMILES IDX 31 36 32 37 84 38 33 39 83 40 34 41 35 42 36 43 77 44 37 45
REMARK SMILES IDX 82 46 76 47 78 48 38 49 81 50 75 51 74 52 39 54 65 55 48 56
REMARK SMILES IDX 64 57 49 58 52 59 63 60 79 61 50 62 51 63 62 65 80 66 53 67
REMARK SMILES IDX 40 68 41 69 46 70 42 71 43 72 45 73 47 74 44 75 66 76 67 77
REMARK SMILES IDX 72 78 68 79 69 80 71 81 73 82 70 83 54 84 55 85 60 86 56 87
REMARK SMILES IDX 57 88 59 89 61 90 58 91
REMARK H PARENT 23 5 15 16 28 34 78 53 52 64
REMARK Flexibility Score: inf
ROOT
ATOM      1  C   UNL     1       1.696   4.775  -5.639  1.00  0.00     0.116 C 
ENDROOT
BRANCH   1   2
ATOM      2  N   UNL     1       2.798   4.217  -6.399  1.00  0.00    -0.352 N 
ATOM      3  C   UNL     1       3.495   3.042  -6.266  1.00  0.00     0.251 C 
ATOM      4  O   UNL     1       4.357   2.788  -7.108  1.00  0.00    -0.269 OA
ATOM      5  H   UNL     1       3.101   4.783  -7.146  1.00  0.00     0.163 HD
BRANCH   3   6
ATOM      6  C   UNL     1       3.225   2.051  -5.186  1.00  0.00     0.039 A 
ATOM      7  C   UNL     1       2.749   0.046  -3.245  1.00  0.00    -0.029 A 
ATOM      8  C   UNL     1       3.232  -0.292  -4.514  1.00  0.00     0.006 A 
ATOM      9  C   UNL     1       2.520   1.398  -2.958  1.00  0.00     0.006 A 
ATOM     10  C   UNL     1       3.467   0.700  -5.474  1.00  0.00     0.014 A 
ATOM     11  C   UNL     1       2.790   2.389  -3.905  1.00  0.00     0.014 A 
BRANCH   7  12
ATOM     12  C   UNL     1       2.440  -1.020  -2.222  1.00  0.00     0.151 C 
BRANCH  12  13
ATOM     13  N   UNL     1       3.021  -0.700  -0.936  1.00  0.00    -0.351 N 
ATOM     14  O   UNL     1       1.065  -0.029   0.056  1.00  0.00    -0.274 OA
ATOM     15  C   UNL     1       2.280  -0.206   0.111  1.00  0.00     0.230 C 
ATOM     16  H   UNL     1       3.987  -0.841  -0.806  1.00  0.00     0.163 HD
BRANCH  15  17
ATOM     17  C   UNL     1       3.084   0.228   1.321  1.00  0.00     0.176 C 
BRANCH  17  18
ATOM     18  S   UNL     1       4.175  -1.079   1.950  1.00  0.00    -0.096 SA
BRANCH  18  19
ATOM     19  C   UNL     1       3.044  -2.427   2.229  1.00  0.00     0.097 A 
ATOM     20  C   UNL     1       1.739  -2.260   2.667  1.00  0.00     0.036 A 
ATOM     21  N   UNL     1       3.585  -3.647   2.014  1.00  0.00    -0.241 NA
ATOM     22  C   UNL     1       0.954  -3.391   2.878  1.00  0.00     0.013 A 
ATOM     23  C   UNL     1       2.836  -4.740   2.239  1.00  0.00     0.072 A 
ATOM     24  C   UNL     1       1.498  -4.662   2.673  1.00  0.00     0.000 A 
ATOM     25  C   UNL     1       3.389  -5.999   2.048  1.00  0.00     0.029 A 
ATOM     26  C   UNL     1       0.753  -5.833   2.897  1.00  0.00     0.010 A 
ATOM     27  C   UNL     1       2.656  -7.167   2.277  1.00  0.00     0.002 A 
ATOM     28  C   UNL     1       1.335  -7.083   2.701  1.00  0.00     0.001 A 
ENDBRANCH  18  19
ENDBRANCH  17  18
ENDBRANCH  15  17
ENDBRANCH  12  13
ENDBRANCH   7  12
ENDBRANCH   3   6
ENDBRANCH   1   2
BRANCH   1  29
ATOM     29  C   UNL     1       2.198   5.815  -4.633  1.00  0.00     0.023 C 
BRANCH  29  30
ATOM     30  C   UNL     1       2.540   7.174  -5.247  1.00  0.00     0.023 C 
BRANCH  30  31
ATOM     31  C   UNL     1       1.348   7.933  -5.816  1.00  0.00     0.116 C 
BRANCH  31  32
ATOM     32  N   UNL     1       0.332   8.241  -4.822  1.00  0.00    -0.352 N 
ATOM     33  C   UNL     1      -0.537   9.309  -4.802  1.00  0.00     0.251 C 
ATOM     34  H   UNL     1       0.255   7.608  -4.071  1.00  0.00     0.163 HD
ATOM     35  O   UNL     1      -1.281   9.498  -3.853  1.00  0.00    -0.269 OA
BRANCH  33  36
ATOM     36  C   UNL     1      -0.516  10.254  -5.937  1.00  0.00     0.039 A 
ATOM     37  C   UNL     1      -0.322  11.613  -5.679  1.00  0.00     0.014 A 
ATOM     38  C   UNL     1      -0.620   9.783  -7.247  1.00  0.00     0.014 A 
ATOM     39  C   UNL     1      -0.153  12.497  -6.747  1.00  0.00     0.010 A 
ATOM     40  C   UNL     1      -0.392  10.653  -8.306  1.00  0.00     0.010 A 
ATOM     41  C   UNL     1      -0.147  12.015  -8.065  1.00  0.00    -0.014 A 
BRANCH  41  42
ATOM     42  C   UNL     1       0.118  12.905  -9.221  1.00  0.00     0.031 A 
ATOM     43  C   UNL     1      -0.957  13.133 -10.243  1.00  0.00     0.074 A 
ATOM     44  C   UNL     1       1.351  13.414  -9.405  1.00  0.00     0.049 A 
ATOM     45  N   UNL     1      -0.880  13.725 -11.406  1.00  0.00    -0.248 NA
ATOM     46  C   UNL     1      -2.289  12.593  -9.926  1.00  0.00     0.031 C 
ATOM     47  C   UNL     1       2.488  13.236  -8.499  1.00  0.00     0.029 A 
ATOM     48  N   UNL     1       1.861  14.165 -10.434  1.00  0.00    -0.354 N 
ATOM     49  C   UNL     1      -2.142  13.603 -11.972  1.00  0.00     0.074 A 
ATOM     50  C   UNL     1      -2.956  12.852 -11.041  1.00  0.00     0.031 C 
ATOM     51  C   UNL     1       3.559  13.864  -9.010  1.00  0.00     0.029 A 
ATOM     52  C   UNL     1       3.198  14.451 -10.297  1.00  0.00     0.049 A 
ATOM     53  H   UNL     1       1.320  14.471 -11.198  1.00  0.00     0.167 HD
ATOM     54  C   UNL     1      -2.585  14.087 -13.156  1.00  0.00     0.037 A 
ATOM     55  C   UNL     1       4.040  15.097 -11.125  1.00  0.00     0.037 A 
ATOM     56  C   UNL     1      -1.783  14.864 -14.062  1.00  0.00     0.049 A 
ATOM     57  C   UNL     1       3.523  15.627 -12.433  1.00  0.00     0.074 A 
ATOM     58  C   UNL     1      -2.157  15.451 -15.258  1.00  0.00     0.029 A 
ATOM     59  N   UNL     1      -0.444  15.168 -13.867  1.00  0.00    -0.354 N 
ATOM     60  N   UNL     1       2.316  15.545 -12.938  1.00  0.00    -0.248 NA
ATOM     61  C   UNL     1       4.485  16.339 -13.288  1.00  0.00     0.031 C 
ATOM     62  C   UNL     1      -1.035  16.085 -15.803  1.00  0.00     0.029 A 
ATOM     63  C   UNL     1       0.027  15.923 -14.927  1.00  0.00     0.049 A 
ATOM     64  H   UNL     1       0.092  14.887 -13.090  1.00  0.00     0.167 HD
ATOM     65  C   UNL     1       2.364  16.219 -14.150  1.00  0.00     0.074 A 
ATOM     66  C   UNL     1       3.719  16.707 -14.307  1.00  0.00     0.031 C 
ATOM     67  C   UNL     1       1.373  16.418 -15.053  1.00  0.00     0.037 A 
BRANCH  54  68
ATOM     68  C   UNL     1      -4.004  13.788 -13.536  1.00  0.00     0.057 A 
ATOM     69  C   UNL     1      -5.085  14.407 -12.895  1.00  0.00     0.134 A 
ATOM     70  C   UNL     1      -4.292  12.894 -14.574  1.00  0.00     0.134 A 
ATOM     71  F   UNL     1      -4.875  15.263 -11.883  1.00  0.00    -0.206 F 
ATOM     72  C   UNL     1      -6.403  14.127 -13.256  1.00  0.00     0.040 A 
ATOM     73  C   UNL     1      -5.606  12.625 -14.961  1.00  0.00     0.040 A 
ATOM     74  F   UNL     1      -3.303  12.271 -15.232  1.00  0.00    -0.206 F 
ATOM     75  C   UNL     1      -6.666  13.239 -14.296  1.00  0.00     0.006 A 
ENDBRANCH  54  68
BRANCH  55  76
ATOM     76  C   UNL     1       5.459  15.289 -10.738  1.00  0.00     0.057 A 
ATOM     77  C   UNL     1       5.939  16.552 -10.372  1.00  0.00     0.134 A 
ATOM     78  C   UNL     1       6.368  14.225 -10.726  1.00  0.00     0.134 A 
ATOM     79  F   UNL     1       5.119  17.613 -10.383  1.00  0.00    -0.206 F 
ATOM     80  C   UNL     1       7.274  16.754 -10.021  1.00  0.00     0.040 A 
ATOM     81  C   UNL     1       7.702  14.408 -10.357  1.00  0.00     0.040 A 
ATOM     82  F   UNL     1       5.968  12.989 -11.060  1.00  0.00    -0.206 F 
ATOM     83  C   UNL     1       8.159  15.677 -10.009  1.00  0.00     0.006 A 
ENDBRANCH  55  76
BRANCH  67  84
ATOM     84  C   UNL     1       1.698  17.236 -16.265  1.00  0.00     0.057 A 
ATOM     85  C   UNL     1       2.432  16.711 -17.334  1.00  0.00     0.134 A 
ATOM     86  C   UNL     1       1.209  18.543 -16.390  1.00  0.00     0.134 A 
ATOM     87  F   UNL     1       2.937  15.470 -17.268  1.00  0.00    -0.206 F 
ATOM     88  C   UNL     1       2.677  17.461 -18.485  1.00  0.00     0.040 A 
ATOM     89  C   UNL     1       1.429  19.295 -17.544  1.00  0.00     0.040 A 
ATOM     90  F   UNL     1       0.492  19.099 -15.402  1.00  0.00    -0.206 F 
ATOM     91  C   UNL     1       2.167  18.754 -18.595  1.00  0.00     0.006 A 
ENDBRANCH  67  84
ENDBRANCH  41  42
ENDBRANCH  33  36
ENDBRANCH  31  32
ENDBRANCH  30  31
ENDBRANCH  29  30
ENDBRANCH   1  29
TORSDOF 16
