REMARK SMILES COc1ccc([C@H]2CC(c3ccc(S(C)(=O)=O)cc3)=NN2c2ccc(C(=O)NCCCCNC(=O)c3ccc(-c4c5nc(c(-c6c(F)cccc6F)c6ccc([nH]6)c(-c6c(F)cccc6F)c6nc(c(-c7c(F)cccc7F)c7ccc4[nH]7)C=C6)C=C5)cc3)cc2)cc1
REMARK SMILES IDX 30 1 29 2 28 3 26 4 27 5 25 7 22 8 23 9 91 10 24 11 90 12
REMARK SMILES IDX 21 13 7 14 8 15 9 16 20 17 6 18 3 19 4 20 93 21 5 22 92 23
REMARK SMILES IDX 2 24 1 25 10 26 11 27 19 28 12 29 18 30 13 31 14 32 15 33
REMARK SMILES IDX 16 34 17 35 31 36 32 37 33 38 34 39 35 41 36 42 37 43 89 44
REMARK SMILES IDX 38 45 88 46 39 47 40 48 41 49 82 50 42 51 87 52 81 53 83 54
REMARK SMILES IDX 43 55 86 56 80 57 79 58 44 60 70 61 53 62 69 63 54 64 57 65
REMARK SMILES IDX 68 66 84 67 55 68 56 69 67 71 85 72 58 73 45 74 46 75 51 76
REMARK SMILES IDX 47 77 48 78 50 79 52 80 49 81 71 82 72 83 77 84 73 85 74 86
REMARK SMILES IDX 76 87 78 88 75 89 59 90 60 91 65 92 61 93 62 94 64 95 66 96
REMARK SMILES IDX 63 97
REMARK H PARENT 28 6 33 40 83 59 57 70
REMARK Flexibility Score: inf
ROOT
ATOM      1  C   UNL     1       0.353   2.952  -9.897  1.00  0.00     0.023 C 
ENDROOT
BRANCH   1   2
ATOM      2  C   UNL     1       0.297   1.979  -8.716  1.00  0.00     0.116 C 
BRANCH   2   3
ATOM      3  N   UNL     1       1.498   1.171  -8.671  1.00  0.00    -0.352 N 
ATOM      4  C   UNL     1       2.680   1.334  -7.993  1.00  0.00     0.251 C 
ATOM      5  O   UNL     1       3.542   0.468  -8.145  1.00  0.00    -0.269 OA
ATOM      6  H   UNL     1       1.460   0.359  -9.226  1.00  0.00     0.163 HD
BRANCH   4   7
ATOM      7  C   UNL     1       2.934   2.460  -7.049  1.00  0.00     0.039 A 
ATOM      8  C   UNL     1       3.403   4.413  -5.064  1.00  0.00     0.060 A 
ATOM      9  C   UNL     1       4.094   3.197  -5.048  1.00  0.00     0.029 A 
ATOM     10  C   UNL     1       2.543   4.675  -6.127  1.00  0.00     0.029 A 
ATOM     11  C   UNL     1       3.849   2.222  -6.016  1.00  0.00     0.016 A 
ATOM     12  C   UNL     1       2.340   3.723  -7.128  1.00  0.00     0.016 A 
BRANCH   8  13
ATOM     13  N   UNL     1       3.539   5.297  -4.012  1.00  0.00    -0.257 N 
ATOM     14  C   UNL     1       2.461   5.631  -3.082  1.00  0.00     0.144 C 
ATOM     15  C   UNL     1       3.161   6.593  -2.113  1.00  0.00     0.091 C 
ATOM     16  C   UNL     1       4.439   6.829  -2.873  1.00  0.00     0.071 C 
ATOM     17  N   UNL     1       4.628   6.088  -3.920  1.00  0.00    -0.176 NA
BRANCH  14  18
ATOM     18  C   UNL     1       1.887   4.381  -2.437  1.00  0.00    -0.023 A 
ATOM     19  C   UNL     1       0.865   1.935  -1.468  1.00  0.00     0.118 A 
ATOM     20  C   UNL     1       0.047   2.813  -2.180  1.00  0.00     0.047 A 
ATOM     21  C   UNL     1       2.196   2.277  -1.239  1.00  0.00     0.047 A 
ATOM     22  C   UNL     1       0.547   4.029  -2.656  1.00  0.00     0.010 A 
ATOM     23  C   UNL     1       2.700   3.491  -1.717  1.00  0.00     0.010 A 
BRANCH  19  24
ATOM     24  O   UNL     1       0.269   0.762  -1.095  1.00  0.00    -0.497 OA
ATOM     25  C   UNL     1       0.880   0.066  -0.016  1.00  0.00     0.278 C 
ENDBRANCH  19  24
ENDBRANCH  14  18
BRANCH  16  26
ATOM     26  C   UNL     1       5.410   7.846  -2.460  1.00  0.00    -0.002 A 
ATOM     27  C   UNL     1       5.901   8.726  -3.433  1.00  0.00     0.011 A 
ATOM     28  C   UNL     1       5.880   7.892  -1.147  1.00  0.00     0.011 A 
ATOM     29  C   UNL     1       6.867   9.669  -3.088  1.00  0.00     0.021 A 
ATOM     30  C   UNL     1       6.868   8.818  -0.806  1.00  0.00     0.021 A 
ATOM     31  C   UNL     1       7.360   9.695  -1.780  1.00  0.00     0.067 A 
BRANCH  31  32
ATOM     32  S   UNL     1       8.627  10.870  -1.363  1.00  0.00     0.175 S 
ATOM     33  C   UNL     1       9.989  10.430  -2.413  1.00  0.00     0.163 C 
ATOM     34  O   UNL     1       8.136  12.172  -1.764  1.00  0.00    -0.224 OA
ATOM     35  O   UNL     1       9.030  10.610   0.007  1.00  0.00    -0.224 OA
ENDBRANCH  31  32
ENDBRANCH  16  26
ENDBRANCH   8  13
ENDBRANCH   4   7
ENDBRANCH   2   3
ENDBRANCH   1   2
BRANCH   1  36
ATOM     36  C   UNL     1       0.060   2.308 -11.251  1.00  0.00     0.023 C 
BRANCH  36  37
ATOM     37  C   UNL     1      -1.353   1.764 -11.395  1.00  0.00     0.116 C 
BRANCH  37  38
ATOM     38  N   UNL     1      -2.383   2.781 -11.231  1.00  0.00    -0.352 N 
ATOM     39  C   UNL     1      -3.626   2.816 -11.819  1.00  0.00     0.251 C 
ATOM     40  H   UNL     1      -2.164   3.530 -10.631  1.00  0.00     0.163 HD
ATOM     41  O   UNL     1      -4.370   3.778 -11.675  1.00  0.00    -0.269 OA
BRANCH  39  42
ATOM     42  C   UNL     1      -4.021   1.680 -12.671  1.00  0.00     0.039 A 
ATOM     43  C   UNL     1      -4.372   1.921 -14.000  1.00  0.00     0.014 A 
ATOM     44  C   UNL     1      -3.933   0.376 -12.177  1.00  0.00     0.014 A 
ATOM     45  C   UNL     1      -4.560   0.841 -14.863  1.00  0.00     0.010 A 
ATOM     46  C   UNL     1      -4.048  -0.693 -13.054  1.00  0.00     0.010 A 
ATOM     47  C   UNL     1      -4.355  -0.471 -14.406  1.00  0.00    -0.014 A 
BRANCH  47  48
ATOM     48  C   UNL     1      -4.443  -1.636 -15.319  1.00  0.00     0.031 A 
ATOM     49  C   UNL     1      -5.489  -2.688 -15.083  1.00  0.00     0.074 A 
ATOM     50  C   UNL     1      -3.523  -1.799 -16.289  1.00  0.00     0.049 A 
ATOM     51  N   UNL     1      -5.647  -3.845 -15.672  1.00  0.00    -0.248 NA
ATOM     52  C   UNL     1      -6.466  -2.415 -14.017  1.00  0.00     0.031 C 
ATOM     53  C   UNL     1      -2.430  -0.871 -16.587  1.00  0.00     0.029 A 
ATOM     54  N   UNL     1      -3.348  -2.818 -17.191  1.00  0.00    -0.354 N 
ATOM     55  C   UNL     1      -6.722  -4.447 -15.033  1.00  0.00     0.074 A 
ATOM     56  C   UNL     1      -7.147  -3.550 -13.980  1.00  0.00     0.031 C 
ATOM     57  C   UNL     1      -1.706  -1.358 -17.608  1.00  0.00     0.029 A 
ATOM     58  C   UNL     1      -2.257  -2.649 -18.009  1.00  0.00     0.049 A 
ATOM     59  H   UNL     1      -3.947  -3.597 -17.247  1.00  0.00     0.167 HD
ATOM     60  C   UNL     1      -7.314  -5.633 -15.311  1.00  0.00     0.037 A 
ATOM     61  C   UNL     1      -1.749  -3.452 -18.962  1.00  0.00     0.037 A 
ATOM     62  C   UNL     1      -6.905  -6.507 -16.378  1.00  0.00     0.049 A 
ATOM     63  C   UNL     1      -2.425  -4.763 -19.256  1.00  0.00     0.074 A 
ATOM     64  C   UNL     1      -7.479  -7.699 -16.782  1.00  0.00     0.029 A 
ATOM     65  N   UNL     1      -5.819  -6.281 -17.210  1.00  0.00    -0.354 N 
ATOM     66  N   UNL     1      -3.480  -5.293 -18.686  1.00  0.00    -0.248 NA
ATOM     67  C   UNL     1      -1.845  -5.584 -20.328  1.00  0.00     0.031 C 
ATOM     68  C   UNL     1      -6.715  -8.216 -17.834  1.00  0.00     0.029 A 
ATOM     69  C   UNL     1      -5.694  -7.322 -18.116  1.00  0.00     0.049 A 
ATOM     70  H   UNL     1      -5.224  -5.498 -17.164  1.00  0.00     0.167 HD
ATOM     71  C   UNL     1      -3.709  -6.492 -19.349  1.00  0.00     0.074 A 
ATOM     72  C   UNL     1      -2.687  -6.607 -20.369  1.00  0.00     0.031 C 
ATOM     73  C   UNL     1      -4.681  -7.412 -19.136  1.00  0.00     0.037 A 
BRANCH  60  74
ATOM     74  C   UNL     1      -8.466  -6.048 -14.444  1.00  0.00     0.057 A 
ATOM     75  C   UNL     1      -9.703  -5.392 -14.493  1.00  0.00     0.134 A 
ATOM     76  C   UNL     1      -8.344  -7.132 -13.565  1.00  0.00     0.134 A 
ATOM     77  F   UNL     1      -9.882  -4.337 -15.303  1.00  0.00    -0.206 F 
ATOM     78  C   UNL     1     -10.767  -5.778 -13.677  1.00  0.00     0.040 A 
ATOM     79  C   UNL     1      -9.410  -7.546 -12.765  1.00  0.00     0.040 A 
ATOM     80  F   UNL     1      -7.189  -7.808 -13.472  1.00  0.00    -0.206 F 
ATOM     81  C   UNL     1     -10.624  -6.863 -12.814  1.00  0.00     0.006 A 
ENDBRANCH  60  74
BRANCH  61  82
ATOM     82  C   UNL     1      -0.546  -3.031 -19.725  1.00  0.00     0.057 A 
ATOM     83  C   UNL     1      -0.641  -2.661 -21.071  1.00  0.00     0.134 A 
ATOM     84  C   UNL     1       0.721  -2.988 -19.131  1.00  0.00     0.134 A 
ATOM     85  F   UNL     1      -1.825  -2.699 -21.699  1.00  0.00    -0.206 F 
ATOM     86  C   UNL     1       0.483  -2.280 -21.806  1.00  0.00     0.040 A 
ATOM     87  C   UNL     1       1.849  -2.586 -19.847  1.00  0.00     0.040 A 
ATOM     88  F   UNL     1       0.876  -3.322 -17.842  1.00  0.00    -0.206 F 
ATOM     89  C   UNL     1       1.733  -2.236 -21.191  1.00  0.00     0.006 A 
ENDBRANCH  61  82
BRANCH  73  90
ATOM     90  C   UNL     1      -4.720  -8.600 -20.051  1.00  0.00     0.057 A 
ATOM     91  C   UNL     1      -3.784  -9.637 -19.960  1.00  0.00     0.134 A 
ATOM     92  C   UNL     1      -5.743  -8.730 -20.999  1.00  0.00     0.134 A 
ATOM     93  F   UNL     1      -2.773  -9.566 -19.082  1.00  0.00    -0.206 F 
ATOM     94  C   UNL     1      -3.856 -10.756 -20.793  1.00  0.00     0.040 A 
ATOM     95  C   UNL     1      -5.840  -9.854 -21.818  1.00  0.00     0.040 A 
ATOM     96  F   UNL     1      -6.676  -7.774 -21.130  1.00  0.00    -0.206 F 
ATOM     97  C   UNL     1      -4.891 -10.870 -21.719  1.00  0.00     0.006 A 
ENDBRANCH  73  90
ENDBRANCH  47  48
ENDBRANCH  39  42
ENDBRANCH  37  38
ENDBRANCH  36  37
ENDBRANCH   1  36
TORSDOF 16
