REMARK SMILES O=C(C[N@H+]1CCC[C@H](CBr)C1)NCCCCNC(=O)c1ccc(-c2c3nc(c(-c4c(F)cccc4F)c4ccc([nH]4)c(-c4c(F)cccc4F)c4nc(c(-c5c(F)cccc5F)c5ccc2[nH]5)C=C4)C=C3)cc1
REMARK SMILES IDX 14 1 13 2 12 3 1 4 2 5 3 7 4 8 5 9 11 10 6 12 8 13 7 14 9 15
REMARK SMILES IDX 10 16 15 17 16 18 17 19 18 20 19 22 20 23 21 24 73 25 22 26
REMARK SMILES IDX 72 27 23 28 24 29 25 30 66 31 26 32 71 33 65 34 67 35 27 36
REMARK SMILES IDX 70 37 64 38 63 39 28 41 54 42 37 43 53 44 38 45 41 46 52 47
REMARK SMILES IDX 68 48 39 49 40 50 51 52 69 53 42 54 29 55 30 56 35 57 31 58
REMARK SMILES IDX 32 59 34 60 36 61 33 62 55 63 56 64 61 65 57 66 58 67 60 68
REMARK SMILES IDX 62 69 59 70 43 71 44 72 49 73 45 74 46 75 48 76 50 77 47 78
REMARK H PARENT 12 6 4 11 17 21 67 40 41 51
REMARK Flexibility Score: inf
ROOT
ATOM      1  C   UNL     1       2.348  -3.684  -0.459  1.00  0.00     0.023 C 
ENDROOT
BRANCH   1   2
ATOM      2  C   UNL     1       1.990  -2.462   0.385  1.00  0.00     0.116 C 
BRANCH   2   3
ATOM      3  N   UNL     1       2.695  -1.273  -0.047  1.00  0.00    -0.351 N 
ATOM      4  O   UNL     1       0.997   0.188   0.449  1.00  0.00    -0.269 OA
ATOM      5  C   UNL     1       2.144  -0.013   0.059  1.00  0.00     0.275 C 
ATOM      6  H   UNL     1       3.598  -1.367  -0.428  1.00  0.00     0.163 HD
BRANCH   5   7
ATOM      7  C   UNL     1       3.080   1.126  -0.370  1.00  0.00     0.363 C 
BRANCH   7   8
ATOM      8  N   UNL     1       3.932   1.554   0.764  1.00  0.00    -0.327 N 
ATOM      9  C   UNL     1       5.182   0.784   0.841  1.00  0.00     0.262 C 
ATOM     10  C   UNL     1       4.217   2.995   0.670  1.00  0.00     0.266 C 
ATOM     11  H   UNL     1       3.414   1.371   1.623  1.00  0.00     0.348 HD
ATOM     12  C   UNL     1       6.041   1.204   2.035  1.00  0.00     0.062 C 
ATOM     13  C   UNL     1       4.986   3.506   1.905  1.00  0.00     0.055 C 
ATOM     14  C   UNL     1       6.293   2.708   2.044  1.00  0.00     0.016 C 
BRANCH  13  15
ATOM     15  C   UNL     1       4.087   3.434   3.145  1.00  0.00     0.090 C 
ATOM     16  Br  UNL     1       4.868   4.420   4.638  1.00  0.00    -0.092 Br
ENDBRANCH  13  15
ENDBRANCH   7   8
ENDBRANCH   5   7
ENDBRANCH   2   3
ENDBRANCH   1   2
BRANCH   1  17
ATOM     17  C   UNL     1       3.831  -4.070  -0.460  1.00  0.00     0.023 C 
BRANCH  17  18
ATOM     18  C   UNL     1       4.429  -4.381   0.909  1.00  0.00     0.116 C 
BRANCH  18  19
ATOM     19  N   UNL     1       3.863  -5.579   1.506  1.00  0.00    -0.352 N 
ATOM     20  C   UNL     1       4.489  -6.710   1.967  1.00  0.00     0.251 C 
ATOM     21  H   UNL     1       2.883  -5.579   1.594  1.00  0.00     0.163 HD
ATOM     22  O   UNL     1       3.816  -7.692   2.288  1.00  0.00    -0.269 OA
BRANCH  20  23
ATOM     23  C   UNL     1       5.965  -6.779   2.059  1.00  0.00     0.039 A 
ATOM     24  C   UNL     1       6.611  -7.947   1.640  1.00  0.00     0.014 A 
ATOM     25  C   UNL     1       6.714  -5.718   2.576  1.00  0.00     0.014 A 
ATOM     26  C   UNL     1       8.006  -8.024   1.675  1.00  0.00     0.010 A 
ATOM     27  C   UNL     1       8.107  -5.771   2.548  1.00  0.00     0.010 A 
ATOM     28  C   UNL     1       8.769  -6.923   2.095  1.00  0.00    -0.014 A 
BRANCH  28  29
ATOM     29  C   UNL     1      10.255  -6.954   2.053  1.00  0.00     0.031 A 
ATOM     30  C   UNL     1      11.057  -6.863   3.322  1.00  0.00     0.074 A 
ATOM     31  C   UNL     1      10.887  -6.996   0.864  1.00  0.00     0.049 A 
ATOM     32  N   UNL     1      12.355  -6.798   3.477  1.00  0.00    -0.248 NA
ATOM     33  C   UNL     1      10.298  -6.816   4.582  1.00  0.00     0.031 C 
ATOM     34  C   UNL     1      10.230  -7.045  -0.443  1.00  0.00     0.029 A 
ATOM     35  N   UNL     1      12.226  -6.993   0.562  1.00  0.00    -0.354 N 
ATOM     36  C   UNL     1      12.569  -6.687   4.845  1.00  0.00     0.074 A 
ATOM     37  C   UNL     1      11.265  -6.646   5.472  1.00  0.00     0.031 C 
ATOM     38  C   UNL     1      11.166  -7.085  -1.405  1.00  0.00     0.029 A 
ATOM     39  C   UNL     1      12.487  -7.028  -0.787  1.00  0.00     0.049 A 
ATOM     40  H   UNL     1      12.933  -6.969   1.246  1.00  0.00     0.167 HD
ATOM     41  C   UNL     1      13.743  -6.643   5.520  1.00  0.00     0.037 A 
ATOM     42  C   UNL     1      13.657  -7.006  -1.453  1.00  0.00     0.037 A 
ATOM     43  C   UNL     1      15.041  -6.708   4.900  1.00  0.00     0.049 A 
ATOM     44  C   UNL     1      14.946  -6.951  -0.682  1.00  0.00     0.074 A 
ATOM     45  C   UNL     1      16.285  -6.730   5.505  1.00  0.00     0.029 A 
ATOM     46  N   UNL     1      15.262  -6.759   3.532  1.00  0.00    -0.354 N 
ATOM     47  N   UNL     1      15.132  -6.908   0.614  1.00  0.00    -0.248 NA
ATOM     48  C   UNL     1      16.189  -6.947  -1.468  1.00  0.00     0.031 C 
ATOM     49  C   UNL     1      17.261  -6.753   4.503  1.00  0.00     0.029 A 
ATOM     50  C   UNL     1      16.623  -6.791   3.274  1.00  0.00     0.049 A 
ATOM     51  H   UNL     1      14.556  -6.770   2.846  1.00  0.00     0.167 HD
ATOM     52  C   UNL     1      16.509  -6.898   0.801  1.00  0.00     0.074 A 
ATOM     53  C   UNL     1      17.110  -6.952  -0.515  1.00  0.00     0.031 C 
ATOM     54  C   UNL     1      17.210  -6.850   1.960  1.00  0.00     0.037 A 
BRANCH  41  55
ATOM     55  C   UNL     1      13.676  -6.521   7.015  1.00  0.00     0.057 A 
ATOM     56  C   UNL     1      13.244  -7.580   7.824  1.00  0.00     0.134 A 
ATOM     57  C   UNL     1      14.081  -5.343   7.656  1.00  0.00     0.134 A 
ATOM     58  F   UNL     1      12.832  -8.732   7.272  1.00  0.00    -0.206 F 
ATOM     59  C   UNL     1      13.190  -7.463   9.214  1.00  0.00     0.040 A 
ATOM     60  C   UNL     1      14.057  -5.223   9.046  1.00  0.00     0.040 A 
ATOM     61  F   UNL     1      14.514  -4.293   6.942  1.00  0.00    -0.206 F 
ATOM     62  C   UNL     1      13.604  -6.283   9.829  1.00  0.00     0.006 A 
ENDBRANCH  41  55
BRANCH  42  63
ATOM     63  C   UNL     1      13.666  -7.058  -2.937  1.00  0.00     0.057 A 
ATOM     64  C   UNL     1      14.104  -8.202  -3.615  1.00  0.00     0.134 A 
ATOM     65  C   UNL     1      13.243  -5.971  -3.710  1.00  0.00     0.134 A 
ATOM     66  F   UNL     1      14.540  -9.268  -2.928  1.00  0.00    -0.206 F 
ATOM     67  C   UNL     1      14.137  -8.257  -5.009  1.00  0.00     0.040 A 
ATOM     68  C   UNL     1      13.248  -6.021  -5.104  1.00  0.00     0.040 A 
ATOM     69  F   UNL     1      12.805  -4.849  -3.119  1.00  0.00    -0.206 F 
ATOM     70  C   UNL     1      13.703  -7.165  -5.758  1.00  0.00     0.006 A 
ENDBRANCH  42  63
BRANCH  54  71
ATOM     71  C   UNL     1      18.707  -6.886   1.859  1.00  0.00     0.057 A 
ATOM     72  C   UNL     1      19.444  -5.786   1.405  1.00  0.00     0.134 A 
ATOM     73  C   UNL     1      19.420  -8.025   2.256  1.00  0.00     0.134 A 
ATOM     74  F   UNL     1      18.820  -4.671   0.997  1.00  0.00    -0.206 F 
ATOM     75  C   UNL     1      20.838  -5.824   1.330  1.00  0.00     0.040 A 
ATOM     76  C   UNL     1      20.814  -8.066   2.209  1.00  0.00     0.040 A 
ATOM     77  F   UNL     1      18.774  -9.111   2.707  1.00  0.00    -0.206 F 
ATOM     78  C   UNL     1      21.527  -6.964   1.739  1.00  0.00     0.006 A 
ENDBRANCH  54  71
ENDBRANCH  28  29
ENDBRANCH  20  23
ENDBRANCH  18  19
ENDBRANCH  17  18
ENDBRANCH   1  17
TORSDOF 13
