REMARK SMILES O=C(NCCCCNC(=O)[C@H](CO)NC(=O)[C@H](CS)NC(=O)[C@H](Cc1c[nH]c2ccccc12)NC(=O)c1ccc(F)cc1)c1ccc(-c2c3nc(c(-c4c(F)cccc4F)c4ccc([nH]4)c(-c4c(F)cccc4F)c4nc(c(-c5c(F)cccc5F)c5ccc2[nH]5)C=C4)C=C3)cc1
REMARK SMILES IDX 8 1 9 2 10 3 7 5 6 6 5 7 4 8 3 9 1 10 2 11 44 13 45 14 97 15
REMARK SMILES IDX 46 16 96 17 47 18 48 19 49 20 90 21 50 22 95 23 89 24 91 25
REMARK SMILES IDX 51 26 94 27 88 28 87 29 52 31 78 32 61 33 77 34 62 35 65 36
REMARK SMILES IDX 76 37 92 38 63 39 64 40 75 42 93 43 66 44 53 45 54 46 59 47
REMARK SMILES IDX 55 48 56 49 58 50 60 51 57 52 79 53 80 54 85 55 81 56 82 57
REMARK SMILES IDX 84 58 86 59 83 60 67 61 68 62 73 63 69 64 70 65 72 66 74 67
REMARK SMILES IDX 71 68 11 69 14 70 15 71 16 73 17 74 20 75 21 76 22 78 23 79
REMARK SMILES IDX 34 80 35 81 36 83 37 84 38 85 43 86 39 87 42 88 40 89 41 90
REMARK SMILES IDX 24 91 25 92 26 93 33 94 27 95 28 96 32 97 29 99 31 100
REMARK SMILES IDX 30 101 18 102 19 103 12 105 13 106
REMARK H PARENT 8 4 3 12 91 30 65 41 14 72 20 77 34 82 27 98 19 104 13 107
REMARK Flexibility Score: inf
ROOT
ATOM      1  N   UNL     1       5.246   4.962  -6.252  1.00  0.00    -0.354 N 
ATOM      2  C   UNL     1       6.598   4.833  -6.391  1.00  0.00     0.244 C 
ATOM      3  O   UNL     1       6.995   3.959  -7.169  1.00  0.00    -0.273 OA
ATOM      4  H   UNL     1       4.727   4.268  -6.718  1.00  0.00     0.163 HD
ENDROOT
BRANCH   1   5
ATOM      5  C   UNL     1       4.427   5.935  -5.542  1.00  0.00     0.116 C 
BRANCH   5   6
ATOM      6  C   UNL     1       3.937   7.050  -6.457  1.00  0.00     0.023 C 
BRANCH   6   7
ATOM      7  C   UNL     1       2.760   6.639  -7.322  1.00  0.00     0.023 C 
BRANCH   7   8
ATOM      8  C   UNL     1       1.458   6.644  -6.545  1.00  0.00     0.116 C 
BRANCH   8   9
ATOM      9  N   UNL     1       0.917   7.989  -6.344  1.00  0.00    -0.352 N 
ATOM     10  O   UNL     1      -0.332   9.837  -6.661  1.00  0.00    -0.269 OA
ATOM     11  C   UNL     1      -0.157   8.645  -6.902  1.00  0.00     0.251 C 
ATOM     12  H   UNL     1       1.415   8.525  -5.685  1.00  0.00     0.163 HD
BRANCH  11  13
ATOM     13  C   UNL     1      -1.093   7.947  -7.814  1.00  0.00     0.039 A 
ATOM     14  C   UNL     1      -1.360   6.596  -7.656  1.00  0.00     0.014 A 
ATOM     15  C   UNL     1      -1.737   8.649  -8.842  1.00  0.00     0.014 A 
ATOM     16  C   UNL     1      -2.006   5.898  -8.657  1.00  0.00     0.010 A 
ATOM     17  C   UNL     1      -2.576   7.972  -9.740  1.00  0.00     0.010 A 
ATOM     18  C   UNL     1      -2.687   6.577  -9.679  1.00  0.00    -0.014 A 
BRANCH  18  19
ATOM     19  C   UNL     1      -3.562   5.760 -10.563  1.00  0.00     0.031 A 
ATOM     20  C   UNL     1      -3.352   5.690 -12.048  1.00  0.00     0.074 A 
ATOM     21  C   UNL     1      -4.467   4.954  -9.965  1.00  0.00     0.049 A 
ATOM     22  N   UNL     1      -3.936   4.900 -12.915  1.00  0.00    -0.248 NA
ATOM     23  C   UNL     1      -2.386   6.622 -12.649  1.00  0.00     0.031 C 
ATOM     24  C   UNL     1      -4.769   4.956  -8.528  1.00  0.00     0.029 A 
ATOM     25  N   UNL     1      -5.220   3.916 -10.451  1.00  0.00    -0.354 N 
ATOM     26  C   UNL     1      -3.441   5.264 -14.159  1.00  0.00     0.074 A 
ATOM     27  C   UNL     1      -2.509   6.349 -13.942  1.00  0.00     0.031 C 
ATOM     28  C   UNL     1      -5.498   3.876  -8.227  1.00  0.00     0.029 A 
ATOM     29  C   UNL     1      -5.823   3.174  -9.460  1.00  0.00     0.049 A 
ATOM     30  H   UNL     1      -5.320   3.722 -11.411  1.00  0.00     0.167 HD
ATOM     31  C   UNL     1      -3.743   4.736 -15.369  1.00  0.00     0.037 A 
ATOM     32  C   UNL     1      -6.558   2.049  -9.529  1.00  0.00     0.037 A 
ATOM     33  C   UNL     1      -4.646   3.630 -15.568  1.00  0.00     0.049 A 
ATOM     34  C   UNL     1      -6.848   1.471 -10.879  1.00  0.00     0.074 A 
ATOM     35  C   UNL     1      -5.016   3.024 -16.756  1.00  0.00     0.029 A 
ATOM     36  N   UNL     1      -5.308   2.957 -14.553  1.00  0.00    -0.354 N 
ATOM     37  N   UNL     1      -6.392   1.848 -12.048  1.00  0.00    -0.248 NA
ATOM     38  C   UNL     1      -7.784   0.341 -10.927  1.00  0.00     0.031 C 
ATOM     39  C   UNL     1      -5.926   2.004 -16.463  1.00  0.00     0.029 A 
ATOM     40  C   UNL     1      -6.093   1.949 -15.089  1.00  0.00     0.049 A 
ATOM     41  H   UNL     1      -5.232   3.164 -13.593  1.00  0.00     0.167 HD
ATOM     42  C   UNL     1      -7.002   1.018 -12.975  1.00  0.00     0.074 A 
ATOM     43  C   UNL     1      -7.822   0.085 -12.227  1.00  0.00     0.031 C 
ATOM     44  C   UNL     1      -6.910   1.042 -14.326  1.00  0.00     0.037 A 
BRANCH  31  45
ATOM     45  C   UNL     1      -3.113   5.348 -16.585  1.00  0.00     0.057 A 
ATOM     46  C   UNL     1      -3.880   6.119 -17.469  1.00  0.00     0.134 A 
ATOM     47  C   UNL     1      -1.781   5.099 -16.932  1.00  0.00     0.134 A 
ATOM     48  F   UNL     1      -5.166   6.389 -17.197  1.00  0.00    -0.206 F 
ATOM     49  C   UNL     1      -3.350   6.602 -18.666  1.00  0.00     0.040 A 
ATOM     50  C   UNL     1      -1.233   5.593 -18.118  1.00  0.00     0.040 A 
ATOM     51  F   UNL     1      -0.990   4.380 -16.122  1.00  0.00    -0.206 F 
ATOM     52  C   UNL     1      -2.022   6.337 -18.994  1.00  0.00     0.006 A 
ENDBRANCH  31  45
BRANCH  32  53
ATOM     53  C   UNL     1      -7.078   1.420  -8.288  1.00  0.00     0.057 A 
ATOM     54  C   UNL     1      -8.021   2.067  -7.480  1.00  0.00     0.134 A 
ATOM     55  C   UNL     1      -6.620   0.168  -7.863  1.00  0.00     0.134 A 
ATOM     56  F   UNL     1      -8.497   3.272  -7.828  1.00  0.00    -0.206 F 
ATOM     57  C   UNL     1      -8.466   1.510  -6.281  1.00  0.00     0.040 A 
ATOM     58  C   UNL     1      -7.080  -0.417  -6.681  1.00  0.00     0.040 A 
ATOM     59  F   UNL     1      -5.730  -0.513  -8.601  1.00  0.00    -0.206 F 
ATOM     60  C   UNL     1      -7.998   0.261  -5.881  1.00  0.00     0.006 A 
ENDBRANCH  32  53
BRANCH  44  61
ATOM     61  C   UNL     1      -7.729   0.036 -15.073  1.00  0.00     0.057 A 
ATOM     62  C   UNL     1      -7.126  -1.065 -15.690  1.00  0.00     0.134 A 
ATOM     63  C   UNL     1      -9.116   0.182 -15.207  1.00  0.00     0.134 A 
ATOM     64  F   UNL     1      -5.801  -1.254 -15.602  1.00  0.00    -0.206 F 
ATOM     65  C   UNL     1      -7.876  -1.989 -16.418  1.00  0.00     0.040 A 
ATOM     66  C   UNL     1      -9.879  -0.748 -15.913  1.00  0.00     0.040 A 
ATOM     67  F   UNL     1      -9.751   1.211 -14.625  1.00  0.00    -0.206 F 
ATOM     68  C   UNL     1      -9.257  -1.834 -16.526  1.00  0.00     0.006 A 
ENDBRANCH  44  61
ENDBRANCH  18  19
ENDBRANCH  11  13
ENDBRANCH   8   9
ENDBRANCH   7   8
ENDBRANCH   6   7
ENDBRANCH   5   6
ENDBRANCH   1   5
BRANCH   2  69
ATOM     69  C   UNL     1       7.578   5.856  -5.783  1.00  0.00     0.197 C 
BRANCH  69  70
ATOM     70  N   UNL     1       7.237   6.296  -4.438  1.00  0.00    -0.340 N 
ATOM     71  C   UNL     1       7.199   7.573  -3.963  1.00  0.00     0.244 C 
ATOM     72  H   UNL     1       7.007   5.587  -3.795  1.00  0.00     0.164 HD
ATOM     73  O   UNL     1       6.704   7.744  -2.845  1.00  0.00    -0.273 OA
BRANCH  71  74
ATOM     74  C   UNL     1       7.589   8.767  -4.871  1.00  0.00     0.181 C 
BRANCH  74  75
ATOM     75  N   UNL     1       6.337   9.254  -5.482  1.00  0.00    -0.342 N 
ATOM     76  C   UNL     1       5.934   9.725  -6.687  1.00  0.00     0.243 C 
ATOM     77  H   UNL     1       5.591   9.229  -4.839  1.00  0.00     0.164 HD
ATOM     78  O   UNL     1       4.765  10.133  -6.697  1.00  0.00    -0.273 OA
BRANCH  76  79
ATOM     79  C   UNL     1       6.732   9.675  -8.016  1.00  0.00     0.176 C 
BRANCH  79  80
ATOM     80  N   UNL     1       8.091  10.189  -7.806  1.00  0.00    -0.340 N 
ATOM     81  C   UNL     1       8.920  10.826  -8.696  1.00  0.00     0.251 C 
ATOM     82  H   UNL     1       8.459  10.060  -6.902  1.00  0.00     0.164 HD
ATOM     83  O   UNL     1      10.105  10.962  -8.442  1.00  0.00    -0.269 OA
BRANCH  81  84
ATOM     84  C   UNL     1       8.368  11.317  -9.976  1.00  0.00     0.040 A 
ATOM     85  C   UNL     1       7.247  12.158  -9.999  1.00  0.00     0.017 A 
ATOM     86  C   UNL     1       9.002  10.946 -11.166  1.00  0.00     0.017 A 
ATOM     87  C   UNL     1       6.697  12.543 -11.219  1.00  0.00     0.040 A 
ATOM     88  C   UNL     1       8.462  11.356 -12.385  1.00  0.00     0.040 A 
ATOM     89  C   UNL     1       7.305  12.132 -12.401  1.00  0.00     0.123 A 
ATOM     90  F   UNL     1       6.774  12.498 -13.574  1.00  0.00    -0.207 F 
ENDBRANCH  81  84
ENDBRANCH  79  80
BRANCH  79  91
ATOM     91  C   UNL     1       6.766   8.299  -8.700  1.00  0.00     0.072 C 
BRANCH  91  92
ATOM     92  C   UNL     1       5.774   7.943  -9.790  1.00  0.00    -0.020 A 
ATOM     93  C   UNL     1       6.006   6.894 -10.670  1.00  0.00     0.087 A 
ATOM     94  C   UNL     1       4.449   8.426 -10.099  1.00  0.00     0.003 A 
ATOM     95  N   UNL     1       4.900   6.701 -11.445  1.00  0.00    -0.361 N 
ATOM     96  C   UNL     1       3.915   7.585 -11.084  1.00  0.00     0.046 A 
ATOM     97  C   UNL     1       3.606   9.450  -9.615  1.00  0.00     0.010 A 
ATOM     98  H   UNL     1       4.820   6.027 -12.158  1.00  0.00     0.166 HD
ATOM     99  C   UNL     1       2.596   7.681 -11.554  1.00  0.00     0.026 A 
ATOM    100  C   UNL     1       2.281   9.556 -10.065  1.00  0.00     0.001 A 
ATOM    101  C   UNL     1       1.781   8.674 -11.013  1.00  0.00     0.002 A 
ENDBRANCH  91  92
ENDBRANCH  79  91
ENDBRANCH  76  79
ENDBRANCH  74  75
BRANCH  74 102
ATOM    102  C   UNL     1       8.183   9.831  -3.924  1.00  0.00     0.101 C 
BRANCH 102 103
ATOM    103  S   UNL     1       8.982  11.214  -4.790  1.00  0.00    -0.177 SA
ATOM    104  H   UNL     1      10.029  10.747  -5.521  1.00  0.00     0.102 HD
ENDBRANCH 102 103
ENDBRANCH  74 102
ENDBRANCH  71  74
ENDBRANCH  69  70
BRANCH  69 105
ATOM    105  C   UNL     1       9.025   5.350  -5.841  1.00  0.00     0.191 C 
BRANCH 105 106
ATOM    106  O   UNL     1       9.903   6.412  -5.443  1.00  0.00    -0.394 OA
ATOM    107  H   UNL     1       9.792   7.166  -6.043  1.00  0.00     0.210 HD
ENDBRANCH 105 106
ENDBRANCH  69 105
ENDBRANCH   2  69
TORSDOF 23
