REMARK SMILES C[C@@H]1Cc2ccccc2N1S(=O)(=O)c1c[nH]c(C(=O)NCCCCNC(=O)c2ccc(-c3c4nc(c(-c5c(F)cccc5F)c5ccc([nH]5)c(-c5c(F)cccc5F)c5nc(c(-c6c(F)cccc6F)c6ccc3[nH]6)C=C5)C=C4)cc2)c1
REMARK SMILES IDX 22 1 21 2 20 3 18 4 19 5 17 7 14 8 15 9 82 10 16 11 11 13
REMARK SMILES IDX 12 14 13 15 10 16 1 17 2 18 3 19 4 20 9 21 5 22 8 23 6 24
REMARK SMILES IDX 7 25 23 26 24 27 25 28 26 29 27 31 28 32 29 33 81 34 30 35
REMARK SMILES IDX 80 36 31 37 32 38 33 39 74 40 34 41 79 42 73 43 75 44 35 45
REMARK SMILES IDX 78 46 72 47 71 48 36 50 62 51 45 52 61 53 46 54 49 55 60 56
REMARK SMILES IDX 76 57 47 58 48 59 59 61 77 62 50 63 37 64 38 65 43 66 39 67
REMARK SMILES IDX 40 68 42 69 44 70 41 71 63 72 64 73 69 74 65 75 66 76 68 77
REMARK SMILES IDX 70 78 67 79 51 80 52 81 57 82 53 83 54 84 56 85 58 86 55 87
REMARK H PARENT 20 6 16 12 25 30 75 49 49 60
REMARK Flexibility Score: inf
ROOT
ATOM      1  C   UNL     1       3.887   6.855  -5.067  1.00  0.00     0.023 C 
ENDROOT
BRANCH   1   2
ATOM      2  C   UNL     1       4.777   6.653  -3.846  1.00  0.00     0.116 C 
BRANCH   2   3
ATOM      3  N   UNL     1       4.535   7.666  -2.841  1.00  0.00    -0.351 N 
ATOM      4  C   UNL     1       4.250   7.552  -1.510  1.00  0.00     0.267 C 
ATOM      5  O   UNL     1       4.293   8.582  -0.836  1.00  0.00    -0.268 OA
ATOM      6  H   UNL     1       4.584   8.592  -3.172  1.00  0.00     0.163 HD
BRANCH   4   7
ATOM      7  C   UNL     1       3.925   6.279  -0.907  1.00  0.00     0.105 A 
ATOM      8  C   UNL     1       3.263   4.191  -0.305  1.00  0.00     0.106 A 
ATOM      9  C   UNL     1       3.557   4.891   0.845  1.00  0.00     0.105 A 
ATOM     10  C   UNL     1       3.490   5.059  -1.400  1.00  0.00     0.055 A 
ATOM     11  N   UNL     1       3.942   6.148   0.472  1.00  0.00    -0.356 N 
ATOM     12  H   UNL     1       4.196   6.864   1.098  1.00  0.00     0.166 HD
BRANCH   8  13
ATOM     13  S   UNL     1       2.597   2.605  -0.421  1.00  0.00     0.266 S 
ATOM     14  O   UNL     1       2.591   2.115   0.937  1.00  0.00    -0.201 OA
ATOM     15  O   UNL     1       3.412   1.968  -1.444  1.00  0.00    -0.201 OA
BRANCH  13  16
ATOM     16  N   UNL     1       0.987   2.660  -1.006  1.00  0.00    -0.263 N 
ATOM     17  C   UNL     1       0.377   0.619  -2.299  1.00  0.00     0.032 C 
ATOM     18  C   UNL     1       0.323   1.295  -0.937  1.00  0.00     0.101 C 
ATOM     19  C   UNL     1      -1.123   1.527  -0.448  1.00  0.00     0.063 C 
ATOM     20  C   UNL     1      -1.125   2.970  -0.067  1.00  0.00    -0.021 A 
ATOM     21  C   UNL     1       0.072   3.588  -0.401  1.00  0.00     0.055 A 
ATOM     22  C   UNL     1      -2.179   3.689   0.486  1.00  0.00     0.006 A 
ATOM     23  C   UNL     1       0.193   4.964  -0.287  1.00  0.00     0.027 A 
ATOM     24  C   UNL     1      -2.026   5.063   0.676  1.00  0.00     0.000 A 
ATOM     25  C   UNL     1      -0.849   5.701   0.279  1.00  0.00     0.002 A 
ENDBRANCH  13  16
ENDBRANCH   8  13
ENDBRANCH   4   7
ENDBRANCH   2   3
ENDBRANCH   1   2
BRANCH   1  26
ATOM     26  C   UNL     1       4.370   7.973  -5.993  1.00  0.00     0.023 C 
BRANCH  26  27
ATOM     27  C   UNL     1       5.829   7.827  -6.444  1.00  0.00     0.116 C 
BRANCH  27  28
ATOM     28  N   UNL     1       6.120   6.642  -7.235  1.00  0.00    -0.352 N 
ATOM     29  C   UNL     1       5.942   6.328  -8.561  1.00  0.00     0.251 C 
ATOM     30  H   UNL     1       6.529   5.914  -6.713  1.00  0.00     0.163 HD
ATOM     31  O   UNL     1       6.454   5.293  -8.987  1.00  0.00    -0.269 OA
BRANCH  29  32
ATOM     32  C   UNL     1       5.055   7.113  -9.453  1.00  0.00     0.039 A 
ATOM     33  C   UNL     1       4.737   8.446  -9.226  1.00  0.00     0.014 A 
ATOM     34  C   UNL     1       4.434   6.429 -10.514  1.00  0.00     0.014 A 
ATOM     35  C   UNL     1       3.651   9.011  -9.854  1.00  0.00     0.010 A 
ATOM     36  C   UNL     1       3.398   7.027 -11.226  1.00  0.00     0.010 A 
ATOM     37  C   UNL     1       2.967   8.293 -10.838  1.00  0.00    -0.014 A 
BRANCH  37  38
ATOM     38  C   UNL     1       1.893   9.046 -11.506  1.00  0.00     0.031 A 
ATOM     39  C   UNL     1       2.511  10.215 -12.291  1.00  0.00     0.074 A 
ATOM     40  C   UNL     1       0.613   8.717 -11.154  1.00  0.00     0.049 A 
ATOM     41  N   UNL     1       2.162  11.462 -12.331  1.00  0.00    -0.248 NA
ATOM     42  C   UNL     1       3.808   9.997 -12.993  1.00  0.00     0.031 C 
ATOM     43  C   UNL     1       0.232   7.532 -10.353  1.00  0.00     0.029 A 
ATOM     44  N   UNL     1      -0.619   9.307 -11.355  1.00  0.00    -0.354 N 
ATOM     45  C   UNL     1       3.045  12.121 -13.216  1.00  0.00     0.074 A 
ATOM     46  C   UNL     1       4.121  11.210 -13.459  1.00  0.00     0.031 C 
ATOM     47  C   UNL     1      -1.090   7.534 -10.078  1.00  0.00     0.029 A 
ATOM     48  C   UNL     1      -1.706   8.711 -10.657  1.00  0.00     0.049 A 
ATOM     49  H   UNL     1      -0.737  10.089 -11.942  1.00  0.00     0.167 HD
ATOM     50  C   UNL     1       2.741  13.315 -13.810  1.00  0.00     0.037 A 
ATOM     51  C   UNL     1      -2.991   9.169 -10.501  1.00  0.00     0.037 A 
ATOM     52  C   UNL     1       1.446  13.735 -13.389  1.00  0.00     0.049 A 
ATOM     53  C   UNL     1      -3.040  10.423 -11.266  1.00  0.00     0.074 A 
ATOM     54  C   UNL     1       0.977  14.268 -12.220  1.00  0.00     0.029 A 
ATOM     55  N   UNL     1       0.389  13.271 -14.135  1.00  0.00    -0.354 N 
ATOM     56  N   UNL     1      -3.056  10.505 -12.562  1.00  0.00    -0.248 NA
ATOM     57  C   UNL     1      -2.940  11.692 -10.532  1.00  0.00     0.031 C 
ATOM     58  C   UNL     1      -0.298  13.681 -12.087  1.00  0.00     0.029 A 
ATOM     59  C   UNL     1      -0.639  13.007 -13.268  1.00  0.00     0.049 A 
ATOM     60  H   UNL     1       0.373  13.151 -15.112  1.00  0.00     0.167 HD
ATOM     61  C   UNL     1      -2.631  11.794 -12.777  1.00  0.00     0.074 A 
ATOM     62  C   UNL     1      -2.901  12.530 -11.562  1.00  0.00     0.031 C 
ATOM     63  C   UNL     1      -1.630  12.032 -13.663  1.00  0.00     0.037 A 
BRANCH  50  64
ATOM     64  C   UNL     1       3.330  14.060 -14.977  1.00  0.00     0.057 A 
ATOM     65  C   UNL     1       3.929  13.439 -16.075  1.00  0.00     0.134 A 
ATOM     66  C   UNL     1       2.924  15.403 -15.177  1.00  0.00     0.134 A 
ATOM     67  F   UNL     1       4.376  12.179 -16.011  1.00  0.00    -0.206 F 
ATOM     68  C   UNL     1       4.003  14.068 -17.326  1.00  0.00     0.040 A 
ATOM     69  C   UNL     1       2.944  16.018 -16.430  1.00  0.00     0.040 A 
ATOM     70  F   UNL     1       2.406  16.127 -14.171  1.00  0.00    -0.206 F 
ATOM     71  C   UNL     1       3.461  15.336 -17.520  1.00  0.00     0.006 A 
ENDBRANCH  50  64
BRANCH  51  72
ATOM     72  C   UNL     1      -4.233   8.824  -9.703  1.00  0.00     0.057 A 
ATOM     73  C   UNL     1      -5.284   9.776  -9.554  1.00  0.00     0.134 A 
ATOM     74  C   UNL     1      -4.480   7.621  -9.036  1.00  0.00     0.134 A 
ATOM     75  F   UNL     1      -5.308  10.923 -10.245  1.00  0.00    -0.206 F 
ATOM     76  C   UNL     1      -6.380   9.620  -8.700  1.00  0.00     0.040 A 
ATOM     77  C   UNL     1      -5.604   7.432  -8.200  1.00  0.00     0.040 A 
ATOM     78  F   UNL     1      -3.674   6.565  -9.183  1.00  0.00    -0.206 F 
ATOM     79  C   UNL     1      -6.537   8.445  -7.999  1.00  0.00     0.006 A 
ENDBRANCH  51  72
BRANCH  63  80
ATOM     80  C   UNL     1      -1.480  10.955 -14.728  1.00  0.00     0.057 A 
ATOM     81  C   UNL     1      -0.379  10.093 -14.832  1.00  0.00     0.134 A 
ATOM     82  C   UNL     1      -2.541  10.669 -15.595  1.00  0.00     0.134 A 
ATOM     83  F   UNL     1       0.701  10.280 -14.083  1.00  0.00    -0.206 F 
ATOM     84  C   UNL     1      -0.335   8.995 -15.702  1.00  0.00     0.040 A 
ATOM     85  C   UNL     1      -2.519   9.574 -16.474  1.00  0.00     0.040 A 
ATOM     86  F   UNL     1      -3.634  11.447 -15.598  1.00  0.00    -0.206 F 
ATOM     87  C   UNL     1      -1.418   8.725 -16.522  1.00  0.00     0.006 A 
ENDBRANCH  63  80
ENDBRANCH  37  38
ENDBRANCH  29  32
ENDBRANCH  27  28
ENDBRANCH  26  27
ENDBRANCH   1  26
TORSDOF 13
