REMARK SMILES CC1(C)[C@@]2(C(=O)NCCCCNC(=O)c3ccc(-c4c5nc(c(-c6c(F)cccc6F)c6ccc([nH]6)c(-c6c(F)cccc6F)c6nc(c(-c7c(F)cccc7F)c7ccc4[nH]7)C=C6)C=C5)cc3)CC[C@]1(C)/C(=N/NC(=O)c1ccc(Cl)cc1)C2
REMARK SMILES IDX 9 1 8 2 7 3 5 4 6 5 4 7 1 8 2 9 3 10 71 11 69 12 85 13 70 14
REMARK SMILES IDX 72 15 73 16 74 17 75 18 76 19 77 21 78 22 79 23 84 24 80 25
REMARK SMILES IDX 83 26 81 27 82 28 10 29 11 30 12 31 13 32 14 34 15 35 16 36
REMARK SMILES IDX 68 37 17 38 67 39 18 40 19 41 20 42 61 43 21 44 66 45 60 46
REMARK SMILES IDX 62 47 22 48 65 49 59 50 58 51 23 53 49 54 32 55 48 56 33 57
REMARK SMILES IDX 36 58 47 59 63 60 34 61 35 62 46 64 64 65 37 66 24 67 25 68
REMARK SMILES IDX 30 69 26 70 27 71 29 72 31 73 28 74 50 75 51 76 56 77 52 78
REMARK SMILES IDX 53 79 55 80 57 81 54 82 38 83 39 84 44 85 40 86 41 87 43 88
REMARK SMILES IDX 45 89 42 90
REMARK H PARENT 7 6 75 20 12 33 62 52 36 63
REMARK Flexibility Score: inf
ROOT
ATOM      1  C   UNL     1      -1.273  -1.752   5.478  1.00  0.00     0.023 C 
ENDROOT
BRANCH   1   2
ATOM      2  C   UNL     1      -0.597  -0.634   4.680  1.00  0.00     0.116 C 
BRANCH   2   3
ATOM      3  N   UNL     1       0.669  -1.036   4.084  1.00  0.00    -0.356 N 
ATOM      4  C   UNL     1       1.152  -1.034   2.812  1.00  0.00     0.227 C 
ATOM      5  O   UNL     1       2.381  -0.913   2.740  1.00  0.00    -0.274 OA
ATOM      6  H   UNL     1       1.314  -1.382   4.743  1.00  0.00     0.163 HD
BRANCH   4   7
ATOM      7  C   UNL     1       0.316  -1.245   1.534  1.00  0.00     0.060 C 
ATOM      8  C   UNL     1       1.865   0.159  -0.071  1.00  0.00     0.013 C 
ATOM      9  C   UNL     1       1.182  -1.207   0.203  1.00  0.00    -0.010 C 
ATOM     10  C   UNL     1       2.261  -2.308   0.060  1.00  0.00     0.013 C 
ATOM     11  C   UNL     1      -0.057  -1.465  -0.708  1.00  0.00     0.014 C 
ATOM     12  C   UNL     1      -0.785  -0.189   1.210  1.00  0.00     0.019 C 
ATOM     13  C   UNL     1      -0.337  -2.659   1.456  1.00  0.00     0.071 C 
ATOM     14  C   UNL     1      -1.024  -0.336  -0.317  1.00  0.00     0.014 C 
ATOM     15  C   UNL     1       0.208  -1.640  -2.194  1.00  0.00     0.018 C 
ATOM     16  C   UNL     1      -0.648  -2.709  -0.028  1.00  0.00     0.046 C 
ATOM     17  N   UNL     1      -1.282  -3.590  -0.739  1.00  0.00    -0.181 NA
BRANCH  17  18
ATOM     18  N   UNL     1      -1.694  -4.770  -0.208  1.00  0.00    -0.243 N 
ATOM     19  C   UNL     1      -2.891  -5.009   0.440  1.00  0.00     0.271 C 
ATOM     20  H   UNL     1      -1.076  -5.533  -0.292  1.00  0.00     0.194 HD
ATOM     21  O   UNL     1      -3.365  -6.138   0.532  1.00  0.00    -0.267 OA
BRANCH  19  22
ATOM     22  C   UNL     1      -3.538  -3.909   1.157  1.00  0.00     0.041 A 
ATOM     23  C   UNL     1      -3.377  -3.894   2.542  1.00  0.00     0.015 A 
ATOM     24  C   UNL     1      -4.242  -2.898   0.500  1.00  0.00     0.015 A 
ATOM     25  C   UNL     1      -3.831  -2.798   3.263  1.00  0.00     0.021 A 
ATOM     26  C   UNL     1      -4.672  -1.787   1.231  1.00  0.00     0.021 A 
ATOM     27  C   UNL     1      -4.419  -1.721   2.602  1.00  0.00     0.041 A 
ATOM     28  Cl  UNL     1      -4.760  -0.281   3.478  1.00  0.00    -0.084 Cl
ENDBRANCH  19  22
ENDBRANCH  17  18
ENDBRANCH   4   7
ENDBRANCH   2   3
ENDBRANCH   1   2
BRANCH   1  29
ATOM     29  C   UNL     1      -1.256  -1.671   7.009  1.00  0.00     0.023 C 
BRANCH  29  30
ATOM     30  C   UNL     1      -2.119  -0.570   7.630  1.00  0.00     0.116 C 
BRANCH  30  31
ATOM     31  N   UNL     1      -3.550  -0.633   7.327  1.00  0.00    -0.352 N 
ATOM     32  C   UNL     1      -4.610  -0.248   8.128  1.00  0.00     0.251 C 
ATOM     33  H   UNL     1      -3.787  -0.995   6.442  1.00  0.00     0.163 HD
ATOM     34  O   UNL     1      -5.771  -0.367   7.750  1.00  0.00    -0.269 OA
BRANCH  32  35
ATOM     35  C   UNL     1      -4.317   0.254   9.485  1.00  0.00     0.039 A 
ATOM     36  C   UNL     1      -4.873  -0.394  10.591  1.00  0.00     0.014 A 
ATOM     37  C   UNL     1      -3.353   1.247   9.651  1.00  0.00     0.014 A 
ATOM     38  C   UNL     1      -4.353  -0.141  11.861  1.00  0.00     0.010 A 
ATOM     39  C   UNL     1      -2.762   1.410  10.895  1.00  0.00     0.010 A 
ATOM     40  C   UNL     1      -3.243   0.707  12.012  1.00  0.00    -0.014 A 
BRANCH  40  41
ATOM     41  C   UNL     1      -2.553   0.868  13.318  1.00  0.00     0.031 A 
ATOM     42  C   UNL     1      -2.437   2.235  13.934  1.00  0.00     0.074 A 
ATOM     43  C   UNL     1      -1.941  -0.187  13.894  1.00  0.00     0.049 A 
ATOM     44  N   UNL     1      -1.786   2.608  15.005  1.00  0.00    -0.248 NA
ATOM     45  C   UNL     1      -3.100   3.339  13.221  1.00  0.00     0.031 C 
ATOM     46  C   UNL     1      -1.901  -1.550  13.357  1.00  0.00     0.029 A 
ATOM     47  N   UNL     1      -1.222  -0.275  15.061  1.00  0.00    -0.354 N 
ATOM     48  C   UNL     1      -1.935   3.987  15.072  1.00  0.00     0.074 A 
ATOM     49  C   UNL     1      -2.673   4.393  13.898  1.00  0.00     0.031 C 
ATOM     50  C   UNL     1      -1.230  -2.342  14.210  1.00  0.00     0.029 A 
ATOM     51  C   UNL     1      -0.764  -1.542  15.337  1.00  0.00     0.049 A 
ATOM     52  H   UNL     1      -1.050   0.498  15.647  1.00  0.00     0.167 HD
ATOM     53  C   UNL     1      -1.528   4.838  16.043  1.00  0.00     0.037 A 
ATOM     54  C   UNL     1      -0.056  -2.004  16.385  1.00  0.00     0.037 A 
ATOM     55  C   UNL     1      -0.848   4.424  17.239  1.00  0.00     0.049 A 
ATOM     56  C   UNL     1       0.335  -1.050  17.481  1.00  0.00     0.074 A 
ATOM     57  C   UNL     1      -0.468   5.192  18.325  1.00  0.00     0.029 A 
ATOM     58  N   UNL     1      -0.458   3.122  17.511  1.00  0.00    -0.354 N 
ATOM     59  N   UNL     1       0.115   0.239  17.572  1.00  0.00    -0.248 NA
ATOM     60  C   UNL     1       1.062  -1.618  18.626  1.00  0.00     0.031 C 
ATOM     61  C   UNL     1       0.179   4.358  19.243  1.00  0.00     0.029 A 
ATOM     62  C   UNL     1       0.168   3.065  18.744  1.00  0.00     0.049 A 
ATOM     63  H   UNL     1      -0.603   2.352  16.915  1.00  0.00     0.167 HD
ATOM     64  C   UNL     1       0.648   0.631  18.793  1.00  0.00     0.074 A 
ATOM     65  C   UNL     1       1.191  -0.559  19.414  1.00  0.00     0.031 C 
ATOM     66  C   UNL     1       0.687   1.866  19.350  1.00  0.00     0.037 A 
BRANCH  53  67
ATOM     67  C   UNL     1      -1.835   6.294  15.851  1.00  0.00     0.057 A 
ATOM     68  C   UNL     1      -3.146   6.785  15.912  1.00  0.00     0.134 A 
ATOM     69  C   UNL     1      -0.810   7.215  15.605  1.00  0.00     0.134 A 
ATOM     70  F   UNL     1      -4.175   5.951  16.128  1.00  0.00    -0.206 F 
ATOM     71  C   UNL     1      -3.432   8.134  15.698  1.00  0.00     0.040 A 
ATOM     72  C   UNL     1      -1.081   8.572  15.419  1.00  0.00     0.040 A 
ATOM     73  F   UNL     1       0.468   6.813  15.537  1.00  0.00    -0.206 F 
ATOM     74  C   UNL     1      -2.396   9.033  15.456  1.00  0.00     0.006 A 
ENDBRANCH  53  67
BRANCH  54  75
ATOM     75  C   UNL     1       0.286  -3.446  16.480  1.00  0.00     0.057 A 
ATOM     76  C   UNL     1      -0.341  -4.273  17.421  1.00  0.00     0.134 A 
ATOM     77  C   UNL     1       1.251  -4.031  15.652  1.00  0.00     0.134 A 
ATOM     78  F   UNL     1      -1.260  -3.767  18.256  1.00  0.00    -0.206 F 
ATOM     79  C   UNL     1      -0.007  -5.622  17.550  1.00  0.00     0.040 A 
ATOM     80  C   UNL     1       1.579  -5.385  15.754  1.00  0.00     0.040 A 
ATOM     81  F   UNL     1       1.882  -3.296  14.724  1.00  0.00    -0.206 F 
ATOM     82  C   UNL     1       0.954  -6.182  16.712  1.00  0.00     0.006 A 
ENDBRANCH  54  75
BRANCH  66  83
ATOM     83  C   UNL     1       1.302   1.986  20.712  1.00  0.00     0.057 A 
ATOM     84  C   UNL     1       2.686   1.902  20.906  1.00  0.00     0.134 A 
ATOM     85  C   UNL     1       0.502   2.239  21.833  1.00  0.00     0.134 A 
ATOM     86  F   UNL     1       3.504   1.650  19.873  1.00  0.00    -0.206 F 
ATOM     87  C   UNL     1       3.252   2.046  22.174  1.00  0.00     0.040 A 
ATOM     88  C   UNL     1       1.059   2.410  23.101  1.00  0.00     0.040 A 
ATOM     89  F   UNL     1      -0.830   2.340  21.711  1.00  0.00    -0.206 F 
ATOM     90  C   UNL     1       2.438   2.308  23.274  1.00  0.00     0.006 A 
ENDBRANCH  66  83
ENDBRANCH  40  41
ENDBRANCH  32  35
ENDBRANCH  30  31
ENDBRANCH  29  30
ENDBRANCH   1  29
TORSDOF 13
