REMARK SMILES CC[C@@H](C)[C@@H](NC(=O)CCn1ccc2ccc(Br)cc21)C(=O)NCCCCNC(=O)c1ccc(-c2c3nc(c(-c4c(F)cccc4F)c4ccc([nH]4)c(-c4c(F)cccc4F)c4nc(c(-c5c(F)cccc5F)c5ccc2[nH]5)C=C4)C=C3)cc1
REMARK SMILES IDX 24 1 23 2 21 3 22 4 5 6 3 7 4 8 2 9 1 10 6 11 7 12 8 14 9 15
REMARK SMILES IDX 10 16 11 17 12 18 20 19 13 20 14 21 19 22 15 23 17 24 16 25
REMARK SMILES IDX 18 26 25 27 26 28 27 29 28 30 29 31 30 33 31 34 32 35 84 36
REMARK SMILES IDX 33 37 83 38 34 39 35 40 36 41 77 42 37 43 82 44 76 45 78 46
REMARK SMILES IDX 38 47 81 48 75 49 74 50 39 52 65 53 48 54 64 55 49 56 52 57
REMARK SMILES IDX 63 58 79 59 50 60 51 61 62 63 80 64 53 65 40 66 41 67 46 68
REMARK SMILES IDX 42 69 43 70 45 71 47 72 44 73 66 74 67 75 72 76 68 77 69 78
REMARK SMILES IDX 71 79 73 80 70 81 54 82 55 83 60 84 56 85 57 86 59 87 61 88
REMARK SMILES IDX 58 89
REMARK H PARENT 23 5 6 13 28 32 78 51 52 62
REMARK Flexibility Score: inf
ROOT
ATOM      1  C   UNL     1       3.492  -0.507   3.417  1.00  0.00     0.116 C 
ENDROOT
BRANCH   1   2
ATOM      2  N   UNL     1       2.384   0.364   3.812  1.00  0.00    -0.354 N 
ATOM      3  C   UNL     1       0.972   0.299   3.925  1.00  0.00     0.242 C 
ATOM      4  O   UNL     1       0.221   1.139   4.425  1.00  0.00    -0.273 OA
ATOM      5  H   UNL     1       2.716   1.252   4.077  1.00  0.00     0.163 HD
BRANCH   3   6
ATOM      6  C   UNL     1       0.306  -0.959   3.592  1.00  0.00     0.174 C 
BRANCH   6   7
ATOM      7  C   UNL     1       0.368  -0.700   2.032  1.00  0.00     0.018 C 
ATOM      8  C   UNL     1      -0.722   0.384   1.663  1.00  0.00     0.010 C 
BRANCH   7   9
ATOM      9  C   UNL     1       0.274  -1.825   1.008  1.00  0.00     0.002 C 
ATOM     10  C   UNL     1       0.749  -1.286  -0.360  1.00  0.00     0.004 C 
ENDBRANCH   7   9
ENDBRANCH   6   7
BRANCH   6  11
ATOM     11  N   UNL     1       1.135  -1.619   4.636  1.00  0.00    -0.344 N 
ATOM     12  C   UNL     1       1.609  -1.089   5.882  1.00  0.00     0.222 C 
ATOM     13  H   UNL     1       1.395  -2.549   4.445  1.00  0.00     0.164 HD
ATOM     14  O   UNL     1       2.153  -1.937   6.610  1.00  0.00    -0.275 OA
BRANCH  12  15
ATOM     15  C   UNL     1       1.534   0.536   6.481  1.00  0.00     0.122 C 
BRANCH  15  16
ATOM     16  C   UNL     1       2.221   2.080   6.084  1.00  0.00     0.132 C 
BRANCH  16  17
ATOM     17  N   UNL     1       1.820   3.086   5.026  1.00  0.00    -0.347 N 
ATOM     18  C   UNL     1       1.756   2.954   3.641  1.00  0.00     0.087 A 
ATOM     19  C   UNL     1       1.884   4.493   5.018  1.00  0.00     0.049 A 
ATOM     20  C   UNL     1       0.664   3.698   3.277  1.00  0.00     0.028 A 
ATOM     21  C   UNL     1       1.051   4.871   3.930  1.00  0.00    -0.000 A 
ATOM     22  C   UNL     1       2.717   5.439   5.627  1.00  0.00     0.042 A 
ATOM     23  C   UNL     1       0.986   6.184   3.454  1.00  0.00     0.011 A 
ATOM     24  C   UNL     1       2.753   6.712   5.012  1.00  0.00     0.020 A 
ATOM     25  C   UNL     1       1.911   7.082   3.957  1.00  0.00     0.016 A 
ATOM     26  Br  UNL     1       4.095   7.949   5.527  1.00  0.00    -0.051 Br
ENDBRANCH  16  17
ENDBRANCH  15  16
ENDBRANCH  12  15
ENDBRANCH   6  11
ENDBRANCH   3   6
ENDBRANCH   1   2
BRANCH   1  27
ATOM     27  C   UNL     1       4.671   0.337   2.876  1.00  0.00     0.023 C 
BRANCH  27  28
ATOM     28  C   UNL     1       5.268   1.468   3.757  1.00  0.00     0.023 C 
BRANCH  28  29
ATOM     29  C   UNL     1       5.929   1.073   5.077  1.00  0.00     0.116 C 
BRANCH  29  30
ATOM     30  N   UNL     1       7.029   0.148   4.922  1.00  0.00    -0.352 N 
ATOM     31  C   UNL     1       8.382   0.233   4.773  1.00  0.00     0.251 C 
ATOM     32  H   UNL     1       6.721  -0.787   4.924  1.00  0.00     0.163 HD
ATOM     33  O   UNL     1       8.966  -0.857   4.684  1.00  0.00    -0.269 OA
BRANCH  31  34
ATOM     34  C   UNL     1       9.200   1.473   4.656  1.00  0.00     0.039 A 
ATOM     35  C   UNL     1       8.818   2.768   5.009  1.00  0.00     0.014 A 
ATOM     36  C   UNL     1      10.502   1.281   4.153  1.00  0.00     0.014 A 
ATOM     37  C   UNL     1       9.674   3.850   4.758  1.00  0.00     0.010 A 
ATOM     38  C   UNL     1      11.366   2.347   3.933  1.00  0.00     0.010 A 
ATOM     39  C   UNL     1      10.929   3.645   4.175  1.00  0.00    -0.014 A 
BRANCH  39  40
ATOM     40  C   UNL     1      11.784   4.798   3.871  1.00  0.00     0.031 A 
ATOM     41  C   UNL     1      12.188   5.655   5.028  1.00  0.00     0.074 A 
ATOM     42  C   UNL     1      12.323   5.005   2.649  1.00  0.00     0.049 A 
ATOM     43  N   UNL     1      12.001   6.926   5.198  1.00  0.00    -0.248 NA
ATOM     44  C   UNL     1      12.837   4.994   6.171  1.00  0.00     0.031 C 
ATOM     45  C   UNL     1      12.285   4.121   1.479  1.00  0.00     0.029 A 
ATOM     46  N   UNL     1      13.121   6.028   2.226  1.00  0.00    -0.354 N 
ATOM     47  C   UNL     1      12.645   7.262   6.392  1.00  0.00     0.074 A 
ATOM     48  C   UNL     1      13.042   6.018   7.000  1.00  0.00     0.031 C 
ATOM     49  C   UNL     1      13.202   4.531   0.575  1.00  0.00     0.029 A 
ATOM     50  C   UNL     1      13.787   5.778   1.034  1.00  0.00     0.049 A 
ATOM     51  H   UNL     1      13.215   6.872   2.723  1.00  0.00     0.167 HD
ATOM     52  C   UNL     1      12.970   8.547   6.708  1.00  0.00     0.037 A 
ATOM     53  C   UNL     1      14.790   6.510   0.489  1.00  0.00     0.037 A 
ATOM     54  C   UNL     1      12.210   9.495   5.940  1.00  0.00     0.049 A 
ATOM     55  C   UNL     1      14.755   7.857   1.104  1.00  0.00     0.074 A 
ATOM     56  C   UNL     1      10.868   9.791   5.801  1.00  0.00     0.029 A 
ATOM     57  N   UNL     1      12.831  10.138   4.898  1.00  0.00    -0.354 N 
ATOM     58  N   UNL     1      13.809   8.729   0.895  1.00  0.00    -0.248 NA
ATOM     59  C   UNL     1      15.552   8.074   2.301  1.00  0.00     0.031 C 
ATOM     60  C   UNL     1      10.710  10.139   4.426  1.00  0.00     0.029 A 
ATOM     61  C   UNL     1      11.971  10.072   3.834  1.00  0.00     0.049 A 
ATOM     62  H   UNL     1      13.720  10.561   4.913  1.00  0.00     0.167 HD
ATOM     63  C   UNL     1      13.613   9.338   2.126  1.00  0.00     0.074 A 
ATOM     64  C   UNL     1      14.773   8.959   2.928  1.00  0.00     0.031 C 
ATOM     65  C   UNL     1      12.399   9.858   2.474  1.00  0.00     0.037 A 
BRANCH  52  66
ATOM     66  C   UNL     1      14.211   8.958   7.467  1.00  0.00     0.057 A 
ATOM     67  C   UNL     1      15.375   8.168   7.549  1.00  0.00     0.134 A 
ATOM     68  C   UNL     1      14.375  10.303   7.855  1.00  0.00     0.134 A 
ATOM     69  F   UNL     1      15.400   6.889   7.158  1.00  0.00    -0.206 F 
ATOM     70  C   UNL     1      16.614   8.683   7.943  1.00  0.00     0.040 A 
ATOM     71  C   UNL     1      15.622  10.839   8.203  1.00  0.00     0.040 A 
ATOM     72  F   UNL     1      13.344  11.161   7.822  1.00  0.00    -0.206 F 
ATOM     73  C   UNL     1      16.750  10.031   8.235  1.00  0.00     0.006 A 
ENDBRANCH  52  66
BRANCH  53  74
ATOM     74  C   UNL     1      15.946   6.021  -0.297  1.00  0.00     0.057 A 
ATOM     75  C   UNL     1      16.486   4.741  -0.078  1.00  0.00     0.134 A 
ATOM     76  C   UNL     1      16.709   6.879  -1.100  1.00  0.00     0.134 A 
ATOM     77  F   UNL     1      15.886   3.869   0.746  1.00  0.00    -0.206 F 
ATOM     78  C   UNL     1      17.708   4.335  -0.623  1.00  0.00     0.040 A 
ATOM     79  C   UNL     1      17.940   6.489  -1.647  1.00  0.00     0.040 A 
ATOM     80  F   UNL     1      16.305   8.137  -1.327  1.00  0.00    -0.206 F 
ATOM     81  C   UNL     1      18.446   5.215  -1.403  1.00  0.00     0.006 A 
ENDBRANCH  53  74
BRANCH  65  82
ATOM     82  C   UNL     1      11.344   9.950   1.407  1.00  0.00     0.057 A 
ATOM     83  C   UNL     1      10.768  11.192   1.122  1.00  0.00     0.134 A 
ATOM     84  C   UNL     1      10.785   8.832   0.771  1.00  0.00     0.134 A 
ATOM     85  F   UNL     1      11.206  12.299   1.742  1.00  0.00    -0.206 F 
ATOM     86  C   UNL     1       9.699  11.320   0.231  1.00  0.00     0.040 A 
ATOM     87  C   UNL     1       9.739   8.949  -0.147  1.00  0.00     0.040 A 
ATOM     88  F   UNL     1      11.195   7.592   1.063  1.00  0.00    -0.206 F 
ATOM     89  C   UNL     1       9.189  10.198  -0.416  1.00  0.00     0.006 A 
ENDBRANCH  65  82
ENDBRANCH  39  40
ENDBRANCH  31  34
ENDBRANCH  29  30
ENDBRANCH  28  29
ENDBRANCH  27  28
ENDBRANCH   1  27
TORSDOF 17
