REMARK SMILES O=C(CCc1cccnc1)Nc1ccsc1C(=O)NCCCCNC(=O)c1ccc(-c2c3nc(c(-c4c(F)cccc4F)c4ccc([nH]4)c(-c4c(F)cccc4F)c4nc(c(-c5c(F)cccc5F)c5ccc2[nH]5)C=C4)C=C3)cc1
REMARK SMILES IDX 20 1 19 2 17 3 18 4 16 6 12 7 13 8 14 9 15 10 11 11 1 12
REMARK SMILES IDX 2 13 3 15 4 16 5 17 6 18 10 19 7 20 9 21 8 22 21 23 22 24
REMARK SMILES IDX 23 25 24 26 25 27 26 29 27 30 28 31 80 32 29 33 79 34 30 35
REMARK SMILES IDX 31 36 32 37 73 38 33 39 78 40 72 41 74 42 34 43 77 44 71 45
REMARK SMILES IDX 70 46 35 48 61 49 44 50 60 51 45 52 48 53 59 54 75 55 46 56
REMARK SMILES IDX 47 57 58 59 76 60 49 61 36 62 37 63 42 64 38 65 39 66 41 67
REMARK SMILES IDX 43 68 40 69 62 70 63 71 68 72 64 73 65 74 67 75 69 76 66 77
REMARK SMILES IDX 50 78 51 79 56 80 52 81 53 82 55 83 57 84 54 85
REMARK H PARENT 19 5 11 14 24 28 74 47 48 58
REMARK Flexibility Score: inf
ROOT
ATOM      1  C   UNL     1       3.239   2.177   1.447  1.00  0.00     0.116 C 
ENDROOT
BRANCH   1   2
ATOM      2  N   UNL     1       3.847   1.954   2.740  1.00  0.00    -0.351 N 
ATOM      3  C   UNL     1       3.579   0.944   3.664  1.00  0.00     0.263 C 
ATOM      4  O   UNL     1       4.278   0.957   4.681  1.00  0.00    -0.268 OA
ATOM      5  H   UNL     1       4.543   2.599   3.002  1.00  0.00     0.163 HD
BRANCH   3   6
ATOM      6  C   UNL     1       2.509  -0.032   3.446  1.00  0.00     0.115 A 
ATOM      7  C   UNL     1       2.131  -0.783   2.341  1.00  0.00     0.065 A 
ATOM      8  C   UNL     1       0.903  -1.484   2.555  1.00  0.00     0.038 A 
ATOM      9  C   UNL     1       0.466  -1.386   3.856  1.00  0.00     0.068 A 
ATOM     10  S   UNL     1       1.474  -0.372   4.787  1.00  0.00    -0.137 S 
BRANCH   7  11
ATOM     11  N   UNL     1       2.901  -0.873   1.191  1.00  0.00    -0.325 N 
ATOM     12  O   UNL     1       1.198  -0.956  -0.363  1.00  0.00    -0.275 OA
ATOM     13  C   UNL     1       2.397  -0.990  -0.085  1.00  0.00     0.224 C 
ATOM     14  H   UNL     1       3.879  -0.852   1.294  1.00  0.00     0.169 HD
BRANCH  13  15
ATOM     15  C   UNL     1       3.432  -1.173  -1.191  1.00  0.00     0.105 C 
BRANCH  15  16
ATOM     16  C   UNL     1       4.705  -0.321  -1.126  1.00  0.00     0.047 C 
BRANCH  16  17
ATOM     17  C   UNL     1       5.714  -0.718  -0.077  1.00  0.00    -0.029 A 
ATOM     18  C   UNL     1       6.158   0.185   0.894  1.00  0.00     0.007 A 
ATOM     19  C   UNL     1       6.220  -2.006   0.005  1.00  0.00     0.114 A 
ATOM     20  C   UNL     1       7.016  -0.214   1.910  1.00  0.00     0.020 A 
ATOM     21  N   UNL     1       7.056  -2.429   0.980  1.00  0.00    -0.264 NA
ATOM     22  C   UNL     1       7.431  -1.528   1.914  1.00  0.00     0.111 A 
ENDBRANCH  16  17
ENDBRANCH  15  16
ENDBRANCH  13  15
ENDBRANCH   7  11
ENDBRANCH   3   6
ENDBRANCH   1   2
BRANCH   1  23
ATOM     23  C   UNL     1       3.393   3.542   0.769  1.00  0.00     0.023 C 
BRANCH  23  24
ATOM     24  C   UNL     1       4.728   4.268   0.519  1.00  0.00     0.023 C 
BRANCH  24  25
ATOM     25  C   UNL     1       5.965   3.680  -0.174  1.00  0.00     0.116 C 
BRANCH  25  26
ATOM     26  N   UNL     1       5.787   2.961  -1.418  1.00  0.00    -0.352 N 
ATOM     27  C   UNL     1       6.766   2.599  -2.340  1.00  0.00     0.251 C 
ATOM     28  H   UNL     1       4.864   2.696  -1.638  1.00  0.00     0.163 HD
ATOM     29  O   UNL     1       6.471   1.950  -3.326  1.00  0.00    -0.269 OA
BRANCH  27  30
ATOM     30  C   UNL     1       8.161   3.096  -2.170  1.00  0.00     0.039 A 
ATOM     31  C   UNL     1       8.702   3.890  -3.187  1.00  0.00     0.014 A 
ATOM     32  C   UNL     1       8.907   2.845  -1.017  1.00  0.00     0.014 A 
ATOM     33  C   UNL     1       9.926   4.542  -2.992  1.00  0.00     0.010 A 
ATOM     34  C   UNL     1      10.114   3.527  -0.806  1.00  0.00     0.010 A 
ATOM     35  C   UNL     1      10.610   4.420  -1.771  1.00  0.00    -0.014 A 
BRANCH  35  36
ATOM     36  C   UNL     1      11.755   5.321  -1.454  1.00  0.00     0.031 A 
ATOM     37  C   UNL     1      13.158   4.803  -1.316  1.00  0.00     0.074 A 
ATOM     38  C   UNL     1      11.508   6.629  -1.230  1.00  0.00     0.049 A 
ATOM     39  N   UNL     1      14.256   5.461  -1.036  1.00  0.00    -0.248 NA
ATOM     40  C   UNL     1      13.352   3.359  -1.502  1.00  0.00     0.031 C 
ATOM     41  C   UNL     1      10.185   7.257  -1.279  1.00  0.00     0.029 A 
ATOM     42  N   UNL     1      12.352   7.665  -0.910  1.00  0.00    -0.354 N 
ATOM     43  C   UNL     1      15.273   4.515  -1.012  1.00  0.00     0.074 A 
ATOM     44  C   UNL     1      14.651   3.231  -1.265  1.00  0.00     0.031 C 
ATOM     45  C   UNL     1      10.309   8.568  -1.022  1.00  0.00     0.029 A 
ATOM     46  C   UNL     1      11.712   8.873  -0.760  1.00  0.00     0.049 A 
ATOM     47  H   UNL     1      13.323   7.554  -0.799  1.00  0.00     0.167 HD
ATOM     48  C   UNL     1      16.601   4.700  -0.812  1.00  0.00     0.037 A 
ATOM     49  C   UNL     1      12.194  10.092  -0.449  1.00  0.00     0.037 A 
ATOM     50  C   UNL     1      17.223   5.977  -0.563  1.00  0.00     0.049 A 
ATOM     51  C   UNL     1      13.671  10.269  -0.229  1.00  0.00     0.074 A 
ATOM     52  C   UNL     1      18.569   6.264  -0.399  1.00  0.00     0.029 A 
ATOM     53  N   UNL     1      16.543   7.178  -0.433  1.00  0.00    -0.354 N 
ATOM     54  N   UNL     1      14.627   9.375  -0.287  1.00  0.00    -0.248 NA
ATOM     55  C   UNL     1      14.136  11.627   0.093  1.00  0.00     0.031 C 
ATOM     56  C   UNL     1      18.697   7.632  -0.130  1.00  0.00     0.029 A 
ATOM     57  C   UNL     1      17.437   8.204  -0.170  1.00  0.00     0.049 A 
ATOM     58  H   UNL     1      15.568   7.286  -0.515  1.00  0.00     0.167 HD
ATOM     59  C   UNL     1      15.807  10.064  -0.038  1.00  0.00     0.074 A 
ATOM     60  C   UNL     1      15.448  11.453   0.159  1.00  0.00     0.031 C 
ATOM     61  C   UNL     1      17.073   9.585   0.020  1.00  0.00     0.037 A 
BRANCH  48  62
ATOM     62  C   UNL     1      17.482   3.484  -0.856  1.00  0.00     0.057 A 
ATOM     63  C   UNL     1      17.761   2.822  -2.059  1.00  0.00     0.134 A 
ATOM     64  C   UNL     1      18.090   2.995   0.306  1.00  0.00     0.134 A 
ATOM     65  F   UNL     1      17.206   3.237  -3.208  1.00  0.00    -0.206 F 
ATOM     66  C   UNL     1      18.590   1.699  -2.099  1.00  0.00     0.040 A 
ATOM     67  C   UNL     1      18.941   1.888   0.275  1.00  0.00     0.040 A 
ATOM     68  F   UNL     1      17.877   3.590   1.490  1.00  0.00    -0.206 F 
ATOM     69  C   UNL     1      19.187   1.233  -0.930  1.00  0.00     0.006 A 
ENDBRANCH  48  62
BRANCH  49  70
ATOM     70  C   UNL     1      11.274  11.253  -0.354  1.00  0.00     0.057 A 
ATOM     71  C   UNL     1      11.290  12.268  -1.318  1.00  0.00     0.134 A 
ATOM     72  C   UNL     1      10.364  11.381   0.702  1.00  0.00     0.134 A 
ATOM     73  F   UNL     1      12.153  12.211  -2.342  1.00  0.00    -0.206 F 
ATOM     74  C   UNL     1      10.447  13.377  -1.227  1.00  0.00     0.040 A 
ATOM     75  C   UNL     1       9.498  12.473   0.793  1.00  0.00     0.040 A 
ATOM     76  F   UNL     1      10.294  10.439   1.654  1.00  0.00    -0.206 F 
ATOM     77  C   UNL     1       9.544  13.479  -0.171  1.00  0.00     0.006 A 
ENDBRANCH  49  70
BRANCH  61  78
ATOM     78  C   UNL     1      18.170  10.576   0.279  1.00  0.00     0.057 A 
ATOM     79  C   UNL     1      18.368  11.148   1.542  1.00  0.00     0.134 A 
ATOM     80  C   UNL     1      19.061  10.936  -0.741  1.00  0.00     0.134 A 
ATOM     81  F   UNL     1      17.540  10.857   2.557  1.00  0.00    -0.206 F 
ATOM     82  C   UNL     1      19.401  12.057   1.777  1.00  0.00     0.040 A 
ATOM     83  C   UNL     1      20.112  11.825  -0.511  1.00  0.00     0.040 A 
ATOM     84  F   UNL     1      18.931  10.421  -1.972  1.00  0.00    -0.206 F 
ATOM     85  C   UNL     1      20.281  12.393   0.750  1.00  0.00     0.006 A 
ENDBRANCH  61  78
ENDBRANCH  35  36
ENDBRANCH  27  30
ENDBRANCH  25  26
ENDBRANCH  24  25
ENDBRANCH  23  24
ENDBRANCH   1  23
TORSDOF 15
