REMARK SMILES CSc1nc(C2CC2)nc(C)c1C(=O)NCCCCNC(=O)c1ccc(-c2c3nc(c(-c4c(F)cccc4F)c4ccc([nH]4)c(-c4c(F)cccc4F)c4nc(c(-c5c(F)cccc5F)c5ccc2[nH]5)C=C4)C=C3)cc1
REMARK SMILES IDX 18 1 17 2 16 3 15 4 13 5 14 6 12 8 3 9 4 10 5 11 10 12 9 13
REMARK SMILES IDX 11 14 2 15 1 16 6 17 7 18 8 19 19 20 20 21 21 22 22 24 23 25
REMARK SMILES IDX 24 26 76 27 25 28 75 29 26 30 27 31 28 32 69 33 29 34 74 35
REMARK SMILES IDX 68 36 70 37 30 38 73 39 67 40 66 41 31 43 57 44 40 45 56 46
REMARK SMILES IDX 41 47 44 48 55 49 71 50 42 51 43 52 54 54 72 55 45 56 32 57
REMARK SMILES IDX 33 58 38 59 34 60 35 61 37 62 39 63 36 64 58 65 59 66 64 67
REMARK SMILES IDX 60 68 61 69 63 70 65 71 62 72 46 73 47 74 52 75 48 76 49 77
REMARK SMILES IDX 51 78 53 79 50 80
REMARK H PARENT 15 7 20 23 70 42 44 53
REMARK Flexibility Score: inf
ROOT
ATOM      1  C   UNL     1       1.408   8.757   1.714  1.00  0.00     0.023 C 
ENDROOT
BRANCH   1   2
ATOM      2  C   UNL     1       1.300   7.466   2.519  1.00  0.00     0.023 C 
BRANCH   2   3
ATOM      3  C   UNL     1       0.101   6.567   2.185  1.00  0.00     0.116 C 
BRANCH   3   4
ATOM      4  N   UNL     1       0.507   5.603   1.187  1.00  0.00    -0.352 N 
ATOM      5  C   UNL     1       1.137   4.387   1.267  1.00  0.00     0.255 C 
ATOM      6  O   UNL     1       1.752   4.039   0.255  1.00  0.00    -0.269 OA
ATOM      7  H   UNL     1       0.288   5.873   0.266  1.00  0.00     0.163 HD
BRANCH   5   8
ATOM      8  C   UNL     1       1.125   3.450   2.419  1.00  0.00     0.093 A 
ATOM      9  C   UNL     1       0.849   2.103   2.157  1.00  0.00     0.113 A 
ATOM     10  N   UNL     1       1.124   1.091   3.019  1.00  0.00    -0.225 NA
ATOM     11  C   UNL     1       1.707   1.399   4.180  1.00  0.00     0.133 A 
ATOM     12  C   UNL     1       1.643   3.676   3.687  1.00  0.00     0.055 A 
ATOM     13  N   UNL     1       1.909   2.666   4.555  1.00  0.00    -0.237 NA
ATOM     14  C   UNL     1       2.028   4.987   4.275  1.00  0.00     0.068 C 
BRANCH   9  15
ATOM     15  S   UNL     1       0.008   1.534   0.671  1.00  0.00    -0.109 SA
ATOM     16  C   UNL     1       1.022   0.074   0.309  1.00  0.00     0.092 C 
ENDBRANCH   9  15
BRANCH  11  17
ATOM     17  C   UNL     1       2.256   0.321   5.079  1.00  0.00     0.058 C 
ATOM     18  C   UNL     1       2.456  -1.102   4.621  1.00  0.00     0.012 C 
ATOM     19  C   UNL     1       3.647  -0.207   4.784  1.00  0.00     0.012 C 
ENDBRANCH  11  17
ENDBRANCH   5   8
ENDBRANCH   3   4
ENDBRANCH   2   3
ENDBRANCH   1   2
BRANCH   1  20
ATOM     20  C   UNL     1       0.388   9.816   2.097  1.00  0.00     0.116 C 
BRANCH  20  21
ATOM     21  N   UNL     1       0.473  10.232   3.493  1.00  0.00    -0.352 N 
ATOM     22  C   UNL     1       0.156  11.459   4.026  1.00  0.00     0.251 C 
ATOM     23  H   UNL     1       0.797   9.553   4.128  1.00  0.00     0.163 HD
ATOM     24  O   UNL     1       0.327  11.700   5.215  1.00  0.00    -0.269 OA
BRANCH  22  25
ATOM     25  C   UNL     1      -0.339  12.502   3.111  1.00  0.00     0.039 A 
ATOM     26  C   UNL     1       0.384  13.691   2.997  1.00  0.00     0.014 A 
ATOM     27  C   UNL     1      -1.426  12.236   2.275  1.00  0.00     0.014 A 
ATOM     28  C   UNL     1       0.076  14.578   1.967  1.00  0.00     0.010 A 
ATOM     29  C   UNL     1      -1.686  13.087   1.210  1.00  0.00     0.010 A 
ATOM     30  C   UNL     1      -0.922  14.253   1.035  1.00  0.00    -0.014 A 
BRANCH  30  31
ATOM     31  C   UNL     1      -1.163  15.090  -0.163  1.00  0.00     0.031 A 
ATOM     32  C   UNL     1      -2.479  15.788  -0.334  1.00  0.00     0.074 A 
ATOM     33  C   UNL     1      -0.236  15.132  -1.140  1.00  0.00     0.049 A 
ATOM     34  N   UNL     1      -2.932  16.454  -1.364  1.00  0.00    -0.248 NA
ATOM     35  C   UNL     1      -3.423  15.698   0.791  1.00  0.00     0.031 C 
ATOM     36  C   UNL     1       1.062  14.454  -1.108  1.00  0.00     0.029 A 
ATOM     37  N   UNL     1      -0.254  15.757  -2.361  1.00  0.00    -0.354 N 
ATOM     38  C   UNL     1      -4.217  16.847  -1.019  1.00  0.00     0.074 A 
ATOM     39  C   UNL     1      -4.489  16.308   0.296  1.00  0.00     0.031 C 
ATOM     40  C   UNL     1       1.720  14.711  -2.250  1.00  0.00     0.029 A 
ATOM     41  C   UNL     1       0.876  15.536  -3.109  1.00  0.00     0.049 A 
ATOM     42  H   UNL     1      -1.006  16.311  -2.671  1.00  0.00     0.167 HD
ATOM     43  C   UNL     1      -5.084  17.605  -1.730  1.00  0.00     0.037 A 
ATOM     44  C   UNL     1       1.189  15.939  -4.355  1.00  0.00     0.037 A 
ATOM     45  C   UNL     1      -4.798  18.164  -3.023  1.00  0.00     0.049 A 
ATOM     46  C   UNL     1       0.202  16.766  -5.128  1.00  0.00     0.074 A 
ATOM     47  C   UNL     1      -5.577  19.015  -3.786  1.00  0.00     0.029 A 
ATOM     48  N   UNL     1      -3.639  17.924  -3.745  1.00  0.00    -0.354 N 
ATOM     49  N   UNL     1      -0.984  17.188  -4.764  1.00  0.00    -0.248 NA
ATOM     50  C   UNL     1       0.593  17.166  -6.488  1.00  0.00     0.031 C 
ATOM     51  C   UNL     1      -4.905  19.261  -4.988  1.00  0.00     0.029 A 
ATOM     52  C   UNL     1      -3.694  18.589  -4.958  1.00  0.00     0.049 A 
ATOM     53  H   UNL     1      -2.888  17.364  -3.441  1.00  0.00     0.167 HD
ATOM     54  C   UNL     1      -1.475  17.915  -5.840  1.00  0.00     0.074 A 
ATOM     55  C   UNL     1      -0.453  17.888  -6.866  1.00  0.00     0.031 C 
ATOM     56  C   UNL     1      -2.667  18.547  -5.967  1.00  0.00     0.037 A 
BRANCH  43  57
ATOM     57  C   UNL     1      -6.423  17.877  -1.113  1.00  0.00     0.057 A 
ATOM     58  C   UNL     1      -6.569  18.752  -0.030  1.00  0.00     0.134 A 
ATOM     59  C   UNL     1      -7.580  17.276  -1.623  1.00  0.00     0.134 A 
ATOM     60  F   UNL     1      -5.497  19.346   0.514  1.00  0.00    -0.206 F 
ATOM     61  C   UNL     1      -7.818  19.002   0.541  1.00  0.00     0.040 A 
ATOM     62  C   UNL     1      -8.837  17.536  -1.076  1.00  0.00     0.040 A 
ATOM     63  F   UNL     1      -7.507  16.429  -2.662  1.00  0.00    -0.206 F 
ATOM     64  C   UNL     1      -8.957  18.397   0.013  1.00  0.00     0.006 A 
ENDBRANCH  43  57
BRANCH  44  65
ATOM     65  C   UNL     1       2.498  15.571  -4.947  1.00  0.00     0.057 A 
ATOM     66  C   UNL     1       3.504  16.529  -5.116  1.00  0.00     0.134 A 
ATOM     67  C   UNL     1       2.775  14.262  -5.360  1.00  0.00     0.134 A 
ATOM     68  F   UNL     1       3.289  17.803  -4.757  1.00  0.00    -0.206 F 
ATOM     69  C   UNL     1       4.736  16.202  -5.685  1.00  0.00     0.040 A 
ATOM     70  C   UNL     1       4.009  13.917  -5.912  1.00  0.00     0.040 A 
ATOM     71  F   UNL     1       1.853  13.299  -5.219  1.00  0.00    -0.206 F 
ATOM     72  C   UNL     1       4.992  14.891  -6.081  1.00  0.00     0.006 A 
ENDBRANCH  44  65
BRANCH  56  73
ATOM     73  C   UNL     1      -2.925  19.267  -7.254  1.00  0.00     0.057 A 
ATOM     74  C   UNL     1      -3.259  18.576  -8.425  1.00  0.00     0.134 A 
ATOM     75  C   UNL     1      -2.892  20.666  -7.311  1.00  0.00     0.134 A 
ATOM     76  F   UNL     1      -3.293  17.235  -8.436  1.00  0.00    -0.206 F 
ATOM     77  C   UNL     1      -3.543  19.252  -9.612  1.00  0.00     0.040 A 
ATOM     78  C   UNL     1      -3.193  21.354  -8.486  1.00  0.00     0.040 A 
ATOM     79  F   UNL     1      -2.584  21.385  -6.221  1.00  0.00    -0.206 F 
ATOM     80  C   UNL     1      -3.518  20.646  -9.642  1.00  0.00     0.006 A 
ENDBRANCH  56  73
ENDBRANCH  30  31
ENDBRANCH  22  25
ENDBRANCH  20  21
ENDBRANCH   1  20
TORSDOF 13
