REMARK SMILES O=C(NCCCCNC(=O)c1ccc(-c2c3nc(c(-c4c(F)cccc4F)c4ccc([nH]4)c(-c4c(F)cccc4F)c4nc(c(-c5c(F)cccc5F)c5ccc2[nH]5)C=C4)C=C3)cc1)c1ccc(/C=C/c2ccc3cccc(O)c3n2)cc1
REMARK SMILES IDX 5 1 4 2 3 3 1 4 2 5 65 7 66 8 83 9 67 10 82 11 68 12 69 13
REMARK SMILES IDX 70 14 71 15 72 16 81 17 73 18 80 19 74 20 78 21 75 22 77 23
REMARK SMILES IDX 76 24 79 25 6 27 7 28 8 29 9 30 10 32 11 33 12 34 64 35
REMARK SMILES IDX 13 36 63 37 14 38 15 39 16 40 57 41 17 42 62 43 56 44 58 45
REMARK SMILES IDX 18 46 61 47 55 48 54 49 19 51 45 52 28 53 44 54 29 55 32 56
REMARK SMILES IDX 43 57 59 58 30 59 31 60 42 62 60 63 33 64 20 65 21 66 26 67
REMARK SMILES IDX 22 68 23 69 25 70 27 71 24 72 46 73 47 74 52 75 48 76 49 77
REMARK SMILES IDX 51 78 53 79 50 80 34 81 35 82 40 83 36 84 37 85 39 86 41 87
REMARK SMILES IDX 38 88
REMARK H PARENT 3 6 79 26 8 31 58 50 32 61
REMARK Flexibility Score: inf
ROOT
ATOM      1  C   UNL     1       4.970  -0.525  -2.271  1.00  0.00     0.023 C 
ENDROOT
BRANCH   1   2
ATOM      2  C   UNL     1       4.660   0.353  -1.060  1.00  0.00     0.116 C 
BRANCH   2   3
ATOM      3  N   UNL     1       3.235   0.521  -0.849  1.00  0.00    -0.352 N 
ATOM      4  O   UNL     1       1.249   0.268   0.176  1.00  0.00    -0.269 OA
ATOM      5  C   UNL     1       2.470   0.202   0.244  1.00  0.00     0.251 C 
ATOM      6  H   UNL     1       2.744   0.922  -1.602  1.00  0.00     0.163 HD
BRANCH   5   7
ATOM      7  C   UNL     1       3.107  -0.259   1.496  1.00  0.00     0.039 A 
ATOM      8  C   UNL     1       4.109   0.478   2.141  1.00  0.00     0.014 A 
ATOM      9  C   UNL     1       2.640  -1.444   2.058  1.00  0.00     0.014 A 
ATOM     10  C   UNL     1       4.687  -0.002   3.326  1.00  0.00     0.009 A 
ATOM     11  C   UNL     1       3.210  -1.911   3.240  1.00  0.00     0.009 A 
ATOM     12  C   UNL     1       4.247  -1.204   3.882  1.00  0.00    -0.026 A 
BRANCH  12  13
ATOM     13  C   UNL     1       4.840  -1.851   5.058  1.00  0.00     0.010 C 
ATOM     14  C   UNL     1       6.003  -1.614   5.699  1.00  0.00     0.029 C 
BRANCH  14  15
ATOM     15  C   UNL     1       6.516  -2.798   6.434  1.00  0.00     0.064 A 
ATOM     16  C   UNL     1       7.147  -3.705   5.585  1.00  0.00     0.029 A 
ATOM     17  N   UNL     1       5.793  -3.183   7.515  1.00  0.00    -0.245 NA
ATOM     18  C   UNL     1       6.700  -5.018   5.611  1.00  0.00     0.013 A 
ATOM     19  C   UNL     1       5.415  -4.481   7.570  1.00  0.00     0.113 A 
ATOM     20  C   UNL     1       5.744  -5.401   6.557  1.00  0.00     0.004 A 
ATOM     21  C   UNL     1       4.598  -4.934   8.604  1.00  0.00     0.141 A 
ATOM     22  C   UNL     1       5.092  -6.644   6.491  1.00  0.00     0.010 A 
ATOM     23  C   UNL     1       3.980  -6.182   8.575  1.00  0.00     0.048 A 
ATOM     24  C   UNL     1       4.187  -7.018   7.482  1.00  0.00     0.005 A 
BRANCH  21  25
ATOM     25  O   UNL     1       4.369  -4.129   9.693  1.00  0.00    -0.506 OA
ATOM     26  H   UNL     1       3.821  -4.429  10.391  1.00  0.00     0.293 HD
ENDBRANCH  21  25
ENDBRANCH  14  15
ENDBRANCH  12  13
ENDBRANCH   5   7
ENDBRANCH   2   3
ENDBRANCH   1   2
BRANCH   1  27
ATOM     27  C   UNL     1       4.466   0.000  -3.616  1.00  0.00     0.023 C 
BRANCH  27  28
ATOM     28  C   UNL     1       4.854   1.436  -3.953  1.00  0.00     0.116 C 
BRANCH  28  29
ATOM     29  N   UNL     1       6.293   1.651  -3.980  1.00  0.00    -0.352 N 
ATOM     30  C   UNL     1       7.080   2.197  -4.966  1.00  0.00     0.251 C 
ATOM     31  H   UNL     1       6.775   1.363  -3.171  1.00  0.00     0.163 HD
ATOM     32  O   UNL     1       8.302   2.190  -4.853  1.00  0.00    -0.269 OA
BRANCH  30  33
ATOM     33  C   UNL     1       6.457   2.755  -6.185  1.00  0.00     0.039 A 
ATOM     34  C   UNL     1       6.969   2.388  -7.432  1.00  0.00     0.014 A 
ATOM     35  C   UNL     1       5.356   3.611  -6.102  1.00  0.00     0.014 A 
ATOM     36  C   UNL     1       6.320   2.804  -8.597  1.00  0.00     0.010 A 
ATOM     37  C   UNL     1       4.667   3.962  -7.260  1.00  0.00     0.010 A 
ATOM     38  C   UNL     1       5.134   3.552  -8.518  1.00  0.00    -0.014 A 
BRANCH  38  39
ATOM     39  C   UNL     1       4.347   3.884  -9.734  1.00  0.00     0.031 A 
ATOM     40  C   UNL     1       4.137   5.317 -10.135  1.00  0.00     0.074 A 
ATOM     41  C   UNL     1       3.749   2.896 -10.428  1.00  0.00     0.049 A 
ATOM     42  N   UNL     1       3.403   5.805 -11.103  1.00  0.00    -0.248 NA
ATOM     43  C   UNL     1       4.818   6.337  -9.323  1.00  0.00     0.031 C 
ATOM     44  C   UNL     1       3.832   1.468 -10.113  1.00  0.00     0.029 A 
ATOM     45  N   UNL     1       2.935   2.944 -11.533  1.00  0.00    -0.354 N 
ATOM     46  C   UNL     1       3.522   7.186 -11.007  1.00  0.00     0.074 A 
ATOM     47  C   UNL     1       4.358   7.459  -9.857  1.00  0.00     0.031 C 
ATOM     48  C   UNL     1       3.113   0.777 -11.011  1.00  0.00     0.029 A 
ATOM     49  C   UNL     1       2.484   1.711 -11.939  1.00  0.00     0.049 A 
ATOM     50  H   UNL     1       2.697   3.782 -11.992  1.00  0.00     0.167 HD
ATOM     51  C   UNL     1       3.000   8.138 -11.816  1.00  0.00     0.037 A 
ATOM     52  C   UNL     1       1.645   1.371 -12.936  1.00  0.00     0.037 A 
ATOM     53  C   UNL     1       2.186   7.864 -12.971  1.00  0.00     0.049 A 
ATOM     54  C   UNL     1       1.067   2.447 -13.812  1.00  0.00     0.074 A 
ATOM     55  C   UNL     1       1.668   8.757 -13.892  1.00  0.00     0.029 A 
ATOM     56  N   UNL     1       1.766   6.600 -13.360  1.00  0.00    -0.354 N 
ATOM     57  N   UNL     1       1.250   3.744 -13.756  1.00  0.00    -0.248 NA
ATOM     58  C   UNL     1       0.169   2.014 -14.891  1.00  0.00     0.031 C 
ATOM     59  C   UNL     1       0.894   8.040 -14.810  1.00  0.00     0.029 A 
ATOM     60  C   UNL     1       0.972   6.694 -14.491  1.00  0.00     0.049 A 
ATOM     61  H   UNL     1       1.998   5.761 -12.901  1.00  0.00     0.167 HD
ATOM     62  C   UNL     1       0.511   4.279 -14.804  1.00  0.00     0.074 A 
ATOM     63  C   UNL     1      -0.110   3.164 -15.488  1.00  0.00     0.031 C 
ATOM     64  C   UNL     1       0.362   5.576 -15.165  1.00  0.00     0.037 A 
BRANCH  51  65
ATOM     65  C   UNL     1       3.295   9.571 -11.478  1.00  0.00     0.057 A 
ATOM     66  C   UNL     1       4.577  10.118 -11.628  1.00  0.00     0.134 A 
ATOM     67  C   UNL     1       2.279  10.424 -11.028  1.00  0.00     0.134 A 
ATOM     68  F   UNL     1       5.597   9.353 -12.045  1.00  0.00    -0.206 F 
ATOM     69  C   UNL     1       4.843  11.452 -11.317  1.00  0.00     0.040 A 
ATOM     70  C   UNL     1       2.527  11.767 -10.741  1.00  0.00     0.040 A 
ATOM     71  F   UNL     1       1.027   9.968 -10.869  1.00  0.00    -0.206 F 
ATOM     72  C   UNL     1       3.814  12.283 -10.878  1.00  0.00     0.006 A 
ENDBRANCH  51  65
BRANCH  52  73
ATOM     73  C   UNL     1       1.306  -0.057 -13.167  1.00  0.00     0.057 A 
ATOM     74  C   UNL     1       1.774  -0.736 -14.297  1.00  0.00     0.134 A 
ATOM     75  C   UNL     1       0.506  -0.773 -12.270  1.00  0.00     0.134 A 
ATOM     76  F   UNL     1       2.530  -0.098 -15.204  1.00  0.00    -0.206 F 
ATOM     77  C   UNL     1       1.444  -2.071 -14.538  1.00  0.00     0.040 A 
ATOM     78  C   UNL     1       0.189  -2.116 -12.484  1.00  0.00     0.040 A 
ATOM     79  F   UNL     1       0.032  -0.182 -11.163  1.00  0.00    -0.206 F 
ATOM     80  C   UNL     1       0.653  -2.766 -13.625  1.00  0.00     0.006 A 
ENDBRANCH  52  73
BRANCH  64  81
ATOM     81  C   UNL     1      -0.483   5.862 -16.372  1.00  0.00     0.057 A 
ATOM     82  C   UNL     1      -1.878   5.738 -16.345  1.00  0.00     0.134 A 
ATOM     83  C   UNL     1       0.103   6.311 -17.563  1.00  0.00     0.134 A 
ATOM     84  F   UNL     1      -2.500   5.299 -15.240  1.00  0.00    -0.206 F 
ATOM     85  C   UNL     1      -2.658   6.032 -17.464  1.00  0.00     0.040 A 
ATOM     86  C   UNL     1      -0.668   6.634 -18.680  1.00  0.00     0.040 A 
ATOM     87  F   UNL     1       1.433   6.458 -17.654  1.00  0.00    -0.206 F 
ATOM     88  C   UNL     1      -2.054   6.490 -18.633  1.00  0.00     0.006 A 
ENDBRANCH  64  81
ENDBRANCH  38  39
ENDBRANCH  30  33
ENDBRANCH  28  29
ENDBRANCH  27  28
ENDBRANCH   1  27
TORSDOF 14
