REMARK SMILES Cc1ccsc1C(=O)NNC(=O)[C@@H]1[C@@H](C(=O)NCCCCNC(=O)c2ccc(-c3c4nc(c(-c5c(F)cccc5F)c5ccc([nH]5)c(-c5c(F)cccc5F)c5nc(c(-c6c(F)cccc6F)c6ccc3[nH]6)C=C5)C=C4)cc2)[C@H]2C=C[C@@H]1C2
REMARK SMILES IDX 19 1 18 2 17 3 15 4 16 5 14 7 13 8 82 9 79 10 81 11 83 12
REMARK SMILES IDX 80 13 11 14 10 15 12 17 9 18 7 19 8 20 6 22 1 23 2 24 3 25
REMARK SMILES IDX 4 26 5 27 20 28 21 29 22 30 23 31 24 33 25 34 26 35 78 36
REMARK SMILES IDX 27 37 77 38 28 39 29 40 30 41 71 42 31 43 76 44 70 45 72 46
REMARK SMILES IDX 32 47 75 48 69 49 68 50 33 52 59 53 42 54 58 55 43 56 46 57
REMARK SMILES IDX 57 58 73 59 44 60 45 61 56 63 74 64 47 65 34 66 35 67 40 68
REMARK SMILES IDX 36 69 37 70 39 71 41 72 38 73 60 74 61 75 66 76 62 77 63 78
REMARK SMILES IDX 65 79 67 80 64 81 48 82 49 83 54 84 50 85 51 86 53 87 55 88
REMARK SMILES IDX 52 89
REMARK H PARENT 17 6 10 16 9 21 22 32 72 51 46 62
REMARK Flexibility Score: inf
ROOT
ATOM      1  C   UNL     1       7.683  -6.926   0.299  1.00  0.00     0.023 C 
ENDROOT
BRANCH   1   2
ATOM      2  C   UNL     1       7.140  -5.594  -0.207  1.00  0.00     0.116 C 
BRANCH   2   3
ATOM      3  N   UNL     1       6.476  -5.719  -1.488  1.00  0.00    -0.356 N 
ATOM      4  C   UNL     1       5.202  -5.528  -1.900  1.00  0.00     0.224 C 
ATOM      5  O   UNL     1       4.994  -5.721  -3.106  1.00  0.00    -0.275 OA
ATOM      6  H   UNL     1       7.079  -6.002  -2.213  1.00  0.00     0.163 HD
BRANCH   4   7
ATOM      7  C   UNL     1       4.015  -5.153  -1.022  1.00  0.00     0.098 C 
ATOM      8  C   UNL     1       4.159  -4.016   0.017  1.00  0.00     0.100 C 
ATOM      9  C   UNL     1       3.387  -4.597   1.236  1.00  0.00     0.025 C 
ATOM     10  C   UNL     1       3.414  -6.328  -0.200  1.00  0.00     0.025 C 
ATOM     11  C   UNL     1       4.279  -5.685   1.830  1.00  0.00    -0.027 C 
ATOM     12  C   UNL     1       2.369  -5.577   0.632  1.00  0.00     0.017 C 
ATOM     13  C   UNL     1       4.295  -6.711   0.961  1.00  0.00    -0.027 C 
BRANCH   8  14
ATOM     14  C   UNL     1       3.870  -2.621  -0.545  1.00  0.00     0.242 C 
ATOM     15  N   UNL     1       2.654  -2.193  -0.982  1.00  0.00    -0.267 N 
ATOM     16  H   UNL     1       2.630  -1.371  -1.524  1.00  0.00     0.191 HD
ATOM     17  O   UNL     1       4.814  -1.829  -0.674  1.00  0.00    -0.273 OA
BRANCH  15  18
ATOM     18  N   UNL     1       1.466  -2.813  -0.727  1.00  0.00    -0.263 N 
ATOM     19  C   UNL     1       0.340  -2.249  -0.151  1.00  0.00     0.280 C 
ATOM     20  O   UNL     1      -0.571  -3.043   0.106  1.00  0.00    -0.266 OA
ATOM     21  H   UNL     1       1.402  -3.763  -0.980  1.00  0.00     0.191 HD
BRANCH  19  22
ATOM     22  C   UNL     1       0.206  -0.801  -0.002  1.00  0.00     0.096 A 
ATOM     23  C   UNL     1       2.458   0.154   0.888  1.00  0.00     0.046 C 
ATOM     24  C   UNL     1       1.053   0.237   0.385  1.00  0.00    -0.027 A 
ATOM     25  C   UNL     1       0.393   1.515   0.272  1.00  0.00     0.016 A 
ATOM     26  C   UNL     1      -0.918   1.417  -0.120  1.00  0.00     0.066 A 
ATOM     27  S   UNL     1      -1.376  -0.195  -0.376  1.00  0.00    -0.138 S 
ENDBRANCH  19  22
ENDBRANCH  15  18
ENDBRANCH   8  14
ENDBRANCH   4   7
ENDBRANCH   2   3
ENDBRANCH   1   2
BRANCH   1  28
ATOM     28  C   UNL     1       9.033  -7.326  -0.282  1.00  0.00     0.023 C 
BRANCH  28  29
ATOM     29  C   UNL     1      10.143  -6.295  -0.118  1.00  0.00     0.116 C 
BRANCH  29  30
ATOM     30  N   UNL     1      10.322  -5.826   1.251  1.00  0.00    -0.352 N 
ATOM     31  C   UNL     1      11.497  -5.643   1.951  1.00  0.00     0.251 C 
ATOM     32  H   UNL     1       9.495  -5.611   1.740  1.00  0.00     0.163 HD
ATOM     33  O   UNL     1      11.492  -5.304   3.119  1.00  0.00    -0.269 OA
BRANCH  31  34
ATOM     34  C   UNL     1      12.767  -5.924   1.252  1.00  0.00     0.039 A 
ATOM     35  C   UNL     1      13.628  -6.884   1.786  1.00  0.00     0.014 A 
ATOM     36  C   UNL     1      13.022  -5.339   0.010  1.00  0.00     0.014 A 
ATOM     37  C   UNL     1      14.695  -7.343   1.014  1.00  0.00     0.010 A 
ATOM     38  C   UNL     1      14.033  -5.858  -0.787  1.00  0.00     0.010 A 
ATOM     39  C   UNL     1      14.865  -6.879  -0.301  1.00  0.00    -0.014 A 
BRANCH  39  40
ATOM     40  C   UNL     1      15.879  -7.472  -1.206  1.00  0.00     0.031 A 
ATOM     41  C   UNL     1      16.983  -6.616  -1.756  1.00  0.00     0.074 A 
ATOM     42  C   UNL     1      15.744  -8.750  -1.612  1.00  0.00     0.049 A 
ATOM     43  N   UNL     1      17.890  -6.912  -2.650  1.00  0.00    -0.248 NA
ATOM     44  C   UNL     1      17.052  -5.232  -1.262  1.00  0.00     0.031 C 
ATOM     45  C   UNL     1      14.679  -9.666  -1.197  1.00  0.00     0.029 A 
ATOM     46  N   UNL     1      16.501  -9.497  -2.479  1.00  0.00    -0.354 N 
ATOM     47  C   UNL     1      18.622  -5.748  -2.841  1.00  0.00     0.074 A 
ATOM     48  C   UNL     1      18.022  -4.728  -2.010  1.00  0.00     0.031 C 
ATOM     49  C   UNL     1      14.864 -10.856  -1.791  1.00  0.00     0.029 A 
ATOM     50  C   UNL     1      16.035 -10.777  -2.658  1.00  0.00     0.049 A 
ATOM     51  H   UNL     1      17.303  -9.148  -2.932  1.00  0.00     0.167 HD
ATOM     52  C   UNL     1      19.712  -5.555  -3.620  1.00  0.00     0.037 A 
ATOM     53  C   UNL     1      16.494 -11.771  -3.441  1.00  0.00     0.037 A 
ATOM     54  C   UNL     1      20.329  -6.582  -4.414  1.00  0.00     0.049 A 
ATOM     55  C   UNL     1      17.708 -11.532  -4.294  1.00  0.00     0.074 A 
ATOM     56  C   UNL     1      21.486  -6.509  -5.169  1.00  0.00     0.029 A 
ATOM     57  N   UNL     1      19.838  -7.871  -4.554  1.00  0.00    -0.354 N 
ATOM     58  N   UNL     1      18.434 -10.447  -4.409  1.00  0.00    -0.248 NA
ATOM     59  C   UNL     1      18.163 -12.653  -5.129  1.00  0.00     0.031 C 
ATOM     60  C   UNL     1      21.676  -7.745  -5.795  1.00  0.00     0.029 A 
ATOM     61  C   UNL     1      20.656  -8.597  -5.402  1.00  0.00     0.049 A 
ATOM     62  H   UNL     1      19.028  -8.218  -4.115  1.00  0.00     0.167 HD
ATOM     63  C   UNL     1      19.440 -10.758  -5.314  1.00  0.00     0.074 A 
ATOM     64  C   UNL     1      19.241 -12.138  -5.705  1.00  0.00     0.031 C 
ATOM     65  C   UNL     1      20.439  -9.970  -5.780  1.00  0.00     0.037 A 
BRANCH  52  66
ATOM     66  C   UNL     1      20.309  -4.180  -3.636  1.00  0.00     0.057 A 
ATOM     67  C   UNL     1      21.004  -3.666  -2.534  1.00  0.00     0.134 A 
ATOM     68  C   UNL     1      20.208  -3.369  -4.773  1.00  0.00     0.134 A 
ATOM     69  F   UNL     1      21.122  -4.388  -1.409  1.00  0.00    -0.206 F 
ATOM     70  C   UNL     1      21.554  -2.384  -2.551  1.00  0.00     0.040 A 
ATOM     71  C   UNL     1      20.776  -2.095  -4.812  1.00  0.00     0.040 A 
ATOM     72  F   UNL     1      19.559  -3.802  -5.864  1.00  0.00    -0.206 F 
ATOM     73  C   UNL     1      21.446  -1.597  -3.696  1.00  0.00     0.006 A 
ENDBRANCH  52  66
BRANCH  53  74
ATOM     74  C   UNL     1      15.815 -13.091  -3.444  1.00  0.00     0.057 A 
ATOM     75  C   UNL     1      16.414 -14.207  -2.850  1.00  0.00     0.134 A 
ATOM     76  C   UNL     1      14.562 -13.271  -4.040  1.00  0.00     0.134 A 
ATOM     77  F   UNL     1      17.624 -14.100  -2.280  1.00  0.00    -0.206 F 
ATOM     78  C   UNL     1      15.799 -15.460  -2.861  1.00  0.00     0.040 A 
ATOM     79  C   UNL     1      13.925 -14.514  -4.040  1.00  0.00     0.040 A 
ATOM     80  F   UNL     1      13.933 -12.239  -4.620  1.00  0.00    -0.206 F 
ATOM     81  C   UNL     1      14.547 -15.614  -3.453  1.00  0.00     0.006 A 
ENDBRANCH  53  74
BRANCH  65  82
ATOM     82  C   UNL     1      21.396 -10.584  -6.755  1.00  0.00     0.057 A 
ATOM     83  C   UNL     1      21.038 -10.809  -8.090  1.00  0.00     0.134 A 
ATOM     84  C   UNL     1      22.703 -10.907  -6.368  1.00  0.00     0.134 A 
ATOM     85  F   UNL     1      19.797 -10.534  -8.517  1.00  0.00    -0.206 F 
ATOM     86  C   UNL     1      21.945 -11.347  -9.005  1.00  0.00     0.040 A 
ATOM     87  C   UNL     1      23.624 -11.425  -7.279  1.00  0.00     0.040 A 
ATOM     88  F   UNL     1      23.107 -10.708  -5.105  1.00  0.00    -0.206 F 
ATOM     89  C   UNL     1      23.245 -11.649  -8.601  1.00  0.00     0.006 A 
ENDBRANCH  65  82
ENDBRANCH  39  40
ENDBRANCH  31  34
ENDBRANCH  29  30
ENDBRANCH  28  29
ENDBRANCH   1  28
TORSDOF 14
