REMARK SMILES Cc1nn(C)cc1-c1cc(C(F)(F)F)c2c(C)nn(CC(=O)NCCCCNC(=O)c3ccc(-c4c5nc(c(-c6c(F)cccc6F)c6ccc([nH]6)c(-c6c(F)cccc6F)c6nc(c(-c7c(F)cccc7F)c7ccc4[nH]7)C=C6)C=C5)cc3)c2n1
REMARK SMILES IDX 25 1 24 2 23 3 21 4 22 5 20 7 19 8 8 9 9 10 86 11 10 12
REMARK SMILES IDX 85 13 15 14 16 15 18 16 17 17 7 18 1 19 2 20 3 21 4 22 6 23
REMARK SMILES IDX 5 24 11 25 12 26 13 27 14 28 26 29 27 30 28 31 29 32 30 34
REMARK SMILES IDX 31 35 32 36 84 37 33 38 83 39 34 40 35 41 36 42 77 43 37 44
REMARK SMILES IDX 82 45 76 46 78 47 38 48 81 49 75 50 74 51 39 53 65 54 48 55
REMARK SMILES IDX 64 56 49 57 52 58 63 59 79 60 50 61 51 62 62 64 80 65 53 66
REMARK SMILES IDX 40 67 41 68 46 69 42 70 43 71 45 72 47 73 44 74 66 75 67 76
REMARK SMILES IDX 72 77 68 78 69 79 71 80 73 81 70 82 54 83 55 84 60 85 56 86
REMARK SMILES IDX 57 87 59 88 61 89 58 90
REMARK H PARENT 23 6 28 33 78 52 52 63
REMARK Flexibility Score: inf
ROOT
ATOM      1  C   UNL     1      -0.377   0.327   3.342  1.00  0.00     0.023 C 
ENDROOT
BRANCH   1   2
ATOM      2  C   UNL     1      -0.903   1.695   3.741  1.00  0.00     0.116 C 
BRANCH   2   3
ATOM      3  N   UNL     1      -0.136   2.752   3.114  1.00  0.00    -0.354 N 
ATOM      4  C   UNL     1      -0.389   3.421   1.948  1.00  0.00     0.241 C 
ATOM      5  O   UNL     1       0.418   4.289   1.609  1.00  0.00    -0.273 OA
ATOM      6  H   UNL     1       0.679   3.026   3.593  1.00  0.00     0.163 HD
BRANCH   4   7
ATOM      7  C   UNL     1      -1.664   3.177   1.175  1.00  0.00     0.246 C 
BRANCH   7   8
ATOM      8  N   UNL     1      -1.603   1.958   0.381  1.00  0.00    -0.237 N 
ATOM      9  C   UNL     1      -1.997  -1.557   1.016  1.00  0.00     0.077 A 
ATOM     10  C   UNL     1      -2.827  -2.329   0.216  1.00  0.00     0.043 A 
ATOM     11  N   UNL     1      -2.563  -0.475   1.667  1.00  0.00    -0.228 NA
ATOM     12  C   UNL     1      -3.667  -1.629  -0.686  1.00  0.00     0.071 A 
ATOM     13  C   UNL     1      -2.795   0.480   0.709  1.00  0.00     0.159 A 
ATOM     14  C   UNL     1      -3.203  -0.319  -0.939  1.00  0.00     0.054 A 
ATOM     15  C   UNL     1      -1.925   0.505  -2.270  1.00  0.00     0.070 A 
ATOM     16  N   UNL     1      -1.167   1.983  -1.523  1.00  0.00    -0.175 NA
ATOM     17  C   UNL     1      -1.160  -0.291  -3.281  1.00  0.00     0.069 C 
BRANCH   9  18
ATOM     18  C   UNL     1      -0.845  -1.015   0.262  1.00  0.00     0.041 A 
ATOM     19  C   UNL     1      -2.736   1.541  -0.898  1.00  0.00     0.069 C 
ATOM     20  C   UNL     1      -0.942   0.378  -0.423  1.00  0.00     0.069 A 
ATOM     21  N   UNL     1       0.391   0.805  -0.395  1.00  0.00    -0.178 NA
ATOM     22  N   UNL     1       1.157  -0.235  -0.066  1.00  0.00    -0.275 N 
ATOM     23  C   UNL     1       0.486  -1.337   0.377  1.00  0.00     0.119 A 
ATOM     24  C   UNL     1       2.579   0.017  -0.012  1.00  0.00     0.173 C 
ENDBRANCH   9  18
BRANCH  12  25
ATOM     25  C   UNL     1      -5.161  -1.776  -0.398  1.00  0.00     0.417 C 
ATOM     26  F   UNL     1      -5.506  -1.234   0.808  1.00  0.00    -0.166 F 
ATOM     27  F   UNL     1      -5.938  -1.141  -1.316  1.00  0.00    -0.166 F 
ATOM     28  F   UNL     1      -5.584  -3.067  -0.358  1.00  0.00    -0.166 F 
ENDBRANCH  12  25
ENDBRANCH   7   8
ENDBRANCH   4   7
ENDBRANCH   2   3
ENDBRANCH   1   2
BRANCH   1  29
ATOM     29  C   UNL     1       0.961  -0.155   3.881  1.00  0.00     0.023 C 
BRANCH  29  30
ATOM     30  C   UNL     1       0.921  -0.348   5.377  1.00  0.00     0.116 C 
BRANCH  30  31
ATOM     31  N   UNL     1      -0.059  -1.367   5.777  1.00  0.00    -0.352 N 
ATOM     32  C   UNL     1      -0.298  -1.857   7.045  1.00  0.00     0.251 C 
ATOM     33  H   UNL     1      -0.610  -1.746   5.054  1.00  0.00     0.163 HD
ATOM     34  O   UNL     1      -0.860  -2.926   7.237  1.00  0.00    -0.269 OA
BRANCH  32  35
ATOM     35  C   UNL     1       0.073  -0.995   8.171  1.00  0.00     0.039 A 
ATOM     36  C   UNL     1       0.740  -1.449   9.311  1.00  0.00     0.014 A 
ATOM     37  C   UNL     1      -0.192   0.352   7.980  1.00  0.00     0.014 A 
ATOM     38  C   UNL     1       1.076  -0.513  10.287  1.00  0.00     0.010 A 
ATOM     39  C   UNL     1       0.507   1.234   8.733  1.00  0.00     0.010 A 
ATOM     40  C   UNL     1       0.895   0.843   9.995  1.00  0.00    -0.014 A 
BRANCH  40  41
ATOM     41  C   UNL     1       1.306   1.935  10.856  1.00  0.00     0.031 A 
ATOM     42  C   UNL     1       2.784   1.986  10.964  1.00  0.00     0.074 A 
ATOM     43  C   UNL     1       0.425   2.881  11.274  1.00  0.00     0.049 A 
ATOM     44  N   UNL     1       3.485   1.567  11.963  1.00  0.00    -0.248 NA
ATOM     45  C   UNL     1       3.593   2.241   9.754  1.00  0.00     0.031 C 
ATOM     46  C   UNL     1      -1.011   3.015  10.980  1.00  0.00     0.029 A 
ATOM     47  N   UNL     1       0.664   4.002  12.023  1.00  0.00    -0.354 N 
ATOM     48  C   UNL     1       4.806   1.819  11.615  1.00  0.00     0.074 A 
ATOM     49  C   UNL     1       4.819   1.934  10.186  1.00  0.00     0.031 C 
ATOM     50  C   UNL     1      -1.442   4.255  11.318  1.00  0.00     0.029 A 
ATOM     51  C   UNL     1      -0.362   4.964  11.972  1.00  0.00     0.049 A 
ATOM     52  H   UNL     1       1.485   4.125  12.553  1.00  0.00     0.167 HD
ATOM     53  C   UNL     1       5.674   2.282  12.556  1.00  0.00     0.037 A 
ATOM     54  C   UNL     1      -0.257   6.251  12.419  1.00  0.00     0.037 A 
ATOM     55  C   UNL     1       5.110   2.098  13.876  1.00  0.00     0.049 A 
ATOM     56  C   UNL     1       0.890   6.270  13.377  1.00  0.00     0.074 A 
ATOM     57  C   UNL     1       4.670   1.005  14.597  1.00  0.00     0.029 A 
ATOM     58  N   UNL     1       4.507   3.197  14.439  1.00  0.00    -0.354 N 
ATOM     59  N   UNL     1       0.868   5.613  14.509  1.00  0.00    -0.248 NA
ATOM     60  C   UNL     1       2.210   6.475  12.791  1.00  0.00     0.031 C 
ATOM     61  C   UNL     1       3.464   1.443  15.223  1.00  0.00     0.029 A 
ATOM     62  C   UNL     1       3.307   2.807  14.975  1.00  0.00     0.049 A 
ATOM     63  H   UNL     1       4.875   4.110  14.456  1.00  0.00     0.167 HD
ATOM     64  C   UNL     1       2.073   4.920  14.528  1.00  0.00     0.074 A 
ATOM     65  C   UNL     1       2.864   5.504  13.439  1.00  0.00     0.031 C 
ATOM     66  C   UNL     1       2.207   3.723  15.176  1.00  0.00     0.037 A 
BRANCH  53  67
ATOM     67  C   UNL     1       6.744   3.322  12.303  1.00  0.00     0.057 A 
ATOM     68  C   UNL     1       6.781   4.204  11.204  1.00  0.00     0.134 A 
ATOM     69  C   UNL     1       7.578   3.680  13.379  1.00  0.00     0.134 A 
ATOM     70  F   UNL     1       6.042   4.034  10.104  1.00  0.00    -0.206 F 
ATOM     71  C   UNL     1       7.522   5.389  11.208  1.00  0.00     0.040 A 
ATOM     72  C   UNL     1       8.287   4.886  13.411  1.00  0.00     0.040 A 
ATOM     73  F   UNL     1       7.652   2.912  14.477  1.00  0.00    -0.206 F 
ATOM     74  C   UNL     1       8.244   5.755  12.330  1.00  0.00     0.006 A 
ENDBRANCH  53  67
BRANCH  54  75
ATOM     75  C   UNL     1      -0.800   7.489  11.790  1.00  0.00     0.057 A 
ATOM     76  C   UNL     1      -1.061   7.534  10.409  1.00  0.00     0.134 A 
ATOM     77  C   UNL     1      -0.832   8.733  12.447  1.00  0.00     0.134 A 
ATOM     78  F   UNL     1      -0.958   6.431   9.654  1.00  0.00    -0.206 F 
ATOM     79  C   UNL     1      -1.345   8.722   9.723  1.00  0.00     0.040 A 
ATOM     80  C   UNL     1      -1.117   9.936  11.770  1.00  0.00     0.040 A 
ATOM     81  F   UNL     1      -0.532   8.825  13.751  1.00  0.00    -0.206 F 
ATOM     82  C   UNL     1      -1.370   9.932  10.402  1.00  0.00     0.006 A 
ENDBRANCH  54  75
BRANCH  66  83
ATOM     83  C   UNL     1       1.075   3.240  16.044  1.00  0.00     0.057 A 
ATOM     84  C   UNL     1       1.359   2.936  17.379  1.00  0.00     0.134 A 
ATOM     85  C   UNL     1      -0.216   2.924  15.589  1.00  0.00     0.134 A 
ATOM     86  F   UNL     1       2.593   3.136  17.867  1.00  0.00    -0.206 F 
ATOM     87  C   UNL     1       0.407   2.374  18.230  1.00  0.00     0.040 A 
ATOM     88  C   UNL     1      -1.192   2.390  16.440  1.00  0.00     0.040 A 
ATOM     89  F   UNL     1      -0.550   3.061  14.300  1.00  0.00    -0.206 F 
ATOM     90  C   UNL     1      -0.880   2.116  17.768  1.00  0.00     0.006 A 
ENDBRANCH  66  83
ENDBRANCH  40  41
ENDBRANCH  32  35
ENDBRANCH  30  31
ENDBRANCH  29  30
ENDBRANCH   1  29
TORSDOF 14
