REMARK SMILES Cc1ccc(S(=O)(=O)n2cc(C(=O)C(=O)N[C@@H](Cc3c[nH]c4ccccc34)C(=O)NCC(=O)NCCCCNC(=O)c3ccc(-c4c5nc(c(-c6c(F)cccc6F)c6ccc([nH]6)c(-c6c(F)cccc6F)c6nc(c(-c7c(F)cccc7F)c7ccc4[nH]7)C=C6)C=C5)cc3)c3ccccc32)cc1
REMARK SMILES IDX 32 1 33 2 34 3 31 5 30 6 28 7 29 8 17 10 16 11 14 12 15 13
REMARK SMILES IDX 12 15 13 16 11 17 9 18 10 19 101 20 96 21 100 22 97 23 99 24
REMARK SMILES IDX 98 25 6 26 7 27 8 28 5 29 1 30 2 31 3 32 103 33 4 34 102 35
REMARK SMILES IDX 18 36 19 37 20 38 27 39 21 40 22 41 26 42 23 44 25 45 24 46
REMARK SMILES IDX 35 47 36 48 37 49 38 50 39 51 40 52 41 54 42 55 43 56 95 57
REMARK SMILES IDX 44 58 94 59 45 60 46 61 47 62 88 63 48 64 93 65 87 66 89 67
REMARK SMILES IDX 49 68 92 69 86 70 85 71 50 73 76 74 59 75 75 76 60 77 63 78
REMARK SMILES IDX 74 79 90 80 61 81 62 82 73 84 91 85 64 86 51 87 52 88 57 89
REMARK SMILES IDX 53 90 54 91 56 92 58 93 55 94 77 95 78 96 83 97 79 98 80 99
REMARK SMILES IDX 82 100 84 101 81 102 65 103 66 104 71 105 67 106 68 107
REMARK SMILES IDX 70 108 72 109 69 110
REMARK H PARENT 34 4 30 9 16 14 21 43 39 53 89 72 63 83
REMARK Flexibility Score: inf
ROOT
ATOM      1  C   UNL     1     -12.339   5.239  -2.315  1.00  0.00     0.239 C 
ATOM      2  O   UNL     1     -13.125   6.168  -2.503  1.00  0.00    -0.273 OA
ATOM      3  N   UNL     1     -11.054   5.363  -2.763  1.00  0.00    -0.355 N 
ATOM      4  H   UNL     1     -10.828   6.203  -3.224  1.00  0.00     0.163 HD
ENDROOT
BRANCH   1   5
ATOM      5  C   UNL     1     -12.682   4.054  -1.409  1.00  0.00     0.216 C 
BRANCH   5   6
ATOM      6  N   UNL     1     -12.472   2.697  -1.878  1.00  0.00    -0.345 N 
ATOM      7  C   UNL     1     -11.960   1.595  -1.258  1.00  0.00     0.243 C 
ATOM      8  O   UNL     1     -12.199   0.524  -1.833  1.00  0.00    -0.273 OA
ATOM      9  H   UNL     1     -12.749   2.544  -2.811  1.00  0.00     0.164 HD
BRANCH   7  10
ATOM     10  C   UNL     1     -11.140   1.581   0.085  1.00  0.00     0.176 C 
BRANCH  10  11
ATOM     11  N   UNL     1      -9.838   2.302   0.073  1.00  0.00    -0.337 N 
ATOM     12  C   UNL     1      -8.529   1.881  -0.207  1.00  0.00     0.293 C 
ATOM     13  O   UNL     1      -7.615   2.700  -0.114  1.00  0.00    -0.265 OA
ATOM     14  H   UNL     1      -9.909   3.256   0.307  1.00  0.00     0.164 HD
BRANCH  12  15
ATOM     15  C   UNL     1      -8.213   0.445  -0.693  1.00  0.00     0.252 C 
ATOM     16  O   UNL     1      -9.085  -0.063  -1.399  1.00  0.00    -0.283 OA
BRANCH  15  17
ATOM     17  C   UNL     1      -6.986  -0.332  -0.328  1.00  0.00     0.054 A 
ATOM     18  N   UNL     1      -4.890  -1.010   0.404  1.00  0.00    -0.240 N 
ATOM     19  C   UNL     1      -5.675   0.069  -0.044  1.00  0.00     0.117 A 
ATOM     20  C   UNL     1      -5.779  -2.114   0.400  1.00  0.00     0.065 A 
ATOM     21  C   UNL     1      -6.895  -1.752  -0.358  1.00  0.00     0.012 A 
ATOM     22  C   UNL     1      -5.600  -3.451   0.809  1.00  0.00     0.028 A 
ATOM     23  C   UNL     1      -7.686  -2.774  -0.923  1.00  0.00     0.011 A 
ATOM     24  C   UNL     1      -6.347  -4.444   0.184  1.00  0.00     0.002 A 
ATOM     25  C   UNL     1      -7.346  -4.112  -0.715  1.00  0.00     0.001 A 
BRANCH  18  26
ATOM     26  S   UNL     1      -3.204  -1.532  -0.030  1.00  0.00     0.268 S 
ATOM     27  O   UNL     1      -3.342  -1.822  -1.448  1.00  0.00    -0.201 OA
ATOM     28  O   UNL     1      -3.057  -2.609   0.945  1.00  0.00    -0.201 OA
BRANCH  26  29
ATOM     29  C   UNL     1      -1.528  -0.907   0.121  1.00  0.00     0.088 A 
ATOM     30  C   UNL     1       2.792  -0.150  -0.003  1.00  0.00     0.044 C 
ATOM     31  C   UNL     1       1.313  -0.402   0.052  1.00  0.00    -0.051 A 
ATOM     32  C   UNL     1       0.829  -1.701   0.109  1.00  0.00     0.005 A 
ATOM     33  C   UNL     1       0.378   0.632   0.039  1.00  0.00     0.005 A 
ATOM     34  C   UNL     1      -0.553  -1.939   0.122  1.00  0.00     0.022 A 
ATOM     35  C   UNL     1      -1.015   0.368   0.105  1.00  0.00     0.022 A 
ENDBRANCH  26  29
ENDBRANCH  18  26
ENDBRANCH  15  17
ENDBRANCH  12  15
ENDBRANCH  10  11
BRANCH  10  36
ATOM     36  C   UNL     1     -11.981   1.815   1.383  1.00  0.00     0.072 C 
BRANCH  36  37
ATOM     37  C   UNL     1     -12.659   3.145   1.613  1.00  0.00    -0.020 A 
ATOM     38  C   UNL     1     -14.031   3.352   1.602  1.00  0.00     0.087 A 
ATOM     39  C   UNL     1     -12.065   4.440   1.836  1.00  0.00     0.003 A 
ATOM     40  N   UNL     1     -14.275   4.699   1.676  1.00  0.00    -0.361 N 
ATOM     41  C   UNL     1     -13.085   5.388   1.702  1.00  0.00     0.046 A 
ATOM     42  C   UNL     1     -10.745   4.911   1.990  1.00  0.00     0.010 A 
ATOM     43  H   UNL     1     -15.168   5.112   1.705  1.00  0.00     0.166 HD
ATOM     44  C   UNL     1     -12.840   6.761   1.582  1.00  0.00     0.026 A 
ATOM     45  C   UNL     1     -10.479   6.279   1.852  1.00  0.00     0.001 A 
ATOM     46  C   UNL     1     -11.510   7.186   1.622  1.00  0.00     0.002 A 
ENDBRANCH  36  37
ENDBRANCH  10  36
ENDBRANCH   7  10
ENDBRANCH   5   6
ENDBRANCH   1   5
BRANCH   3  47
ATOM     47  C   UNL     1      -9.994   4.393  -2.630  1.00  0.00     0.116 C 
BRANCH  47  48
ATOM     48  C   UNL     1      -9.815   3.568  -3.903  1.00  0.00     0.023 C 
BRANCH  48  49
ATOM     49  C   UNL     1      -9.344   4.390  -5.101  1.00  0.00     0.023 C 
BRANCH  49  50
ATOM     50  C   UNL     1      -7.989   5.033  -4.881  1.00  0.00     0.116 C 
BRANCH  50  51
ATOM     51  N   UNL     1      -6.858   4.160  -5.080  1.00  0.00    -0.352 N 
ATOM     52  C   UNL     1      -5.494   4.439  -5.024  1.00  0.00     0.251 C 
ATOM     53  H   UNL     1      -7.084   3.225  -5.287  1.00  0.00     0.163 HD
ATOM     54  O   UNL     1      -4.716   3.609  -5.406  1.00  0.00    -0.269 OA
BRANCH  52  55
ATOM     55  C   UNL     1      -4.993   5.668  -4.314  1.00  0.00     0.039 A 
ATOM     56  C   UNL     1      -3.689   5.595  -3.812  1.00  0.00     0.014 A 
ATOM     57  C   UNL     1      -5.835   6.653  -3.823  1.00  0.00     0.014 A 
ATOM     58  C   UNL     1      -3.392   6.222  -2.608  1.00  0.00     0.010 A 
ATOM     59  C   UNL     1      -5.620   7.126  -2.553  1.00  0.00     0.010 A 
ATOM     60  C   UNL     1      -4.431   6.814  -1.908  1.00  0.00    -0.014 A 
BRANCH  60  61
ATOM     61  C   UNL     1      -4.370   7.221  -0.521  1.00  0.00     0.031 A 
ATOM     62  C   UNL     1      -3.916   8.580  -0.226  1.00  0.00     0.074 A 
ATOM     63  C   UNL     1      -4.884   6.400   0.420  1.00  0.00     0.049 A 
ATOM     64  N   UNL     1      -3.567   9.007   0.934  1.00  0.00    -0.248 NA
ATOM     65  C   UNL     1      -3.764   9.573  -1.284  1.00  0.00     0.031 C 
ATOM     66  C   UNL     1      -5.191   6.685   1.820  1.00  0.00     0.029 A 
ATOM     67  N   UNL     1      -4.872   5.000   0.358  1.00  0.00    -0.354 N 
ATOM     68  C   UNL     1      -3.500  10.380   0.845  1.00  0.00     0.074 A 
ATOM     69  C   UNL     1      -3.468  10.656  -0.567  1.00  0.00     0.031 C 
ATOM     70  C   UNL     1      -4.979   5.566   2.538  1.00  0.00     0.029 A 
ATOM     71  C   UNL     1      -4.349   4.632   1.619  1.00  0.00     0.049 A 
ATOM     72  H   UNL     1      -5.158   4.416  -0.381  1.00  0.00     0.167 HD
ATOM     73  C   UNL     1      -3.691  11.101   1.985  1.00  0.00     0.037 A 
ATOM     74  C   UNL     1      -3.055   4.199   1.733  1.00  0.00     0.037 A 
ATOM     75  C   UNL     1      -3.623  10.221   3.152  1.00  0.00     0.049 A 
ATOM     76  C   UNL     1      -2.279   4.854   2.813  1.00  0.00     0.074 A 
ATOM     77  C   UNL     1      -4.593   9.621   3.939  1.00  0.00     0.029 A 
ATOM     78  N   UNL     1      -2.426   9.574   3.435  1.00  0.00    -0.354 N 
ATOM     79  N   UNL     1      -2.361   6.126   3.062  1.00  0.00    -0.248 NA
ATOM     80  C   UNL     1      -1.419   4.127   3.739  1.00  0.00     0.031 C 
ATOM     81  C   UNL     1      -3.982   8.550   4.642  1.00  0.00     0.029 A 
ATOM     82  C   UNL     1      -2.641   8.523   4.299  1.00  0.00     0.049 A 
ATOM     83  H   UNL     1      -1.549   9.831   3.071  1.00  0.00     0.167 HD
ATOM     84  C   UNL     1      -1.613   6.396   4.175  1.00  0.00     0.074 A 
ATOM     85  C   UNL     1      -1.036   5.121   4.558  1.00  0.00     0.031 C 
ATOM     86  C   UNL     1      -1.544   7.654   4.689  1.00  0.00     0.037 A 
BRANCH  73  87
ATOM     87  C   UNL     1      -4.257  12.508   2.034  1.00  0.00     0.057 A 
ATOM     88  C   UNL     1      -4.852  12.983   3.222  1.00  0.00     0.134 A 
ATOM     89  C   UNL     1      -4.354  13.408   0.957  1.00  0.00     0.134 A 
ATOM     90  F   UNL     1      -4.792  12.293   4.368  1.00  0.00    -0.206 F 
ATOM     91  C   UNL     1      -5.554  14.194   3.301  1.00  0.00     0.040 A 
ATOM     92  C   UNL     1      -5.067  14.614   1.016  1.00  0.00     0.040 A 
ATOM     93  F   UNL     1      -3.745  13.204  -0.211  1.00  0.00    -0.206 F 
ATOM     94  C   UNL     1      -5.684  15.007   2.189  1.00  0.00     0.006 A 
ENDBRANCH  73  87
BRANCH  74  95
ATOM     95  C   UNL     1      -2.497   3.692   0.459  1.00  0.00     0.057 A 
ATOM     96  C   UNL     1      -3.239   2.662  -0.116  1.00  0.00     0.134 A 
ATOM     97  C   UNL     1      -1.506   4.253  -0.330  1.00  0.00     0.134 A 
ATOM     98  F   UNL     1      -3.889   1.881   0.756  1.00  0.00    -0.206 F 
ATOM     99  C   UNL     1      -3.159   2.299  -1.463  1.00  0.00     0.040 A 
ATOM    100  C   UNL     1      -1.327   3.837  -1.662  1.00  0.00     0.040 A 
ATOM    101  F   UNL     1      -0.730   5.238   0.138  1.00  0.00    -0.206 F 
ATOM    102  C   UNL     1      -2.190   2.902  -2.247  1.00  0.00     0.006 A 
ENDBRANCH  74  95
BRANCH  86 103
ATOM    103  C   UNL     1      -0.485   8.165   5.625  1.00  0.00     0.057 A 
ATOM    104  C   UNL     1       0.792   7.598   5.752  1.00  0.00     0.134 A 
ATOM    105  C   UNL     1      -0.664   9.396   6.294  1.00  0.00     0.134 A 
ATOM    106  F   UNL     1       1.143   6.488   5.089  1.00  0.00    -0.206 F 
ATOM    107  C   UNL     1       1.804   8.189   6.517  1.00  0.00     0.040 A 
ATOM    108  C   UNL     1       0.356  10.023   7.012  1.00  0.00     0.040 A 
ATOM    109  F   UNL     1      -1.825  10.066   6.245  1.00  0.00    -0.206 F 
ATOM    110  C   UNL     1       1.594   9.414   7.134  1.00  0.00     0.006 A 
ENDBRANCH  86 103
ENDBRANCH  60  61
ENDBRANCH  52  55
ENDBRANCH  50  51
ENDBRANCH  49  50
ENDBRANCH  48  49
ENDBRANCH  47  48
ENDBRANCH   3  47
TORSDOF 20
