REMARK SMILES C[C@@H]1[C@@H](C(=O)NCCCCNC(=O)c2ccc(-c3c4nc(c(-c5c(F)cccc5F)c5ccc([nH]5)c(-c5c(F)cccc5F)c5nc(c(-c6c(F)cccc6F)c6ccc3[nH]6)C=C5)C=C4)cc2)CCN1C(=O)CCCSc1ccccc1
REMARK SMILES IDX 4 1 5 2 6 3 3 5 1 6 2 7 70 8 68 9 69 10 71 11 72 12 73 13
REMARK SMILES IDX 74 14 75 15 76 16 77 17 78 18 82 19 79 20 81 21 80 22 7 23
REMARK SMILES IDX 8 24 9 25 10 26 11 27 12 28 13 30 14 31 15 32 67 33 16 34
REMARK SMILES IDX 66 35 17 36 18 37 19 38 60 39 20 40 65 41 59 42 61 43 21 44
REMARK SMILES IDX 64 45 58 46 57 47 22 49 48 50 31 51 47 52 32 53 35 54 46 55
REMARK SMILES IDX 62 56 33 57 34 58 45 60 63 61 36 62 23 63 24 64 29 65 25 66
REMARK SMILES IDX 26 67 28 68 30 69 27 70 49 71 50 72 55 73 51 74 52 75 54 76
REMARK SMILES IDX 56 77 53 78 37 79 38 80 43 81 39 82 40 83 42 84 44 85 41 86
REMARK H PARENT 6 4 11 29 61 48 35 59
REMARK Flexibility Score: inf
ROOT
ATOM      1  C   UNL     1      -1.092   1.450  -1.570  1.00  0.00     0.225 C 
ATOM      2  O   UNL     1      -0.567   0.912  -2.543  1.00  0.00    -0.275 OA
ATOM      3  N   UNL     1      -1.979   2.463  -1.788  1.00  0.00    -0.356 N 
ATOM      4  H   UNL     1      -2.153   2.694  -2.729  1.00  0.00     0.163 HD
ENDROOT
BRANCH   1   5
ATOM      5  C   UNL     1      -0.762   1.093  -0.126  1.00  0.00     0.102 C 
ATOM      6  C   UNL     1       1.043   0.038   1.253  1.00  0.00     0.032 C 
ATOM      7  C   UNL     1       0.258  -0.045  -0.053  1.00  0.00     0.094 C 
ATOM      8  N   UNL     1      -0.567  -1.250  -0.142  1.00  0.00    -0.339 N 
ATOM      9  C   UNL     1      -1.951   0.491   0.634  1.00  0.00     0.037 C 
ATOM     10  C   UNL     1      -1.944  -0.969   0.206  1.00  0.00     0.120 C 
BRANCH   8  11
ATOM     11  C   UNL     1      -0.239  -2.427  -0.788  1.00  0.00     0.222 C 
ATOM     12  O   UNL     1      -1.097  -3.219  -1.179  1.00  0.00    -0.275 OA
BRANCH  11  13
ATOM     13  C   UNL     1       1.234  -2.776  -0.888  1.00  0.00     0.101 C 
BRANCH  13  14
ATOM     14  C   UNL     1       1.938  -2.522  -2.218  1.00  0.00     0.021 C 
BRANCH  14  15
ATOM     15  C   UNL     1       2.969  -1.381  -2.244  1.00  0.00     0.075 C 
BRANCH  15  16
ATOM     16  S   UNL     1       4.613  -1.601  -1.424  1.00  0.00    -0.126 SA
BRANCH  16  17
ATOM     17  C   UNL     1       4.236  -1.938   0.284  1.00  0.00     0.007 A 
ATOM     18  C   UNL     1       4.281  -0.945   1.270  1.00  0.00     0.015 A 
ATOM     19  C   UNL     1       3.940  -3.251   0.665  1.00  0.00     0.015 A 
ATOM     20  C   UNL     1       3.953  -1.251   2.599  1.00  0.00     0.001 A 
ATOM     21  C   UNL     1       3.578  -3.550   1.980  1.00  0.00     0.001 A 
ATOM     22  C   UNL     1       3.575  -2.548   2.946  1.00  0.00     0.000 A 
ENDBRANCH  16  17
ENDBRANCH  15  16
ENDBRANCH  14  15
ENDBRANCH  13  14
ENDBRANCH  11  13
ENDBRANCH   8  11
ENDBRANCH   1   5
BRANCH   3  23
ATOM     23  C   UNL     1      -2.692   3.235  -0.794  1.00  0.00     0.116 C 
BRANCH  23  24
ATOM     24  C   UNL     1      -2.981   4.656  -1.244  1.00  0.00     0.023 C 
BRANCH  24  25
ATOM     25  C   UNL     1      -3.841   4.760  -2.500  1.00  0.00     0.023 C 
BRANCH  25  26
ATOM     26  C   UNL     1      -5.069   3.859  -2.519  1.00  0.00     0.116 C 
BRANCH  26  27
ATOM     27  N   UNL     1      -5.953   4.077  -1.382  1.00  0.00    -0.352 N 
ATOM     28  C   UNL     1      -7.272   4.458  -1.369  1.00  0.00     0.251 C 
ATOM     29  H   UNL     1      -5.546   3.932  -0.497  1.00  0.00     0.163 HD
ATOM     30  O   UNL     1      -7.830   4.735  -0.312  1.00  0.00    -0.269 OA
BRANCH  28  31
ATOM     31  C   UNL     1      -7.998   4.565  -2.647  1.00  0.00     0.039 A 
ATOM     32  C   UNL     1      -8.711   5.731  -2.925  1.00  0.00     0.014 A 
ATOM     33  C   UNL     1      -7.922   3.534  -3.587  1.00  0.00     0.014 A 
ATOM     34  C   UNL     1      -9.289   5.895  -4.184  1.00  0.00     0.010 A 
ATOM     35  C   UNL     1      -8.412   3.742  -4.869  1.00  0.00     0.010 A 
ATOM     36  C   UNL     1      -9.109   4.919  -5.178  1.00  0.00    -0.014 A 
BRANCH  36  37
ATOM     37  C   UNL     1      -9.662   5.096  -6.543  1.00  0.00     0.031 A 
ATOM     38  C   UNL     1     -10.687   4.126  -7.063  1.00  0.00     0.074 A 
ATOM     39  C   UNL     1      -9.198   6.081  -7.335  1.00  0.00     0.049 A 
ATOM     40  N   UNL     1     -11.238   4.059  -8.247  1.00  0.00    -0.248 NA
ATOM     41  C   UNL     1     -11.126   3.069  -6.136  1.00  0.00     0.031 C 
ATOM     42  C   UNL     1      -8.168   7.055  -6.966  1.00  0.00     0.029 A 
ATOM     43  N   UNL     1      -9.528   6.422  -8.623  1.00  0.00    -0.354 N 
ATOM     44  C   UNL     1     -12.070   2.947  -8.212  1.00  0.00     0.074 A 
ATOM     45  C   UNL     1     -11.902   2.332  -6.915  1.00  0.00     0.031 C 
ATOM     46  C   UNL     1      -7.974   7.900  -7.991  1.00  0.00     0.029 A 
ATOM     47  C   UNL     1      -8.833   7.505  -9.103  1.00  0.00     0.049 A 
ATOM     48  H   UNL     1     -10.200   5.935  -9.153  1.00  0.00     0.167 HD
ATOM     49  C   UNL     1     -12.921   2.496  -9.163  1.00  0.00     0.037 A 
ATOM     50  C   UNL     1      -8.883   8.109 -10.305  1.00  0.00     0.037 A 
ATOM     51  C   UNL     1     -13.105   3.127 -10.443  1.00  0.00     0.049 A 
ATOM     52  C   UNL     1      -9.833   7.587 -11.348  1.00  0.00     0.074 A 
ATOM     53  C   UNL     1     -13.980   2.781 -11.457  1.00  0.00     0.029 A 
ATOM     54  N   UNL     1     -12.398   4.236 -10.883  1.00  0.00    -0.354 N 
ATOM     55  N   UNL     1     -10.663   6.574 -11.278  1.00  0.00    -0.248 NA
ATOM     56  C   UNL     1      -9.860   8.298 -12.633  1.00  0.00     0.031 C 
ATOM     57  C   UNL     1     -13.771   3.654 -12.529  1.00  0.00     0.029 A 
ATOM     58  C   UNL     1     -12.805   4.578 -12.162  1.00  0.00     0.049 A 
ATOM     59  H   UNL     1     -11.709   4.710 -10.364  1.00  0.00     0.167 HD
ATOM     60  C   UNL     1     -11.336   6.549 -12.494  1.00  0.00     0.074 A 
ATOM     61  C   UNL     1     -10.823   7.654 -13.277  1.00  0.00     0.031 C 
ATOM     62  C   UNL     1     -12.294   5.690 -12.921  1.00  0.00     0.037 A 
BRANCH  49  63
ATOM     63  C   UNL     1     -13.717   1.262  -8.846  1.00  0.00     0.057 A 
ATOM     64  C   UNL     1     -14.728   1.264  -7.875  1.00  0.00     0.134 A 
ATOM     65  C   UNL     1     -13.480   0.062  -9.527  1.00  0.00     0.134 A 
ATOM     66  F   UNL     1     -14.997   2.376  -7.174  1.00  0.00    -0.206 F 
ATOM     67  C   UNL     1     -15.450   0.109  -7.569  1.00  0.00     0.040 A 
ATOM     68  C   UNL     1     -14.216  -1.091  -9.252  1.00  0.00     0.040 A 
ATOM     69  F   UNL     1     -12.530  -0.009 -10.473  1.00  0.00    -0.206 F 
ATOM     70  C   UNL     1     -15.199  -1.072  -8.264  1.00  0.00     0.006 A 
ENDBRANCH  49  63
BRANCH  50  71
ATOM     71  C   UNL     1      -8.032   9.295 -10.579  1.00  0.00     0.057 A 
ATOM     72  C   UNL     1      -8.597  10.569 -10.720  1.00  0.00     0.134 A 
ATOM     73  C   UNL     1      -6.644   9.187 -10.715  1.00  0.00     0.134 A 
ATOM     74  F   UNL     1      -9.924  10.734 -10.618  1.00  0.00    -0.206 F 
ATOM     75  C   UNL     1      -7.814  11.688 -11.009  1.00  0.00     0.040 A 
ATOM     76  C   UNL     1      -5.846  10.303 -10.978  1.00  0.00     0.040 A 
ATOM     77  F   UNL     1      -6.040   7.997 -10.582  1.00  0.00    -0.206 F 
ATOM     78  C   UNL     1      -6.433  11.557 -11.134  1.00  0.00     0.006 A 
ENDBRANCH  50  71
BRANCH  62  79
ATOM     79  C   UNL     1     -12.888   5.942 -14.277  1.00  0.00     0.057 A 
ATOM     80  C   UNL     1     -12.172   5.709 -15.458  1.00  0.00     0.134 A 
ATOM     81  C   UNL     1     -14.211   6.386 -14.399  1.00  0.00     0.134 A 
ATOM     82  F   UNL     1     -10.897   5.295 -15.410  1.00  0.00    -0.206 F 
ATOM     83  C   UNL     1     -12.743   5.933 -16.712  1.00  0.00     0.040 A 
ATOM     84  C   UNL     1     -14.803   6.585 -15.646  1.00  0.00     0.040 A 
ATOM     85  F   UNL     1     -14.956   6.618 -13.307  1.00  0.00    -0.206 F 
ATOM     86  C   UNL     1     -14.065   6.365 -16.808  1.00  0.00     0.006 A 
ENDBRANCH  62  79
ENDBRANCH  36  37
ENDBRANCH  28  31
ENDBRANCH  26  27
ENDBRANCH  25  26
ENDBRANCH  24  25
ENDBRANCH  23  24
ENDBRANCH   3  23
TORSDOF 17
