REMARK SMILES CN(Cc1ccoc1)C(=O)N[C@@H]1CCCCC[C@H]1C(=O)NCCCCNC(=O)c1ccc(-c2c3nc(c(-c4c(F)cccc4F)c4ccc([nH]4)c(-c4c(F)cccc4F)c4nc(c(-c5c(F)cccc5F)c5ccc2[nH]5)C=C4)C=C3)cc1
REMARK SMILES IDX 22 1 21 2 19 3 20 4 18 6 12 7 11 8 9 9 10 10 2 12 1 13 3 14
REMARK SMILES IDX 4 15 5 16 8 17 6 18 7 19 13 20 14 21 17 23 16 24 15 25 23 27
REMARK SMILES IDX 24 28 25 29 26 30 27 31 28 33 29 34 30 35 82 36 31 37 81 38
REMARK SMILES IDX 32 39 33 40 34 41 75 42 35 43 80 44 74 45 76 46 36 47 79 48
REMARK SMILES IDX 73 49 72 50 37 52 63 53 46 54 62 55 47 56 50 57 61 58 77 59
REMARK SMILES IDX 48 60 49 61 60 63 78 64 51 65 38 66 39 67 44 68 40 69 41 70
REMARK SMILES IDX 43 71 45 72 42 73 64 74 65 75 70 76 66 77 67 78 69 79 71 80
REMARK SMILES IDX 68 81 52 82 53 83 58 84 54 85 55 86 57 87 59 88 56 89
REMARK H PARENT 21 5 11 11 26 32 76 51 50 62
REMARK Flexibility Score: 100.00
ROOT
ATOM      1  C   UNL     1      -2.312  -0.067  -6.686  1.00  0.00     0.116 C 
ENDROOT
BRANCH   1   2
ATOM      2  N   UNL     1      -0.920   0.330  -6.784  1.00  0.00    -0.356 N 
ATOM      3  C   UNL     1       0.180   0.310  -6.002  1.00  0.00     0.225 C 
ATOM      4  O   UNL     1       1.231   0.532  -6.626  1.00  0.00    -0.275 OA
ATOM      5  H   UNL     1      -0.723   0.722  -7.665  1.00  0.00     0.163 HD
BRANCH   3   6
ATOM      6  C   UNL     1       0.274   0.127  -4.473  1.00  0.00     0.101 C 
BRANCH   6   7
ATOM      7  C   UNL     1      -0.281   1.306  -3.668  1.00  0.00     0.096 C 
BRANCH   7   8
ATOM      8  N   UNL     1       0.684   1.820  -2.635  1.00  0.00    -0.334 N 
ATOM      9  C   UNL     1       1.157   1.707  -1.385  1.00  0.00     0.317 C 
ATOM     10  O   UNL     1       2.185   2.369  -1.190  1.00  0.00    -0.249 OA
ATOM     11  H   UNL     1       1.183   2.556  -3.058  1.00  0.00     0.165 HD
BRANCH   9  12
ATOM     12  N   UNL     1       0.610   0.968  -0.387  1.00  0.00    -0.323 N 
ATOM     13  C   UNL     1       1.329   0.850   0.878  1.00  0.00     0.149 C 
BRANCH  12  14
ATOM     14  C   UNL     1      -0.633   0.247  -0.424  1.00  0.00     0.160 C 
BRANCH  14  15
ATOM     15  C   UNL     1      -1.815   1.052   0.008  1.00  0.00     0.010 A 
ATOM     16  C   UNL     1      -1.962   2.468   0.130  1.00  0.00     0.047 A 
ATOM     17  C   UNL     1      -3.078   0.545   0.257  1.00  0.00     0.200 A 
ATOM     18  C   UNL     1      -3.298   2.709   0.348  1.00  0.00     0.195 A 
ATOM     19  O   UNL     1      -3.979   1.541   0.442  1.00  0.00    -0.472 OA
ENDBRANCH  14  15
ENDBRANCH  12  14
ENDBRANCH   9  12
ENDBRANCH   7   8
BRANCH   7  20
ATOM     20  C   UNL     1      -1.757   1.373  -3.297  1.00  0.00     0.026 C 
BRANCH  20  21
ATOM     21  C   UNL     1      -2.709   0.172  -3.285  1.00  0.00     0.002 CG0
ATOM     22  G   UNL     1      -2.299  -1.268  -2.997  1.00  0.00     0.000 G0
ENDBRANCH  20  21
ENDBRANCH   7  20
ENDBRANCH   6   7
BRANCH   6  23
ATOM     23  C   UNL     1       0.140  -1.270  -3.890  1.00  0.00     0.015 C 
BRANCH  23  24
ATOM     24  C   UNL     1      -1.219  -1.931  -3.838  1.00  0.00     0.001 C 
BRANCH  24  25
ATOM     25  C   UNL     1      -2.299  -1.268  -2.997  1.00  0.00     0.000 CG0
ATOM     26  G   UNL     1      -2.709   0.172  -3.285  1.00  0.00     0.000 G0
ENDBRANCH  24  25
ENDBRANCH  23  24
ENDBRANCH   6  23
ENDBRANCH   3   6
ENDBRANCH   1   2
BRANCH   1  27
ATOM     27  C   UNL     1      -3.288   1.113  -6.689  1.00  0.00     0.023 C 
BRANCH  27  28
ATOM     28  C   UNL     1      -4.743   0.754  -7.021  1.00  0.00     0.023 C 
BRANCH  28  29
ATOM     29  C   UNL     1      -5.313  -0.536  -6.432  1.00  0.00     0.116 C 
BRANCH  29  30
ATOM     30  N   UNL     1      -6.085  -0.373  -5.206  1.00  0.00    -0.352 N 
ATOM     31  C   UNL     1      -7.383  -0.783  -4.941  1.00  0.00     0.251 C 
ATOM     32  H   UNL     1      -5.624   0.090  -4.469  1.00  0.00     0.163 HD
ATOM     33  O   UNL     1      -7.906  -0.567  -3.859  1.00  0.00    -0.269 OA
BRANCH  31  34
ATOM     34  C   UNL     1      -8.158  -1.431  -6.024  1.00  0.00     0.039 A 
ATOM     35  C   UNL     1      -9.344  -0.832  -6.455  1.00  0.00     0.014 A 
ATOM     36  C   UNL     1      -7.630  -2.527  -6.706  1.00  0.00     0.014 A 
ATOM     37  C   UNL     1      -9.919  -1.237  -7.663  1.00  0.00     0.010 A 
ATOM     38  C   UNL     1      -8.146  -2.858  -7.955  1.00  0.00     0.010 A 
ATOM     39  C   UNL     1      -9.275  -2.194  -8.465  1.00  0.00    -0.014 A 
BRANCH  39  40
ATOM     40  C   UNL     1      -9.718  -2.479  -9.858  1.00  0.00     0.031 A 
ATOM     41  C   UNL     1     -10.085  -3.880 -10.261  1.00  0.00     0.074 A 
ATOM     42  C   UNL     1      -9.668  -1.508 -10.795  1.00  0.00     0.049 A 
ATOM     43  N   UNL     1     -10.327  -4.363 -11.453  1.00  0.00    -0.248 NA
ATOM     44  C   UNL     1     -10.138  -4.880  -9.184  1.00  0.00     0.031 C 
ATOM     45  C   UNL     1      -9.258  -0.120 -10.564  1.00  0.00     0.029 A 
ATOM     46  N   UNL     1      -9.944  -1.548 -12.141  1.00  0.00    -0.354 N 
ATOM     47  C   UNL     1     -10.520  -5.726 -11.273  1.00  0.00     0.074 A 
ATOM     48  C   UNL     1     -10.316  -6.000  -9.867  1.00  0.00     0.031 C 
ATOM     49  C   UNL     1      -9.331   0.560 -11.720  1.00  0.00     0.029 A 
ATOM     50  C   UNL     1      -9.751  -0.347 -12.782  1.00  0.00     0.049 A 
ATOM     51  H   UNL     1     -10.251  -2.361 -12.603  1.00  0.00     0.167 HD
ATOM     52  C   UNL     1     -10.860  -6.664 -12.189  1.00  0.00     0.037 A 
ATOM     53  C   UNL     1      -9.887  -0.013 -14.080  1.00  0.00     0.037 A 
ATOM     54  C   UNL     1     -11.122  -6.386 -13.576  1.00  0.00     0.049 A 
ATOM     55  C   UNL     1     -10.319  -1.058 -15.071  1.00  0.00     0.074 A 
ATOM     56  C   UNL     1     -11.556  -7.253 -14.562  1.00  0.00     0.029 A 
ATOM     57  N   UNL     1     -10.982  -5.141 -14.169  1.00  0.00    -0.354 N 
ATOM     58  N   UNL     1     -10.562  -2.330 -14.873  1.00  0.00    -0.248 NA
ATOM     59  C   UNL     1     -10.499  -0.622 -16.463  1.00  0.00     0.031 C 
ATOM     60  C   UNL     1     -11.657  -6.538 -15.760  1.00  0.00     0.029 A 
ATOM     61  C   UNL     1     -11.315  -5.218 -15.511  1.00  0.00     0.049 A 
ATOM     62  H   UNL     1     -10.691  -4.323 -13.705  1.00  0.00     0.167 HD
ATOM     63  C   UNL     1     -10.944  -2.841 -16.106  1.00  0.00     0.074 A 
ATOM     64  C   UNL     1     -10.911  -1.740 -17.046  1.00  0.00     0.031 C 
ATOM     65  C   UNL     1     -11.290  -4.110 -16.430  1.00  0.00     0.037 A 
BRANCH  52  66
ATOM     66  C   UNL     1     -10.981  -8.079 -11.706  1.00  0.00     0.057 A 
ATOM     67  C   UNL     1     -12.030  -8.486 -10.870  1.00  0.00     0.134 A 
ATOM     68  C   UNL     1     -10.041  -9.046 -12.082  1.00  0.00     0.134 A 
ATOM     69  F   UNL     1     -12.955  -7.603 -10.463  1.00  0.00    -0.206 F 
ATOM     70  C   UNL     1     -12.118  -9.794 -10.393  1.00  0.00     0.040 A 
ATOM     71  C   UNL     1     -10.134 -10.365 -11.634  1.00  0.00     0.040 A 
ATOM     72  F   UNL     1      -9.016  -8.726 -12.886  1.00  0.00    -0.206 F 
ATOM     73  C   UNL     1     -11.169 -10.739 -10.779  1.00  0.00     0.006 A 
ENDBRANCH  52  66
BRANCH  53  74
ATOM     74  C   UNL     1      -9.636   1.383 -14.518  1.00  0.00     0.057 A 
ATOM     75  C   UNL     1     -10.695   2.225 -14.874  1.00  0.00     0.134 A 
ATOM     76  C   UNL     1      -8.341   1.908 -14.591  1.00  0.00     0.134 A 
ATOM     77  F   UNL     1     -11.957   1.772 -14.842  1.00  0.00    -0.206 F 
ATOM     78  C   UNL     1     -10.476   3.536 -15.303  1.00  0.00     0.040 A 
ATOM     79  C   UNL     1      -8.108   3.223 -14.999  1.00  0.00     0.040 A 
ATOM     80  F   UNL     1      -7.284   1.153 -14.255  1.00  0.00    -0.206 F 
ATOM     81  C   UNL     1      -9.178   4.039 -15.362  1.00  0.00     0.006 A 
ENDBRANCH  53  74
BRANCH  65  82
ATOM     82  C   UNL     1     -11.693  -4.375 -17.849  1.00  0.00     0.057 A 
ATOM     83  C   UNL     1     -10.748  -4.464 -18.877  1.00  0.00     0.134 A 
ATOM     84  C   UNL     1     -13.035  -4.605 -18.177  1.00  0.00     0.134 A 
ATOM     85  F   UNL     1      -9.448  -4.241 -18.628  1.00  0.00    -0.206 F 
ATOM     86  C   UNL     1     -11.125  -4.765 -20.187  1.00  0.00     0.040 A 
ATOM     87  C   UNL     1     -13.421  -4.926 -19.478  1.00  0.00     0.040 A 
ATOM     88  F   UNL     1     -13.987  -4.539 -17.234  1.00  0.00    -0.206 F 
ATOM     89  C   UNL     1     -12.464  -5.005 -20.488  1.00  0.00     0.006 A 
ENDBRANCH  65  82
ENDBRANCH  39  40
ENDBRANCH  31  34
ENDBRANCH  29  30
ENDBRANCH  28  29
ENDBRANCH  27  28
ENDBRANCH   1  27
TORSDOF 15
