REMARK SMILES Cc1ncn(CC[C@@H]2CCC[C@@]2([NH3+])C(=O)NCCCCNC(=O)c2ccc(-c3c4nc(c(-c5c(F)cccc5F)c5ccc([nH]5)c(-c5c(F)cccc5F)c5nc(c(-c6c(F)cccc6F)c6ccc3[nH]6)C=C5)C=C4)cc2)c1C
REMARK SMILES IDX 18 1 17 2 16 3 14 4 15 5 12 7 8 8 9 9 10 10 11 11 7 12 6 13
REMARK SMILES IDX 5 14 1 15 2 16 3 17 78 18 4 19 79 20 13 21 19 25 20 26 21 27
REMARK SMILES IDX 22 28 23 30 24 31 25 32 77 33 26 34 76 35 27 36 28 37 29 38
REMARK SMILES IDX 70 39 30 40 75 41 69 42 71 43 31 44 74 45 68 46 67 47 32 49
REMARK SMILES IDX 58 50 41 51 57 52 42 53 45 54 56 55 72 56 43 57 44 58 55 60
REMARK SMILES IDX 73 61 46 62 33 63 34 64 39 65 35 66 36 67 38 68 40 69 37 70
REMARK SMILES IDX 59 71 60 72 65 73 61 74 62 75 64 76 66 77 63 78 47 79 48 80
REMARK SMILES IDX 53 81 49 82 50 83 52 84 54 85 51 86
REMARK H PARENT 16 6 13 22 13 23 13 24 21 29 71 48 45 59
REMARK Flexibility Score: inf
ROOT
ATOM      1  C   UNL     1      -0.391   7.032  -4.248  1.00  0.00     0.023 C 
ENDROOT
BRANCH   1   2
ATOM      2  C   UNL     1       0.679   6.781  -3.186  1.00  0.00     0.116 C 
BRANCH   2   3
ATOM      3  N   UNL     1       0.448   7.494  -1.960  1.00  0.00    -0.351 N 
ATOM      4  C   UNL     1      -0.122   7.146  -0.780  1.00  0.00     0.281 C 
ATOM      5  O   UNL     1       0.030   8.000   0.109  1.00  0.00    -0.268 OA
ATOM      6  H   UNL     1       0.770   8.424  -1.981  1.00  0.00     0.163 HD
BRANCH   4   7
ATOM      7  C   UNL     1      -0.995   5.857  -0.510  1.00  0.00     0.176 C 
ATOM      8  C   UNL     1      -0.572   4.449  -1.023  1.00  0.00     0.062 C 
ATOM      9  C   UNL     1      -1.242   3.485  -0.015  1.00  0.00     0.011 C 
ATOM     10  C   UNL     1      -1.216   4.178   1.330  1.00  0.00     0.008 C 
ATOM     11  C   UNL     1      -0.848   5.621   1.031  1.00  0.00     0.079 C 
BRANCH   8  12
ATOM     12  C   UNL     1      -0.941   3.976  -2.450  1.00  0.00     0.032 C 
BRANCH  12  13
ATOM     13  C   UNL     1       0.199   3.194  -3.151  1.00  0.00     0.124 C 
BRANCH  13  14
ATOM     14  N   UNL     1       0.436   1.876  -2.601  1.00  0.00    -0.335 N 
ATOM     15  C   UNL     1       1.162  -0.598  -0.063  1.00  0.00     0.069 C 
ATOM     16  C   UNL     1       0.833   0.224  -1.248  1.00  0.00     0.058 A 
ATOM     17  N   UNL     1       0.003  -0.259  -2.228  1.00  0.00    -0.242 NA
ATOM     18  C   UNL     1       1.231   1.519  -1.535  1.00  0.00     0.037 A 
ATOM     19  C   UNL     1      -0.180   0.743  -3.053  1.00  0.00     0.199 A 
ATOM     20  C   UNL     1       2.199   2.392  -0.824  1.00  0.00     0.066 C 
ENDBRANCH  13  14
ENDBRANCH  12  13
ENDBRANCH   8  12
BRANCH   7  21
ATOM     21  N   UNL     1      -2.403   6.175  -0.814  1.00  0.00    -0.345 N 
ATOM     22  H   UNL     1      -2.981   5.352  -0.645  1.00  0.00     0.345 HD
ATOM     23  H   UNL     1      -2.485   6.453  -1.791  1.00  0.00     0.345 HD
ATOM     24  H   UNL     1      -2.715   6.939  -0.215  1.00  0.00     0.345 HD
ENDBRANCH   7  21
ENDBRANCH   4   7
ENDBRANCH   2   3
ENDBRANCH   1   2
BRANCH   1  25
ATOM     25  C   UNL     1      -0.146   8.263  -5.132  1.00  0.00     0.023 C 
BRANCH  25  26
ATOM     26  C   UNL     1       1.056   8.146  -6.065  1.00  0.00     0.116 C 
BRANCH  26  27
ATOM     27  N   UNL     1       0.920   7.074  -7.055  1.00  0.00    -0.352 N 
ATOM     28  C   UNL     1       1.900   6.575  -7.899  1.00  0.00     0.251 C 
ATOM     29  H   UNL     1       0.030   6.661  -7.130  1.00  0.00     0.163 HD
ATOM     30  O   UNL     1       1.619   5.992  -8.933  1.00  0.00    -0.269 OA
BRANCH  28  31
ATOM     31  C   UNL     1       3.304   6.729  -7.487  1.00  0.00     0.039 A 
ATOM     32  C   UNL     1       4.306   7.138  -8.374  1.00  0.00     0.014 A 
ATOM     33  C   UNL     1       3.581   6.487  -6.145  1.00  0.00     0.014 A 
ATOM     34  C   UNL     1       5.585   7.375  -7.875  1.00  0.00     0.010 A 
ATOM     35  C   UNL     1       4.785   6.877  -5.630  1.00  0.00     0.010 A 
ATOM     36  C   UNL     1       5.809   7.248  -6.497  1.00  0.00    -0.014 A 
BRANCH  36  37
ATOM     37  C   UNL     1       7.084   7.590  -5.881  1.00  0.00     0.031 A 
ATOM     38  C   UNL     1       7.452   9.031  -5.980  1.00  0.00     0.074 A 
ATOM     39  C   UNL     1       7.679   6.729  -5.025  1.00  0.00     0.049 A 
ATOM     40  N   UNL     1       8.471   9.559  -6.574  1.00  0.00    -0.248 NA
ATOM     41  C   UNL     1       6.490  10.026  -5.470  1.00  0.00     0.031 C 
ATOM     42  C   UNL     1       7.192   5.414  -4.580  1.00  0.00     0.029 A 
ATOM     43  N   UNL     1       8.784   6.905  -4.254  1.00  0.00    -0.354 N 
ATOM     44  C   UNL     1       8.396  10.929  -6.318  1.00  0.00     0.074 A 
ATOM     45  C   UNL     1       7.064  11.173  -5.836  1.00  0.00     0.031 C 
ATOM     46  C   UNL     1       7.852   5.036  -3.463  1.00  0.00     0.029 A 
ATOM     47  C   UNL     1       8.917   5.986  -3.215  1.00  0.00     0.049 A 
ATOM     48  H   UNL     1       9.438   7.623  -4.416  1.00  0.00     0.167 HD
ATOM     49  C   UNL     1       9.519  11.701  -6.264  1.00  0.00     0.037 A 
ATOM     50  C   UNL     1       9.820   6.041  -2.204  1.00  0.00     0.037 A 
ATOM     51  C   UNL     1      10.640  11.010  -6.852  1.00  0.00     0.049 A 
ATOM     52  C   UNL     1      10.883   6.991  -2.622  1.00  0.00     0.074 A 
ATOM     53  C   UNL     1      10.915  10.486  -8.099  1.00  0.00     0.029 A 
ATOM     54  N   UNL     1      11.539  10.426  -5.993  1.00  0.00    -0.354 N 
ATOM     55  N   UNL     1      11.707   6.764  -3.608  1.00  0.00    -0.248 NA
ATOM     56  C   UNL     1      10.701   8.390  -2.266  1.00  0.00     0.031 C 
ATOM     57  C   UNL     1      11.607   9.267  -7.837  1.00  0.00     0.029 A 
ATOM     58  C   UNL     1      11.791   9.163  -6.457  1.00  0.00     0.049 A 
ATOM     59  H   UNL     1      11.931  10.840  -5.190  1.00  0.00     0.167 HD
ATOM     60  C   UNL     1      11.814   7.981  -4.266  1.00  0.00     0.074 A 
ATOM     61  C   UNL     1      11.226   8.961  -3.353  1.00  0.00     0.031 C 
ATOM     62  C   UNL     1      12.089   8.038  -5.602  1.00  0.00     0.037 A 
BRANCH  49  63
ATOM     63  C   UNL     1       9.719  12.884  -5.340  1.00  0.00     0.057 A 
ATOM     64  C   UNL     1      10.914  13.626  -5.438  1.00  0.00     0.134 A 
ATOM     65  C   UNL     1       8.959  13.142  -4.181  1.00  0.00     0.134 A 
ATOM     66  F   UNL     1      11.731  13.481  -6.493  1.00  0.00    -0.206 F 
ATOM     67  C   UNL     1      11.362  14.474  -4.418  1.00  0.00     0.040 A 
ATOM     68  C   UNL     1       9.373  14.027  -3.181  1.00  0.00     0.040 A 
ATOM     69  F   UNL     1       7.828  12.488  -3.896  1.00  0.00    -0.206 F 
ATOM     70  C   UNL     1      10.596  14.668  -3.278  1.00  0.00     0.006 A 
ENDBRANCH  49  63
BRANCH  50  71
ATOM     71  C   UNL     1       9.677   5.583  -0.803  1.00  0.00     0.057 A 
ATOM     72  C   UNL     1      10.796   5.366   0.013  1.00  0.00     0.134 A 
ATOM     73  C   UNL     1       8.433   5.612  -0.147  1.00  0.00     0.134 A 
ATOM     74  F   UNL     1      12.029   5.365  -0.514  1.00  0.00    -0.206 F 
ATOM     75  C   UNL     1      10.689   5.206   1.402  1.00  0.00     0.040 A 
ATOM     76  C   UNL     1       8.311   5.451   1.238  1.00  0.00     0.040 A 
ATOM     77  F   UNL     1       7.305   5.886  -0.819  1.00  0.00    -0.206 F 
ATOM     78  C   UNL     1       9.443   5.260   2.020  1.00  0.00     0.006 A 
ENDBRANCH  50  71
BRANCH  62  79
ATOM     79  C   UNL     1      12.511   6.774  -6.299  1.00  0.00     0.057 A 
ATOM     80  C   UNL     1      11.678   5.660  -6.488  1.00  0.00     0.134 A 
ATOM     81  C   UNL     1      13.734   6.770  -6.978  1.00  0.00     0.134 A 
ATOM     82  F   UNL     1      10.452   5.612  -5.953  1.00  0.00    -0.206 F 
ATOM     83  C   UNL     1      12.054   4.586  -7.300  1.00  0.00     0.040 A 
ATOM     84  C   UNL     1      14.108   5.719  -7.817  1.00  0.00     0.040 A 
ATOM     85  F   UNL     1      14.558   7.825  -6.886  1.00  0.00    -0.206 F 
ATOM     86  C   UNL     1      13.269   4.620  -7.978  1.00  0.00     0.006 A 
ENDBRANCH  62  79
ENDBRANCH  36  37
ENDBRANCH  28  31
ENDBRANCH  26  27
ENDBRANCH  25  26
ENDBRANCH   1  25
TORSDOF 15
