REMARK SMILES O=C(NCCCCNC(=O)c1c(F)cccc1NC(=O)C1CCCCC1)c1ccc(-c2c3nc(c(-c4c(F)cccc4F)c4ccc([nH]4)c(-c4c(F)cccc4F)c4nc(c(-c5c(F)cccc5F)c5ccc2[nH]5)C=C4)C=C3)cc1
REMARK SMILES IDX 5 1 4 2 3 3 1 4 2 5 27 7 28 8 80 9 29 10 79 11 30 12 31 13
REMARK SMILES IDX 32 14 73 15 33 16 78 17 72 18 74 19 34 20 77 21 71 22 70 23
REMARK SMILES IDX 35 25 61 26 44 27 60 28 45 29 48 30 59 31 75 32 46 33 47 34
REMARK SMILES IDX 58 36 76 37 49 38 36 39 37 40 42 41 38 42 39 43 41 44 43 45
REMARK SMILES IDX 40 46 62 47 63 48 68 49 64 50 65 51 67 52 69 53 66 54 50 55
REMARK SMILES IDX 51 56 56 57 52 58 53 59 55 60 57 61 54 62 6 63 7 64 8 65
REMARK SMILES IDX 9 66 10 68 11 69 12 70 17 71 13 72 14 73 16 74 15 75 18 76
REMARK SMILES IDX 19 77 20 79 21 80 22 81 26 82 23 83 25 84 24 85
REMARK H PARENT 3 6 74 24 48 35 8 67 18 78
REMARK Flexibility Score: inf
ROOT
ATOM      1  C   UNL     1       4.903  -0.859   2.219  1.00  0.00     0.023 C 
ENDROOT
BRANCH   1   2
ATOM      2  C   UNL     1       4.553  -0.915   0.736  1.00  0.00     0.116 C 
BRANCH   2   3
ATOM      3  N   UNL     1       3.119  -0.950   0.497  1.00  0.00    -0.352 N 
ATOM      4  O   UNL     1       1.093  -0.167  -0.104  1.00  0.00    -0.269 OA
ATOM      5  C   UNL     1       2.309  -0.040  -0.141  1.00  0.00     0.251 C 
ATOM      6  H   UNL     1       2.657  -1.746   0.846  1.00  0.00     0.163 HD
BRANCH   5   7
ATOM      7  C   UNL     1       2.910   1.110  -0.851  1.00  0.00     0.039 A 
ATOM      8  C   UNL     1       4.004   0.939  -1.703  1.00  0.00     0.014 A 
ATOM      9  C   UNL     1       2.357   2.380  -0.664  1.00  0.00     0.014 A 
ATOM     10  C   UNL     1       4.635   2.051  -2.252  1.00  0.00     0.010 A 
ATOM     11  C   UNL     1       2.942   3.486  -1.282  1.00  0.00     0.010 A 
ATOM     12  C   UNL     1       4.105   3.335  -2.053  1.00  0.00    -0.014 A 
BRANCH  12  13
ATOM     13  C   UNL     1       4.743   4.514  -2.689  1.00  0.00     0.031 A 
ATOM     14  C   UNL     1       5.351   5.602  -1.852  1.00  0.00     0.074 A 
ATOM     15  C   UNL     1       4.750   4.610  -4.032  1.00  0.00     0.049 A 
ATOM     16  N   UNL     1       5.867   6.743  -2.233  1.00  0.00    -0.248 NA
ATOM     17  C   UNL     1       5.376   5.386  -0.398  1.00  0.00     0.031 C 
ATOM     18  C   UNL     1       4.203   3.609  -4.949  1.00  0.00     0.029 A 
ATOM     19  N   UNL     1       5.227   5.595  -4.858  1.00  0.00    -0.354 N 
ATOM     20  C   UNL     1       6.257   7.391  -1.068  1.00  0.00     0.074 A 
ATOM     21  C   UNL     1       5.896   6.526   0.036  1.00  0.00     0.031 C 
ATOM     22  C   UNL     1       4.391   4.021  -6.210  1.00  0.00     0.029 A 
ATOM     23  C   UNL     1       5.010   5.343  -6.190  1.00  0.00     0.049 A 
ATOM     24  H   UNL     1       5.682   6.403  -4.528  1.00  0.00     0.167 HD
ATOM     25  C   UNL     1       6.864   8.594  -0.936  1.00  0.00     0.037 A 
ATOM     26  C   UNL     1       5.248   6.101  -7.276  1.00  0.00     0.037 A 
ATOM     27  C   UNL     1       7.229   9.440  -2.044  1.00  0.00     0.049 A 
ATOM     28  C   UNL     1       5.869   7.456  -7.105  1.00  0.00     0.074 A 
ATOM     29  C   UNL     1       7.882  10.660  -2.014  1.00  0.00     0.029 A 
ATOM     30  N   UNL     1       6.964   9.160  -3.377  1.00  0.00    -0.354 N 
ATOM     31  N   UNL     1       6.249   8.050  -6.000  1.00  0.00    -0.248 NA
ATOM     32  C   UNL     1       6.089   8.248  -8.322  1.00  0.00     0.031 C 
ATOM     33  C   UNL     1       7.959  11.146  -3.322  1.00  0.00     0.029 A 
ATOM     34  C   UNL     1       7.414  10.199  -4.175  1.00  0.00     0.049 A 
ATOM     35  H   UNL     1       6.523   8.344  -3.706  1.00  0.00     0.167 HD
ATOM     36  C   UNL     1       6.776   9.274  -6.388  1.00  0.00     0.074 A 
ATOM     37  C   UNL     1       6.666   9.338  -7.831  1.00  0.00     0.031 C 
ATOM     38  C   UNL     1       7.308  10.250  -5.613  1.00  0.00     0.037 A 
BRANCH  25  39
ATOM     39  C   UNL     1       7.153   9.087   0.453  1.00  0.00     0.057 A 
ATOM     40  C   UNL     1       6.473  10.198   0.970  1.00  0.00     0.134 A 
ATOM     41  C   UNL     1       8.140   8.505   1.259  1.00  0.00     0.134 A 
ATOM     42  F   UNL     1       5.523  10.812   0.248  1.00  0.00    -0.206 F 
ATOM     43  C   UNL     1       6.769  10.716   2.232  1.00  0.00     0.040 A 
ATOM     44  C   UNL     1       8.425   8.996   2.535  1.00  0.00     0.040 A 
ATOM     45  F   UNL     1       8.824   7.434   0.829  1.00  0.00    -0.206 F 
ATOM     46  C   UNL     1       7.744  10.110   3.021  1.00  0.00     0.006 A 
ENDBRANCH  25  39
BRANCH  26  47
ATOM     47  C   UNL     1       4.891   5.569  -8.614  1.00  0.00     0.057 A 
ATOM     48  C   UNL     1       3.555   5.398  -8.998  1.00  0.00     0.134 A 
ATOM     49  C   UNL     1       5.880   5.135  -9.502  1.00  0.00     0.134 A 
ATOM     50  F   UNL     1       2.562   5.782  -8.183  1.00  0.00    -0.206 F 
ATOM     51  C   UNL     1       3.215   4.783 -10.203  1.00  0.00     0.040 A 
ATOM     52  C   UNL     1       5.554   4.541 -10.722  1.00  0.00     0.040 A 
ATOM     53  F   UNL     1       7.177   5.284  -9.193  1.00  0.00    -0.206 F 
ATOM     54  C   UNL     1       4.217   4.352 -11.069  1.00  0.00     0.006 A 
ENDBRANCH  26  47
BRANCH  38  55
ATOM     55  C   UNL     1       7.852  11.471  -6.293  1.00  0.00     0.057 A 
ATOM     56  C   UNL     1       9.233  11.709  -6.320  1.00  0.00     0.134 A 
ATOM     57  C   UNL     1       7.013  12.465  -6.809  1.00  0.00     0.134 A 
ATOM     58  F   UNL     1      10.091  10.799  -5.832  1.00  0.00    -0.206 F 
ATOM     59  C   UNL     1       9.758  12.905  -6.807  1.00  0.00     0.040 A 
ATOM     60  C   UNL     1       7.529  13.657  -7.322  1.00  0.00     0.040 A 
ATOM     61  F   UNL     1       5.683  12.293  -6.822  1.00  0.00    -0.206 F 
ATOM     62  C   UNL     1       8.904  13.885  -7.307  1.00  0.00     0.006 A 
ENDBRANCH  38  55
ENDBRANCH  12  13
ENDBRANCH   5   7
ENDBRANCH   2   3
ENDBRANCH   1   2
BRANCH   1  63
ATOM     63  C   UNL     1       4.424  -2.051   3.044  1.00  0.00     0.023 C 
BRANCH  63  64
ATOM     64  C   UNL     1       4.861  -3.416   2.523  1.00  0.00     0.116 C 
BRANCH  64  65
ATOM     65  N   UNL     1       6.304  -3.595   2.555  1.00  0.00    -0.352 N 
ATOM     66  C   UNL     1       7.016  -4.699   2.958  1.00  0.00     0.256 C 
ATOM     67  H   UNL     1       6.839  -2.827   2.250  1.00  0.00     0.163 HD
ATOM     68  O   UNL     1       8.238  -4.645   3.056  1.00  0.00    -0.269 OA
BRANCH  66  69
ATOM     69  C   UNL     1       6.309  -5.931   3.361  1.00  0.00     0.099 A 
ATOM     70  C   UNL     1       5.390  -6.489   2.461  1.00  0.00     0.138 A 
ATOM     71  C   UNL     1       6.534  -6.518   4.628  1.00  0.00     0.057 A 
ATOM     72  F   UNL     1       5.231  -5.976   1.232  1.00  0.00    -0.206 F 
ATOM     73  C   UNL     1       4.593  -7.561   2.825  1.00  0.00     0.040 A 
ATOM     74  C   UNL     1       5.716  -7.604   4.963  1.00  0.00     0.027 A 
ATOM     75  C   UNL     1       4.745  -8.109   4.087  1.00  0.00     0.005 A 
BRANCH  71  76
ATOM     76  N   UNL     1       7.547  -5.972   5.466  1.00  0.00    -0.325 N 
ATOM     77  C   UNL     1       8.034  -6.224   6.721  1.00  0.00     0.227 C 
ATOM     78  H   UNL     1       8.017  -5.223   5.033  1.00  0.00     0.169 HD
ATOM     79  O   UNL     1       8.930  -5.490   7.150  1.00  0.00    -0.274 OA
BRANCH  77  80
ATOM     80  C   UNL     1       7.521  -7.380   7.555  1.00  0.00     0.079 C 
ATOM     81  C   UNL     1       8.140  -8.694   7.057  1.00  0.00     0.013 C 
ATOM     82  C   UNL     1       7.792  -7.252   9.060  1.00  0.00     0.013 C 
ATOM     83  C   UNL     1       7.496  -9.888   7.751  1.00  0.00     0.001 C 
ATOM     84  C   UNL     1       7.117  -8.416   9.793  1.00  0.00     0.001 C 
ATOM     85  C   UNL     1       7.587  -9.775   9.271  1.00  0.00     0.000 C 
ENDBRANCH  77  80
ENDBRANCH  71  76
ENDBRANCH  66  69
ENDBRANCH  64  65
ENDBRANCH  63  64
ENDBRANCH   1  63
TORSDOF 13
