REMARK SMILES Cc1oc(C)c(S(=O)(=O)Nn2c(C)ccc2C)c1C(=O)NCCCCNC(=O)c1ccc(-c2c3nc(c(-c4c(F)cccc4F)c4ccc([nH]4)c(-c4c(F)cccc4F)c4nc(c(-c5c(F)cccc5F)c5ccc2[nH]5)C=C4)C=C3)cc1
REMARK SMILES IDX 23 1 22 2 21 3 19 4 20 5 18 7 1 8 2 9 3 10 4 11 6 12 5 13
REMARK SMILES IDX 7 14 8 15 9 16 10 17 11 19 12 20 16 21 13 22 14 23 15 24
REMARK SMILES IDX 17 25 24 26 25 27 26 28 27 29 28 31 29 32 30 33 82 34 31 35
REMARK SMILES IDX 81 36 32 37 33 38 34 39 75 40 35 41 80 42 74 43 76 44 36 45
REMARK SMILES IDX 79 46 73 47 72 48 37 50 63 51 46 52 62 53 47 54 50 55 61 56
REMARK SMILES IDX 77 57 48 58 49 59 60 61 78 62 51 63 38 64 39 65 44 66 40 67
REMARK SMILES IDX 41 68 43 69 45 70 42 71 64 72 65 73 70 74 66 75 67 76 69 77
REMARK SMILES IDX 71 78 68 79 52 80 53 81 58 82 54 83 55 84 57 85 59 86 56 87
REMARK H PARENT 21 6 10 18 26 30 76 49 50 60
REMARK Flexibility Score: inf
ROOT
ATOM      1  C   UNL     1       4.711   1.230  -1.399  1.00  0.00     0.023 C 
ENDROOT
BRANCH   1   2
ATOM      2  C   UNL     1       3.784   0.756  -0.280  1.00  0.00     0.116 C 
BRANCH   2   3
ATOM      3  N   UNL     1       3.028   1.751   0.453  1.00  0.00    -0.352 N 
ATOM      4  C   UNL     1       1.778   1.701   1.022  1.00  0.00     0.256 C 
ATOM      5  O   UNL     1       1.498   2.546   1.870  1.00  0.00    -0.269 OA
ATOM      6  H   UNL     1       3.491   2.613   0.562  1.00  0.00     0.163 HD
BRANCH   4   7
ATOM      7  C   UNL     1       0.776   0.746   0.600  1.00  0.00     0.101 A 
ATOM      8  C   UNL     1       1.946  -1.641   0.774  1.00  0.00     0.088 C 
ATOM      9  C   UNL     1       0.884  -0.639   0.537  1.00  0.00     0.115 A 
ATOM     10  O   UNL     1      -0.315  -1.198   0.227  1.00  0.00    -0.464 OA
ATOM     11  C   UNL     1      -1.223  -0.199   0.132  1.00  0.00     0.122 A 
ATOM     12  C   UNL     1      -0.604   1.025   0.303  1.00  0.00     0.143 A 
ATOM     13  C   UNL     1      -2.620  -0.634  -0.085  1.00  0.00     0.089 C 
BRANCH  12  14
ATOM     14  S   UNL     1      -1.494   2.495   0.214  1.00  0.00     0.279 S 
ATOM     15  O   UNL     1      -2.185   2.395  -1.065  1.00  0.00    -0.200 OA
ATOM     16  O   UNL     1      -2.254   2.469   1.440  1.00  0.00    -0.200 OA
BRANCH  14  17
ATOM     17  N   UNL     1      -0.721   3.942   0.241  1.00  0.00    -0.216 N 
ATOM     18  H   UNL     1      -1.216   4.675   0.675  1.00  0.00     0.202 HD
BRANCH  17  19
ATOM     19  N   UNL     1       0.526   4.285  -0.257  1.00  0.00    -0.256 N 
ATOM     20  C   UNL     1       1.184   3.847  -1.383  1.00  0.00     0.038 A 
ATOM     21  C   UNL     1       1.289   5.238   0.391  1.00  0.00     0.038 A 
ATOM     22  C   UNL     1       0.650   2.950  -2.439  1.00  0.00     0.067 C 
ATOM     23  C   UNL     1       2.431   4.455  -1.377  1.00  0.00     0.025 A 
ATOM     24  C   UNL     1       2.505   5.306  -0.259  1.00  0.00     0.025 A 
ATOM     25  C   UNL     1       0.881   5.955   1.635  1.00  0.00     0.067 C 
ENDBRANCH  17  19
ENDBRANCH  14  17
ENDBRANCH  12  14
ENDBRANCH   4   7
ENDBRANCH   2   3
ENDBRANCH   1   2
BRANCH   1  26
ATOM     26  C   UNL     1       5.732   2.359  -1.195  1.00  0.00     0.023 C 
BRANCH  26  27
ATOM     27  C   UNL     1       6.146   2.788   0.213  1.00  0.00     0.116 C 
BRANCH  27  28
ATOM     28  N   UNL     1       7.429   2.300   0.658  1.00  0.00    -0.352 N 
ATOM     29  C   UNL     1       8.229   2.894   1.620  1.00  0.00     0.251 C 
ATOM     30  H   UNL     1       7.765   1.474   0.241  1.00  0.00     0.163 HD
ATOM     31  O   UNL     1       9.273   2.343   1.957  1.00  0.00    -0.269 OA
BRANCH  29  32
ATOM     32  C   UNL     1       7.885   4.262   2.145  1.00  0.00     0.039 A 
ATOM     33  C   UNL     1       8.461   5.334   1.499  1.00  0.00     0.014 A 
ATOM     34  C   UNL     1       7.089   4.547   3.271  1.00  0.00     0.014 A 
ATOM     35  C   UNL     1       8.202   6.650   1.949  1.00  0.00     0.010 A 
ATOM     36  C   UNL     1       6.923   5.902   3.790  1.00  0.00     0.010 A 
ATOM     37  C   UNL     1       7.499   7.018   3.159  1.00  0.00    -0.014 A 
BRANCH  37  38
ATOM     38  C   UNL     1       7.846   8.485   3.760  1.00  0.00     0.031 A 
ATOM     39  C   UNL     1       9.304   8.610   3.457  1.00  0.00     0.074 A 
ATOM     40  C   UNL     1       7.372   9.539   4.544  1.00  0.00     0.049 A 
ATOM     41  N   UNL     1      10.111   7.699   3.926  1.00  0.00    -0.248 NA
ATOM     42  C   UNL     1       9.836   9.379   2.329  1.00  0.00     0.031 C 
ATOM     43  C   UNL     1       6.110   9.628   5.295  1.00  0.00     0.029 A 
ATOM     44  N   UNL     1       7.928  10.822   4.872  1.00  0.00    -0.354 N 
ATOM     45  C   UNL     1      11.332   7.921   3.346  1.00  0.00     0.074 A 
ATOM     46  C   UNL     1      11.044   8.810   2.227  1.00  0.00     0.031 C 
ATOM     47  C   UNL     1       5.924  10.869   5.840  1.00  0.00     0.029 A 
ATOM     48  C   UNL     1       7.062  11.749   5.566  1.00  0.00     0.049 A 
ATOM     49  H   UNL     1       8.853  11.059   4.635  1.00  0.00     0.167 HD
ATOM     50  C   UNL     1      12.385   7.957   4.211  1.00  0.00     0.037 A 
ATOM     51  C   UNL     1       7.257  13.076   5.960  1.00  0.00     0.037 A 
ATOM     52  C   UNL     1      12.735   9.313   4.531  1.00  0.00     0.049 A 
ATOM     53  C   UNL     1       8.707  13.245   6.074  1.00  0.00     0.074 A 
ATOM     54  C   UNL     1      12.902  10.439   3.747  1.00  0.00     0.029 A 
ATOM     55  N   UNL     1      12.425   9.753   5.798  1.00  0.00    -0.354 N 
ATOM     56  N   UNL     1       9.348  12.832   7.122  1.00  0.00    -0.248 NA
ATOM     57  C   UNL     1       9.497  13.972   5.089  1.00  0.00     0.031 C 
ATOM     58  C   UNL     1      12.162  11.439   4.412  1.00  0.00     0.029 A 
ATOM     59  C   UNL     1      11.961  11.048   5.728  1.00  0.00     0.049 A 
ATOM     60  H   UNL     1      12.520   9.225   6.624  1.00  0.00     0.167 HD
ATOM     61  C   UNL     1      10.628  12.770   6.686  1.00  0.00     0.074 A 
ATOM     62  C   UNL     1      10.709  13.716   5.588  1.00  0.00     0.031 C 
ATOM     63  C   UNL     1      11.247  11.580   6.857  1.00  0.00     0.037 A 
BRANCH  50  64
ATOM     64  C   UNL     1      12.388   6.801   5.174  1.00  0.00     0.057 A 
ATOM     65  C   UNL     1      13.295   5.761   4.970  1.00  0.00     0.134 A 
ATOM     66  C   UNL     1      11.387   6.591   6.144  1.00  0.00     0.134 A 
ATOM     67  F   UNL     1      14.311   5.908   4.106  1.00  0.00    -0.206 F 
ATOM     68  C   UNL     1      13.162   4.535   5.630  1.00  0.00     0.040 A 
ATOM     69  C   UNL     1      11.203   5.352   6.757  1.00  0.00     0.040 A 
ATOM     70  F   UNL     1      10.546   7.579   6.493  1.00  0.00    -0.206 F 
ATOM     71  C   UNL     1      12.086   4.313   6.489  1.00  0.00     0.006 A 
ENDBRANCH  50  64
BRANCH  51  72
ATOM     72  C   UNL     1       6.587  14.373   6.501  1.00  0.00     0.057 A 
ATOM     73  C   UNL     1       7.305  15.292   7.346  1.00  0.00     0.134 A 
ATOM     74  C   UNL     1       5.474  14.962   5.891  1.00  0.00     0.134 A 
ATOM     75  F   UNL     1       8.365  14.906   8.069  1.00  0.00    -0.206 F 
ATOM     76  C   UNL     1       7.033  16.671   7.453  1.00  0.00     0.040 A 
ATOM     77  C   UNL     1       5.164  16.346   6.029  1.00  0.00     0.040 A 
ATOM     78  F   UNL     1       4.697  14.244   5.071  1.00  0.00    -0.206 F 
ATOM     79  C   UNL     1       5.965  17.213   6.771  1.00  0.00     0.006 A 
ENDBRANCH  51  72
BRANCH  63  80
ATOM     80  C   UNL     1      11.010  10.854   8.171  1.00  0.00     0.057 A 
ATOM     81  C   UNL     1       9.771  10.574   8.789  1.00  0.00     0.134 A 
ATOM     82  C   UNL     1      12.146  10.471   8.896  1.00  0.00     0.134 A 
ATOM     83  F   UNL     1       8.595  10.772   8.176  1.00  0.00    -0.206 F 
ATOM     84  C   UNL     1       9.686  10.036  10.082  1.00  0.00     0.040 A 
ATOM     85  C   UNL     1      12.072   9.879  10.159  1.00  0.00     0.040 A 
ATOM     86  F   UNL     1      13.369  10.658   8.377  1.00  0.00    -0.206 F 
ATOM     87  C   UNL     1      10.839   9.685  10.770  1.00  0.00     0.006 A 
ENDBRANCH  63  80
ENDBRANCH  37  38
ENDBRANCH  29  32
ENDBRANCH  27  28
ENDBRANCH  26  27
ENDBRANCH   1  26
TORSDOF 14
