REMARK SMILES O=C(NCCCCNC(=O)c1cn(C2CC2)c2cc(N3CC[NH2+]CC3)ccc2c1=O)c1ccc(-c2c3nc(c(-c4c(F)cccc4F)c4ccc([nH]4)c(-c4c(F)cccc4F)c4nc(c(-c5c(F)cccc5F)c5ccc2[nH]5)C=C4)C=C3)cc1
REMARK SMILES IDX 5 1 4 2 3 3 1 4 2 5 31 7 32 8 84 9 33 10 83 11 34 12 35 13
REMARK SMILES IDX 36 14 77 15 37 16 82 17 76 18 78 19 38 20 81 21 75 22 74 23
REMARK SMILES IDX 39 25 65 26 48 27 64 28 49 29 52 30 63 31 79 32 50 33 51 34
REMARK SMILES IDX 62 36 80 37 53 38 40 39 41 40 46 41 42 42 43 43 45 44 47 45
REMARK SMILES IDX 44 46 66 47 67 48 72 49 68 50 69 51 71 52 73 53 70 54 54 55
REMARK SMILES IDX 55 56 60 57 56 58 57 59 59 60 61 61 58 62 6 63 7 64 8 65
REMARK SMILES IDX 9 66 10 68 11 69 12 70 29 71 13 72 28 73 30 74 17 75 27 76
REMARK SMILES IDX 18 77 26 78 19 79 14 80 15 81 16 82 20 83 21 84 25 85 22 86
REMARK SMILES IDX 24 87 23 88
REMARK H PARENT 3 6 78 24 52 35 8 67 23 89 23 90
REMARK Flexibility Score: inf
ROOT
ATOM      1  C   UNL     1       5.060   0.048   2.486  1.00  0.00     0.023 C 
ENDROOT
BRANCH   1   2
ATOM      2  C   UNL     1       4.671  -0.386   1.076  1.00  0.00     0.116 C 
BRANCH   2   3
ATOM      3  N   UNL     1       3.233  -0.487   0.899  1.00  0.00    -0.352 N 
ATOM      4  O   UNL     1       1.189   0.029   0.124  1.00  0.00    -0.269 OA
ATOM      5  C   UNL     1       2.408   0.135  -0.003  1.00  0.00     0.251 C 
ATOM      6  H   UNL     1       2.779  -1.097   1.525  1.00  0.00     0.163 HD
BRANCH   5   7
ATOM      7  C   UNL     1       2.957   0.930  -1.125  1.00  0.00     0.039 A 
ATOM      8  C   UNL     1       2.312   2.122  -1.479  1.00  0.00     0.014 A 
ATOM      9  C   UNL     1       4.036   0.473  -1.886  1.00  0.00     0.014 A 
ATOM     10  C   UNL     1       2.755   2.861  -2.579  1.00  0.00     0.010 A 
ATOM     11  C   UNL     1       4.514   1.239  -2.949  1.00  0.00     0.010 A 
ATOM     12  C   UNL     1       3.860   2.424  -3.323  1.00  0.00    -0.014 A 
BRANCH  12  13
ATOM     13  C   UNL     1       4.285   3.121  -4.564  1.00  0.00     0.031 A 
ATOM     14  C   UNL     1       4.104   2.428  -5.889  1.00  0.00     0.074 A 
ATOM     15  C   UNL     1       4.874   4.330  -4.510  1.00  0.00     0.049 A 
ATOM     16  N   UNL     1       4.535   2.777  -7.074  1.00  0.00    -0.248 NA
ATOM     17  C   UNL     1       3.358   1.159  -5.870  1.00  0.00     0.031 C 
ATOM     18  C   UNL     1       5.110   5.108  -3.295  1.00  0.00     0.029 A 
ATOM     19  N   UNL     1       5.402   5.106  -5.512  1.00  0.00    -0.354 N 
ATOM     20  C   UNL     1       4.147   1.755  -7.931  1.00  0.00     0.074 A 
ATOM     21  C   UNL     1       3.467   0.761  -7.129  1.00  0.00     0.031 C 
ATOM     22  C   UNL     1       5.736   6.252  -3.622  1.00  0.00     0.029 A 
ATOM     23  C   UNL     1       5.980   6.269  -5.062  1.00  0.00     0.049 A 
ATOM     24  H   UNL     1       5.369   4.855  -6.463  1.00  0.00     0.167 HD
ATOM     25  C   UNL     1       4.328   1.658  -9.269  1.00  0.00     0.037 A 
ATOM     26  C   UNL     1       6.651   7.224  -5.734  1.00  0.00     0.037 A 
ATOM     27  C   UNL     1       4.951   2.670 -10.078  1.00  0.00     0.049 A 
ATOM     28  C   UNL     1       6.849   7.084  -7.220  1.00  0.00     0.074 A 
ATOM     29  C   UNL     1       5.112   2.697 -11.452  1.00  0.00     0.029 A 
ATOM     30  N   UNL     1       5.508   3.838  -9.584  1.00  0.00    -0.354 N 
ATOM     31  N   UNL     1       6.440   6.134  -8.025  1.00  0.00    -0.248 NA
ATOM     32  C   UNL     1       7.610   8.150  -7.891  1.00  0.00     0.031 C 
ATOM     33  C   UNL     1       5.797   3.869 -11.788  1.00  0.00     0.029 A 
ATOM     34  C   UNL     1       6.033   4.584 -10.625  1.00  0.00     0.049 A 
ATOM     35  H   UNL     1       5.529   4.098  -8.635  1.00  0.00     0.167 HD
ATOM     36  C   UNL     1       6.866   6.501  -9.295  1.00  0.00     0.074 A 
ATOM     37  C   UNL     1       7.559   7.764  -9.158  1.00  0.00     0.031 C 
ATOM     38  C   UNL     1       6.699   5.850 -10.471  1.00  0.00     0.037 A 
BRANCH  25  39
ATOM     39  C   UNL     1       3.848   0.410  -9.945  1.00  0.00     0.057 A 
ATOM     40  C   UNL     1       4.763  -0.540 -10.416  1.00  0.00     0.134 A 
ATOM     41  C   UNL     1       2.487   0.164 -10.165  1.00  0.00     0.134 A 
ATOM     42  F   UNL     1       6.081  -0.362 -10.240  1.00  0.00    -0.206 F 
ATOM     43  C   UNL     1       4.341  -1.689 -11.086  1.00  0.00     0.040 A 
ATOM     44  C   UNL     1       2.052  -0.992 -10.814  1.00  0.00     0.040 A 
ATOM     45  F   UNL     1       1.561   1.029  -9.725  1.00  0.00    -0.206 F 
ATOM     46  C   UNL     1       2.981  -1.920 -11.283  1.00  0.00     0.006 A 
ENDBRANCH  25  39
BRANCH  26  47
ATOM     47  C   UNL     1       7.204   8.400  -5.018  1.00  0.00     0.057 A 
ATOM     48  C   UNL     1       8.314   8.287  -4.174  1.00  0.00     0.134 A 
ATOM     49  C   UNL     1       6.662   9.678  -5.206  1.00  0.00     0.134 A 
ATOM     50  F   UNL     1       8.878   7.090  -3.954  1.00  0.00    -0.206 F 
ATOM     51  C   UNL     1       8.869   9.402  -3.544  1.00  0.00     0.040 A 
ATOM     52  C   UNL     1       7.220  10.804  -4.600  1.00  0.00     0.040 A 
ATOM     53  F   UNL     1       5.614   9.852  -6.024  1.00  0.00    -0.206 F 
ATOM     54  C   UNL     1       8.327  10.667  -3.765  1.00  0.00     0.006 A 
ENDBRANCH  26  47
BRANCH  38  55
ATOM     55  C   UNL     1       7.233   6.511 -11.705  1.00  0.00     0.057 A 
ATOM     56  C   UNL     1       6.363   7.103 -12.629  1.00  0.00     0.134 A 
ATOM     57  C   UNL     1       8.601   6.518 -12.003  1.00  0.00     0.134 A 
ATOM     58  F   UNL     1       5.040   7.122 -12.403  1.00  0.00    -0.206 F 
ATOM     59  C   UNL     1       6.834   7.674 -13.811  1.00  0.00     0.040 A 
ATOM     60  C   UNL     1       9.086   7.104 -13.172  1.00  0.00     0.040 A 
ATOM     61  F   UNL     1       9.485   5.979 -11.150  1.00  0.00    -0.206 F 
ATOM     62  C   UNL     1       8.201   7.678 -14.084  1.00  0.00     0.006 A 
ENDBRANCH  38  55
ENDBRANCH  12  13
ENDBRANCH   5   7
ENDBRANCH   2   3
ENDBRANCH   1   2
BRANCH   1  63
ATOM     63  C   UNL     1       4.602  -0.877   3.615  1.00  0.00     0.023 C 
BRANCH  63  64
ATOM     64  C   UNL     1       4.973  -2.348   3.455  1.00  0.00     0.116 C 
BRANCH  64  65
ATOM     65  N   UNL     1       6.406  -2.571   3.345  1.00  0.00    -0.352 N 
ATOM     66  C   UNL     1       7.191  -3.471   4.017  1.00  0.00     0.256 C 
ATOM     67  H   UNL     1       6.877  -1.997   2.699  1.00  0.00     0.163 HD
ATOM     68  O   UNL     1       8.390  -3.554   3.763  1.00  0.00    -0.269 OA
BRANCH  66  69
ATOM     69  C   UNL     1       6.545  -4.353   5.004  1.00  0.00     0.104 A 
ATOM     70  C   UNL     1       5.637  -5.242   4.575  1.00  0.00     0.104 A 
ATOM     71  C   UNL     1       6.801  -4.256   6.454  1.00  0.00     0.202 A 
ATOM     72  N   UNL     1       4.846  -6.042   5.376  1.00  0.00    -0.343 N 
ATOM     73  C   UNL     1       6.074  -5.206   7.332  1.00  0.00     0.047 A 
ATOM     74  O   UNL     1       7.550  -3.408   6.930  1.00  0.00    -0.288 OA
ATOM     75  C   UNL     1       5.124  -6.087   6.777  1.00  0.00     0.054 A 
ATOM     76  C   UNL     1       6.314  -5.179   8.709  1.00  0.00     0.016 A 
ATOM     77  C   UNL     1       4.467  -6.968   7.652  1.00  0.00     0.053 A 
ATOM     78  C   UNL     1       5.599  -6.026   9.555  1.00  0.00     0.027 A 
ATOM     79  C   UNL     1       4.668  -6.933   9.043  1.00  0.00     0.039 A 
BRANCH  72  80
ATOM     80  C   UNL     1       3.603  -6.643   4.824  1.00  0.00     0.087 C 
ATOM     81  C   UNL     1       3.012  -6.348   3.467  1.00  0.00     0.027 C 
ATOM     82  C   UNL     1       3.645  -7.682   3.737  1.00  0.00     0.027 C 
ENDBRANCH  72  80
BRANCH  79  83
ATOM     83  N   UNL     1       3.943  -7.772   9.861  1.00  0.00    -0.360 N 
ATOM     84  C   UNL     1       4.127  -9.223   9.758  1.00  0.00     0.178 C 
ATOM     85  C   UNL     1       3.254  -7.274  11.055  1.00  0.00     0.178 C 
ATOM     86  C   UNL     1       4.681  -9.787  11.088  1.00  0.00     0.282 C 
ATOM     87  C   UNL     1       3.821  -7.921  12.336  1.00  0.00     0.282 C 
ATOM     88  N   UNL     1       3.886  -9.398  12.275  1.00  0.00    -0.343 N 
ATOM     89  H   UNL     1       4.331  -9.758  13.120  1.00  0.00     0.346 HD
ATOM     90  H   UNL     1       2.945  -9.786  12.207  1.00  0.00     0.346 HD
ENDBRANCH  79  83
ENDBRANCH  66  69
ENDBRANCH  64  65
ENDBRANCH  63  64
ENDBRANCH   1  63
TORSDOF 13
