REMARK SMILES CCC[C@@H]1C[N@@H+](Cc2cc(OC)c3c(c2)OCO3)C[C@H]1C(=O)NCCCCNC(=O)c1ccc(-c2c3nc(c(-c4c(F)cccc4F)c4ccc([nH]4)c(-c4c(F)cccc4F)c4nc(c(-c5c(F)cccc5F)c5ccc2[nH]5)C=C4)C=C3)cc1
REMARK SMILES IDX 25 1 24 2 23 3 21 4 22 5 20 7 4 8 5 9 6 10 19 11 3 13 2 14
REMARK SMILES IDX 1 15 7 16 8 17 9 18 15 19 10 20 14 21 13 22 16 23 18 24
REMARK SMILES IDX 17 25 11 26 12 27 26 28 27 29 28 30 29 31 30 33 31 34 32 35
REMARK SMILES IDX 84 36 33 37 83 38 34 39 35 40 36 41 77 42 37 43 82 44 76 45
REMARK SMILES IDX 78 46 38 47 81 48 75 49 74 50 39 52 65 53 48 54 64 55 49 56
REMARK SMILES IDX 52 57 63 58 79 59 50 60 51 61 62 63 80 64 53 65 40 66 41 67
REMARK SMILES IDX 46 68 42 69 43 70 45 71 47 72 44 73 66 74 67 75 72 76 68 77
REMARK SMILES IDX 69 78 71 79 73 80 70 81 54 82 55 83 60 84 56 85 57 86 59 87
REMARK SMILES IDX 61 88 58 89
REMARK H PARENT 23 6 6 12 28 32 78 51 52 62
REMARK Flexibility Score: inf
ROOT
ATOM      1  C   UNL     1      -2.171   4.375   4.786  1.00  0.00     0.023 C 
ENDROOT
BRANCH   1   2
ATOM      2  C   UNL     1      -0.719   4.902   4.867  1.00  0.00     0.116 C 
BRANCH   2   3
ATOM      3  N   UNL     1       0.399   3.944   5.003  1.00  0.00    -0.356 N 
ATOM      4  C   UNL     1       1.345   3.308   4.239  1.00  0.00     0.229 C 
ATOM      5  O   UNL     1       2.237   2.756   4.902  1.00  0.00    -0.275 OA
ATOM      6  H   UNL     1       0.495   3.676   5.946  1.00  0.00     0.163 HD
BRANCH   4   7
ATOM      7  C   UNL     1       1.403   3.152   2.690  1.00  0.00     0.142 C 
ATOM      8  C   UNL     1       1.226   1.704   2.101  1.00  0.00     0.062 C 
ATOM      9  C   UNL     1       0.476   1.942   0.790  1.00  0.00     0.267 C 
ATOM     10  N   UNL     1      -0.424   3.038   1.077  1.00  0.00    -0.330 N 
ATOM     11  C   UNL     1       0.373   3.959   1.892  1.00  0.00     0.276 C 
ATOM     12  H   UNL     1      -0.740   3.556   0.257  1.00  0.00     0.348 HD
BRANCH   8  13
ATOM     13  C   UNL     1       2.359   0.684   1.923  1.00  0.00     0.010 C 
BRANCH  13  14
ATOM     14  C   UNL     1       1.801  -0.645   1.323  1.00  0.00    -0.003 C 
ATOM     15  C   UNL     1       1.934  -0.764  -0.194  1.00  0.00     0.004 C 
ENDBRANCH  13  14
ENDBRANCH   8  13
BRANCH  10  16
ATOM     16  C   UNL     1      -1.783   2.626   1.502  1.00  0.00     0.299 C 
BRANCH  16  17
ATOM     17  C   UNL     1      -2.018   1.511   2.529  1.00  0.00     0.014 A 
ATOM     18  C   UNL     1      -1.329   1.498   3.745  1.00  0.00     0.060 A 
ATOM     19  C   UNL     1      -2.984   0.516   2.396  1.00  0.00     0.060 A 
ATOM     20  C   UNL     1      -1.416   0.551   4.766  1.00  0.00     0.165 A 
ATOM     21  C   UNL     1      -3.148  -0.396   3.445  1.00  0.00     0.170 A 
ATOM     22  C   UNL     1      -2.377  -0.394   4.597  1.00  0.00     0.207 A 
ATOM     23  O   UNL     1      -4.091  -1.381   3.476  1.00  0.00    -0.453 OA
ATOM     24  O   UNL     1      -2.727  -1.377   5.465  1.00  0.00    -0.450 OA
ATOM     25  C   UNL     1      -3.876  -1.925   4.795  1.00  0.00     0.468 C 
BRANCH  20  26
ATOM     26  O   UNL     1      -0.533   0.754   5.777  1.00  0.00    -0.493 OA
ATOM     27  C   UNL     1      -0.882   0.305   7.075  1.00  0.00     0.278 C 
ENDBRANCH  20  26
ENDBRANCH  16  17
ENDBRANCH  10  16
ENDBRANCH   4   7
ENDBRANCH   2   3
ENDBRANCH   1   2
BRANCH   1  28
ATOM     28  C   UNL     1      -2.642   3.454   5.920  1.00  0.00     0.023 C 
BRANCH  28  29
ATOM     29  C   UNL     1      -3.867   3.976   6.645  1.00  0.00     0.116 C 
BRANCH  29  30
ATOM     30  N   UNL     1      -5.082   3.992   5.836  1.00  0.00    -0.352 N 
ATOM     31  C   UNL     1      -6.397   4.033   6.274  1.00  0.00     0.251 C 
ATOM     32  H   UNL     1      -4.952   3.971   4.861  1.00  0.00     0.163 HD
ATOM     33  O   UNL     1      -7.323   3.950   5.499  1.00  0.00    -0.269 OA
BRANCH  31  34
ATOM     34  C   UNL     1      -6.643   4.122   7.737  1.00  0.00     0.039 A 
ATOM     35  C   UNL     1      -7.604   3.300   8.328  1.00  0.00     0.014 A 
ATOM     36  C   UNL     1      -5.858   4.960   8.526  1.00  0.00     0.014 A 
ATOM     37  C   UNL     1      -7.714   3.268   9.720  1.00  0.00     0.010 A 
ATOM     38  C   UNL     1      -5.854   4.807   9.900  1.00  0.00     0.010 A 
ATOM     39  C   UNL     1      -6.809   3.991  10.516  1.00  0.00    -0.014 A 
BRANCH  39  40
ATOM     40  C   UNL     1      -6.877   3.981  11.996  1.00  0.00     0.031 A 
ATOM     41  C   UNL     1      -7.077   5.282  12.729  1.00  0.00     0.074 A 
ATOM     42  C   UNL     1      -6.680   2.833  12.671  1.00  0.00     0.049 A 
ATOM     43  N   UNL     1      -7.074   5.518  14.015  1.00  0.00    -0.248 NA
ATOM     44  C   UNL     1      -7.250   6.493  11.905  1.00  0.00     0.031 C 
ATOM     45  C   UNL     1      -6.395   1.529  12.065  1.00  0.00     0.029 A 
ATOM     46  N   UNL     1      -6.686   2.577  14.017  1.00  0.00    -0.354 N 
ATOM     47  C   UNL     1      -7.205   6.896  14.143  1.00  0.00     0.074 A 
ATOM     48  C   UNL     1      -7.200   7.453  12.813  1.00  0.00     0.031 C 
ATOM     49  C   UNL     1      -6.302   0.604  13.035  1.00  0.00     0.029 A 
ATOM     50  C   UNL     1      -6.482   1.255  14.328  1.00  0.00     0.049 A 
ATOM     51  H   UNL     1      -6.824   3.276  14.697  1.00  0.00     0.167 HD
ATOM     52  C   UNL     1      -7.362   7.628  15.270  1.00  0.00     0.037 A 
ATOM     53  C   UNL     1      -6.452   0.641  15.526  1.00  0.00     0.037 A 
ATOM     54  C   UNL     1      -7.434   7.051  16.583  1.00  0.00     0.049 A 
ATOM     55  C   UNL     1      -6.683   1.467  16.762  1.00  0.00     0.074 A 
ATOM     56  C   UNL     1      -7.678   7.679  17.789  1.00  0.00     0.029 A 
ATOM     57  N   UNL     1      -7.272   5.700  16.854  1.00  0.00    -0.354 N 
ATOM     58  N   UNL     1      -6.885   2.759  16.866  1.00  0.00    -0.248 NA
ATOM     59  C   UNL     1      -6.693   0.751  18.044  1.00  0.00     0.031 C 
ATOM     60  C   UNL     1      -7.621   6.712  18.798  1.00  0.00     0.029 A 
ATOM     61  C   UNL     1      -7.393   5.475  18.213  1.00  0.00     0.049 A 
ATOM     62  H   UNL     1      -7.096   5.005  16.179  1.00  0.00     0.167 HD
ATOM     63  C   UNL     1      -7.071   3.009  18.219  1.00  0.00     0.074 A 
ATOM     64  C   UNL     1      -6.975   1.729  18.893  1.00  0.00     0.031 C 
ATOM     65  C   UNL     1      -7.298   4.187  18.851  1.00  0.00     0.037 A 
BRANCH  52  66
ATOM     66  C   UNL     1      -7.483   9.118  15.120  1.00  0.00     0.057 A 
ATOM     67  C   UNL     1      -8.595   9.717  14.509  1.00  0.00     0.134 A 
ATOM     68  C   UNL     1      -6.480   9.968  15.602  1.00  0.00     0.134 A 
ATOM     69  F   UNL     1      -9.585   8.962  14.008  1.00  0.00    -0.206 F 
ATOM     70  C   UNL     1      -8.688  11.101  14.353  1.00  0.00     0.040 A 
ATOM     71  C   UNL     1      -6.577  11.356  15.481  1.00  0.00     0.040 A 
ATOM     72  F   UNL     1      -5.389   9.466  16.198  1.00  0.00    -0.206 F 
ATOM     73  C   UNL     1      -7.680  11.925  14.847  1.00  0.00     0.006 A 
ENDBRANCH  52  66
BRANCH  53  74
ATOM     74  C   UNL     1      -6.246  -0.827  15.606  1.00  0.00     0.057 A 
ATOM     75  C   UNL     1      -7.287  -1.684  15.984  1.00  0.00     0.134 A 
ATOM     76  C   UNL     1      -5.014  -1.414  15.293  1.00  0.00     0.134 A 
ATOM     77  F   UNL     1      -8.488  -1.183  16.309  1.00  0.00    -0.206 F 
ATOM     78  C   UNL     1      -7.107  -3.066  16.066  1.00  0.00     0.040 A 
ATOM     79  C   UNL     1      -4.827  -2.797  15.345  1.00  0.00     0.040 A 
ATOM     80  F   UNL     1      -3.979  -0.652  14.910  1.00  0.00    -0.206 F 
ATOM     81  C   UNL     1      -5.875  -3.627  15.739  1.00  0.00     0.006 A 
ENDBRANCH  53  74
BRANCH  65  82
ATOM     82  C   UNL     1      -7.488   4.139  20.337  1.00  0.00     0.057 A 
ATOM     83  C   UNL     1      -6.420   3.898  21.210  1.00  0.00     0.134 A 
ATOM     84  C   UNL     1      -8.745   4.392  20.901  1.00  0.00     0.134 A 
ATOM     85  F   UNL     1      -5.194   3.640  20.730  1.00  0.00    -0.206 F 
ATOM     86  C   UNL     1      -6.601   3.885  22.593  1.00  0.00     0.040 A 
ATOM     87  C   UNL     1      -8.932   4.411  22.282  1.00  0.00     0.040 A 
ATOM     88  F   UNL     1      -9.805   4.644  20.118  1.00  0.00    -0.206 F 
ATOM     89  C   UNL     1      -7.859   4.150  23.132  1.00  0.00     0.006 A 
ENDBRANCH  65  82
ENDBRANCH  39  40
ENDBRANCH  31  34
ENDBRANCH  29  30
ENDBRANCH  28  29
ENDBRANCH   1  28
TORSDOF 16
