REMARK SMILES COc1ccccc1[C@@H]1C[N@@H+](Cc2cc3c(cc2C)OCO3)C[C@H]1C(=O)NCCCCNC(=O)c1ccc(-c2c3nc(c(-c4c(F)cccc4F)c4ccc([nH]4)c(-c4c(F)cccc4F)c4nc(c(-c5c(F)cccc5F)c5ccc2[nH]5)C=C4)C=C3)cc1
REMARK SMILES IDX 29 1 28 2 27 3 25 4 26 5 24 7 9 8 10 9 11 10 23 11 8 13 3 14
REMARK SMILES IDX 4 15 5 16 7 17 6 18 2 19 1 20 12 21 13 22 14 23 18 24 15 25
REMARK SMILES IDX 17 26 19 27 16 28 22 29 20 30 21 31 30 32 31 33 32 34 33 35
REMARK SMILES IDX 34 37 35 38 36 39 88 40 37 41 87 42 38 43 39 44 40 45 81 46
REMARK SMILES IDX 41 47 86 48 80 49 82 50 42 51 85 52 79 53 78 54 43 56 69 57
REMARK SMILES IDX 52 58 68 59 53 60 56 61 67 62 83 63 54 64 55 65 66 67 84 68
REMARK SMILES IDX 57 69 44 70 45 71 50 72 46 73 47 74 49 75 51 76 48 77 70 78
REMARK SMILES IDX 71 79 76 80 72 81 73 82 75 83 77 84 74 85 58 86 59 87 64 88
REMARK SMILES IDX 60 89 61 90 63 91 65 92 62 93
REMARK H PARENT 27 6 11 12 32 36 82 55 56 66
REMARK Flexibility Score: inf
ROOT
ATOM      1  C   UNL     1       6.033   3.830   0.483  1.00  0.00     0.023 C 
ENDROOT
BRANCH   1   2
ATOM      2  C   UNL     1       5.072   3.271   1.563  1.00  0.00     0.116 C 
BRANCH   2   3
ATOM      3  N   UNL     1       3.665   2.923   1.105  1.00  0.00    -0.356 N 
ATOM      4  C   UNL     1       2.726   2.061   0.647  1.00  0.00     0.229 C 
ATOM      5  O   UNL     1       1.618   2.652   0.712  1.00  0.00    -0.275 OA
ATOM      6  H   UNL     1       3.179   3.775   1.182  1.00  0.00     0.163 HD
BRANCH   4   7
ATOM      7  C   UNL     1       2.597   0.597   0.045  1.00  0.00     0.146 C 
ATOM      8  C   UNL     1       2.514   0.425  -1.498  1.00  0.00     0.096 C 
ATOM      9  C   UNL     1       2.720  -1.086  -1.743  1.00  0.00     0.272 C 
ATOM     10  N   UNL     1       3.610  -1.560  -0.680  1.00  0.00    -0.330 N 
ATOM     11  C   UNL     1       3.289  -0.715   0.500  1.00  0.00     0.276 C 
ATOM     12  H   UNL     1       3.458  -2.522  -0.375  1.00  0.00     0.348 HD
BRANCH   8  13
ATOM     13  C   UNL     1       1.404   0.986  -2.374  1.00  0.00     0.004 A 
ATOM     14  C   UNL     1       0.101   0.472  -2.493  1.00  0.00     0.122 A 
ATOM     15  C   UNL     1      -0.749   0.907  -3.523  1.00  0.00     0.047 A 
ATOM     16  C   UNL     1      -0.322   1.851  -4.455  1.00  0.00     0.004 A 
ATOM     17  C   UNL     1       1.796   1.966  -3.318  1.00  0.00     0.008 A 
ATOM     18  C   UNL     1       0.956   2.380  -4.354  1.00  0.00     0.001 A 
BRANCH  14  19
ATOM     19  O   UNL     1      -0.349  -0.619  -1.800  1.00  0.00    -0.496 OA
ATOM     20  C   UNL     1      -0.725  -0.328  -0.460  1.00  0.00     0.278 C 
ENDBRANCH  14  19
ENDBRANCH   8  13
BRANCH  10  21
ATOM     21  C   UNL     1       5.012  -1.796  -1.128  1.00  0.00     0.299 C 
BRANCH  21  22
ATOM     22  C   UNL     1       5.744  -0.583  -1.677  1.00  0.00     0.013 A 
ATOM     23  C   UNL     1       6.116  -0.409  -3.034  1.00  0.00     0.060 A 
ATOM     24  C   UNL     1       5.817   0.514  -0.838  1.00  0.00    -0.038 A 
ATOM     25  C   UNL     1       6.302   0.883  -3.502  1.00  0.00     0.166 A 
ATOM     26  C   UNL     1       5.528   1.719  -1.448  1.00  0.00     0.054 A 
ATOM     27  C   UNL     1       6.128   0.377   0.619  1.00  0.00     0.045 C 
ATOM     28  C   UNL     1       5.897   1.927  -2.736  1.00  0.00     0.166 A 
ATOM     29  O   UNL     1       6.721   1.327  -4.717  1.00  0.00    -0.454 OA
ATOM     30  O   UNL     1       5.905   3.128  -3.356  1.00  0.00    -0.454 OA
ATOM     31  C   UNL     1       6.688   2.765  -4.503  1.00  0.00     0.468 C 
ENDBRANCH  21  22
ENDBRANCH  10  21
ENDBRANCH   4   7
ENDBRANCH   2   3
ENDBRANCH   1   2
BRANCH   1  32
ATOM     32  C   UNL     1       7.280   4.627   0.823  1.00  0.00     0.023 C 
BRANCH  32  33
ATOM     33  C   UNL     1       8.316   3.800   1.578  1.00  0.00     0.116 C 
BRANCH  33  34
ATOM     34  N   UNL     1       9.212   2.971   0.746  1.00  0.00    -0.352 N 
ATOM     35  C   UNL     1      10.547   3.100   0.401  1.00  0.00     0.251 C 
ATOM     36  H   UNL     1       8.777   2.175   0.364  1.00  0.00     0.163 HD
ATOM     37  O   UNL     1      11.099   2.251  -0.297  1.00  0.00    -0.269 OA
BRANCH  35  38
ATOM     38  C   UNL     1      11.296   4.303   0.809  1.00  0.00     0.039 A 
ATOM     39  C   UNL     1      12.095   4.998  -0.103  1.00  0.00     0.014 A 
ATOM     40  C   UNL     1      11.084   4.825   2.071  1.00  0.00     0.014 A 
ATOM     41  C   UNL     1      12.526   6.292   0.211  1.00  0.00     0.010 A 
ATOM     42  C   UNL     1      11.283   6.175   2.269  1.00  0.00     0.010 A 
ATOM     43  C   UNL     1      12.049   6.926   1.369  1.00  0.00    -0.014 A 
BRANCH  43  44
ATOM     44  C   UNL     1      12.369   8.334   1.732  1.00  0.00     0.031 A 
ATOM     45  C   UNL     1      12.864   8.636   3.129  1.00  0.00     0.074 A 
ATOM     46  C   UNL     1      12.100   9.348   0.885  1.00  0.00     0.049 A 
ATOM     47  N   UNL     1      12.980   9.787   3.741  1.00  0.00    -0.248 NA
ATOM     48  C   UNL     1      13.165   7.479   3.991  1.00  0.00     0.031 C 
ATOM     49  C   UNL     1      11.517   9.223  -0.453  1.00  0.00     0.029 A 
ATOM     50  N   UNL     1      12.286  10.699   1.035  1.00  0.00    -0.354 N 
ATOM     51  C   UNL     1      13.268   9.472   5.064  1.00  0.00     0.074 A 
ATOM     52  C   UNL     1      13.184   8.038   5.189  1.00  0.00     0.031 C 
ATOM     53  C   UNL     1      11.466  10.436  -1.028  1.00  0.00     0.029 A 
ATOM     54  C   UNL     1      11.975  11.428  -0.087  1.00  0.00     0.049 A 
ATOM     55  H   UNL     1      12.612  11.108   1.869  1.00  0.00     0.167 HD
ATOM     56  C   UNL     1      13.646  10.290   6.075  1.00  0.00     0.037 A 
ATOM     57  C   UNL     1      12.114  12.745  -0.329  1.00  0.00     0.037 A 
ATOM     58  C   UNL     1      13.887  11.694   5.898  1.00  0.00     0.049 A 
ATOM     59  C   UNL     1      12.679  13.624   0.752  1.00  0.00     0.074 A 
ATOM     60  C   UNL     1      14.400  12.606   6.800  1.00  0.00     0.029 A 
ATOM     61  N   UNL     1      13.669  12.375   4.709  1.00  0.00    -0.354 N 
ATOM     62  N   UNL     1      13.016  13.311   1.981  1.00  0.00    -0.248 NA
ATOM     63  C   UNL     1      12.899  15.036   0.410  1.00  0.00     0.031 C 
ATOM     64  C   UNL     1      14.486  13.846   6.156  1.00  0.00     0.029 A 
ATOM     65  C   UNL     1      14.051  13.696   4.848  1.00  0.00     0.049 A 
ATOM     66  H   UNL     1      13.298  11.976   3.889  1.00  0.00     0.167 HD
ATOM     67  C   UNL     1      13.520  14.475   2.547  1.00  0.00     0.074 A 
ATOM     68  C   UNL     1      13.451  15.498   1.523  1.00  0.00     0.031 C 
ATOM     69  C   UNL     1      13.995  14.682   3.799  1.00  0.00     0.037 A 
BRANCH  56  70
ATOM     70  C   UNL     1      13.874   9.660   7.421  1.00  0.00     0.057 A 
ATOM     71  C   UNL     1      14.904   8.733   7.645  1.00  0.00     0.134 A 
ATOM     72  C   UNL     1      13.024   9.944   8.496  1.00  0.00     0.134 A 
ATOM     73  F   UNL     1      15.748   8.402   6.655  1.00  0.00    -0.206 F 
ATOM     74  C   UNL     1      15.036   8.062   8.861  1.00  0.00     0.040 A 
ATOM     75  C   UNL     1      13.171   9.309   9.732  1.00  0.00     0.040 A 
ATOM     76  F   UNL     1      12.024  10.829   8.361  1.00  0.00    -0.206 F 
ATOM     77  C   UNL     1      14.167   8.351   9.910  1.00  0.00     0.006 A 
ENDBRANCH  56  70
BRANCH  57  78
ATOM     78  C   UNL     1      11.824  13.286  -1.681  1.00  0.00     0.057 A 
ATOM     79  C   UNL     1      12.870  13.649  -2.538  1.00  0.00     0.134 A 
ATOM     80  C   UNL     1      10.518  13.438  -2.159  1.00  0.00     0.134 A 
ATOM     81  F   UNL     1      14.144  13.537  -2.132  1.00  0.00    -0.206 F 
ATOM     82  C   UNL     1      12.630  14.161  -3.814  1.00  0.00     0.040 A 
ATOM     83  C   UNL     1      10.263  13.931  -3.441  1.00  0.00     0.040 A 
ATOM     84  F   UNL     1       9.472  13.095  -1.393  1.00  0.00    -0.206 F 
ATOM     85  C   UNL     1      11.322  14.299  -4.271  1.00  0.00     0.006 A 
ENDBRANCH  57  78
BRANCH  69  86
ATOM     86  C   UNL     1      14.524  16.047   4.113  1.00  0.00     0.057 A 
ATOM     87  C   UNL     1      13.671  17.137   4.322  1.00  0.00     0.134 A 
ATOM     88  C   UNL     1      15.900  16.257   4.264  1.00  0.00     0.134 A 
ATOM     89  F   UNL     1      12.344  16.999   4.182  1.00  0.00    -0.206 F 
ATOM     90  C   UNL     1      14.171  18.397   4.651  1.00  0.00     0.040 A 
ATOM     91  C   UNL     1      16.410  17.506   4.616  1.00  0.00     0.040 A 
ATOM     92  F   UNL     1      16.767  15.248   4.087  1.00  0.00    -0.206 F 
ATOM     93  C   UNL     1      15.545  18.581   4.806  1.00  0.00     0.006 A 
ENDBRANCH  69  86
ENDBRANCH  43  44
ENDBRANCH  35  38
ENDBRANCH  33  34
ENDBRANCH  32  33
ENDBRANCH   1  32
TORSDOF 15
