REMARK SMILES Cc1ncccc1OC1(C(=O)NCCCCNC(=O)c2ccc(-c3c4nc(c(-c5c(F)cccc5F)c5ccc([nH]5)c(-c5c(F)cccc5F)c5nc(c(-c6c(F)cccc6F)c6ccc3[nH]6)C=C5)C=C4)cc2)CCN(C(=O)c2ccc(O)nn2)CC1
REMARK SMILES IDX 14 1 13 2 12 3 10 4 11 5 9 7 74 8 87 9 75 10 86 11 76 12
REMARK SMILES IDX 77 13 78 14 8 15 7 16 1 17 2 18 3 19 4 20 6 21 5 22 79 23
REMARK SMILES IDX 80 24 85 25 81 26 84 27 82 28 83 29 15 31 16 32 17 33 18 34
REMARK SMILES IDX 19 36 20 37 21 38 73 39 22 40 72 41 23 42 24 43 25 44 66 45
REMARK SMILES IDX 26 46 71 47 65 48 67 49 27 50 70 51 64 52 63 53 28 55 54 56
REMARK SMILES IDX 37 57 53 58 38 59 41 60 52 61 68 62 39 63 40 64 51 66 69 67
REMARK SMILES IDX 42 68 29 69 30 70 35 71 31 72 32 73 34 74 36 75 33 76 55 77
REMARK SMILES IDX 56 78 61 79 57 80 58 81 60 82 62 83 59 84 43 85 44 86 49 87
REMARK SMILES IDX 45 88 46 89 48 90 50 91 47 92
REMARK H PARENT 12 6 83 30 17 35 67 54 41 65
REMARK Flexibility Score: inf
ROOT
ATOM      1  C   UNL     1       5.828  -3.453   1.428  1.00  0.00     0.023 C 
ENDROOT
BRANCH   1   2
ATOM      2  C   UNL     1       5.015  -3.411   0.137  1.00  0.00     0.116 C 
BRANCH   2   3
ATOM      3  N   UNL     1       3.733  -4.072   0.256  1.00  0.00    -0.353 N 
ATOM      4  C   UNL     1       2.450  -3.590   0.196  1.00  0.00     0.264 C 
ATOM      5  O   UNL     1       1.568  -4.455   0.245  1.00  0.00    -0.270 OA
ATOM      6  H   UNL     1       3.792  -5.043   0.407  1.00  0.00     0.163 HD
BRANCH   4   7
ATOM      7  C   UNL     1       2.122  -2.047   0.077  1.00  0.00     0.190 C 
ATOM      8  C   UNL     1       2.587  -1.394   1.373  1.00  0.00     0.080 C 
ATOM      9  C   UNL     1       2.663  -1.578  -1.268  1.00  0.00     0.080 C 
ATOM     10  C   UNL     1       3.755  -0.431   1.294  1.00  0.00     0.124 C 
ATOM     11  C   UNL     1       3.681  -0.454  -1.270  1.00  0.00     0.124 C 
ATOM     12  N   UNL     1       4.153   0.099  -0.001  1.00  0.00    -0.337 N 
ATOM     13  C   UNL     1       5.087   1.156   0.036  1.00  0.00     0.274 C 
ATOM     14  O   UNL     1       5.637   1.526   1.072  1.00  0.00    -0.267 OA
BRANCH   7  15
ATOM     15  O   UNL     1       0.672  -2.064   0.020  1.00  0.00    -0.475 OA
BRANCH  15  16
ATOM     16  C   UNL     1      -0.264  -1.078   0.010  1.00  0.00     0.142 A 
ATOM     17  C   UNL     1       0.978   1.192  -0.042  1.00  0.00     0.071 C 
ATOM     18  C   UNL     1      -0.221   0.319  -0.007  1.00  0.00     0.079 A 
ATOM     19  N   UNL     1      -1.350   1.094   0.000  1.00  0.00    -0.258 NA
ATOM     20  C   UNL     1      -2.552   0.497   0.020  1.00  0.00     0.111 A 
ATOM     21  C   UNL     1      -1.550  -1.646   0.021  1.00  0.00     0.050 A 
ATOM     22  C   UNL     1      -2.704  -0.867   0.027  1.00  0.00     0.024 A 
ENDBRANCH  15  16
ENDBRANCH   7  15
BRANCH  13  23
ATOM     23  C   UNL     1       5.475   1.806  -1.236  1.00  0.00     0.151 A 
ATOM     24  C   UNL     1       6.789   1.740  -1.667  1.00  0.00     0.042 A 
ATOM     25  N   UNL     1       4.481   2.369  -1.969  1.00  0.00    -0.142 NA
ATOM     26  C   UNL     1       7.076   2.247  -2.927  1.00  0.00     0.072 A 
ATOM     27  N   UNL     1       4.768   2.867  -3.200  1.00  0.00    -0.112 NA
ATOM     28  C   UNL     1       6.036   2.792  -3.648  1.00  0.00     0.230 A 
BRANCH  28  29
ATOM     29  O   UNL     1       6.242   3.276  -4.899  1.00  0.00    -0.492 OA
ATOM     30  H   UNL     1       7.101   3.255  -5.274  1.00  0.00     0.295 HD
ENDBRANCH  28  29
ENDBRANCH  13  23
ENDBRANCH   4   7
ENDBRANCH   2   3
ENDBRANCH   1   2
BRANCH   1  31
ATOM     31  C   UNL     1       6.655  -4.722   1.623  1.00  0.00     0.023 C 
BRANCH  31  32
ATOM     32  C   UNL     1       7.688  -5.010   0.536  1.00  0.00     0.116 C 
BRANCH  32  33
ATOM     33  N   UNL     1       8.652  -3.939   0.333  1.00  0.00    -0.352 N 
ATOM     34  C   UNL     1      10.001  -4.034   0.075  1.00  0.00     0.251 C 
ATOM     35  H   UNL     1       8.292  -3.024   0.388  1.00  0.00     0.163 HD
ATOM     36  O   UNL     1      10.691  -3.022  -0.007  1.00  0.00    -0.269 OA
BRANCH  34  37
ATOM     37  C   UNL     1      10.622  -5.369  -0.058  1.00  0.00     0.039 A 
ATOM     38  C   UNL     1      11.762  -5.662   0.695  1.00  0.00     0.014 A 
ATOM     39  C   UNL     1      10.050  -6.343  -0.880  1.00  0.00     0.014 A 
ATOM     40  C   UNL     1      12.277  -6.960   0.690  1.00  0.00     0.010 A 
ATOM     41  C   UNL     1      10.519  -7.651  -0.826  1.00  0.00     0.010 A 
ATOM     42  C   UNL     1      11.632  -7.976  -0.034  1.00  0.00    -0.014 A 
BRANCH  42  43
ATOM     43  C   UNL     1      12.090  -9.387   0.033  1.00  0.00     0.031 A 
ATOM     44  C   UNL     1      12.592 -10.076  -1.205  1.00  0.00     0.074 A 
ATOM     45  C   UNL     1      11.974 -10.074   1.187  1.00  0.00     0.049 A 
ATOM     46  N   UNL     1      12.942 -11.326  -1.371  1.00  0.00    -0.248 NA
ATOM     47  C   UNL     1      12.684  -9.258  -2.424  1.00  0.00     0.031 C 
ATOM     48  C   UNL     1      11.452  -9.538   2.445  1.00  0.00     0.029 A 
ATOM     49  N   UNL     1      12.275 -11.380   1.483  1.00  0.00    -0.354 N 
ATOM     50  C   UNL     1      13.275 -11.448  -2.714  1.00  0.00     0.074 A 
ATOM     51  C   UNL     1      13.038 -10.160  -3.328  1.00  0.00     0.031 C 
ATOM     52  C   UNL     1      11.488 -10.499   3.382  1.00  0.00     0.029 A 
ATOM     53  C   UNL     1      12.000 -11.728   2.784  1.00  0.00     0.049 A 
ATOM     54  H   UNL     1      12.652 -12.009   0.826  1.00  0.00     0.167 HD
ATOM     55  C   UNL     1      13.756 -12.530  -3.372  1.00  0.00     0.037 A 
ATOM     56  C   UNL     1      12.139 -12.906   3.421  1.00  0.00     0.037 A 
ATOM     57  C   UNL     1      14.024 -13.801  -2.754  1.00  0.00     0.049 A 
ATOM     58  C   UNL     1      12.687 -14.089   2.671  1.00  0.00     0.074 A 
ATOM     59  C   UNL     1      14.572 -14.938  -3.323  1.00  0.00     0.029 A 
ATOM     60  N   UNL     1      13.764 -14.103  -1.426  1.00  0.00    -0.354 N 
ATOM     61  N   UNL     1      13.058 -14.172   1.417  1.00  0.00    -0.248 NA
ATOM     62  C   UNL     1      12.839 -15.340   3.427  1.00  0.00     0.031 C 
ATOM     63  C   UNL     1      14.612 -15.939  -2.347  1.00  0.00     0.029 A 
ATOM     64  C   UNL     1      14.128 -15.413  -1.160  1.00  0.00     0.049 A 
ATOM     65  H   UNL     1      13.379 -13.479  -0.769  1.00  0.00     0.167 HD
ATOM     66  C   UNL     1      13.516 -15.471   1.241  1.00  0.00     0.074 A 
ATOM     67  C   UNL     1      13.384 -16.138   2.520  1.00  0.00     0.031 C 
ATOM     68  C   UNL     1      14.003 -16.058   0.121  1.00  0.00     0.037 A 
BRANCH  55  69
ATOM     69  C   UNL     1      14.033 -12.378  -4.839  1.00  0.00     0.057 A 
ATOM     70  C   UNL     1      15.102 -11.605  -5.311  1.00  0.00     0.134 A 
ATOM     71  C   UNL     1      13.241 -13.036  -5.789  1.00  0.00     0.134 A 
ATOM     72  F   UNL     1      15.890 -10.939  -4.454  1.00  0.00    -0.206 F 
ATOM     73  C   UNL     1      15.357 -11.470  -6.677  1.00  0.00     0.040 A 
ATOM     74  C   UNL     1      13.503 -12.929  -7.156  1.00  0.00     0.040 A 
ATOM     75  F   UNL     1      12.205 -13.796  -5.404  1.00  0.00    -0.206 F 
ATOM     76  C   UNL     1      14.560 -12.139  -7.603  1.00  0.00     0.006 A 
ENDBRANCH  55  69
BRANCH  56  77
ATOM     77  C   UNL     1      11.782 -13.022   4.857  1.00  0.00     0.057 A 
ATOM     78  C   UNL     1      12.772 -13.168   5.835  1.00  0.00     0.134 A 
ATOM     79  C   UNL     1      10.450 -12.999   5.286  1.00  0.00     0.134 A 
ATOM     80  F   UNL     1      14.066 -13.216   5.483  1.00  0.00    -0.206 F 
ATOM     81  C   UNL     1      12.451 -13.307   7.186  1.00  0.00     0.040 A 
ATOM     82  C   UNL     1      10.115 -13.113   6.636  1.00  0.00     0.040 A 
ATOM     83  F   UNL     1       9.455 -12.854   4.398  1.00  0.00    -0.206 F 
ATOM     84  C   UNL     1      11.118 -13.275   7.590  1.00  0.00     0.006 A 
ENDBRANCH  56  77
BRANCH  68  85
ATOM     85  C   UNL     1      14.468 -17.479   0.236  1.00  0.00     0.057 A 
ATOM     86  C   UNL     1      13.567 -18.545   0.346  1.00  0.00     0.134 A 
ATOM     87  C   UNL     1      15.834 -17.786   0.193  1.00  0.00     0.134 A 
ATOM     88  F   UNL     1      12.247 -18.316   0.406  1.00  0.00    -0.206 F 
ATOM     89  C   UNL     1      14.010 -19.867   0.426  1.00  0.00     0.040 A 
ATOM     90  C   UNL     1      16.288 -19.104   0.248  1.00  0.00     0.040 A 
ATOM     91  F   UNL     1      16.748 -16.810   0.081  1.00  0.00    -0.206 F 
ATOM     92  C   UNL     1      15.374 -20.149   0.369  1.00  0.00     0.006 A 
ENDBRANCH  68  85
ENDBRANCH  42  43
ENDBRANCH  34  37
ENDBRANCH  32  33
ENDBRANCH  31  32
ENDBRANCH   1  31
TORSDOF 15
