REMARK SMILES O=C(NCCCCNC(=O)c1ccc(Br)c(NC(=S)NC(=O)c2cccs2)c1)c1ccc(-c2c3nc(c(-c4c(F)cccc4F)c4ccc([nH]4)c(-c4c(F)cccc4F)c4nc(c(-c5c(F)cccc5F)c5ccc2[nH]5)C=C4)C=C3)cc1
REMARK SMILES IDX 6 1 5 2 4 3 3 4 1 5 2 6 29 8 30 9 82 10 31 11 81 12 32 13
REMARK SMILES IDX 33 14 34 15 75 16 35 17 80 18 74 19 76 20 36 21 79 22 73 23
REMARK SMILES IDX 72 24 37 26 63 27 46 28 62 29 47 30 50 31 61 32 77 33 48 34
REMARK SMILES IDX 49 35 60 37 78 38 51 39 38 40 39 41 44 42 40 43 41 44 43 45
REMARK SMILES IDX 45 46 42 47 64 48 65 49 70 50 66 51 67 52 69 53 71 54 68 55
REMARK SMILES IDX 52 56 53 57 58 58 54 59 55 60 57 61 59 62 56 63 7 64 8 65
REMARK SMILES IDX 9 66 10 68 11 69 12 70 28 71 13 72 16 73 14 74 15 75 17 76
REMARK SMILES IDX 18 78 19 79 20 80 21 81 22 83 23 84 24 85 27 86 25 87 26 88
REMARK H PARENT 3 7 76 25 50 36 8 67 17 77 20 82
REMARK Flexibility Score: inf
ROOT
ATOM      1  C   UNL     1       4.348   2.814  -2.349  1.00  0.00     0.023 C 
ENDROOT
BRANCH   1   2
ATOM      2  C   UNL     1       4.877   1.442  -1.949  1.00  0.00     0.023 C 
BRANCH   2   3
ATOM      3  C   UNL     1       4.517   1.006  -0.539  1.00  0.00     0.116 C 
BRANCH   3   4
ATOM      4  N   UNL     1       3.081   0.932  -0.312  1.00  0.00    -0.352 N 
ATOM      5  O   UNL     1       1.109  -0.089   0.122  1.00  0.00    -0.269 OA
ATOM      6  C   UNL     1       2.332  -0.145   0.100  1.00  0.00     0.251 C 
ATOM      7  H   UNL     1       2.579   1.763  -0.475  1.00  0.00     0.163 HD
BRANCH   6   8
ATOM      8  C   UNL     1       3.037  -1.382   0.485  1.00  0.00     0.039 A 
ATOM      9  C   UNL     1       4.152  -1.305   1.319  1.00  0.00     0.014 A 
ATOM     10  C   UNL     1       2.630  -2.605  -0.051  1.00  0.00     0.014 A 
ATOM     11  C   UNL     1       4.972  -2.411   1.459  1.00  0.00     0.010 A 
ATOM     12  C   UNL     1       3.382  -3.752   0.214  1.00  0.00     0.010 A 
ATOM     13  C   UNL     1       4.573  -3.659   0.952  1.00  0.00    -0.014 A 
BRANCH  13  14
ATOM     14  C   UNL     1       5.367  -4.856   1.320  1.00  0.00     0.031 A 
ATOM     15  C   UNL     1       6.033  -5.718   0.288  1.00  0.00     0.074 A 
ATOM     16  C   UNL     1       5.503  -5.133   2.632  1.00  0.00     0.049 A 
ATOM     17  N   UNL     1       6.768  -6.787   0.467  1.00  0.00    -0.248 NA
ATOM     18  C   UNL     1       5.851  -5.347  -1.123  1.00  0.00     0.031 C 
ATOM     19  C   UNL     1       4.890  -4.367   3.723  1.00  0.00     0.029 A 
ATOM     20  N   UNL     1       6.212  -6.111   3.278  1.00  0.00    -0.354 N 
ATOM     21  C   UNL     1       7.128  -7.222  -0.801  1.00  0.00     0.074 A 
ATOM     22  C   UNL     1       6.501  -6.322  -1.746  1.00  0.00     0.031 C 
ATOM     23  C   UNL     1       5.296  -4.864   4.897  1.00  0.00     0.029 A 
ATOM     24  C   UNL     1       6.114  -6.041   4.647  1.00  0.00     0.049 A 
ATOM     25  H   UNL     1       6.739  -6.797   2.808  1.00  0.00     0.167 HD
ATOM     26  C   UNL     1       7.917  -8.271  -1.139  1.00  0.00     0.037 A 
ATOM     27  C   UNL     1       6.596  -6.856   5.601  1.00  0.00     0.037 A 
ATOM     28  C   UNL     1       8.530  -9.164  -0.186  1.00  0.00     0.049 A 
ATOM     29  C   UNL     1       7.406  -8.047   5.185  1.00  0.00     0.074 A 
ATOM     30  C   UNL     1       9.364 -10.242  -0.430  1.00  0.00     0.029 A 
ATOM     31  N   UNL     1       8.368  -9.091   1.190  1.00  0.00    -0.354 N 
ATOM     32  N   UNL     1       7.772  -8.421   3.983  1.00  0.00    -0.248 NA
ATOM     33  C   UNL     1       7.870  -8.932   6.260  1.00  0.00     0.031 C 
ATOM     34  C   UNL     1       9.644 -10.865   0.789  1.00  0.00     0.029 A 
ATOM     35  C   UNL     1       9.056 -10.128   1.803  1.00  0.00     0.049 A 
ATOM     36  H   UNL     1       7.842  -8.406   1.662  1.00  0.00     0.167 HD
ATOM     37  C   UNL     1       8.534  -9.567   4.160  1.00  0.00     0.074 A 
ATOM     38  C   UNL     1       8.602  -9.806   5.587  1.00  0.00     0.031 C 
ATOM     39  C   UNL     1       9.120 -10.354   3.225  1.00  0.00     0.037 A 
BRANCH  26  40
ATOM     40  C   UNL     1       8.154  -8.533  -2.601  1.00  0.00     0.057 A 
ATOM     41  C   UNL     1       8.928  -7.676  -3.394  1.00  0.00     0.134 A 
ATOM     42  C   UNL     1       7.663  -9.699  -3.205  1.00  0.00     0.134 A 
ATOM     43  F   UNL     1       9.425  -6.539  -2.882  1.00  0.00    -0.206 F 
ATOM     44  C   UNL     1       9.188  -7.958  -4.737  1.00  0.00     0.040 A 
ATOM     45  C   UNL     1       7.944 -10.008  -4.537  1.00  0.00     0.040 A 
ATOM     46  F   UNL     1       6.924 -10.571  -2.503  1.00  0.00    -0.206 F 
ATOM     47  C   UNL     1       8.704  -9.133  -5.309  1.00  0.00     0.006 A 
ENDBRANCH  26  40
BRANCH  27  48
ATOM     48  C   UNL     1       6.291  -6.596   7.031  1.00  0.00     0.057 A 
ATOM     49  C   UNL     1       7.306  -6.311   7.951  1.00  0.00     0.134 A 
ATOM     50  C   UNL     1       4.980  -6.665   7.521  1.00  0.00     0.134 A 
ATOM     51  F   UNL     1       8.584  -6.240   7.547  1.00  0.00    -0.206 F 
ATOM     52  C   UNL     1       7.036  -6.148   9.310  1.00  0.00     0.040 A 
ATOM     53  C   UNL     1       4.690  -6.461   8.870  1.00  0.00     0.040 A 
ATOM     54  F   UNL     1       3.957  -6.918   6.691  1.00  0.00    -0.206 F 
ATOM     55  C   UNL     1       5.723  -6.220   9.772  1.00  0.00     0.006 A 
ENDBRANCH  27  48
BRANCH  39  56
ATOM     56  C   UNL     1       9.925 -11.521   3.726  1.00  0.00     0.057 A 
ATOM     57  C   UNL     1       9.332 -12.616   4.370  1.00  0.00     0.134 A 
ATOM     58  C   UNL     1      11.315 -11.549   3.557  1.00  0.00     0.134 A 
ATOM     59  F   UNL     1       8.007 -12.649   4.577  1.00  0.00    -0.206 F 
ATOM     60  C   UNL     1      10.097 -13.673   4.865  1.00  0.00     0.040 A 
ATOM     61  C   UNL     1      12.086 -12.620   4.010  1.00  0.00     0.040 A 
ATOM     62  F   UNL     1      11.949 -10.540   2.940  1.00  0.00    -0.206 F 
ATOM     63  C   UNL     1      11.478 -13.680   4.679  1.00  0.00     0.006 A 
ENDBRANCH  39  56
ENDBRANCH  13  14
ENDBRANCH   6   8
ENDBRANCH   3   4
ENDBRANCH   2   3
ENDBRANCH   1   2
BRANCH   1  64
ATOM     64  C   UNL     1       4.550   3.912  -1.309  1.00  0.00     0.116 C 
BRANCH  64  65
ATOM     65  N   UNL     1       5.927   4.013  -0.870  1.00  0.00    -0.352 N 
ATOM     66  C   UNL     1       6.848   5.029  -0.924  1.00  0.00     0.251 C 
ATOM     67  H   UNL     1       6.270   3.192  -0.450  1.00  0.00     0.163 HD
ATOM     68  O   UNL     1       7.975   4.731  -0.541  1.00  0.00    -0.269 OA
BRANCH  66  69
ATOM     69  C   UNL     1       6.394   6.444  -1.435  1.00  0.00     0.041 A 
ATOM     70  C   UNL     1       4.872   6.928  -0.567  1.00  0.00     0.015 A 
ATOM     71  C   UNL     1       7.008   7.809  -2.849  1.00  0.00     0.041 A 
ATOM     72  C   UNL     1       4.105   8.454  -1.073  1.00  0.00     0.018 A 
ATOM     73  C   UNL     1       6.160   9.143  -3.312  1.00  0.00     0.055 A 
ATOM     74  C   UNL     1       4.732   9.488  -2.397  1.00  0.00     0.041 A 
ATOM     75  Br  UNL     1       3.652  10.950  -2.935  1.00  0.00    -0.049 Br
BRANCH  73  76
ATOM     76  N   UNL     1       6.639   9.536  -4.580  1.00  0.00    -0.331 N 
ATOM     77  H   UNL     1       6.240  10.360  -4.941  1.00  0.00     0.169 HD
BRANCH  76  78
ATOM     78  C   UNL     1       7.596   8.930  -5.401  1.00  0.00     0.177 C 
ATOM     79  S   UNL     1       7.912   9.701  -6.863  1.00  0.00    -0.040 S 
BRANCH  78  80
ATOM     80  N   UNL     1       8.379   7.727  -5.155  1.00  0.00    -0.298 N 
ATOM     81  C   UNL     1       8.817   6.510  -4.321  1.00  0.00     0.267 C 
ATOM     82  H   UNL     1       8.930   7.650  -5.967  1.00  0.00     0.172 HD
ATOM     83  O   UNL     1       9.829   5.911  -4.681  1.00  0.00    -0.268 OA
BRANCH  81  84
ATOM     84  C   UNL     1       7.964   6.076  -3.121  1.00  0.00     0.092 A 
ATOM     85  C   UNL     1       6.304   5.991  -3.504  1.00  0.00     0.025 A 
ATOM     86  S   UNL     1       8.471   7.367  -1.269  1.00  0.00    -0.139 S 
ATOM     87  C   UNL     1       5.248   7.310  -2.611  1.00  0.00     0.012 A 
ATOM     88  C   UNL     1       6.322   8.286  -1.254  1.00  0.00     0.065 A 
ENDBRANCH  81  84
ENDBRANCH  78  80
ENDBRANCH  76  78
ENDBRANCH  73  76
ENDBRANCH  66  69
ENDBRANCH  64  65
ENDBRANCH   1  64
TORSDOF 15
