REMARK SMILES C[N@@H+](CC(C)(C)C(=O)NCCCCNC(=O)c1ccc(-c2c3nc(c(-c4c(F)cccc4F)c4ccc([nH]4)c(-c4c(F)cccc4F)c4nc(c(-c5c(F)cccc5F)c5ccc2[nH]5)C=C4)C=C3)cc1)[C@@H]1CCCC[C@@H]1C[NH3+]
REMARK SMILES IDX 10 1 9 2 7 3 8 4 4 6 5 7 6 8 3 9 2 10 1 11 71 13 72 14 76 15
REMARK SMILES IDX 73 16 75 17 74 18 77 19 78 20 11 24 12 25 13 26 14 27 15 28
REMARK SMILES IDX 16 30 17 31 18 32 70 33 19 34 69 35 20 36 21 37 22 38 63 39
REMARK SMILES IDX 23 40 68 41 62 42 64 43 24 44 67 45 61 46 60 47 25 49 51 50
REMARK SMILES IDX 34 51 50 52 35 53 38 54 49 55 65 56 36 57 37 58 48 60 66 61
REMARK SMILES IDX 39 62 26 63 27 64 32 65 28 66 29 67 31 68 33 69 30 70 52 71
REMARK SMILES IDX 53 72 58 73 54 74 55 75 57 76 59 77 56 78 40 79 41 80 46 81
REMARK SMILES IDX 42 82 43 83 45 84 47 85 44 86
REMARK H PARENT 9 5 2 12 78 21 78 22 78 23 14 29 64 48 38 59
REMARK Flexibility Score: inf
ROOT
ATOM      1  C   UNL     1      -2.890  -2.577  -2.485  1.00  0.00     0.116 C 
ENDROOT
BRANCH   1   2
ATOM      2  N   UNL     1      -1.977  -1.463  -2.337  1.00  0.00    -0.355 N 
ATOM      3  C   UNL     1      -1.521  -0.789  -1.246  1.00  0.00     0.231 C 
ATOM      4  O   UNL     1      -0.861   0.223  -1.505  1.00  0.00    -0.274 OA
ATOM      5  H   UNL     1      -1.616  -1.129  -3.190  1.00  0.00     0.163 HD
BRANCH   3   6
ATOM      6  C   UNL     1      -1.924  -1.150   0.195  1.00  0.00     0.092 C 
ATOM      7  C   UNL     1      -2.108  -2.641   0.469  1.00  0.00     0.027 C 
ATOM      8  C   UNL     1      -3.302  -0.471   0.406  1.00  0.00     0.027 C 
BRANCH   6   9
ATOM      9  C   UNL     1      -0.933  -0.529   1.255  1.00  0.00     0.278 C 
BRANCH   9  10
ATOM     10  N   UNL     1       0.509  -0.795   1.388  1.00  0.00    -0.334 N 
ATOM     11  C   UNL     1       1.304  -0.164   0.331  1.00  0.00     0.333 C 
ATOM     12  H   UNL     1       0.537  -0.350   2.306  1.00  0.00     0.348 HD
BRANCH  10  13
ATOM     13  C   UNL     1       1.134  -2.028   1.906  1.00  0.00     0.192 C 
ATOM     14  C   UNL     1       1.002  -3.283   1.030  1.00  0.00     0.065 C 
ATOM     15  C   UNL     1       1.054  -2.309   3.447  1.00  0.00     0.102 C 
ATOM     16  C   UNL     1       1.983  -4.373   1.450  1.00  0.00     0.006 C 
ATOM     17  C   UNL     1       1.923  -3.538   3.827  1.00  0.00     0.015 C 
ATOM     18  C   UNL     1       1.766  -4.749   2.908  1.00  0.00     0.001 C 
BRANCH  15  19
ATOM     19  C   UNL     1      -0.311  -2.362   4.161  1.00  0.00     0.268 C 
BRANCH  19  20
ATOM     20  N   UNL     1      -1.112  -3.560   3.965  1.00  0.00    -0.357 N 
ATOM     21  H   UNL     1      -1.373  -3.638   2.982  1.00  0.00     0.344 HD
ATOM     22  H   UNL     1      -1.955  -3.503   4.537  1.00  0.00     0.344 HD
ATOM     23  H   UNL     1      -0.570  -4.380   4.239  1.00  0.00     0.344 HD
ENDBRANCH  19  20
ENDBRANCH  15  19
ENDBRANCH  10  13
ENDBRANCH   9  10
ENDBRANCH   6   9
ENDBRANCH   3   6
ENDBRANCH   1   2
BRANCH   1  24
ATOM     24  C   UNL     1      -3.999  -2.290  -3.489  1.00  0.00     0.023 C 
BRANCH  24  25
ATOM     25  C   UNL     1      -3.528  -2.074  -4.922  1.00  0.00     0.023 C 
BRANCH  25  26
ATOM     26  C   UNL     1      -2.607  -3.159  -5.463  1.00  0.00     0.116 C 
BRANCH  26  27
ATOM     27  N   UNL     1      -3.199  -4.490  -5.404  1.00  0.00    -0.352 N 
ATOM     28  C   UNL     1      -3.394  -5.391  -6.426  1.00  0.00     0.251 C 
ATOM     29  H   UNL     1      -3.500  -4.784  -4.514  1.00  0.00     0.163 HD
ATOM     30  O   UNL     1      -4.014  -6.428  -6.250  1.00  0.00    -0.269 OA
BRANCH  28  31
ATOM     31  C   UNL     1      -2.859  -5.052  -7.758  1.00  0.00     0.039 A 
ATOM     32  C   UNL     1      -3.733  -4.982  -8.844  1.00  0.00     0.014 A 
ATOM     33  C   UNL     1      -1.515  -4.697  -7.889  1.00  0.00     0.014 A 
ATOM     34  C   UNL     1      -3.275  -4.464 -10.055  1.00  0.00     0.010 A 
ATOM     35  C   UNL     1      -1.084  -4.109  -9.070  1.00  0.00     0.010 A 
ATOM     36  C   UNL     1      -1.961  -3.979 -10.159  1.00  0.00    -0.014 A 
BRANCH  36  37
ATOM     37  C   UNL     1      -1.459  -3.332 -11.395  1.00  0.00     0.031 A 
ATOM     38  C   UNL     1      -0.314  -3.958 -12.137  1.00  0.00     0.074 A 
ATOM     39  C   UNL     1      -1.951  -2.139 -11.780  1.00  0.00     0.049 A 
ATOM     40  N   UNL     1       0.399  -3.474 -13.121  1.00  0.00    -0.248 NA
ATOM     41  C   UNL     1       0.112  -5.291 -11.681  1.00  0.00     0.031 C 
ATOM     42  C   UNL     1      -3.036  -1.411 -11.118  1.00  0.00     0.029 A 
ATOM     43  N   UNL     1      -1.581  -1.314 -12.813  1.00  0.00    -0.354 N 
ATOM     44  C   UNL     1       1.376  -4.426 -13.376  1.00  0.00     0.074 A 
ATOM     45  C   UNL     1       1.193  -5.494 -12.418  1.00  0.00     0.031 C 
ATOM     46  C   UNL     1      -3.250  -0.255 -11.767  1.00  0.00     0.029 A 
ATOM     47  C   UNL     1      -2.291  -0.139 -12.862  1.00  0.00     0.049 A 
ATOM     48  H   UNL     1      -0.873  -1.543 -13.458  1.00  0.00     0.167 HD
ATOM     49  C   UNL     1       2.330  -4.418 -14.336  1.00  0.00     0.037 A 
ATOM     50  C   UNL     1      -2.169   0.919 -13.686  1.00  0.00     0.037 A 
ATOM     51  C   UNL     1       2.478  -3.375 -15.314  1.00  0.00     0.049 A 
ATOM     52  C   UNL     1      -1.111   0.898 -14.754  1.00  0.00     0.074 A 
ATOM     53  C   UNL     1       3.369  -3.304 -16.370  1.00  0.00     0.029 A 
ATOM     54  N   UNL     1       1.706  -2.224 -15.359  1.00  0.00    -0.354 N 
ATOM     55  N   UNL     1      -0.222  -0.030 -15.018  1.00  0.00    -0.248 NA
ATOM     56  C   UNL     1      -1.036   2.070 -15.639  1.00  0.00     0.031 C 
ATOM     57  C   UNL     1       3.155  -2.094 -17.038  1.00  0.00     0.029 A 
ATOM     58  C   UNL     1       2.108  -1.431 -16.420  1.00  0.00     0.049 A 
ATOM     59  H   UNL     1       0.981  -2.004 -14.731  1.00  0.00     0.167 HD
ATOM     60  C   UNL     1       0.494   0.430 -16.115  1.00  0.00     0.074 A 
ATOM     61  C   UNL     1      -0.064   1.718 -16.470  1.00  0.00     0.031 C 
ATOM     62  C   UNL     1       1.521  -0.163 -16.770  1.00  0.00     0.037 A 
BRANCH  49  63
ATOM     63  C   UNL     1       3.280  -5.577 -14.373  1.00  0.00     0.057 A 
ATOM     64  C   UNL     1       2.872  -6.852 -14.784  1.00  0.00     0.134 A 
ATOM     65  C   UNL     1       4.622  -5.412 -14.011  1.00  0.00     0.134 A 
ATOM     66  F   UNL     1       1.595  -7.080 -15.127  1.00  0.00    -0.206 F 
ATOM     67  C   UNL     1       3.759  -7.929 -14.808  1.00  0.00     0.040 A 
ATOM     68  C   UNL     1       5.525  -6.475 -14.056  1.00  0.00     0.040 A 
ATOM     69  F   UNL     1       5.079  -4.215 -13.611  1.00  0.00    -0.206 F 
ATOM     70  C   UNL     1       5.092  -7.740 -14.449  1.00  0.00     0.006 A 
ENDBRANCH  49  63
BRANCH  50  71
ATOM     71  C   UNL     1      -3.082   2.080 -13.548  1.00  0.00     0.057 A 
ATOM     72  C   UNL     1      -4.080   2.326 -14.499  1.00  0.00     0.134 A 
ATOM     73  C   UNL     1      -2.982   2.971 -12.473  1.00  0.00     0.134 A 
ATOM     74  F   UNL     1      -4.213   1.517 -15.560  1.00  0.00    -0.206 F 
ATOM     75  C   UNL     1      -4.934   3.425 -14.396  1.00  0.00     0.040 A 
ATOM     76  C   UNL     1      -3.843   4.063 -12.346  1.00  0.00     0.040 A 
ATOM     77  F   UNL     1      -2.051   2.787 -11.525  1.00  0.00    -0.206 F 
ATOM     78  C   UNL     1      -4.819   4.295 -13.313  1.00  0.00     0.006 A 
ENDBRANCH  50  71
BRANCH  62  79
ATOM     79  C   UNL     1       2.078   0.546 -17.966  1.00  0.00     0.057 A 
ATOM     80  C   UNL     1       2.923   1.654 -17.840  1.00  0.00     0.134 A 
ATOM     81  C   UNL     1       1.822   0.065 -19.257  1.00  0.00     0.134 A 
ATOM     82  F   UNL     1       3.195   2.167 -16.631  1.00  0.00    -0.206 F 
ATOM     83  C   UNL     1       3.490   2.266 -18.959  1.00  0.00     0.040 A 
ATOM     84  C   UNL     1       2.399   0.655 -20.381  1.00  0.00     0.040 A 
ATOM     85  F   UNL     1       1.026  -0.999 -19.442  1.00  0.00    -0.206 F 
ATOM     86  C   UNL     1       3.235   1.760 -20.233  1.00  0.00     0.006 A 
ENDBRANCH  62  79
ENDBRANCH  36  37
ENDBRANCH  28  31
ENDBRANCH  26  27
ENDBRANCH  25  26
ENDBRANCH  24  25
ENDBRANCH   1  24
TORSDOF 16
