REMARK SMILES C[C@H](C(=O)Nc1ccc(C(F)(F)F)cc1)n1nc(C(=O)NCCCCNC(=O)c2ccc(-c3c4nc(c(-c5c(F)cccc5F)c5ccc([nH]5)c(-c5c(F)cccc5F)c5nc(c(-c6c(F)cccc6F)c6ccc3[nH]6)C=C5)C=C4)cc2)c2ccccc2c1=O
REMARK SMILES IDX 22 1 21 2 19 3 20 4 18 6 16 7 17 8 89 9 88 10 90 11 83 12
REMARK SMILES IDX 87 13 84 14 86 15 85 16 2 17 1 18 3 19 4 20 5 21 6 23 7 24
REMARK SMILES IDX 15 25 8 26 14 27 9 28 10 29 11 30 12 31 13 32 23 33 24 34
REMARK SMILES IDX 25 35 26 36 27 37 28 39 29 40 30 41 82 42 31 43 81 44 32 45
REMARK SMILES IDX 33 46 34 47 75 48 35 49 80 50 74 51 76 52 36 53 79 54 73 55
REMARK SMILES IDX 72 56 37 58 63 59 46 60 62 61 47 62 50 63 61 64 77 65 48 66
REMARK SMILES IDX 49 67 60 69 78 70 51 71 38 72 39 73 44 74 40 75 41 76 43 77
REMARK SMILES IDX 45 78 42 79 64 80 65 81 70 82 66 83 67 84 69 85 71 86 68 87
REMARK SMILES IDX 52 88 53 89 58 90 54 91 55 92 57 93 59 94 56 95
REMARK H PARENT 21 5 5 22 26 38 76 57 50 68
REMARK Flexibility Score: inf
ROOT
ATOM      1  C   UNL     1      -2.148   2.555   1.341  1.00  0.00     0.116 C 
ENDROOT
BRANCH   1   2
ATOM      2  N   UNL     1      -3.533   2.663   0.952  1.00  0.00    -0.351 N 
ATOM      3  C   UNL     1      -4.057   2.428  -0.302  1.00  0.00     0.272 C 
ATOM      4  O   UNL     1      -5.253   2.571  -0.520  1.00  0.00    -0.267 OA
ATOM      5  H   UNL     1      -4.170   2.931   1.653  1.00  0.00     0.163 HD
BRANCH   3   6
ATOM      6  C   UNL     1      -3.151   1.766  -1.348  1.00  0.00     0.156 A 
ATOM      7  N   UNL     1      -1.086   0.764  -1.252  1.00  0.00    -0.216 N 
ATOM      8  N   UNL     1      -1.860   1.955  -1.315  1.00  0.00    -0.163 NA
ATOM      9  C   UNL     1      -1.788  -0.451  -1.011  1.00  0.00     0.275 A 
ATOM     10  C   UNL     1      -3.050  -0.559  -1.789  1.00  0.00     0.051 A 
ATOM     11  O   UNL     1      -1.425  -1.363  -0.289  1.00  0.00    -0.267 OA
ATOM     12  C   UNL     1      -3.715   0.624  -2.041  1.00  0.00     0.020 A 
ATOM     13  C   UNL     1      -3.535  -1.740  -2.341  1.00  0.00     0.014 A 
ATOM     14  C   UNL     1      -4.810   0.704  -2.898  1.00  0.00     0.011 A 
ATOM     15  C   UNL     1      -4.627  -1.682  -3.221  1.00  0.00     0.001 A 
ATOM     16  C   UNL     1      -5.251  -0.462  -3.513  1.00  0.00     0.001 A 
BRANCH   7  17
ATOM     17  C   UNL     1       0.300   0.972  -0.724  1.00  0.00     0.197 C 
ATOM     18  C   UNL     1       1.033   2.127  -1.437  1.00  0.00     0.044 C 
BRANCH  17  19
ATOM     19  C   UNL     1       1.275  -0.216  -0.570  1.00  0.00     0.249 C 
ATOM     20  O   UNL     1       2.115  -0.180   0.343  1.00  0.00    -0.272 OA
ATOM     21  N   UNL     1       1.338  -1.280  -1.417  1.00  0.00    -0.324 N 
ATOM     22  H   UNL     1       1.974  -1.984  -1.149  1.00  0.00     0.170 HD
BRANCH  21  23
ATOM     23  C   UNL     1       0.648  -1.535  -2.603  1.00  0.00     0.041 A 
ATOM     24  C   UNL     1       0.293  -2.855  -2.876  1.00  0.00     0.027 A 
ATOM     25  C   UNL     1       0.243  -0.527  -3.471  1.00  0.00     0.027 A 
ATOM     26  C   UNL     1      -0.573  -3.135  -3.937  1.00  0.00     0.015 A 
ATOM     27  C   UNL     1      -0.655  -0.791  -4.498  1.00  0.00     0.015 A 
ATOM     28  C   UNL     1      -1.090  -2.098  -4.729  1.00  0.00     0.056 A 
BRANCH  28  29
ATOM     29  C   UNL     1      -2.092  -2.376  -5.818  1.00  0.00     0.416 C 
ATOM     30  F   UNL     1      -1.512  -2.900  -6.930  1.00  0.00    -0.166 F 
ATOM     31  F   UNL     1      -3.053  -3.263  -5.437  1.00  0.00    -0.166 F 
ATOM     32  F   UNL     1      -2.760  -1.262  -6.231  1.00  0.00    -0.166 F 
ENDBRANCH  28  29
ENDBRANCH  21  23
ENDBRANCH  17  19
ENDBRANCH   7  17
ENDBRANCH   3   6
ENDBRANCH   1   2
BRANCH   1  33
ATOM     33  C   UNL     1      -1.395   3.849   1.027  1.00  0.00     0.023 C 
BRANCH  33  34
ATOM     34  C   UNL     1      -1.609   4.870   2.131  1.00  0.00     0.023 C 
BRANCH  34  35
ATOM     35  C   UNL     1      -1.135   4.362   3.480  1.00  0.00     0.116 C 
BRANCH  35  36
ATOM     36  N   UNL     1       0.297   4.109   3.510  1.00  0.00    -0.352 N 
ATOM     37  C   UNL     1       1.194   4.549   4.448  1.00  0.00     0.251 C 
ATOM     38  H   UNL     1       0.661   3.562   2.776  1.00  0.00     0.163 HD
ATOM     39  O   UNL     1       2.401   4.462   4.262  1.00  0.00    -0.269 OA
BRANCH  37  40
ATOM     40  C   UNL     1       0.662   5.174   5.672  1.00  0.00     0.039 A 
ATOM     41  C   UNL     1       1.210   6.382   6.091  1.00  0.00     0.014 A 
ATOM     42  C   UNL     1      -0.433   4.612   6.339  1.00  0.00     0.014 A 
ATOM     43  C   UNL     1       0.631   7.043   7.168  1.00  0.00     0.010 A 
ATOM     44  C   UNL     1      -1.092   5.345   7.314  1.00  0.00     0.010 A 
ATOM     45  C   UNL     1      -0.550   6.555   7.760  1.00  0.00    -0.014 A 
BRANCH  45  46
ATOM     46  C   UNL     1      -1.209   7.325   8.839  1.00  0.00     0.031 A 
ATOM     47  C   UNL     1      -1.389   6.731  10.207  1.00  0.00     0.074 A 
ATOM     48  C   UNL     1      -1.631   8.577   8.582  1.00  0.00     0.049 A 
ATOM     49  N   UNL     1      -1.837   7.301  11.296  1.00  0.00    -0.248 NA
ATOM     50  C   UNL     1      -1.042   5.311  10.375  1.00  0.00     0.031 C 
ATOM     51  C   UNL     1      -1.556   9.242   7.279  1.00  0.00     0.029 A 
ATOM     52  N   UNL     1      -2.175   9.526   9.408  1.00  0.00    -0.354 N 
ATOM     53  C   UNL     1      -1.823   6.314  12.273  1.00  0.00     0.074 A 
ATOM     54  C   UNL     1      -1.391   5.093  11.632  1.00  0.00     0.031 C 
ATOM     55  C   UNL     1      -1.955  10.515   7.413  1.00  0.00     0.029 A 
ATOM     56  C   UNL     1      -2.378  10.735   8.790  1.00  0.00     0.049 A 
ATOM     57  H   UNL     1      -2.397   9.357  10.352  1.00  0.00     0.167 HD
ATOM     58  C   UNL     1      -2.125   6.422  13.588  1.00  0.00     0.037 A 
ATOM     59  C   UNL     1      -2.851  11.895   9.280  1.00  0.00     0.037 A 
ATOM     60  C   UNL     1      -2.572   7.641  14.212  1.00  0.00     0.049 A 
ATOM     61  C   UNL     1      -3.226  11.971  10.732  1.00  0.00     0.074 A 
ATOM     62  C   UNL     1      -2.858   7.868  15.546  1.00  0.00     0.029 A 
ATOM     63  N   UNL     1      -2.829   8.829  13.542  1.00  0.00    -0.354 N 
ATOM     64  N   UNL     1      -3.127  11.055  11.665  1.00  0.00    -0.248 NA
ATOM     65  C   UNL     1      -3.770  13.251  11.198  1.00  0.00     0.031 C 
ATOM     66  C   UNL     1      -3.389   9.155  15.666  1.00  0.00     0.029 A 
ATOM     67  C   UNL     1      -3.324   9.774  14.428  1.00  0.00     0.049 A 
ATOM     68  H   UNL     1      -2.682   8.978  12.580  1.00  0.00     0.167 HD
ATOM     69  C   UNL     1      -3.562  11.659  12.837  1.00  0.00     0.074 A 
ATOM     70  C   UNL     1      -3.893  13.028  12.497  1.00  0.00     0.031 C 
ATOM     71  C   UNL     1      -3.672  11.130  14.082  1.00  0.00     0.037 A 
BRANCH  58  72
ATOM     72  C   UNL     1      -2.028   5.177  14.427  1.00  0.00     0.057 A 
ATOM     73  C   UNL     1      -0.812   4.519  14.662  1.00  0.00     0.134 A 
ATOM     74  C   UNL     1      -3.175   4.635  15.022  1.00  0.00     0.134 A 
ATOM     75  F   UNL     1       0.328   4.978  14.123  1.00  0.00    -0.206 F 
ATOM     76  C   UNL     1      -0.750   3.342  15.411  1.00  0.00     0.040 A 
ATOM     77  C   UNL     1      -3.118   3.486  15.811  1.00  0.00     0.040 A 
ATOM     78  F   UNL     1      -4.372   5.217  14.853  1.00  0.00    -0.206 F 
ATOM     79  C   UNL     1      -1.905   2.826  15.993  1.00  0.00     0.006 A 
ENDBRANCH  58  72
BRANCH  59  80
ATOM     80  C   UNL     1      -2.975  13.083   8.397  1.00  0.00     0.057 A 
ATOM     81  C   UNL     1      -2.212  14.236   8.620  1.00  0.00     0.134 A 
ATOM     82  C   UNL     1      -3.874  13.104   7.323  1.00  0.00     0.134 A 
ATOM     83  F   UNL     1      -1.343  14.284   9.640  1.00  0.00    -0.206 F 
ATOM     84  C   UNL     1      -2.362  15.377   7.830  1.00  0.00     0.040 A 
ATOM     85  C   UNL     1      -4.005  14.223   6.501  1.00  0.00     0.040 A 
ATOM     86  F   UNL     1      -4.627  12.029   7.048  1.00  0.00    -0.206 F 
ATOM     87  C   UNL     1      -3.258  15.369   6.763  1.00  0.00     0.006 A 
ENDBRANCH  59  80
BRANCH  71  88
ATOM     88  C   UNL     1      -4.126  12.057  15.179  1.00  0.00     0.057 A 
ATOM     89  C   UNL     1      -5.395  12.655  15.183  1.00  0.00     0.134 A 
ATOM     90  C   UNL     1      -3.265  12.381  16.237  1.00  0.00     0.134 A 
ATOM     91  F   UNL     1      -6.276  12.389  14.206  1.00  0.00    -0.206 F 
ATOM     92  C   UNL     1      -5.756  13.598  16.146  1.00  0.00     0.040 A 
ATOM     93  C   UNL     1      -3.636  13.280  17.236  1.00  0.00     0.040 A 
ATOM     94  F   UNL     1      -2.044  11.830  16.318  1.00  0.00    -0.206 F 
ATOM     95  C   UNL     1      -4.875  13.912  17.178  1.00  0.00     0.006 A 
ENDBRANCH  71  88
ENDBRANCH  45  46
ENDBRANCH  37  40
ENDBRANCH  35  36
ENDBRANCH  34  35
ENDBRANCH  33  34
ENDBRANCH   1  33
TORSDOF 15
