REMARK SMILES Cc1ccc([C@@H](C)Nc2ccc(N)cc2C(=O)NCCCCNC(=O)c2ccc(-c3c4nc(c(-c5c(F)cccc5F)c5ccc([nH]5)c(-c5c(F)cccc5F)c5nc(c(-c6c(F)cccc6F)c6ccc3[nH]6)C=C5)C=C4)cc2)cc1F
REMARK SMILES IDX 20 1 19 2 18 3 16 4 17 5 15 7 9 8 10 9 11 10 14 11 12 12
REMARK SMILES IDX 8 13 6 15 7 16 5 17 1 18 2 19 3 20 81 21 4 22 80 23 82 24
REMARK SMILES IDX 13 25 21 28 22 29 23 30 24 31 25 33 26 34 27 35 79 36 28 37
REMARK SMILES IDX 78 38 29 39 30 40 31 41 72 42 32 43 77 44 71 45 73 46 33 47
REMARK SMILES IDX 76 48 70 49 69 50 34 52 60 53 43 54 59 55 44 56 47 57 58 58
REMARK SMILES IDX 74 59 45 60 46 61 57 63 75 64 48 65 35 66 36 67 41 68 37 69
REMARK SMILES IDX 38 70 40 71 42 72 39 73 61 74 62 75 67 76 63 77 64 78 66 79
REMARK SMILES IDX 68 80 65 81 49 82 50 83 55 84 51 85 52 86 54 87 56 88 53 89
REMARK H PARENT 18 6 8 14 13 26 13 27 23 32 73 51 47 62
REMARK Flexibility Score: inf
ROOT
ATOM      1  C   UNL     1      -0.205  -1.429   0.505  1.00  0.00     0.023 C 
ENDROOT
BRANCH   1   2
ATOM      2  C   UNL     1      -0.588  -3.104   0.609  1.00  0.00     0.116 C 
BRANCH   2   3
ATOM      3  N   UNL     1      -0.808  -3.886  -0.604  1.00  0.00    -0.352 N 
ATOM      4  C   UNL     1      -1.892  -4.632  -0.994  1.00  0.00     0.253 C 
ATOM      5  O   UNL     1      -1.979  -5.026  -2.155  1.00  0.00    -0.269 OA
ATOM      6  H   UNL     1      -0.060  -3.876  -1.244  1.00  0.00     0.163 HD
BRANCH   4   7
ATOM      7  C   UNL     1      -2.845  -5.108   0.026  1.00  0.00     0.065 A 
ATOM      8  C   UNL     1      -3.448  -4.301   0.996  1.00  0.00     0.048 A 
ATOM      9  C   UNL     1      -3.739  -4.957   2.207  1.00  0.00     0.028 A 
ATOM     10  C   UNL     1      -3.587  -6.347   2.365  1.00  0.00     0.027 A 
ATOM     11  C   UNL     1      -2.852  -6.514   0.120  1.00  0.00     0.041 A 
ATOM     12  C   UNL     1      -3.248  -7.150   1.285  1.00  0.00     0.032 A 
BRANCH   8  13
ATOM     13  N   UNL     1      -3.727  -2.947   0.908  1.00  0.00    -0.378 N 
ATOM     14  H   UNL     1      -4.079  -2.545   1.736  1.00  0.00     0.161 HD
BRANCH  13  15
ATOM     15  C   UNL     1      -3.586  -2.010  -0.216  1.00  0.00     0.106 C 
ATOM     16  C   UNL     1      -4.270  -2.471  -1.498  1.00  0.00     0.036 C 
BRANCH  15  17
ATOM     17  C   UNL     1      -2.195  -1.371  -0.205  1.00  0.00    -0.023 A 
ATOM     18  C   UNL     1       2.070   1.373   0.297  1.00  0.00     0.047 C 
ATOM     19  C   UNL     1       0.996   0.326   0.245  1.00  0.00    -0.015 A 
ATOM     20  C   UNL     1      -0.289   0.469   1.487  1.00  0.00     0.007 A 
ATOM     21  C   UNL     1       0.679  -0.654  -1.252  1.00  0.00     0.126 A 
ATOM     22  C   UNL     1      -1.857  -0.409   1.288  1.00  0.00     0.006 A 
ATOM     23  C   UNL     1      -0.903  -1.521  -1.474  1.00  0.00     0.045 A 
ATOM     24  F   UNL     1       1.589  -0.670  -2.232  1.00  0.00    -0.207 F 
ENDBRANCH  15  17
ENDBRANCH  13  15
ENDBRANCH   8  13
BRANCH  12  25
ATOM     25  N   UNL     1      -3.095  -8.520   1.414  1.00  0.00    -0.399 N 
ATOM     26  H   UNL     1      -3.377  -8.971   2.243  1.00  0.00     0.156 HD
ATOM     27  H   UNL     1      -2.704  -9.043   0.677  1.00  0.00     0.156 HD
ENDBRANCH  12  25
ENDBRANCH   4   7
ENDBRANCH   2   3
ENDBRANCH   1   2
BRANCH   1  28
ATOM     28  C   UNL     1      -1.003   0.341  -0.513  1.00  0.00     0.023 C 
BRANCH  28  29
ATOM     29  C   UNL     1      -2.235   1.357  -0.322  1.00  0.00     0.116 C 
BRANCH  29  30
ATOM     30  N   UNL     1      -2.054   2.387   0.725  1.00  0.00    -0.352 N 
ATOM     31  C   UNL     1      -1.993   3.750   0.572  1.00  0.00     0.251 C 
ATOM     32  H   UNL     1      -1.966   2.053   1.647  1.00  0.00     0.163 HD
ATOM     33  O   UNL     1      -1.395   4.474   1.355  1.00  0.00    -0.269 OA
BRANCH  31  34
ATOM     34  C   UNL     1      -2.868   4.301  -0.460  1.00  0.00     0.039 A 
ATOM     35  C   UNL     1      -2.808   5.607  -0.943  1.00  0.00     0.014 A 
ATOM     36  C   UNL     1      -3.915   3.458  -0.812  1.00  0.00     0.014 A 
ATOM     37  C   UNL     1      -3.887   6.049  -1.694  1.00  0.00     0.010 A 
ATOM     38  C   UNL     1      -4.683   3.741  -1.858  1.00  0.00     0.010 A 
ATOM     39  C   UNL     1      -4.831   5.093  -2.073  1.00  0.00    -0.014 A 
BRANCH  39  40
ATOM     40  C   UNL     1      -6.103   5.294  -2.715  1.00  0.00     0.031 A 
ATOM     41  C   UNL     1      -5.933   5.602  -4.130  1.00  0.00     0.074 A 
ATOM     42  C   UNL     1      -7.139   4.840  -1.959  1.00  0.00     0.049 A 
ATOM     43  N   UNL     1      -6.478   6.567  -4.778  1.00  0.00    -0.248 NA
ATOM     44  C   UNL     1      -4.880   4.923  -4.917  1.00  0.00     0.031 C 
ATOM     45  C   UNL     1      -8.502   4.440  -2.248  1.00  0.00     0.029 A 
ATOM     46  N   UNL     1      -7.081   4.680  -0.559  1.00  0.00    -0.354 N 
ATOM     47  C   UNL     1      -6.310   6.191  -6.095  1.00  0.00     0.074 A 
ATOM     48  C   UNL     1      -5.074   5.455  -6.124  1.00  0.00     0.031 C 
ATOM     49  C   UNL     1      -9.226   4.503  -1.107  1.00  0.00     0.029 A 
ATOM     50  C   UNL     1      -8.348   4.954  -0.034  1.00  0.00     0.049 A 
ATOM     51  H   UNL     1      -6.285   4.420  -0.040  1.00  0.00     0.167 HD
ATOM     52  C   UNL     1      -7.428   6.018  -6.864  1.00  0.00     0.037 A 
ATOM     53  C   UNL     1      -8.454   6.107   0.693  1.00  0.00     0.037 A 
ATOM     54  C   UNL     1      -8.624   6.160  -6.019  1.00  0.00     0.049 A 
ATOM     55  C   UNL     1      -9.045   7.174  -0.198  1.00  0.00     0.074 A 
ATOM     56  C   UNL     1      -9.529   5.249  -5.499  1.00  0.00     0.029 A 
ATOM     57  N   UNL     1      -8.792   7.326  -5.284  1.00  0.00    -0.354 N 
ATOM     58  N   UNL     1      -8.943   7.170  -1.502  1.00  0.00    -0.248 NA
ATOM     59  C   UNL     1      -9.924   8.227   0.294  1.00  0.00     0.031 C 
ATOM     60  C   UNL     1     -10.218   5.883  -4.421  1.00  0.00     0.029 A 
ATOM     61  C   UNL     1      -9.682   7.148  -4.245  1.00  0.00     0.049 A 
ATOM     62  H   UNL     1      -8.332   8.175  -5.479  1.00  0.00     0.167 HD
ATOM     63  C   UNL     1      -9.781   8.109  -2.027  1.00  0.00     0.074 A 
ATOM     64  C   UNL     1     -10.354   8.762  -0.862  1.00  0.00     0.031 C 
ATOM     65  C   UNL     1      -9.982   8.271  -3.368  1.00  0.00     0.037 A 
BRANCH  52  66
ATOM     66  C   UNL     1      -7.463   5.443  -8.261  1.00  0.00     0.057 A 
ATOM     67  C   UNL     1      -8.695   5.114  -8.859  1.00  0.00     0.134 A 
ATOM     68  C   UNL     1      -6.350   5.285  -9.111  1.00  0.00     0.134 A 
ATOM     69  F   UNL     1      -9.857   5.270  -8.211  1.00  0.00    -0.206 F 
ATOM     70  C   UNL     1      -8.809   4.644 -10.173  1.00  0.00     0.040 A 
ATOM     71  C   UNL     1      -6.446   4.783 -10.417  1.00  0.00     0.040 A 
ATOM     72  F   UNL     1      -5.119   5.668  -8.757  1.00  0.00    -0.206 F 
ATOM     73  C   UNL     1      -7.681   4.470 -10.958  1.00  0.00     0.006 A 
ENDBRANCH  52  66
BRANCH  53  74
ATOM     74  C   UNL     1      -7.281   6.223   1.634  1.00  0.00     0.057 A 
ATOM     75  C   UNL     1      -7.161   5.188   2.592  1.00  0.00     0.134 A 
ATOM     76  C   UNL     1      -6.099   6.888   1.288  1.00  0.00     0.134 A 
ATOM     77  F   UNL     1      -8.257   4.534   3.011  1.00  0.00    -0.206 F 
ATOM     78  C   UNL     1      -5.920   4.682   2.992  1.00  0.00     0.040 A 
ATOM     79  C   UNL     1      -4.851   6.414   1.722  1.00  0.00     0.040 A 
ATOM     80  F   UNL     1      -6.116   7.907   0.417  1.00  0.00    -0.206 F 
ATOM     81  C   UNL     1      -4.756   5.269   2.515  1.00  0.00     0.006 A 
ENDBRANCH  53  74
BRANCH  65  82
ATOM     82  C   UNL     1     -10.513   9.532  -3.997  1.00  0.00     0.057 A 
ATOM     83  C   UNL     1     -10.419  10.794  -3.396  1.00  0.00     0.134 A 
ATOM     84  C   UNL     1     -10.949   9.537  -5.343  1.00  0.00     0.134 A 
ATOM     85  F   UNL     1      -9.895  10.961  -2.175  1.00  0.00    -0.206 F 
ATOM     86  C   UNL     1     -10.803  11.963  -4.055  1.00  0.00     0.040 A 
ATOM     87  C   UNL     1     -11.239  10.708  -6.040  1.00  0.00     0.040 A 
ATOM     88  F   UNL     1     -11.073   8.410  -6.060  1.00  0.00    -0.206 F 
ATOM     89  C   UNL     1     -11.194  11.926  -5.387  1.00  0.00     0.006 A 
ENDBRANCH  65  82
ENDBRANCH  39  40
ENDBRANCH  31  34
ENDBRANCH  29  30
ENDBRANCH  28  29
ENDBRANCH   1  28
TORSDOF 15
