REMARK SMILES O=C(NCCCCNC(=O)c1cc(-c2cccc(Cl)c2)ccc1Cl)c1ccc(-c2c3nc(c(-c4c(F)cccc4F)c4ccc([nH]4)c(-c4c(F)cccc4F)c4nc(c(-c5c(F)cccc5F)c5ccc2[nH]5)C=C4)C=C3)cc1
REMARK SMILES IDX 5 1 4 2 3 3 1 4 2 5 25 7 26 8 78 9 27 10 77 11 28 12 29 13
REMARK SMILES IDX 30 14 71 15 31 16 76 17 70 18 72 19 32 20 75 21 69 22 68 23
REMARK SMILES IDX 33 25 59 26 42 27 58 28 43 29 46 30 57 31 73 32 44 33 45 34
REMARK SMILES IDX 56 36 74 37 47 38 34 39 35 40 40 41 36 42 37 43 39 44 41 45
REMARK SMILES IDX 38 46 60 47 61 48 66 49 62 50 63 51 65 52 67 53 64 54 48 55
REMARK SMILES IDX 49 56 54 57 50 58 51 59 53 60 55 61 52 62 6 63 7 64 8 65
REMARK SMILES IDX 9 66 10 68 11 69 12 70 23 71 13 72 22 73 24 74 21 75 14 76
REMARK SMILES IDX 15 77 20 78 16 79 18 80 17 81 19 82
REMARK H PARENT 3 6 72 24 46 35 8 67
REMARK Flexibility Score: inf
ROOT
ATOM      1  C   UNL     1       4.836  -2.648  -0.364  1.00  0.00     0.023 C 
ENDROOT
BRANCH   1   2
ATOM      2  C   UNL     1       4.550  -1.172  -0.615  1.00  0.00     0.116 C 
BRANCH   2   3
ATOM      3  N   UNL     1       3.129  -0.863  -0.691  1.00  0.00    -0.352 N 
ATOM      4  O   UNL     1       1.162   0.067  -0.092  1.00  0.00    -0.269 OA
ATOM      5  C   UNL     1       2.381   0.028   0.044  1.00  0.00     0.251 C 
ATOM      6  H   UNL     1       2.627  -1.368  -1.371  1.00  0.00     0.163 HD
BRANCH   5   7
ATOM      7  C   UNL     1       3.039   0.909   1.033  1.00  0.00     0.039 A 
ATOM      8  C   UNL     1       4.219   1.584   0.717  1.00  0.00     0.014 A 
ATOM      9  C   UNL     1       2.479   1.041   2.307  1.00  0.00     0.014 A 
ATOM     10  C   UNL     1       4.934   2.226   1.722  1.00  0.00     0.010 A 
ATOM     11  C   UNL     1       3.154   1.767   3.293  1.00  0.00     0.010 A 
ATOM     12  C   UNL     1       4.416   2.318   3.024  1.00  0.00    -0.014 A 
BRANCH  12  13
ATOM     13  C   UNL     1       5.219   2.994   4.076  1.00  0.00     0.031 A 
ATOM     14  C   UNL     1       5.750   2.231   5.261  1.00  0.00     0.074 A 
ATOM     15  C   UNL     1       5.525   4.298   3.926  1.00  0.00     0.049 A 
ATOM     16  N   UNL     1       6.525   2.650   6.230  1.00  0.00    -0.248 NA
ATOM     17  C   UNL     1       5.355   0.819   5.381  1.00  0.00     0.031 C 
ATOM     18  C   UNL     1       5.061   5.151   2.830  1.00  0.00     0.029 A 
ATOM     19  N   UNL     1       6.324   5.123   4.676  1.00  0.00    -0.354 N 
ATOM     20  C   UNL     1       6.687   1.568   7.087  1.00  0.00     0.074 A 
ATOM     21  C   UNL     1       5.913   0.476   6.534  1.00  0.00     0.031 C 
ATOM     22  C   UNL     1       5.634   6.358   2.942  1.00  0.00     0.029 A 
ATOM     23  C   UNL     1       6.463   6.380   4.142  1.00  0.00     0.049 A 
ATOM     24  H   UNL     1       6.755   4.841   5.514  1.00  0.00     0.167 HD
ATOM     25  C   UNL     1       7.419   1.488   8.224  1.00  0.00     0.037 A 
ATOM     26  C   UNL     1       7.181   7.435   4.567  1.00  0.00     0.037 A 
ATOM     27  C   UNL     1       8.220   2.560   8.755  1.00  0.00     0.049 A 
ATOM     28  C   UNL     1       8.000   7.312   5.818  1.00  0.00     0.074 A 
ATOM     29  C   UNL     1       9.030   2.558   9.878  1.00  0.00     0.029 A 
ATOM     30  N   UNL     1       8.316   3.825   8.197  1.00  0.00    -0.354 N 
ATOM     31  N   UNL     1       8.163   6.273   6.598  1.00  0.00    -0.248 NA
ATOM     32  C   UNL     1       8.730   8.512   6.248  1.00  0.00     0.031 C 
ATOM     33  C   UNL     1       9.593   3.832  10.016  1.00  0.00     0.029 A 
ATOM     34  C   UNL     1       9.160   4.616   8.959  1.00  0.00     0.049 A 
ATOM     35  H   UNL     1       7.853   4.118   7.379  1.00  0.00     0.167 HD
ATOM     36  C   UNL     1       9.026   6.686   7.603  1.00  0.00     0.074 A 
ATOM     37  C   UNL     1       9.366   8.066   7.323  1.00  0.00     0.031 C 
ATOM     38  C   UNL     1       9.491   5.986   8.665  1.00  0.00     0.037 A 
BRANCH  25  39
ATOM     39  C   UNL     1       7.378   0.196   8.986  1.00  0.00     0.057 A 
ATOM     40  C   UNL     1       8.056  -0.947   8.544  1.00  0.00     0.134 A 
ATOM     41  C   UNL     1       6.689   0.108  10.202  1.00  0.00     0.134 A 
ATOM     42  F   UNL     1       8.726  -0.933   7.381  1.00  0.00    -0.206 F 
ATOM     43  C   UNL     1       8.036  -2.136   9.276  1.00  0.00     0.040 A 
ATOM     44  C   UNL     1       6.677  -1.068  10.953  1.00  0.00     0.040 A 
ATOM     45  F   UNL     1       6.024   1.169  10.685  1.00  0.00    -0.206 F 
ATOM     46  C   UNL     1       7.349  -2.197  10.488  1.00  0.00     0.006 A 
ENDBRANCH  25  39
BRANCH  26  47
ATOM     47  C   UNL     1       7.172   8.694   3.783  1.00  0.00     0.057 A 
ATOM     48  C   UNL     1       8.296   9.098   3.055  1.00  0.00     0.134 A 
ATOM     49  C   UNL     1       6.037   9.512   3.731  1.00  0.00     0.134 A 
ATOM     50  F   UNL     1       9.417   8.363   3.081  1.00  0.00    -0.206 F 
ATOM     51  C   UNL     1       8.296  10.277   2.309  1.00  0.00     0.040 A 
ATOM     52  C   UNL     1       6.016  10.681   2.971  1.00  0.00     0.040 A 
ATOM     53  F   UNL     1       4.927   9.172   4.403  1.00  0.00    -0.206 F 
ATOM     54  C   UNL     1       7.150  11.069   2.261  1.00  0.00     0.006 A 
ENDBRANCH  26  47
BRANCH  38  55
ATOM     55  C   UNL     1      10.437   6.697   9.584  1.00  0.00     0.057 A 
ATOM     56  C   UNL     1       9.992   7.671  10.487  1.00  0.00     0.134 A 
ATOM     57  C   UNL     1      11.804   6.395   9.575  1.00  0.00     0.134 A 
ATOM     58  F   UNL     1       8.696   8.014  10.533  1.00  0.00    -0.206 F 
ATOM     59  C   UNL     1      10.879   8.337  11.334  1.00  0.00     0.040 A 
ATOM     60  C   UNL     1      12.697   7.039  10.431  1.00  0.00     0.040 A 
ATOM     61  F   UNL     1      12.291   5.468   8.736  1.00  0.00    -0.206 F 
ATOM     62  C   UNL     1      12.236   8.018  11.310  1.00  0.00     0.006 A 
ENDBRANCH  38  55
ENDBRANCH  12  13
ENDBRANCH   5   7
ENDBRANCH   2   3
ENDBRANCH   1   2
BRANCH   1  63
ATOM     63  C   UNL     1       4.332  -3.610  -1.436  1.00  0.00     0.023 C 
BRANCH  63  64
ATOM     64  C   UNL     1       4.721  -3.256  -2.868  1.00  0.00     0.116 C 
BRANCH  64  65
ATOM     65  N   UNL     1       6.159  -3.206  -3.070  1.00  0.00    -0.352 N 
ATOM     66  C   UNL     1       6.893  -3.758  -4.092  1.00  0.00     0.252 C 
ATOM     67  H   UNL     1       6.673  -2.715  -2.389  1.00  0.00     0.163 HD
ATOM     68  O   UNL     1       8.113  -3.648  -4.125  1.00  0.00    -0.269 OA
BRANCH  66  69
ATOM     69  C   UNL     1       6.205  -4.560  -5.115  1.00  0.00     0.059 A 
ATOM     70  C   UNL     1       6.445  -5.942  -5.107  1.00  0.00     0.024 A 
ATOM     71  C   UNL     1       5.334  -3.995  -6.049  1.00  0.00     0.053 A 
ATOM     72  C   UNL     1       5.776  -6.792  -6.001  1.00  0.00    -0.017 A 
ATOM     73  C   UNL     1       4.638  -4.830  -6.920  1.00  0.00     0.022 A 
ATOM     74  Cl  UNL     1       5.078  -2.293  -6.181  1.00  0.00    -0.083 Cl
ATOM     75  C   UNL     1       4.849  -6.213  -6.887  1.00  0.00     0.010 A 
BRANCH  72  76
ATOM     76  C   UNL     1       6.049  -8.239  -6.032  1.00  0.00    -0.017 A 
ATOM     77  C   UNL     1       6.319  -8.888  -7.251  1.00  0.00     0.009 A 
ATOM     78  C   UNL     1       6.062  -9.012  -4.859  1.00  0.00     0.029 A 
ATOM     79  C   UNL     1       6.588 -10.258  -7.302  1.00  0.00     0.002 A 
ATOM     80  C   UNL     1       6.333 -10.381  -4.913  1.00  0.00     0.041 A 
ATOM     81  C   UNL     1       6.595 -11.007  -6.129  1.00  0.00     0.020 A 
ATOM     82  Cl  UNL     1       6.342 -11.307  -3.461  1.00  0.00    -0.084 Cl
ENDBRANCH  72  76
ENDBRANCH  66  69
ENDBRANCH  64  65
ENDBRANCH  63  64
ENDBRANCH   1  63
TORSDOF 12
