REMARK SMILES C[C@H](C(=O)NCCCCNC(=O)c1ccc(-c2c3nc(c(-c4c(F)cccc4F)c4ccc([nH]4)c(-c4c(F)cccc4F)c4nc(c(-c5c(F)cccc5F)c5ccc2[nH]5)C=C4)C=C3)cc1)[C@H](C)[N@@H+]1CC[C@H]([NH+](C)C)C1
REMARK SMILES IDX 7 1 6 2 5 3 3 4 4 5 2 7 1 8 67 9 68 10 69 11 70 12 76 13
REMARK SMILES IDX 71 15 72 16 73 17 74 18 75 19 8 21 9 22 10 23 11 24 12 26
REMARK SMILES IDX 13 27 14 28 66 29 15 30 65 31 16 32 17 33 18 34 59 35 19 36
REMARK SMILES IDX 64 37 58 38 60 39 20 40 63 41 57 42 56 43 21 45 47 46 30 47
REMARK SMILES IDX 46 48 31 49 34 50 45 51 61 52 32 53 33 54 44 56 62 57 35 58
REMARK SMILES IDX 22 59 23 60 28 61 24 62 25 63 27 64 29 65 26 66 48 67 49 68
REMARK SMILES IDX 54 69 50 70 51 71 53 72 55 73 52 74 36 75 37 76 42 77 38 78
REMARK SMILES IDX 39 79 41 80 43 81 40 82
REMARK H PARENT 5 6 69 14 73 20 10 25 60 44 34 55
REMARK Flexibility Score: inf
ROOT
ATOM      1  C   UNL     1       1.677  -2.495  -2.417  1.00  0.00     0.023 C 
ENDROOT
BRANCH   1   2
ATOM      2  C   UNL     1       0.811  -1.370  -2.975  1.00  0.00     0.116 C 
BRANCH   2   3
ATOM      3  N   UNL     1      -0.563  -1.772  -3.184  1.00  0.00    -0.356 N 
ATOM      4  C   UNL     1      -1.695  -1.488  -2.483  1.00  0.00     0.228 C 
ATOM      5  O   UNL     1      -2.753  -1.855  -3.004  1.00  0.00    -0.275 OA
ATOM      6  H   UNL     1      -0.703  -2.351  -3.968  1.00  0.00     0.163 HD
BRANCH   4   7
ATOM      7  C   UNL     1      -1.656  -0.754  -1.137  1.00  0.00     0.133 C 
ATOM      8  C   UNL     1      -3.005  -0.032  -0.959  1.00  0.00     0.024 C 
BRANCH   7   9
ATOM      9  C   UNL     1      -1.340  -1.593   0.159  1.00  0.00     0.193 C 
ATOM     10  C   UNL     1       0.159  -1.601   0.515  1.00  0.00     0.076 C 
BRANCH   9  11
ATOM     11  N   UNL     1      -2.014  -2.900   0.328  1.00  0.00    -0.327 N 
ATOM     12  C   UNL     1      -1.739  -3.615   1.584  1.00  0.00     0.269 C 
ATOM     13  C   UNL     1      -1.825  -3.860  -0.767  1.00  0.00     0.328 C 
ATOM     14  H   UNL     1      -2.982  -2.577   0.334  1.00  0.00     0.348 HD
ATOM     15  C   UNL     1      -1.086  -4.943   1.204  1.00  0.00     0.132 C 
ATOM     16  C   UNL     1      -1.716  -5.264  -0.149  1.00  0.00     0.245 C 
BRANCH  16  17
ATOM     17  N   UNL     1      -1.058  -6.305  -0.971  1.00  0.00    -0.333 N 
ATOM     18  C   UNL     1      -1.629  -6.354  -2.322  1.00  0.00     0.332 C 
ATOM     19  C   UNL     1       0.396  -6.188  -1.035  1.00  0.00     0.332 C 
ATOM     20  H   UNL     1      -1.248  -7.185  -0.492  1.00  0.00     0.348 HD
ENDBRANCH  16  17
ENDBRANCH   9  11
ENDBRANCH   7   9
ENDBRANCH   4   7
ENDBRANCH   2   3
ENDBRANCH   1   2
BRANCH   1  21
ATOM     21  C   UNL     1       1.799  -3.737  -3.293  1.00  0.00     0.023 C 
BRANCH  21  22
ATOM     22  C   UNL     1       2.379  -3.500  -4.672  1.00  0.00     0.116 C 
BRANCH  22  23
ATOM     23  N   UNL     1       3.701  -2.900  -4.624  1.00  0.00    -0.352 N 
ATOM     24  C   UNL     1       4.849  -3.267  -5.277  1.00  0.00     0.251 C 
ATOM     25  H   UNL     1       3.784  -2.114  -4.037  1.00  0.00     0.163 HD
ATOM     26  O   UNL     1       5.915  -2.729  -4.981  1.00  0.00    -0.269 OA
BRANCH  24  27
ATOM     27  C   UNL     1       4.815  -4.324  -6.310  1.00  0.00     0.039 A 
ATOM     28  C   UNL     1       5.877  -5.227  -6.379  1.00  0.00     0.014 A 
ATOM     29  C   UNL     1       3.750  -4.429  -7.209  1.00  0.00     0.014 A 
ATOM     30  C   UNL     1       5.844  -6.259  -7.316  1.00  0.00     0.010 A 
ATOM     31  C   UNL     1       3.666  -5.521  -8.065  1.00  0.00     0.010 A 
ATOM     32  C   UNL     1       4.723  -6.435  -8.146  1.00  0.00    -0.014 A 
BRANCH  32  33
ATOM     33  C   UNL     1       4.669  -7.557  -9.116  1.00  0.00     0.031 A 
ATOM     34  C   UNL     1       4.580  -7.281 -10.593  1.00  0.00     0.074 A 
ATOM     35  C   UNL     1       4.684  -8.825  -8.662  1.00  0.00     0.049 A 
ATOM     36  N   UNL     1       4.551  -8.128 -11.591  1.00  0.00    -0.248 NA
ATOM     37  C   UNL     1       4.486  -5.871 -11.006  1.00  0.00     0.031 C 
ATOM     38  C   UNL     1       4.695  -9.220  -7.252  1.00  0.00     0.029 A 
ATOM     39  N   UNL     1       4.699 -10.018  -9.340  1.00  0.00    -0.354 N 
ATOM     40  C   UNL     1       4.442  -7.355 -12.740  1.00  0.00     0.074 A 
ATOM     41  C   UNL     1       4.325  -5.979 -12.316  1.00  0.00     0.031 C 
ATOM     42  C   UNL     1       4.757 -10.558  -7.170  1.00  0.00     0.029 A 
ATOM     43  C   UNL     1       4.754 -11.117  -8.518  1.00  0.00     0.049 A 
ATOM     44  H   UNL     1       4.672 -10.080 -10.322  1.00  0.00     0.167 HD
ATOM     45  C   UNL     1       4.476  -7.751 -14.034  1.00  0.00     0.037 A 
ATOM     46  C   UNL     1       4.800 -12.428  -8.819  1.00  0.00     0.037 A 
ATOM     47  C   UNL     1       4.600  -9.122 -14.454  1.00  0.00     0.049 A 
ATOM     48  C   UNL     1       4.833 -12.842 -10.264  1.00  0.00     0.074 A 
ATOM     49  C   UNL     1       4.675  -9.628 -15.739  1.00  0.00     0.029 A 
ATOM     50  N   UNL     1       4.668 -10.207 -13.591  1.00  0.00    -0.354 N 
ATOM     51  N   UNL     1       4.804 -12.093 -11.341  1.00  0.00    -0.248 NA
ATOM     52  C   UNL     1       4.921 -14.283 -10.536  1.00  0.00     0.031 C 
ATOM     53  C   UNL     1       4.742 -11.023 -15.656  1.00  0.00     0.029 A 
ATOM     54  C   UNL     1       4.768 -11.382 -14.318  1.00  0.00     0.049 A 
ATOM     55  H   UNL     1       4.647 -10.149 -12.609  1.00  0.00     0.167 HD
ATOM     56  C   UNL     1       4.896 -12.969 -12.415  1.00  0.00     0.074 A 
ATOM     57  C   UNL     1       5.010 -14.301 -11.858  1.00  0.00     0.031 C 
ATOM     58  C   UNL     1       4.881 -12.699 -13.744  1.00  0.00     0.037 A 
BRANCH  45  59
ATOM     59  C   UNL     1       4.398  -6.681 -15.087  1.00  0.00     0.057 A 
ATOM     60  C   UNL     1       5.444  -5.769 -15.287  1.00  0.00     0.134 A 
ATOM     61  C   UNL     1       3.286  -6.580 -15.931  1.00  0.00     0.134 A 
ATOM     62  F   UNL     1       6.533  -5.801 -14.504  1.00  0.00    -0.206 F 
ATOM     63  C   UNL     1       5.376  -4.780 -16.270  1.00  0.00     0.040 A 
ATOM     64  C   UNL     1       3.219  -5.614 -16.938  1.00  0.00     0.040 A 
ATOM     65  F   UNL     1       2.250  -7.421 -15.799  1.00  0.00    -0.206 F 
ATOM     66  C   UNL     1       4.263  -4.707 -17.105  1.00  0.00     0.006 A 
ENDBRANCH  45  59
BRANCH  46  67
ATOM     67  C   UNL     1       4.836 -13.444  -7.734  1.00  0.00     0.057 A 
ATOM     68  C   UNL     1       5.967 -14.241  -7.518  1.00  0.00     0.134 A 
ATOM     69  C   UNL     1       3.731 -13.658  -6.902  1.00  0.00     0.134 A 
ATOM     70  F   UNL     1       7.054 -14.095  -8.291  1.00  0.00    -0.206 F 
ATOM     71  C   UNL     1       5.986 -15.234  -6.538  1.00  0.00     0.040 A 
ATOM     72  C   UNL     1       3.747 -14.626  -5.897  1.00  0.00     0.040 A 
ATOM     73  F   UNL     1       2.620 -12.920  -7.047  1.00  0.00    -0.206 F 
ATOM     74  C   UNL     1       4.874 -15.426  -5.721  1.00  0.00     0.006 A 
ENDBRANCH  46  67
BRANCH  58  75
ATOM     75  C   UNL     1       5.025 -13.866 -14.678  1.00  0.00     0.057 A 
ATOM     76  C   UNL     1       4.014 -14.824 -14.829  1.00  0.00     0.134 A 
ATOM     77  C   UNL     1       6.186 -14.026 -15.444  1.00  0.00     0.134 A 
ATOM     78  F   UNL     1       2.881 -14.736 -14.117  1.00  0.00    -0.206 F 
ATOM     79  C   UNL     1       4.170 -15.921 -15.678  1.00  0.00     0.040 A 
ATOM     80  C   UNL     1       6.340 -15.100 -16.322  1.00  0.00     0.040 A 
ATOM     81  F   UNL     1       7.189 -13.138 -15.358  1.00  0.00    -0.206 F 
ATOM     82  C   UNL     1       5.335 -16.058 -16.431  1.00  0.00     0.006 A 
ENDBRANCH  58  75
ENDBRANCH  32  33
ENDBRANCH  24  27
ENDBRANCH  22  23
ENDBRANCH  21  22
ENDBRANCH   1  21
TORSDOF 14
