REMARK SMILES CC(=O)N[C@@H](CS[C@H]1CC(=O)N(c2ccc(Cl)cc2Cl)C1=O)C(=O)NCCCCNC(=O)c1ccc(-c2c3nc(c(-c4c(F)cccc4F)c4ccc([nH]4)c(-c4c(F)cccc4F)c4nc(c(-c5c(F)cccc5F)c5ccc2[nH]5)C=C4)C=C3)cc1
REMARK SMILES IDX 26 1 25 2 23 3 24 4 5 6 4 7 1 8 2 9 3 10 6 12 7 13 8 14 9 15
REMARK SMILES IDX 21 16 10 17 12 18 22 19 11 20 13 21 14 22 19 23 15 24 18 25
REMARK SMILES IDX 20 26 16 27 17 28 27 29 28 30 29 31 30 32 31 33 32 35 33 36
REMARK SMILES IDX 34 37 86 38 35 39 85 40 36 41 37 42 38 43 79 44 39 45 84 46
REMARK SMILES IDX 78 47 80 48 40 49 83 50 77 51 76 52 41 54 67 55 50 56 66 57
REMARK SMILES IDX 51 58 54 59 65 60 81 61 52 62 53 63 64 65 82 66 55 67 42 68
REMARK SMILES IDX 43 69 48 70 44 71 45 72 47 73 49 74 46 75 68 76 69 77 74 78
REMARK SMILES IDX 70 79 71 80 73 81 75 82 72 83 56 84 57 85 62 86 58 87 59 88
REMARK SMILES IDX 61 89 63 90 60 91
REMARK H PARENT 25 5 4 11 30 34 80 53 54 64
REMARK Flexibility Score: inf
ROOT
ATOM      1  C   UNL     1       0.759   2.727   0.449  1.00  0.00     0.116 C 
ENDROOT
BRANCH   1   2
ATOM      2  N   UNL     1       0.898   4.167   0.263  1.00  0.00    -0.354 N 
ATOM      3  C   UNL     1       0.190   5.215   0.779  1.00  0.00     0.243 C 
ATOM      4  O   UNL     1       0.686   6.342   0.665  1.00  0.00    -0.273 OA
ATOM      5  H   UNL     1       1.631   4.430  -0.339  1.00  0.00     0.163 HD
BRANCH   3   6
ATOM      6  C   UNL     1      -1.112   5.063   1.576  1.00  0.00     0.181 C 
BRANCH   6   7
ATOM      7  N   UNL     1      -2.019   4.171   0.860  1.00  0.00    -0.344 N 
ATOM      8  C   UNL     1      -3.028   5.981  -0.506  1.00  0.00     0.114 C 
ATOM      9  C   UNL     1      -2.769   4.518  -0.235  1.00  0.00     0.217 C 
ATOM     10  O   UNL     1      -3.230   3.633  -0.952  1.00  0.00    -0.275 OA
ATOM     11  H   UNL     1      -2.099   3.247   1.190  1.00  0.00     0.164 HD
ENDBRANCH   6   7
BRANCH   6  12
ATOM     12  C   UNL     1      -0.973   4.798   3.088  1.00  0.00     0.105 C 
BRANCH  12  13
ATOM     13  S   UNL     1       0.334   3.704   3.769  1.00  0.00    -0.145 SA
BRANCH  13  14
ATOM     14  C   UNL     1       1.794   4.787   4.046  1.00  0.00     0.146 C 
ATOM     15  C   UNL     1       2.814   4.816   2.920  1.00  0.00     0.125 C 
ATOM     16  C   UNL     1       1.499   6.232   4.325  1.00  0.00     0.247 C 
ATOM     17  C   UNL     1       2.946   6.257   2.539  1.00  0.00     0.235 C 
ATOM     18  N   UNL     1       2.179   6.991   3.403  1.00  0.00    -0.248 N 
ATOM     19  O   UNL     1       0.768   6.635   5.221  1.00  0.00    -0.273 OA
ATOM     20  O   UNL     1       3.685   6.648   1.652  1.00  0.00    -0.274 OA
BRANCH  18  21
ATOM     21  C   UNL     1       2.248   8.388   3.475  1.00  0.00     0.070 A 
ATOM     22  C   UNL     1       1.595   9.158   2.507  1.00  0.00     0.030 A 
ATOM     23  C   UNL     1       2.946   9.018   4.519  1.00  0.00     0.066 A 
ATOM     24  C   UNL     1       1.588  10.549   2.621  1.00  0.00     0.023 A 
ATOM     25  C   UNL     1       2.952  10.406   4.621  1.00  0.00     0.043 A 
ATOM     26  Cl  UNL     1       3.885   8.111   5.657  1.00  0.00    -0.082 Cl
ATOM     27  C   UNL     1       2.258  11.164   3.681  1.00  0.00     0.042 A 
ATOM     28  Cl  UNL     1       2.230  12.877   3.827  1.00  0.00    -0.084 Cl
ENDBRANCH  18  21
ENDBRANCH  13  14
ENDBRANCH  12  13
ENDBRANCH   6  12
ENDBRANCH   3   6
ENDBRANCH   1   2
BRANCH   1  29
ATOM     29  C   UNL     1       1.769   1.894  -0.345  1.00  0.00     0.023 C 
BRANCH  29  30
ATOM     30  C   UNL     1       3.253   2.107  -0.017  1.00  0.00     0.023 C 
BRANCH  30  31
ATOM     31  C   UNL     1       3.723   1.751   1.395  1.00  0.00     0.116 C 
BRANCH  31  32
ATOM     32  N   UNL     1       3.656   0.341   1.718  1.00  0.00    -0.352 N 
ATOM     33  C   UNL     1       4.631  -0.526   2.147  1.00  0.00     0.251 C 
ATOM     34  H   UNL     1       2.764  -0.062   1.612  1.00  0.00     0.163 HD
ATOM     35  O   UNL     1       4.332  -1.698   2.366  1.00  0.00    -0.269 OA
BRANCH  33  36
ATOM     36  C   UNL     1       6.043  -0.103   2.307  1.00  0.00     0.039 A 
ATOM     37  C   UNL     1       7.031  -0.938   1.775  1.00  0.00     0.014 A 
ATOM     38  C   UNL     1       6.420   1.046   3.008  1.00  0.00     0.014 A 
ATOM     39  C   UNL     1       8.382  -0.598   1.893  1.00  0.00     0.010 A 
ATOM     40  C   UNL     1       7.770   1.418   3.074  1.00  0.00     0.010 A 
ATOM     41  C   UNL     1       8.767   0.600   2.518  1.00  0.00    -0.014 A 
BRANCH  41  42
ATOM     42  C   UNL     1      10.206   0.984   2.575  1.00  0.00     0.031 A 
ATOM     43  C   UNL     1      10.939   1.059   3.888  1.00  0.00     0.074 A 
ATOM     44  C   UNL     1      10.865   1.272   1.434  1.00  0.00     0.049 A 
ATOM     45  N   UNL     1      12.196   1.349   4.119  1.00  0.00    -0.248 NA
ATOM     46  C   UNL     1      10.155   0.787   5.102  1.00  0.00     0.031 C 
ATOM     47  C   UNL     1      10.273   1.274   0.095  1.00  0.00     0.029 A 
ATOM     48  N   UNL     1      12.178   1.615   1.215  1.00  0.00    -0.354 N 
ATOM     49  C   UNL     1      12.353   1.298   5.499  1.00  0.00     0.074 A 
ATOM     50  C   UNL     1      11.050   1.000   6.056  1.00  0.00     0.031 C 
ATOM     51  C   UNL     1      11.223   1.571  -0.806  1.00  0.00     0.029 A 
ATOM     52  C   UNL     1      12.482   1.817  -0.110  1.00  0.00     0.049 A 
ATOM     53  H   UNL     1      12.838   1.707   1.940  1.00  0.00     0.167 HD
ATOM     54  C   UNL     1      13.480   1.460   6.234  1.00  0.00     0.037 A 
ATOM     55  C   UNL     1      13.642   2.164  -0.702  1.00  0.00     0.037 A 
ATOM     56  C   UNL     1      14.781   1.746   5.684  1.00  0.00     0.049 A 
ATOM     57  C   UNL     1      14.874   2.361   0.139  1.00  0.00     0.074 A 
ATOM     58  C   UNL     1      15.989   1.879   6.349  1.00  0.00     0.029 A 
ATOM     59  N   UNL     1      15.045   1.953   4.338  1.00  0.00    -0.354 N 
ATOM     60  N   UNL     1      15.019   2.238   1.436  1.00  0.00    -0.248 NA
ATOM     61  C   UNL     1      16.106   2.737  -0.569  1.00  0.00     0.031 C 
ATOM     62  C   UNL     1      16.972   2.219   5.414  1.00  0.00     0.029 A 
ATOM     63  C   UNL     1      16.390   2.238   4.157  1.00  0.00     0.049 A 
ATOM     64  H   UNL     1      14.376   1.904   3.617  1.00  0.00     0.167 HD
ATOM     65  C   UNL     1      16.361   2.490   1.694  1.00  0.00     0.074 A 
ATOM     66  C   UNL     1      16.990   2.757   0.418  1.00  0.00     0.031 C 
ATOM     67  C   UNL     1      17.012   2.498   2.883  1.00  0.00     0.037 A 
BRANCH  54  68
ATOM     68  C   UNL     1      13.358   1.336   7.728  1.00  0.00     0.057 A 
ATOM     69  C   UNL     1      13.102   0.106   8.350  1.00  0.00     0.134 A 
ATOM     70  C   UNL     1      13.541   2.450   8.557  1.00  0.00     0.134 A 
ATOM     71  F   UNL     1      12.910  -1.000   7.615  1.00  0.00    -0.206 F 
ATOM     72  C   UNL     1      13.004  -0.005   9.738  1.00  0.00     0.040 A 
ATOM     73  C   UNL     1      13.475   2.345   9.948  1.00  0.00     0.040 A 
ATOM     74  F   UNL     1      13.801   3.656   8.031  1.00  0.00    -0.206 F 
ATOM     75  C   UNL     1      13.198   1.116  10.542  1.00  0.00     0.006 A 
ENDBRANCH  54  68
BRANCH  55  76
ATOM     76  C   UNL     1      13.704   2.331  -2.177  1.00  0.00     0.057 A 
ATOM     77  C   UNL     1      14.426   1.440  -2.979  1.00  0.00     0.134 A 
ATOM     78  C   UNL     1      13.059   3.396  -2.818  1.00  0.00     0.134 A 
ATOM     79  F   UNL     1      15.084   0.412  -2.422  1.00  0.00    -0.206 F 
ATOM     80  C   UNL     1      14.524   1.613  -4.361  1.00  0.00     0.040 A 
ATOM     81  C   UNL     1      13.124   3.565  -4.202  1.00  0.00     0.040 A 
ATOM     82  F   UNL     1      12.345   4.282  -2.107  1.00  0.00    -0.206 F 
ATOM     83  C   UNL     1      13.867   2.676  -4.976  1.00  0.00     0.006 A 
ENDBRANCH  55  76
BRANCH  67  84
ATOM     84  C   UNL     1      18.491   2.764   2.859  1.00  0.00     0.057 A 
ATOM     85  C   UNL     1      19.016   4.027   2.556  1.00  0.00     0.134 A 
ATOM     86  C   UNL     1      19.403   1.746   3.170  1.00  0.00     0.134 A 
ATOM     87  F   UNL     1      18.201   5.043   2.236  1.00  0.00    -0.206 F 
ATOM     88  C   UNL     1      20.393   4.260   2.535  1.00  0.00     0.040 A 
ATOM     89  C   UNL     1      20.780   1.975   3.182  1.00  0.00     0.040 A 
ATOM     90  F   UNL     1      18.970   0.514   3.479  1.00  0.00    -0.206 F 
ATOM     91  C   UNL     1      21.279   3.233   2.856  1.00  0.00     0.006 A 
ENDBRANCH  67  84
ENDBRANCH  41  42
ENDBRANCH  33  36
ENDBRANCH  31  32
ENDBRANCH  30  31
ENDBRANCH  29  30
ENDBRANCH   1  29
TORSDOF 16
