REMARK SMILES Cn1cc(C[C@H](C(=O)NCCCCNC(=O)c2ccc(-c3c4nc(c(-c5c(F)cccc5F)c5ccc([nH]5)c(-c5c(F)cccc5F)c5nc(c(-c6c(F)cccc6F)c6ccc3[nH]6)C=C5)C=C4)cc2)c2ccc(F)cc2)cn1
REMARK SMILES IDX 11 1 10 2 9 3 7 4 8 5 6 7 5 8 4 9 1 10 2 11 3 12 79 13 78 14
REMARK SMILES IDX 71 15 72 16 77 17 73 18 76 19 74 20 75 21 12 22 13 23 14 24
REMARK SMILES IDX 15 25 16 27 17 28 18 29 70 30 19 31 69 32 20 33 21 34 22 35
REMARK SMILES IDX 63 36 23 37 68 38 62 39 64 40 24 41 67 42 61 43 60 44 25 46
REMARK SMILES IDX 51 47 34 48 50 49 35 50 38 51 49 52 65 53 36 54 37 55 48 57
REMARK SMILES IDX 66 58 39 59 26 60 27 61 32 62 28 63 29 64 31 65 33 66 30 67
REMARK SMILES IDX 52 68 53 69 58 70 54 71 55 72 57 73 59 74 56 75 40 76 41 77
REMARK SMILES IDX 46 78 42 79 43 80 45 81 47 82 44 83
REMARK H PARENT 9 6 14 26 64 45 38 56
REMARK Flexibility Score: inf
ROOT
ATOM      1  C   UNL     1       4.054  -4.554   0.323  1.00  0.00     0.023 C 
ENDROOT
BRANCH   1   2
ATOM      2  C   UNL     1       2.788  -3.851  -0.171  1.00  0.00     0.116 C 
BRANCH   2   3
ATOM      3  N   UNL     1       2.638  -2.563   0.469  1.00  0.00    -0.356 N 
ATOM      4  C   UNL     1       3.124  -1.346   0.085  1.00  0.00     0.227 C 
ATOM      5  O   UNL     1       3.050  -0.439   0.919  1.00  0.00    -0.274 OA
ATOM      6  H   UNL     1       2.111  -2.563   1.300  1.00  0.00     0.163 HD
BRANCH   4   7
ATOM      7  C   UNL     1       3.686  -1.116  -1.336  1.00  0.00     0.113 C 
BRANCH   7   8
ATOM      8  C   UNL     1       3.706   0.413  -1.559  1.00  0.00     0.057 C 
BRANCH   8   9
ATOM      9  C   UNL     1       3.967   0.931  -2.935  1.00  0.00    -0.009 A 
ATOM     10  C   UNL     1       4.357   3.514  -5.424  1.00  0.00     0.173 C 
ATOM     11  N   UNL     1       4.251   2.325  -4.615  1.00  0.00    -0.276 N 
ATOM     12  C   UNL     1       4.043   2.270  -3.272  1.00  0.00     0.112 A 
ATOM     13  N   UNL     1       4.327   1.112  -5.189  1.00  0.00    -0.182 NA
ATOM     14  C   UNL     1       4.162   0.267  -4.166  1.00  0.00     0.138 A 
ENDBRANCH   8   9
ENDBRANCH   7   8
BRANCH   7  15
ATOM     15  C   UNL     1       5.048  -1.782  -1.531  1.00  0.00    -0.035 A 
ATOM     16  C   UNL     1       5.173  -2.895  -2.388  1.00  0.00     0.007 A 
ATOM     17  C   UNL     1       6.185  -1.351  -0.827  1.00  0.00     0.007 A 
ATOM     18  C   UNL     1       6.378  -3.594  -2.484  1.00  0.00     0.039 A 
ATOM     19  C   UNL     1       7.398  -2.035  -0.949  1.00  0.00     0.039 A 
ATOM     20  C   UNL     1       7.479  -3.159  -1.760  1.00  0.00     0.123 A 
ATOM     21  F   UNL     1       8.630  -3.839  -1.837  1.00  0.00    -0.207 F 
ENDBRANCH   7  15
ENDBRANCH   4   7
ENDBRANCH   2   3
ENDBRANCH   1   2
BRANCH   1  22
ATOM     22  C   UNL     1       3.919  -5.205   1.700  1.00  0.00     0.023 C 
BRANCH  22  23
ATOM     23  C   UNL     1       2.967  -6.392   1.749  1.00  0.00     0.116 C 
BRANCH  23  24
ATOM     24  N   UNL     1       3.346  -7.473   0.853  1.00  0.00    -0.352 N 
ATOM     25  C   UNL     1       3.148  -8.824   1.013  1.00  0.00     0.251 C 
ATOM     26  H   UNL     1       3.803  -7.203   0.024  1.00  0.00     0.163 HD
ATOM     27  O   UNL     1       3.603  -9.623   0.206  1.00  0.00    -0.269 OA
BRANCH  25  28
ATOM     28  C   UNL     1       2.419  -9.302   2.205  1.00  0.00     0.039 A 
ATOM     29  C   UNL     1       3.005 -10.293   2.996  1.00  0.00     0.014 A 
ATOM     30  C   UNL     1       1.196  -8.733   2.568  1.00  0.00     0.014 A 
ATOM     31  C   UNL     1       2.396 -10.663   4.195  1.00  0.00     0.010 A 
ATOM     32  C   UNL     1       0.628  -9.052   3.796  1.00  0.00     0.010 A 
ATOM     33  C   UNL     1       1.225 -10.016   4.622  1.00  0.00    -0.014 A 
BRANCH  33  34
ATOM     34  C   UNL     1       0.612 -10.327   5.936  1.00  0.00     0.031 A 
ATOM     35  C   UNL     1      -0.754 -10.948   5.998  1.00  0.00     0.074 A 
ATOM     36  C   UNL     1       1.253  -9.981   7.068  1.00  0.00     0.049 A 
ATOM     37  N   UNL     1      -1.491 -11.220   7.044  1.00  0.00    -0.248 NA
ATOM     38  C   UNL     1      -1.389 -11.279   4.712  1.00  0.00     0.031 C 
ATOM     39  C   UNL     1       2.559  -9.321   7.136  1.00  0.00     0.029 A 
ATOM     40  N   UNL     1       0.885 -10.125   8.382  1.00  0.00    -0.354 N 
ATOM     41  C   UNL     1      -2.679 -11.735   6.544  1.00  0.00     0.074 A 
ATOM     42  C   UNL     1      -2.586 -11.692   5.101  1.00  0.00     0.031 C 
ATOM     43  C   UNL     1       2.891  -9.137   8.424  1.00  0.00     0.029 A 
ATOM     44  C   UNL     1       1.812  -9.636   9.270  1.00  0.00     0.049 A 
ATOM     45  H   UNL     1       0.037 -10.539   8.662  1.00  0.00     0.167 HD
ATOM     46  C   UNL     1      -3.743 -12.222   7.226  1.00  0.00     0.037 A 
ATOM     47  C   UNL     1       1.790  -9.592  10.615  1.00  0.00     0.037 A 
ATOM     48  C   UNL     1      -3.817 -12.297   8.660  1.00  0.00     0.049 A 
ATOM     49  C   UNL     1       0.605 -10.155  11.349  1.00  0.00     0.074 A 
ATOM     50  C   UNL     1      -4.821 -12.838   9.444  1.00  0.00     0.029 A 
ATOM     51  N   UNL     1      -2.846 -11.819   9.526  1.00  0.00    -0.354 N 
ATOM     52  N   UNL     1      -0.484 -10.701  10.863  1.00  0.00    -0.248 NA
ATOM     53  C   UNL     1       0.647 -10.098  12.817  1.00  0.00     0.031 C 
ATOM     54  C   UNL     1      -4.471 -12.658  10.787  1.00  0.00     0.029 A 
ATOM     55  C   UNL     1      -3.233 -12.037  10.837  1.00  0.00     0.049 A 
ATOM     56  H   UNL     1      -2.005 -11.387   9.249  1.00  0.00     0.167 HD
ATOM     57  C   UNL     1      -1.245 -11.074  11.963  1.00  0.00     0.074 A 
ATOM     58  C   UNL     1      -0.487 -10.704  13.141  1.00  0.00     0.031 C 
ATOM     59  C   UNL     1      -2.462 -11.667  11.995  1.00  0.00     0.037 A 
BRANCH  46  60
ATOM     60  C   UNL     1      -4.905 -12.722   6.422  1.00  0.00     0.057 A 
ATOM     61  C   UNL     1      -4.835 -13.913   5.688  1.00  0.00     0.134 A 
ATOM     62  C   UNL     1      -6.117 -12.020   6.401  1.00  0.00     0.134 A 
ATOM     63  F   UNL     1      -3.698 -14.625   5.656  1.00  0.00    -0.206 F 
ATOM     64  C   UNL     1      -5.920 -14.376   4.942  1.00  0.00     0.040 A 
ATOM     65  C   UNL     1      -7.216 -12.485   5.678  1.00  0.00     0.040 A 
ATOM     66  F   UNL     1      -6.252 -10.873   7.085  1.00  0.00    -0.206 F 
ATOM     67  C   UNL     1      -7.117 -13.664   4.941  1.00  0.00     0.006 A 
ENDBRANCH  46  60
BRANCH  47  68
ATOM     68  C   UNL     1       2.938  -9.020  11.360  1.00  0.00     0.057 A 
ATOM     69  C   UNL     1       3.808  -9.845  12.083  1.00  0.00     0.134 A 
ATOM     70  C   UNL     1       3.190  -7.644  11.374  1.00  0.00     0.134 A 
ATOM     71  F   UNL     1       3.606 -11.170  12.121  1.00  0.00    -0.206 F 
ATOM     72  C   UNL     1       4.877  -9.319  12.810  1.00  0.00     0.040 A 
ATOM     73  C   UNL     1       4.268  -7.107  12.079  1.00  0.00     0.040 A 
ATOM     74  F   UNL     1       2.397  -6.803  10.694  1.00  0.00    -0.206 F 
ATOM     75  C   UNL     1       5.112  -7.946  12.806  1.00  0.00     0.006 A 
ENDBRANCH  47  68
BRANCH  59  76
ATOM     76  C   UNL     1      -3.036 -11.976  13.345  1.00  0.00     0.057 A 
ATOM     77  C   UNL     1      -3.565 -10.973  14.166  1.00  0.00     0.134 A 
ATOM     78  C   UNL     1      -3.097 -13.296  13.809  1.00  0.00     0.134 A 
ATOM     79  F   UNL     1      -3.523  -9.688  13.783  1.00  0.00    -0.206 F 
ATOM     80  C   UNL     1      -4.118 -11.270  15.412  1.00  0.00     0.040 A 
ATOM     81  C   UNL     1      -3.668 -13.607  15.043  1.00  0.00     0.040 A 
ATOM     82  F   UNL     1      -2.614 -14.302  13.066  1.00  0.00    -0.206 F 
ATOM     83  C   UNL     1      -4.177 -12.592  15.850  1.00  0.00     0.006 A 
ENDBRANCH  59  76
ENDBRANCH  33  34
ENDBRANCH  25  28
ENDBRANCH  23  24
ENDBRANCH  22  23
ENDBRANCH   1  22
TORSDOF 14
