REMARK SMILES Cc1cc2c(c(C)c1Cl)C=C(C(=O)NCCCCNC(=O)c1ccc(-c3c4nc(c(-c5c(F)cccc5F)c5ccc([nH]5)c(-c5c(F)cccc5F)c5nc(c(-c6c(F)cccc6F)c6ccc3[nH]6)C=C5)C=C4)cc1)[C@@H](C(F)(F)F)O2
REMARK SMILES IDX 17 1 16 2 15 3 14 4 12 5 13 6 11 8 1 9 2 10 3 11 8 12 4 13
REMARK SMILES IDX 6 14 9 15 5 16 81 17 7 18 10 19 76 20 77 21 78 22 79 23
REMARK SMILES IDX 80 24 18 25 19 26 20 27 21 29 22 30 23 31 75 32 24 33 74 34
REMARK SMILES IDX 25 35 26 36 27 37 68 38 28 39 73 40 67 41 69 42 29 43 72 44
REMARK SMILES IDX 66 45 65 46 30 48 56 49 39 50 55 51 40 52 43 53 54 54 70 55
REMARK SMILES IDX 41 56 42 57 53 59 71 60 44 61 31 62 32 63 37 64 33 65 34 66
REMARK SMILES IDX 36 67 38 68 35 69 57 70 58 71 63 72 59 73 60 74 62 75 64 76
REMARK SMILES IDX 61 77 45 78 46 79 51 80 47 81 48 82 50 83 52 84 49 85
REMARK H PARENT 14 7 19 28 69 47 43 58
REMARK Flexibility Score: inf
ROOT
ATOM      1  C   UNL     1      -5.086   5.965  -7.091  1.00  0.00     0.023 C 
ENDROOT
BRANCH   1   2
ATOM      2  C   UNL     1      -4.357   4.894  -6.276  1.00  0.00     0.023 C 
BRANCH   2   3
ATOM      3  C   UNL     1      -2.844   4.884  -6.470  1.00  0.00     0.116 C 
BRANCH   3   4
ATOM      4  N   UNL     1      -2.180   5.836  -5.597  1.00  0.00    -0.352 N 
ATOM      5  C   UNL     1      -1.426   5.790  -4.474  1.00  0.00     0.251 C 
ATOM      6  O   UNL     1      -1.063   6.891  -4.045  1.00  0.00    -0.270 OA
ATOM      7  H   UNL     1      -2.316   6.762  -5.903  1.00  0.00     0.163 HD
BRANCH   5   8
ATOM      8  C   UNL     1      -1.018   4.546  -3.753  1.00  0.00     0.067 C 
ATOM      9  C   UNL     1       1.203  -0.026   0.322  1.00  0.00     0.046 C 
ATOM     10  C   UNL     1       0.834   1.244  -0.395  1.00  0.00    -0.028 A 
ATOM     11  C   UNL     1       0.009   1.162  -1.519  1.00  0.00     0.052 A 
ATOM     12  C   UNL     1       1.282   2.512   0.029  1.00  0.00     0.047 A 
ATOM     13  C   UNL     1      -0.353   2.310  -2.216  1.00  0.00     0.128 A 
ATOM     14  C   UNL     1       0.914   3.691  -0.666  1.00  0.00    -0.021 A 
ATOM     15  Cl  UNL     1       2.294   2.595   1.441  1.00  0.00    -0.084 Cl
ATOM     16  C   UNL     1       0.079   3.575  -1.805  1.00  0.00     0.022 A 
ATOM     17  O   UNL     1      -1.183   2.110  -3.281  1.00  0.00    -0.475 OA
ATOM     18  C   UNL     1       1.383   5.057  -0.223  1.00  0.00     0.047 C 
ATOM     19  C   UNL     1      -0.400   4.731  -2.572  1.00  0.00     0.026 C 
ATOM     20  C   UNL     1      -1.219   3.158  -4.282  1.00  0.00     0.314 C 
BRANCH  20  21
ATOM     21  C   UNL     1      -0.246   2.807  -5.424  1.00  0.00     0.429 C 
ATOM     22  F   UNL     1      -0.672   1.700  -6.082  1.00  0.00    -0.167 F 
ATOM     23  F   UNL     1      -0.157   3.790  -6.351  1.00  0.00    -0.167 F 
ATOM     24  F   UNL     1       1.008   2.562  -4.985  1.00  0.00    -0.167 F 
ENDBRANCH  20  21
ENDBRANCH   5   8
ENDBRANCH   3   4
ENDBRANCH   2   3
ENDBRANCH   1   2
BRANCH   1  25
ATOM     25  C   UNL     1      -4.828   5.931  -8.597  1.00  0.00     0.116 C 
BRANCH  25  26
ATOM     26  N   UNL     1      -5.041   4.624  -9.201  1.00  0.00    -0.352 N 
ATOM     27  C   UNL     1      -5.458   4.338 -10.478  1.00  0.00     0.251 C 
ATOM     28  H   UNL     1      -4.863   3.847  -8.622  1.00  0.00     0.163 HD
ATOM     29  O   UNL     1      -5.671   3.183 -10.828  1.00  0.00    -0.269 OA
BRANCH  27  30
ATOM     30  C   UNL     1      -5.690   5.454 -11.414  1.00  0.00     0.039 A 
ATOM     31  C   UNL     1      -6.940   5.571 -12.025  1.00  0.00     0.014 A 
ATOM     32  C   UNL     1      -4.696   6.411 -11.629  1.00  0.00     0.014 A 
ATOM     33  C   UNL     1      -7.222   6.696 -12.800  1.00  0.00     0.010 A 
ATOM     34  C   UNL     1      -4.996   7.558 -12.354  1.00  0.00     0.010 A 
ATOM     35  C   UNL     1      -6.264   7.714 -12.936  1.00  0.00    -0.014 A 
BRANCH  35  36
ATOM     36  C   UNL     1      -6.562   8.960 -13.679  1.00  0.00     0.031 A 
ATOM     37  C   UNL     1      -5.830   9.261 -14.953  1.00  0.00     0.074 A 
ATOM     38  C   UNL     1      -7.430   9.851 -13.165  1.00  0.00     0.049 A 
ATOM     39  N   UNL     1      -5.851  10.347 -15.681  1.00  0.00    -0.248 NA
ATOM     40  C   UNL     1      -4.935   8.209 -15.461  1.00  0.00     0.031 C 
ATOM     41  C   UNL     1      -8.181   9.681 -11.920  1.00  0.00     0.029 A 
ATOM     42  N   UNL     1      -7.814  11.086 -13.620  1.00  0.00    -0.354 N 
ATOM     43  C   UNL     1      -4.963  10.116 -16.723  1.00  0.00     0.074 A 
ATOM     44  C   UNL     1      -4.388   8.805 -16.510  1.00  0.00     0.031 C 
ATOM     45  C   UNL     1      -8.950  10.764 -11.721  1.00  0.00     0.029 A 
ATOM     46  C   UNL     1      -8.716  11.719 -12.800  1.00  0.00     0.049 A 
ATOM     47  H   UNL     1      -7.476  11.482 -14.455  1.00  0.00     0.167 HD
ATOM     48  C   UNL     1      -4.670  10.918 -17.773  1.00  0.00     0.037 A 
ATOM     49  C   UNL     1      -9.284  12.935 -12.905  1.00  0.00     0.037 A 
ATOM     50  C   UNL     1      -5.259  12.212 -17.992  1.00  0.00     0.049 A 
ATOM     51  C   UNL     1      -8.935  13.811 -14.074  1.00  0.00     0.074 A 
ATOM     52  C   UNL     1      -5.050  13.088 -19.042  1.00  0.00     0.029 A 
ATOM     53  N   UNL     1      -6.180  12.812 -17.146  1.00  0.00    -0.354 N 
ATOM     54  N   UNL     1      -8.110  13.574 -15.064  1.00  0.00    -0.248 NA
ATOM     55  C   UNL     1      -9.595  15.122 -14.141  1.00  0.00     0.031 C 
ATOM     56  C   UNL     1      -5.823  14.232 -18.817  1.00  0.00     0.029 A 
ATOM     57  C   UNL     1      -6.543  14.051 -17.646  1.00  0.00     0.049 A 
ATOM     58  H   UNL     1      -6.524  12.415 -16.313  1.00  0.00     0.167 HD
ATOM     59  C   UNL     1      -8.166  14.694 -15.883  1.00  0.00     0.074 A 
ATOM     60  C   UNL     1      -9.115  15.606 -15.278  1.00  0.00     0.031 C 
ATOM     61  C   UNL     1      -7.492  14.943 -17.032  1.00  0.00     0.037 A 
BRANCH  48  62
ATOM     62  C   UNL     1      -3.668  10.410 -18.767  1.00  0.00     0.057 A 
ATOM     63  C   UNL     1      -3.977   9.372 -19.655  1.00  0.00     0.134 A 
ATOM     64  C   UNL     1      -2.392  10.979 -18.855  1.00  0.00     0.134 A 
ATOM     65  F   UNL     1      -5.177   8.773 -19.610  1.00  0.00    -0.206 F 
ATOM     66  C   UNL     1      -3.046   8.904 -20.583  1.00  0.00     0.040 A 
ATOM     67  C   UNL     1      -1.460  10.537 -19.795  1.00  0.00     0.040 A 
ATOM     68  F   UNL     1      -2.033  11.978 -18.034  1.00  0.00    -0.206 F 
ATOM     69  C   UNL     1      -1.785   9.492 -20.659  1.00  0.00     0.006 A 
ENDBRANCH  48  62
BRANCH  49  70
ATOM     70  C   UNL     1     -10.267  13.377 -11.886  1.00  0.00     0.057 A 
ATOM     71  C   UNL     1     -11.632  13.432 -12.185  1.00  0.00     0.134 A 
ATOM     72  C   UNL     1      -9.873  13.730 -10.590  1.00  0.00     0.134 A 
ATOM     73  F   UNL     1     -12.065  13.122 -13.416  1.00  0.00    -0.206 F 
ATOM     74  C   UNL     1     -12.573  13.829 -11.234  1.00  0.00     0.040 A 
ATOM     75  C   UNL     1     -10.806  14.110  -9.623  1.00  0.00     0.040 A 
ATOM     76  F   UNL     1      -8.579  13.691 -10.240  1.00  0.00    -0.206 F 
ATOM     77  C   UNL     1     -12.161  14.162  -9.946  1.00  0.00     0.006 A 
ENDBRANCH  49  70
BRANCH  61  78
ATOM     78  C   UNL     1      -7.774  16.242 -17.725  1.00  0.00     0.057 A 
ATOM     79  C   UNL     1      -7.276  17.458 -17.242  1.00  0.00     0.134 A 
ATOM     80  C   UNL     1      -8.508  16.268 -18.917  1.00  0.00     0.134 A 
ATOM     81  F   UNL     1      -6.576  17.500 -16.099  1.00  0.00    -0.206 F 
ATOM     82  C   UNL     1      -7.511  18.658 -17.915  1.00  0.00     0.040 A 
ATOM     83  C   UNL     1      -8.731  17.458 -19.610  1.00  0.00     0.040 A 
ATOM     84  F   UNL     1      -9.006  15.135 -19.436  1.00  0.00    -0.206 F 
ATOM     85  C   UNL     1      -8.234  18.659 -19.107  1.00  0.00     0.006 A 
ENDBRANCH  61  78
ENDBRANCH  35  36
ENDBRANCH  27  30
ENDBRANCH  25  26
ENDBRANCH   1  25
TORSDOF 12
