REMARK SMILES COCCNC(=O)N[C@H]1CCCCC[C@@H]1C(=O)NCCCCNC(=O)c1ccc(-c2c3nc(c(-c4c(F)cccc4F)c4ccc([nH]4)c(-c4c(F)cccc4F)c4nc(c(-c5c(F)cccc5F)c5ccc2[nH]5)C=C4)C=C3)cc1
REMARK SMILES IDX 19 1 18 2 16 3 17 4 15 6 9 7 8 8 5 9 6 10 7 12 4 14 3 15
REMARK SMILES IDX 2 16 1 17 10 18 11 19 14 21 13 22 12 23 20 25 21 26 22 27
REMARK SMILES IDX 23 28 24 29 25 31 26 32 27 33 79 34 28 35 78 36 29 37 30 38
REMARK SMILES IDX 31 39 72 40 32 41 77 42 71 43 73 44 33 45 76 46 70 47 69 48
REMARK SMILES IDX 34 50 60 51 43 52 59 53 44 54 47 55 58 56 74 57 45 58 46 59
REMARK SMILES IDX 57 61 75 62 48 63 35 64 36 65 41 66 37 67 38 68 40 69 42 70
REMARK SMILES IDX 39 71 61 72 62 73 67 74 63 75 64 76 66 77 68 78 65 79 49 80
REMARK SMILES IDX 50 81 55 82 51 83 52 84 54 85 56 86 53 87
REMARK H PARENT 18 5 5 11 8 13 23 30 73 49 47 60
REMARK Flexibility Score: 100.00
ROOT
ATOM      1  C   UNL     1       3.284   0.340   6.453  1.00  0.00     0.116 C 
ENDROOT
BRANCH   1   2
ATOM      2  N   UNL     1       1.965  -0.239   6.285  1.00  0.00    -0.356 N 
ATOM      3  C   UNL     1       0.815   0.315   5.789  1.00  0.00     0.225 C 
ATOM      4  O   UNL     1      -0.116  -0.454   5.531  1.00  0.00    -0.275 OA
ATOM      5  H   UNL     1       1.883  -1.177   6.573  1.00  0.00     0.163 HD
BRANCH   3   6
ATOM      6  C   UNL     1       0.615   1.835   5.650  1.00  0.00     0.101 C 
BRANCH   6   7
ATOM      7  C   UNL     1       1.621   2.494   4.689  1.00  0.00     0.096 C 
BRANCH   7   8
ATOM      8  N   UNL     1       1.503   2.125   3.291  1.00  0.00    -0.335 N 
ATOM      9  N   UNL     1       3.736   2.425   2.524  1.00  0.00    -0.336 N 
ATOM     10  C   UNL     1       2.440   2.126   2.322  1.00  0.00     0.315 C 
ATOM     11  H   UNL     1       4.251   2.345   1.689  1.00  0.00     0.165 HD
ATOM     12  O   UNL     1       2.096   1.845   1.172  1.00  0.00    -0.249 OA
ATOM     13  H   UNL     1       0.607   1.832   3.008  1.00  0.00     0.165 HD
BRANCH   9  14
ATOM     14  C   UNL     1       4.601   2.835   3.637  1.00  0.00     0.146 C 
BRANCH  14  15
ATOM     15  C   UNL     1       5.831   1.933   3.786  1.00  0.00     0.181 C 
BRANCH  15  16
ATOM     16  O   UNL     1       7.046   2.604   3.456  1.00  0.00    -0.383 OA
ATOM     17  C   UNL     1       7.128   2.990   2.093  1.00  0.00     0.194 C 
ENDBRANCH  15  16
ENDBRANCH  14  15
ENDBRANCH   9  14
ENDBRANCH   7   8
BRANCH   7  18
ATOM     18  C   UNL     1       1.788   4.018   4.811  1.00  0.00     0.026 C 
BRANCH  18  19
ATOM     19  C   UNL     1       0.518   4.806   5.099  1.00  0.00     0.002 CG0
ATOM     20  G   UNL     1       0.275   4.939   6.597  1.00  0.00     0.000 G0
ENDBRANCH  18  19
ENDBRANCH   7  18
ENDBRANCH   6   7
BRANCH   6  21
ATOM     21  C   UNL     1       0.632   2.430   7.076  1.00  0.00     0.015 C 
BRANCH  21  22
ATOM     22  C   UNL     1      -0.239   3.671   7.264  1.00  0.00     0.001 C 
BRANCH  22  23
ATOM     23  C   UNL     1       0.275   4.939   6.597  1.00  0.00     0.000 CG0
ATOM     24  G   UNL     1       0.518   4.806   5.099  1.00  0.00     0.000 G0
ENDBRANCH  22  23
ENDBRANCH  21  22
ENDBRANCH   6  21
ENDBRANCH   3   6
ENDBRANCH   1   2
BRANCH   1  25
ATOM     25  C   UNL     1       4.074  -0.148   7.657  1.00  0.00     0.023 C 
BRANCH  25  26
ATOM     26  C   UNL     1       4.436  -1.625   7.679  1.00  0.00     0.023 C 
BRANCH  26  27
ATOM     27  C   UNL     1       5.114  -2.167   6.426  1.00  0.00     0.116 C 
BRANCH  27  28
ATOM     28  N   UNL     1       6.382  -1.523   6.115  1.00  0.00    -0.352 N 
ATOM     29  C   UNL     1       7.652  -2.051   6.001  1.00  0.00     0.251 C 
ATOM     30  H   UNL     1       6.325  -0.552   5.961  1.00  0.00     0.163 HD
ATOM     31  O   UNL     1       8.604  -1.314   5.815  1.00  0.00    -0.269 OA
BRANCH  29  32
ATOM     32  C   UNL     1       7.867  -3.509   6.158  1.00  0.00     0.039 A 
ATOM     33  C   UNL     1       8.923  -3.945   6.965  1.00  0.00     0.014 A 
ATOM     34  C   UNL     1       7.029  -4.439   5.543  1.00  0.00     0.014 A 
ATOM     35  C   UNL     1       9.069  -5.307   7.239  1.00  0.00     0.010 A 
ATOM     36  C   UNL     1       7.117  -5.783   5.892  1.00  0.00     0.010 A 
ATOM     37  C   UNL     1       8.131  -6.232   6.751  1.00  0.00    -0.014 A 
BRANCH  37  38
ATOM     38  C   UNL     1       8.178  -7.663   7.145  1.00  0.00     0.031 A 
ATOM     39  C   UNL     1       8.372  -8.732   6.106  1.00  0.00     0.074 A 
ATOM     40  C   UNL     1       7.962  -8.008   8.430  1.00  0.00     0.049 A 
ATOM     41  N   UNL     1       8.369 -10.034   6.247  1.00  0.00    -0.248 NA
ATOM     42  C   UNL     1       8.564  -8.279   4.720  1.00  0.00     0.031 C 
ATOM     43  C   UNL     1       7.710  -7.072   9.527  1.00  0.00     0.029 A 
ATOM     44  N   UNL     1       7.913  -9.242   9.030  1.00  0.00    -0.354 N 
ATOM     45  C   UNL     1       8.536 -10.552   4.970  1.00  0.00     0.074 A 
ATOM     46  C   UNL     1       8.582  -9.427   4.061  1.00  0.00     0.031 C 
ATOM     47  C   UNL     1       7.566  -7.762  10.670  1.00  0.00     0.029 A 
ATOM     48  C   UNL     1       7.673  -9.189  10.381  1.00  0.00     0.049 A 
ATOM     49  H   UNL     1       8.037 -10.085   8.537  1.00  0.00     0.167 HD
ATOM     50  C   UNL     1       8.663 -11.846   4.589  1.00  0.00     0.037 A 
ATOM     51  C   UNL     1       7.549 -10.177  11.287  1.00  0.00     0.037 A 
ATOM     52  C   UNL     1       8.641 -12.963   5.498  1.00  0.00     0.049 A 
ATOM     53  C   UNL     1       7.681 -11.606  10.841  1.00  0.00     0.074 A 
ATOM     54  C   UNL     1       8.838 -14.304   5.221  1.00  0.00     0.029 A 
ATOM     55  N   UNL     1       8.397 -12.867   6.860  1.00  0.00    -0.354 N 
ATOM     56  N   UNL     1       7.918 -12.079   9.641  1.00  0.00    -0.248 NA
ATOM     57  C   UNL     1       7.528 -12.639  11.875  1.00  0.00     0.031 C 
ATOM     58  C   UNL     1       8.661 -15.026   6.406  1.00  0.00     0.029 A 
ATOM     59  C   UNL     1       8.408 -14.130   7.432  1.00  0.00     0.049 A 
ATOM     60  H   UNL     1       8.240 -12.027   7.349  1.00  0.00     0.167 HD
ATOM     61  C   UNL     1       7.972 -13.460   9.780  1.00  0.00     0.074 A 
ATOM     62  C   UNL     1       7.752 -13.747  11.183  1.00  0.00     0.031 C 
ATOM     63  C   UNL     1       8.187 -14.403   8.830  1.00  0.00     0.037 A 
BRANCH  50  64
ATOM     64  C   UNL     1       8.830 -12.117   3.121  1.00  0.00     0.057 A 
ATOM     65  C   UNL     1       9.990 -11.751   2.425  1.00  0.00     0.134 A 
ATOM     66  C   UNL     1       7.819 -12.759   2.394  1.00  0.00     0.134 A 
ATOM     67  F   UNL     1      10.992 -11.122   3.057  1.00  0.00    -0.206 F 
ATOM     68  C   UNL     1      10.122 -11.976   1.053  1.00  0.00     0.040 A 
ATOM     69  C   UNL     1       7.952 -13.019   1.029  1.00  0.00     0.040 A 
ATOM     70  F   UNL     1       6.685 -13.146   2.998  1.00  0.00    -0.206 F 
ATOM     71  C   UNL     1       9.102 -12.617   0.353  1.00  0.00     0.006 A 
ENDBRANCH  50  64
BRANCH  51  72
ATOM     72  C   UNL     1       7.324  -9.846  12.717  1.00  0.00     0.057 A 
ATOM     73  C   UNL     1       8.336 -10.039  13.664  1.00  0.00     0.134 A 
ATOM     74  C   UNL     1       6.108  -9.322  13.169  1.00  0.00     0.134 A 
ATOM     75  F   UNL     1       9.517 -10.556  13.294  1.00  0.00    -0.206 F 
ATOM     76  C   UNL     1       8.144  -9.733  15.012  1.00  0.00     0.040 A 
ATOM     77  C   UNL     1       5.910  -8.989  14.510  1.00  0.00     0.040 A 
ATOM     78  F   UNL     1       5.101  -9.107  12.309  1.00  0.00    -0.206 F 
ATOM     79  C   UNL     1       6.929  -9.200  15.437  1.00  0.00     0.006 A 
ENDBRANCH  51  72
BRANCH  63  80
ATOM     80  C   UNL     1       8.226 -15.835   9.281  1.00  0.00     0.057 A 
ATOM     81  C   UNL     1       7.069 -16.520   9.675  1.00  0.00     0.134 A 
ATOM     82  C   UNL     1       9.432 -16.548   9.283  1.00  0.00     0.134 A 
ATOM     83  F   UNL     1       5.885 -15.890   9.709  1.00  0.00    -0.206 F 
ATOM     84  C   UNL     1       7.114 -17.856  10.076  1.00  0.00     0.040 A 
ATOM     85  C   UNL     1       9.485 -17.892   9.655  1.00  0.00     0.040 A 
ATOM     86  F   UNL     1      10.575 -15.954   8.910  1.00  0.00    -0.206 F 
ATOM     87  C   UNL     1       8.324 -18.548  10.059  1.00  0.00     0.006 A 
ENDBRANCH  63  80
ENDBRANCH  37  38
ENDBRANCH  29  32
ENDBRANCH  27  28
ENDBRANCH  26  27
ENDBRANCH  25  26
ENDBRANCH   1  25
TORSDOF 15
