REMARK SMILES O=C(NCCCCNC(=O)c1cc(F)ccc1NS(=O)(=O)c1ccc(Cl)s1)c1ccc(-c2c3nc(c(-c4c(F)cccc4F)c4ccc([nH]4)c(-c4c(F)cccc4F)c4nc(c(-c5c(F)cccc5F)c5ccc2[nH]5)C=C4)C=C3)cc1
REMARK SMILES IDX 6 1 5 2 4 3 3 4 1 5 2 6 28 8 29 9 81 10 30 11 80 12 31 13
REMARK SMILES IDX 32 14 33 15 74 16 34 17 79 18 73 19 75 20 35 21 78 22 72 23
REMARK SMILES IDX 71 24 36 26 62 27 45 28 61 29 46 30 49 31 60 32 76 33 47 34
REMARK SMILES IDX 48 35 59 37 77 38 50 39 37 40 38 41 43 42 39 43 40 44 42 45
REMARK SMILES IDX 44 46 41 47 63 48 64 49 69 50 65 51 66 52 68 53 70 54 67 55
REMARK SMILES IDX 51 56 52 57 57 58 53 59 54 60 56 61 58 62 55 63 7 64 8 65
REMARK SMILES IDX 9 66 10 68 11 69 12 70 17 71 13 72 16 73 14 74 15 75 18 76
REMARK SMILES IDX 19 78 20 79 21 80 22 81 23 82 27 83 24 84 25 85 26 86
REMARK H PARENT 3 7 75 25 49 36 8 67 18 77
REMARK Flexibility Score: inf
ROOT
ATOM      1  C   UNL     1       4.580   2.300   3.196  1.00  0.00     0.023 C 
ENDROOT
BRANCH   1   2
ATOM      2  C   UNL     1       5.052   2.054   1.765  1.00  0.00     0.023 C 
BRANCH   2   3
ATOM      3  C   UNL     1       4.706   0.684   1.196  1.00  0.00     0.116 C 
BRANCH   3   4
ATOM      4  N   UNL     1       3.274   0.442   1.129  1.00  0.00    -0.352 N 
ATOM      5  O   UNL     1       1.291   0.001   0.147  1.00  0.00    -0.269 OA
ATOM      6  C   UNL     1       2.514   0.028   0.061  1.00  0.00     0.251 C 
ATOM      7  H   UNL     1       2.779   0.595   1.966  1.00  0.00     0.163 HD
BRANCH   6   8
ATOM      8  C   UNL     1       3.176  -0.360  -1.203  1.00  0.00     0.039 A 
ATOM      9  C   UNL     1       4.291  -1.202  -1.195  1.00  0.00     0.014 A 
ATOM     10  C   UNL     1       2.668   0.124  -2.412  1.00  0.00     0.014 A 
ATOM     11  C   UNL     1       4.975  -1.452  -2.380  1.00  0.00     0.010 A 
ATOM     12  C   UNL     1       3.311  -0.192  -3.611  1.00  0.00     0.010 A 
ATOM     13  C   UNL     1       4.484  -0.963  -3.601  1.00  0.00    -0.014 A 
BRANCH  13  14
ATOM     14  C   UNL     1       5.167  -1.338  -4.863  1.00  0.00     0.031 A 
ATOM     15  C   UNL     1       5.860  -0.311  -5.711  1.00  0.00     0.074 A 
ATOM     16  C   UNL     1       5.168  -2.634  -5.230  1.00  0.00     0.049 A 
ATOM     17  N   UNL     1       6.493  -0.477  -6.845  1.00  0.00    -0.248 NA
ATOM     18  C   UNL     1       5.839   1.080  -5.234  1.00  0.00     0.031 C 
ATOM     19  C   UNL     1       4.519  -3.718  -4.487  1.00  0.00     0.029 A 
ATOM     20  N   UNL     1       5.737  -3.264  -6.306  1.00  0.00    -0.354 N 
ATOM     21  C   UNL     1       6.931   0.784  -7.225  1.00  0.00     0.074 A 
ATOM     22  C   UNL     1       6.477   1.712  -6.211  1.00  0.00     0.031 C 
ATOM     23  C   UNL     1       4.759  -4.881  -5.107  1.00  0.00     0.029 A 
ATOM     24  C   UNL     1       5.524  -4.620  -6.322  1.00  0.00     0.049 A 
ATOM     25  H   UNL     1       6.249  -2.789  -7.000  1.00  0.00     0.167 HD
ATOM     26  C   UNL     1       7.652   1.130  -8.318  1.00  0.00     0.037 A 
ATOM     27  C   UNL     1       5.882  -5.552  -7.223  1.00  0.00     0.037 A 
ATOM     28  C   UNL     1       8.121   0.197  -9.310  1.00  0.00     0.049 A 
ATOM     29  C   UNL     1       6.654  -5.136  -8.439  1.00  0.00     0.074 A 
ATOM     30  C   UNL     1       8.903   0.449 -10.424  1.00  0.00     0.029 A 
ATOM     31  N   UNL     1       7.849  -1.162  -9.311  1.00  0.00    -0.354 N 
ATOM     32  N   UNL     1       7.084  -3.943  -8.770  1.00  0.00    -0.248 NA
ATOM     33  C   UNL     1       6.981  -6.187  -9.412  1.00  0.00     0.031 C 
ATOM     34  C   UNL     1       9.068  -0.750 -11.123  1.00  0.00     0.029 A 
ATOM     35  C   UNL     1       8.425  -1.757 -10.423  1.00  0.00     0.049 A 
ATOM     36  H   UNL     1       7.326  -1.635  -8.625  1.00  0.00     0.167 HD
ATOM     37  C   UNL     1       7.735  -4.098  -9.985  1.00  0.00     0.074 A 
ATOM     38  C   UNL     1       7.661  -5.505 -10.324  1.00  0.00     0.031 C 
ATOM     39  C   UNL     1       8.335  -3.156 -10.751  1.00  0.00     0.037 A 
BRANCH  26  40
ATOM     40  C   UNL     1       7.984   2.579  -8.516  1.00  0.00     0.057 A 
ATOM     41  C   UNL     1       7.367   3.317  -9.534  1.00  0.00     0.134 A 
ATOM     42  C   UNL     1       8.982   3.215  -7.768  1.00  0.00     0.134 A 
ATOM     43  F   UNL     1       6.410   2.763 -10.293  1.00  0.00    -0.206 F 
ATOM     44  C   UNL     1       7.742   4.633  -9.811  1.00  0.00     0.040 A 
ATOM     45  C   UNL     1       9.352   4.537  -8.023  1.00  0.00     0.040 A 
ATOM     46  F   UNL     1       9.605   2.564  -6.774  1.00  0.00    -0.206 F 
ATOM     47  C   UNL     1       8.739   5.246  -9.055  1.00  0.00     0.006 A 
ENDBRANCH  26  40
BRANCH  27  48
ATOM     48  C   UNL     1       5.496  -6.966  -6.999  1.00  0.00     0.057 A 
ATOM     49  C   UNL     1       4.159  -7.376  -7.087  1.00  0.00     0.134 A 
ATOM     50  C   UNL     1       6.446  -7.926  -6.640  1.00  0.00     0.134 A 
ATOM     51  F   UNL     1       3.202  -6.497  -7.418  1.00  0.00    -0.206 F 
ATOM     52  C   UNL     1       3.777  -8.687  -6.801  1.00  0.00     0.040 A 
ATOM     53  C   UNL     1       6.081  -9.247  -6.374  1.00  0.00     0.040 A 
ATOM     54  F   UNL     1       7.742  -7.595  -6.554  1.00  0.00    -0.206 F 
ATOM     55  C   UNL     1       4.741  -9.627  -6.445  1.00  0.00     0.006 A 
ENDBRANCH  27  48
BRANCH  39  56
ATOM     56  C   UNL     1       8.962  -3.609 -12.034  1.00  0.00     0.057 A 
ATOM     57  C   UNL     1      10.354  -3.675 -12.167  1.00  0.00     0.134 A 
ATOM     58  C   UNL     1       8.185  -3.910 -13.159  1.00  0.00     0.134 A 
ATOM     59  F   UNL     1      11.152  -3.390 -11.126  1.00  0.00    -0.206 F 
ATOM     60  C   UNL     1      10.953  -4.009 -13.381  1.00  0.00     0.040 A 
ATOM     61  C   UNL     1       8.773  -4.266 -14.373  1.00  0.00     0.040 A 
ATOM     62  F   UNL     1       6.846  -3.877 -13.089  1.00  0.00    -0.206 F 
ATOM     63  C   UNL     1      10.161  -4.307 -14.489  1.00  0.00     0.006 A 
ENDBRANCH  39  56
ENDBRANCH  13  14
ENDBRANCH   6   8
ENDBRANCH   3   4
ENDBRANCH   2   3
ENDBRANCH   1   2
BRANCH   1  64
ATOM     64  C   UNL     1       5.021   1.245   4.207  1.00  0.00     0.116 C 
BRANCH  64  65
ATOM     65  N   UNL     1       6.469   1.211   4.370  1.00  0.00    -0.352 N 
ATOM     66  C   UNL     1       7.208   1.538   5.482  1.00  0.00     0.253 C 
ATOM     67  H   UNL     1       6.983   0.916   3.584  1.00  0.00     0.163 HD
ATOM     68  O   UNL     1       8.420   1.695   5.414  1.00  0.00    -0.269 OA
BRANCH  66  69
ATOM     69  C   UNL     1       6.498   1.772   6.748  1.00  0.00     0.066 A 
ATOM     70  C   UNL     1       5.743   0.718   7.284  1.00  0.00     0.055 A 
ATOM     71  C   UNL     1       6.442   3.058   7.304  1.00  0.00     0.062 A 
ATOM     72  C   UNL     1       4.852   0.981   8.312  1.00  0.00     0.124 A 
ATOM     73  C   UNL     1       5.483   3.303   8.292  1.00  0.00     0.030 A 
ATOM     74  F   UNL     1       4.084  -0.005   8.789  1.00  0.00    -0.207 F 
ATOM     75  C   UNL     1       4.696   2.269   8.803  1.00  0.00     0.041 A 
BRANCH  71  76
ATOM     76  N   UNL     1       7.281   4.147   6.863  1.00  0.00    -0.278 N 
ATOM     77  H   UNL     1       7.150   4.578   5.988  1.00  0.00     0.180 HD
BRANCH  76  78
ATOM     78  S   UNL     1       8.518   4.652   7.941  1.00  0.00     0.271 S 
ATOM     79  O   UNL     1       9.429   3.542   8.113  1.00  0.00    -0.200 OA
ATOM     80  O   UNL     1       8.985   5.940   7.479  1.00  0.00    -0.200 OA
BRANCH  78  81
ATOM     81  C   UNL     1       7.843   4.903   9.570  1.00  0.00     0.141 A 
ATOM     82  C   UNL     1       7.769   4.050  10.660  1.00  0.00     0.036 A 
ATOM     83  S   UNL     1       7.076   6.401   9.893  1.00  0.00    -0.110 S 
ATOM     84  C   UNL     1       7.014   4.605  11.733  1.00  0.00     0.034 A 
ATOM     85  C   UNL     1       6.587   5.870  11.425  1.00  0.00     0.094 A 
ATOM     86  Cl  UNL     1       5.627   6.890  12.418  1.00  0.00    -0.072 Cl
ENDBRANCH  78  81
ENDBRANCH  76  78
ENDBRANCH  71  76
ENDBRANCH  66  69
ENDBRANCH  64  65
ENDBRANCH   1  64
TORSDOF 14
