REMARK SMILES COc1ccc([C@@H]2[C@@H](C(=O)c3cccc4c3CCCC4)[C@H](C(=O)NCCCCNC(=O)c3ccc(-c4c5nc(c(-c6c(F)cccc6F)c6ccc([nH]6)c(-c6c(F)cccc6F)c6nc(c(-c7c(F)cccc7F)c7ccc4[nH]7)C=C6)C=C5)cc3)SC3=NC(=O)S[C@H]32)cc1
REMARK SMILES IDX 26 1 25 2 24 3 22 4 23 5 21 7 7 8 8 9 92 10 87 11 91 12
REMARK SMILES IDX 86 13 88 14 89 15 90 16 6 17 3 18 4 19 94 20 5 21 93 22 2 23
REMARK SMILES IDX 1 24 9 25 10 26 11 27 12 28 16 29 13 30 15 31 17 32 14 33
REMARK SMILES IDX 20 34 18 35 19 36 27 37 28 38 29 39 30 40 31 42 32 43 33 44
REMARK SMILES IDX 85 45 34 46 84 47 35 48 36 49 37 50 78 51 38 52 83 53 77 54
REMARK SMILES IDX 79 55 39 56 82 57 76 58 75 59 40 61 66 62 49 63 65 64 50 65
REMARK SMILES IDX 53 66 64 67 80 68 51 69 52 70 63 72 81 73 54 74 41 75 42 76
REMARK SMILES IDX 47 77 43 78 44 79 46 80 48 81 45 82 67 83 68 84 73 85 69 86
REMARK SMILES IDX 70 87 72 88 74 89 71 90 55 91 56 92 61 93 57 94 58 95 60 96
REMARK SMILES IDX 62 97 59 98
REMARK H PARENT 24 6 29 41 79 60 53 71
REMARK Flexibility Score: inf
ROOT
ATOM      1  C   UNL     1       5.890  -5.414  -3.220  1.00  0.00     0.023 C 
ENDROOT
BRANCH   1   2
ATOM      2  C   UNL     1       5.595  -5.737  -4.685  1.00  0.00     0.116 C 
BRANCH   2   3
ATOM      3  N   UNL     1       5.171  -7.116  -4.870  1.00  0.00    -0.355 N 
ATOM      4  C   UNL     1       3.986  -7.658  -5.280  1.00  0.00     0.234 C 
ATOM      5  O   UNL     1       3.934  -8.884  -5.412  1.00  0.00    -0.274 OA
ATOM      6  H   UNL     1       5.867  -7.781  -4.662  1.00  0.00     0.163 HD
BRANCH   4   7
ATOM      7  C   UNL     1       2.758  -6.790  -5.610  1.00  0.00     0.153 C 
ATOM      8  C   UNL     1       1.372  -4.758  -4.679  1.00  0.00     0.052 C 
ATOM      9  C   UNL     1       2.249  -6.015  -4.374  1.00  0.00     0.093 C 
ATOM     10  C   UNL     1       1.970  -3.840  -5.772  1.00  0.00     0.121 C 
ATOM     11  C   UNL     1       2.151  -4.526  -7.090  1.00  0.00     0.093 C 
ATOM     12  S   UNL     1       0.881  -2.438  -6.236  1.00  0.00    -0.052 SA
ATOM     13  S   UNL     1       3.170  -5.912  -7.165  1.00  0.00    -0.095 SA
ATOM     14  N   UNL     1       1.669  -4.030  -8.176  1.00  0.00    -0.200 NA
ATOM     15  C   UNL     1       0.985  -2.864  -7.941  1.00  0.00     0.306 C 
ATOM     16  O   UNL     1       0.495  -2.158  -8.794  1.00  0.00    -0.259 OA
BRANCH   8  17
ATOM     17  C   UNL     1       1.172  -3.901  -3.420  1.00  0.00    -0.042 A 
ATOM     18  C   UNL     1       0.755  -2.217  -1.200  1.00  0.00     0.118 A 
ATOM     19  C   UNL     1      -0.326  -2.818  -1.835  1.00  0.00     0.047 A 
ATOM     20  C   UNL     1       2.048  -2.459  -1.656  1.00  0.00     0.047 A 
ATOM     21  C   UNL     1      -0.122  -3.617  -2.961  1.00  0.00     0.008 A 
ATOM     22  C   UNL     1       2.255  -3.302  -2.752  1.00  0.00     0.008 A 
BRANCH  18  23
ATOM     23  O   UNL     1       0.471  -1.451  -0.104  1.00  0.00    -0.497 OA
ATOM     24  C   UNL     1       1.083  -0.164  -0.144  1.00  0.00     0.278 C 
ENDBRANCH  18  23
ENDBRANCH   8  17
BRANCH   9  25
ATOM     25  C   UNL     1       1.656  -7.048  -3.350  1.00  0.00     0.168 C 
ATOM     26  O   UNL     1       2.340  -7.466  -2.416  1.00  0.00    -0.294 OA
BRANCH  25  27
ATOM     27  C   UNL     1       0.296  -7.639  -3.536  1.00  0.00     0.021 A 
ATOM     28  C   UNL     1      -0.800  -6.815  -3.358  1.00  0.00     0.012 A 
ATOM     29  C   UNL     1       0.141  -8.759  -4.352  1.00  0.00    -0.034 A 
ATOM     30  C   UNL     1      -1.835  -6.866  -4.290  1.00  0.00     0.001 A 
ATOM     31  C   UNL     1      -0.707  -8.653  -5.461  1.00  0.00    -0.044 A 
ATOM     32  C   UNL     1      -0.100 -10.112  -3.639  1.00  0.00     0.036 C 
ATOM     33  C   UNL     1      -1.722  -7.698  -5.412  1.00  0.00     0.004 A 
ATOM     34  C   UNL     1      -0.615  -9.710  -6.530  1.00  0.00     0.036 C 
ATOM     35  C   UNL     1      -0.224 -11.308  -4.596  1.00  0.00     0.005 C 
ATOM     36  C   UNL     1       0.140 -10.955  -6.036  1.00  0.00     0.005 C 
ENDBRANCH  25  27
ENDBRANCH   9  25
ENDBRANCH   4   7
ENDBRANCH   2   3
ENDBRANCH   1   2
BRANCH   1  37
ATOM     37  C   UNL     1       7.054  -6.196  -2.613  1.00  0.00     0.023 C 
BRANCH  37  38
ATOM     38  C   UNL     1       8.392  -6.027  -3.322  1.00  0.00     0.116 C 
BRANCH  38  39
ATOM     39  N   UNL     1       8.878  -4.656  -3.300  1.00  0.00    -0.352 N 
ATOM     40  C   UNL     1      10.116  -4.176  -2.944  1.00  0.00     0.251 C 
ATOM     41  H   UNL     1       8.226  -3.973  -3.581  1.00  0.00     0.163 HD
ATOM     42  O   UNL     1      10.299  -2.966  -2.851  1.00  0.00    -0.269 OA
BRANCH  40  43
ATOM     43  C   UNL     1      11.217  -5.116  -2.637  1.00  0.00     0.039 A 
ATOM     44  C   UNL     1      12.003  -4.884  -1.506  1.00  0.00     0.014 A 
ATOM     45  C   UNL     1      11.466  -6.227  -3.447  1.00  0.00     0.014 A 
ATOM     46  C   UNL     1      12.986  -5.809  -1.144  1.00  0.00     0.010 A 
ATOM     47  C   UNL     1      12.390  -7.187  -3.042  1.00  0.00     0.010 A 
ATOM     48  C   UNL     1      13.158  -6.991  -1.883  1.00  0.00    -0.014 A 
BRANCH  48  49
ATOM     49  C   UNL     1      14.113  -8.040  -1.440  1.00  0.00     0.031 A 
ATOM     50  C   UNL     1      15.289  -8.418  -2.300  1.00  0.00     0.074 A 
ATOM     51  C   UNL     1      13.889  -8.696  -0.284  1.00  0.00     0.049 A 
ATOM     52  N   UNL     1      16.201  -9.335  -2.095  1.00  0.00    -0.248 NA
ATOM     53  C   UNL     1      15.447  -7.687  -3.567  1.00  0.00     0.031 C 
ATOM     54  C   UNL     1      12.756  -8.463   0.615  1.00  0.00     0.029 A 
ATOM     55  N   UNL     1      14.597  -9.698   0.331  1.00  0.00    -0.354 N 
ATOM     56  C   UNL     1      17.033  -9.296  -3.206  1.00  0.00     0.074 A 
ATOM     57  C   UNL     1      16.486  -8.306  -4.108  1.00  0.00     0.031 C 
ATOM     58  C   UNL     1      12.862  -9.276   1.677  1.00  0.00     0.029 A 
ATOM     59  C   UNL     1      14.044 -10.117   1.517  1.00  0.00     0.049 A 
ATOM     60  H   UNL     1      15.424 -10.080  -0.042  1.00  0.00     0.167 HD
ATOM     61  C   UNL     1      18.164 -10.004  -3.444  1.00  0.00     0.037 A 
ATOM     62  C   UNL     1      14.437 -11.077   2.375  1.00  0.00     0.037 A 
ATOM     63  C   UNL     1      18.715 -10.979  -2.539  1.00  0.00     0.049 A 
ATOM     64  C   UNL     1      15.687 -11.861   2.079  1.00  0.00     0.074 A 
ATOM     65  C   UNL     1      19.887 -11.705  -2.664  1.00  0.00     0.029 A 
ATOM     66  N   UNL     1      18.128 -11.372  -1.345  1.00  0.00    -0.354 N 
ATOM     67  N   UNL     1      16.506 -11.757   1.061  1.00  0.00    -0.248 NA
ATOM     68  C   UNL     1      16.068 -12.891   3.055  1.00  0.00     0.031 C 
ATOM     69  C   UNL     1      19.981 -12.576  -1.574  1.00  0.00     0.029 A 
ATOM     70  C   UNL     1      18.899 -12.351  -0.739  1.00  0.00     0.049 A 
ATOM     71  H   UNL     1      17.288 -11.010  -0.983  1.00  0.00     0.167 HD
ATOM     72  C   UNL     1      17.513 -12.687   1.288  1.00  0.00     0.074 A 
ATOM     73  C   UNL     1      17.212 -13.330   2.550  1.00  0.00     0.031 C 
ATOM     74  C   UNL     1      18.590 -12.983   0.519  1.00  0.00     0.037 A 
BRANCH  61  75
ATOM     75  C   UNL     1      18.885  -9.748  -4.737  1.00  0.00     0.057 A 
ATOM     76  C   UNL     1      19.557  -8.542  -4.983  1.00  0.00     0.134 A 
ATOM     77  C   UNL     1      18.948 -10.734  -5.729  1.00  0.00     0.134 A 
ATOM     78  F   UNL     1      19.528  -7.551  -4.079  1.00  0.00    -0.206 F 
ATOM     79  C   UNL     1      20.242  -8.318  -6.178  1.00  0.00     0.040 A 
ATOM     80  C   UNL     1      19.655 -10.532  -6.916  1.00  0.00     0.040 A 
ATOM     81  F   UNL     1      18.335 -11.915  -5.557  1.00  0.00    -0.206 F 
ATOM     82  C   UNL     1      20.299  -9.319  -7.146  1.00  0.00     0.006 A 
ENDBRANCH  61  75
BRANCH  62  83
ATOM     83  C   UNL     1      13.651 -11.346   3.607  1.00  0.00     0.057 A 
ATOM     84  C   UNL     1      14.168 -11.051   4.874  1.00  0.00     0.134 A 
ATOM     85  C   UNL     1      12.375 -11.919   3.550  1.00  0.00     0.134 A 
ATOM     86  F   UNL     1      15.393 -10.518   4.996  1.00  0.00    -0.206 F 
ATOM     87  C   UNL     1      13.457 -11.339   6.040  1.00  0.00     0.040 A 
ATOM     88  C   UNL     1      11.641 -12.186   4.707  1.00  0.00     0.040 A 
ATOM     89  F   UNL     1      11.819 -12.219   2.367  1.00  0.00    -0.206 F 
ATOM     90  C   UNL     1      12.186 -11.904   5.958  1.00  0.00     0.006 A 
ENDBRANCH  62  83
BRANCH  74  91
ATOM     91  C   UNL     1      19.538 -14.026   1.038  1.00  0.00     0.057 A 
ATOM     92  C   UNL     1      19.191 -15.382   1.095  1.00  0.00     0.134 A 
ATOM     93  C   UNL     1      20.825 -13.671   1.461  1.00  0.00     0.134 A 
ATOM     94  F   UNL     1      17.970 -15.789   0.717  1.00  0.00    -0.206 F 
ATOM     95  C   UNL     1      20.079 -16.343   1.583  1.00  0.00     0.040 A 
ATOM     96  C   UNL     1      21.733 -14.626   1.922  1.00  0.00     0.040 A 
ATOM     97  F   UNL     1      21.227 -12.392   1.424  1.00  0.00    -0.206 F 
ATOM     98  C   UNL     1      21.357 -15.966   1.992  1.00  0.00     0.006 A 
ENDBRANCH  74  91
ENDBRANCH  48  49
ENDBRANCH  40  43
ENDBRANCH  38  39
ENDBRANCH  37  38
ENDBRANCH   1  37
TORSDOF 15
