REMARK SMILES C[C@@H](Oc1ccc(I)cc1)C(=O)NCc1ccc(C(=O)NCCCCNC(=O)c2ccc(-c3c4nc(c(-c5c(F)cccc5F)c5ccc([nH]5)c(-c5c(F)cccc5F)c5nc(c(-c6c(F)cccc6F)c6ccc3[nH]6)C=C5)C=C4)cc2)cc1
REMARK SMILES IDX 22 1 21 2 19 3 20 4 18 6 15 7 16 8 84 9 17 10 83 11 14 12
REMARK SMILES IDX 13 13 11 14 12 15 2 17 1 18 3 19 4 20 5 21 10 22 6 23 9 24
REMARK SMILES IDX 7 25 8 26 23 27 24 28 25 29 26 30 27 31 28 33 29 34 30 35
REMARK SMILES IDX 82 36 31 37 81 38 32 39 33 40 34 41 75 42 35 43 80 44 74 45
REMARK SMILES IDX 76 46 36 47 79 48 73 49 72 50 37 52 63 53 46 54 62 55 47 56
REMARK SMILES IDX 50 57 61 58 77 59 48 60 49 61 60 63 78 64 51 65 38 66 39 67
REMARK SMILES IDX 44 68 40 69 41 70 43 71 45 72 42 73 64 74 65 75 70 76 66 77
REMARK SMILES IDX 67 78 69 79 71 80 68 81 52 82 53 83 58 84 54 85 55 86 57 87
REMARK SMILES IDX 59 88 56 89
REMARK H PARENT 21 5 13 16 26 32 76 51 50 62
REMARK Flexibility Score: inf
ROOT
ATOM      1  C   UNL     1      -2.296   2.797   6.936  1.00  0.00     0.116 C 
ENDROOT
BRANCH   1   2
ATOM      2  N   UNL     1      -1.906   3.800   5.965  1.00  0.00    -0.352 N 
ATOM      3  C   UNL     1      -1.492   3.688   4.661  1.00  0.00     0.251 C 
ATOM      4  O   UNL     1      -1.256   4.724   4.040  1.00  0.00    -0.269 OA
ATOM      5  H   UNL     1      -1.945   4.725   6.300  1.00  0.00     0.163 HD
BRANCH   3   6
ATOM      6  C   UNL     1      -1.374   2.379   3.961  1.00  0.00     0.039 A 
ATOM      7  C   UNL     1      -1.251  -0.039   2.496  1.00  0.00    -0.029 A 
ATOM      8  C   UNL     1      -1.584   1.162   1.859  1.00  0.00     0.006 A 
ATOM      9  C   UNL     1      -0.937  -0.003   3.862  1.00  0.00     0.006 A 
ATOM     10  C   UNL     1      -1.643   2.358   2.585  1.00  0.00     0.014 A 
ATOM     11  C   UNL     1      -0.974   1.195   4.579  1.00  0.00     0.014 A 
BRANCH   7  12
ATOM     12  C   UNL     1      -1.186  -1.376   1.800  1.00  0.00     0.151 C 
BRANCH  12  13
ATOM     13  N   UNL     1      -1.554  -1.365   0.401  1.00  0.00    -0.349 N 
ATOM     14  C   UNL     1      -0.771  -1.448  -0.715  1.00  0.00     0.261 C 
ATOM     15  O   UNL     1      -1.343  -1.523  -1.807  1.00  0.00    -0.271 OA
ATOM     16  H   UNL     1      -2.519  -1.284   0.225  1.00  0.00     0.163 HD
BRANCH  14  17
ATOM     17  C   UNL     1       0.765  -1.344  -0.636  1.00  0.00     0.258 C 
ATOM     18  C   UNL     1       1.120   0.120  -0.388  1.00  0.00     0.064 C 
BRANCH  17  19
ATOM     19  O   UNL     1       1.250  -2.243   0.365  1.00  0.00    -0.481 OA
BRANCH  19  20
ATOM     20  C   UNL     1       2.586  -2.508   0.331  1.00  0.00     0.120 A 
ATOM     21  C   UNL     1       3.517  -1.590   0.815  1.00  0.00     0.047 A 
ATOM     22  C   UNL     1       2.989  -3.796  -0.015  1.00  0.00     0.047 A 
ATOM     23  C   UNL     1       4.866  -1.939   0.898  1.00  0.00     0.018 A 
ATOM     24  C   UNL     1       4.337  -4.155   0.081  1.00  0.00     0.018 A 
ATOM     25  C   UNL     1       5.271  -3.222   0.532  1.00  0.00     0.013 A 
ATOM     26  I   UNL     1       7.271  -3.755   0.706  1.00  0.00    -0.044 I 
ENDBRANCH  19  20
ENDBRANCH  17  19
ENDBRANCH  14  17
ENDBRANCH  12  13
ENDBRANCH   7  12
ENDBRANCH   3   6
ENDBRANCH   1   2
BRANCH   1  27
ATOM     27  C   UNL     1      -1.138   2.496   7.891  1.00  0.00     0.023 C 
BRANCH  27  28
ATOM     28  C   UNL     1      -0.939   3.543   8.991  1.00  0.00     0.023 C 
BRANCH  28  29
ATOM     29  C   UNL     1      -2.108   3.686   9.957  1.00  0.00     0.116 C 
BRANCH  29  30
ATOM     30  N   UNL     1      -2.462   2.443  10.620  1.00  0.00    -0.352 N 
ATOM     31  C   UNL     1      -3.024   2.259  11.863  1.00  0.00     0.251 C 
ATOM     32  H   UNL     1      -2.273   1.621  10.112  1.00  0.00     0.163 HD
ATOM     33  O   UNL     1      -3.159   1.137  12.318  1.00  0.00    -0.269 OA
BRANCH  31  34
ATOM     34  C   UNL     1      -3.418   3.441  12.659  1.00  0.00     0.039 A 
ATOM     35  C   UNL     1      -3.030   3.498  13.999  1.00  0.00     0.014 A 
ATOM     36  C   UNL     1      -4.141   4.492  12.088  1.00  0.00     0.014 A 
ATOM     37  C   UNL     1      -3.316   4.638  14.750  1.00  0.00     0.010 A 
ATOM     38  C   UNL     1      -4.359   5.658  12.815  1.00  0.00     0.010 A 
ATOM     39  C   UNL     1      -3.952   5.741  14.154  1.00  0.00    -0.014 A 
BRANCH  39  40
ATOM     40  C   UNL     1      -4.178   6.987  14.927  1.00  0.00     0.031 A 
ATOM     41  C   UNL     1      -5.574   7.455  15.230  1.00  0.00     0.074 A 
ATOM     42  C   UNL     1      -3.118   7.717  15.324  1.00  0.00     0.049 A 
ATOM     43  N   UNL     1      -5.962   8.502  15.915  1.00  0.00    -0.248 NA
ATOM     44  C   UNL     1      -6.679   6.662  14.670  1.00  0.00     0.031 C 
ATOM     45  C   UNL     1      -1.718   7.405  15.028  1.00  0.00     0.029 A 
ATOM     46  N   UNL     1      -3.052   8.868  16.066  1.00  0.00    -0.354 N 
ATOM     47  C   UNL     1      -7.349   8.494  15.864  1.00  0.00     0.074 A 
ATOM     48  C   UNL     1      -7.735   7.377  15.029  1.00  0.00     0.031 C 
ATOM     49  C   UNL     1      -0.930   8.319  15.616  1.00  0.00     0.029 A 
ATOM     50  C   UNL     1      -1.768   9.294  16.307  1.00  0.00     0.049 A 
ATOM     51  H   UNL     1      -3.848   9.345  16.394  1.00  0.00     0.167 HD
ATOM     52  C   UNL     1      -8.224   9.325  16.479  1.00  0.00     0.037 A 
ATOM     53  C   UNL     1      -1.318  10.344  17.018  1.00  0.00     0.037 A 
ATOM     54  C   UNL     1      -7.837  10.425  17.323  1.00  0.00     0.049 A 
ATOM     55  C   UNL     1      -2.308  11.235  17.714  1.00  0.00     0.074 A 
ATOM     56  C   UNL     1      -8.645  11.293  18.036  1.00  0.00     0.029 A 
ATOM     57  N   UNL     1      -6.526  10.809  17.567  1.00  0.00    -0.354 N 
ATOM     58  N   UNL     1      -3.617  11.166  17.726  1.00  0.00    -0.248 NA
ATOM     59  C   UNL     1      -1.756  12.339  18.511  1.00  0.00     0.031 C 
ATOM     60  C   UNL     1      -7.825  12.226  18.679  1.00  0.00     0.029 A 
ATOM     61  C   UNL     1      -6.504  11.909  18.408  1.00  0.00     0.049 A 
ATOM     62  H   UNL     1      -5.729  10.364  17.196  1.00  0.00     0.167 HD
ATOM     63  C   UNL     1      -4.044  12.196  18.555  1.00  0.00     0.074 A 
ATOM     64  C   UNL     1      -2.853  12.862  19.039  1.00  0.00     0.031 C 
ATOM     65  C   UNL     1      -5.309  12.557  18.886  1.00  0.00     0.037 A 
BRANCH  52  66
ATOM     66  C   UNL     1      -9.688   9.066  16.267  1.00  0.00     0.057 A 
ATOM     67  C   UNL     1     -10.326   7.944  16.813  1.00  0.00     0.134 A 
ATOM     68  C   UNL     1     -10.477   9.962  15.533  1.00  0.00     0.134 A 
ATOM     69  F   UNL     1      -9.627   7.039  17.515  1.00  0.00    -0.206 F 
ATOM     70  C   UNL     1     -11.687   7.707  16.615  1.00  0.00     0.040 A 
ATOM     71  C   UNL     1     -11.845   9.751  15.352  1.00  0.00     0.040 A 
ATOM     72  F   UNL     1      -9.933  11.059  14.986  1.00  0.00    -0.206 F 
ATOM     73  C   UNL     1     -12.452   8.617  15.888  1.00  0.00     0.006 A 
ENDBRANCH  52  66
BRANCH  53  74
ATOM     74  C   UNL     1       0.141  10.580  17.151  1.00  0.00     0.057 A 
ATOM     75  C   UNL     1       0.798  10.374  18.370  1.00  0.00     0.134 A 
ATOM     76  C   UNL     1       0.913  11.021  16.070  1.00  0.00     0.134 A 
ATOM     77  F   UNL     1       0.109   9.966  19.447  1.00  0.00    -0.206 F 
ATOM     78  C   UNL     1       2.164  10.619  18.517  1.00  0.00     0.040 A 
ATOM     79  C   UNL     1       2.285  11.246  16.195  1.00  0.00     0.040 A 
ATOM     80  F   UNL     1       0.345  11.226  14.872  1.00  0.00    -0.206 F 
ATOM     81  C   UNL     1       2.912  11.053  17.424  1.00  0.00     0.006 A 
ENDBRANCH  53  74
BRANCH  65  82
ATOM     82  C   UNL     1      -5.461  13.699  19.848  1.00  0.00     0.057 A 
ATOM     83  C   UNL     1      -5.175  15.021  19.484  1.00  0.00     0.134 A 
ATOM     84  C   UNL     1      -5.913  13.471  21.154  1.00  0.00     0.134 A 
ATOM     85  F   UNL     1      -4.726  15.305  18.252  1.00  0.00    -0.206 F 
ATOM     86  C   UNL     1      -5.299  16.071  20.395  1.00  0.00     0.040 A 
ATOM     87  C   UNL     1      -6.069  14.516  22.065  1.00  0.00     0.040 A 
ATOM     88  F   UNL     1      -6.215  12.230  21.564  1.00  0.00    -0.206 F 
ATOM     89  C   UNL     1      -5.752  15.820  21.689  1.00  0.00     0.006 A 
ENDBRANCH  65  82
ENDBRANCH  39  40
ENDBRANCH  31  34
ENDBRANCH  29  30
ENDBRANCH  28  29
ENDBRANCH  27  28
ENDBRANCH   1  27
TORSDOF 16
