REMARK SMILES Nc1cc(C(=O)NCCCCNC(=O)c2ccc(-c3c4nc(c(-c5c(F)cccc5F)c5ccc([nH]5)c(-c5c(F)cccc5F)c5nc(c(-c6c(F)cccc6F)c6ccc3[nH]6)C=C5)C=C4)cc2)nc2ccccc12
REMARK SMILES IDX 10 1 9 2 8 3 7 4 5 5 6 6 4 8 2 9 3 10 75 11 70 12 74 13
REMARK SMILES IDX 69 14 71 15 73 16 72 17 1 18 11 21 12 22 13 23 14 25 15 26
REMARK SMILES IDX 16 27 68 28 17 29 67 30 18 31 19 32 20 33 61 34 21 35 66 36
REMARK SMILES IDX 60 37 62 38 22 39 65 40 59 41 58 42 23 44 49 45 32 46 48 47
REMARK SMILES IDX 33 48 36 49 47 50 63 51 34 52 35 53 46 55 64 56 37 57 24 58
REMARK SMILES IDX 25 59 30 60 26 61 27 62 29 63 31 64 28 65 50 66 51 67 56 68
REMARK SMILES IDX 52 69 53 70 55 71 57 72 54 73 38 74 39 75 44 76 40 77 41 78
REMARK SMILES IDX 43 79 45 80 42 81
REMARK H PARENT 7 7 1 19 1 20 12 24 62 43 36 54
REMARK Flexibility Score: inf
ROOT
ATOM      1  C   UNL     1       2.663   5.159  -2.599  1.00  0.00     0.023 C 
ENDROOT
BRANCH   1   2
ATOM      2  C   UNL     1       2.373   3.958  -1.696  1.00  0.00     0.023 C 
BRANCH   2   3
ATOM      3  C   UNL     1       2.696   4.176  -0.215  1.00  0.00     0.116 C 
BRANCH   3   4
ATOM      4  N   UNL     1       1.639   4.907   0.450  1.00  0.00    -0.351 N 
ATOM      5  C   UNL     1       0.493   4.512   1.106  1.00  0.00     0.269 C 
ATOM      6  O   UNL     1      -0.174   5.427   1.599  1.00  0.00    -0.268 OA
ATOM      7  H   UNL     1       1.763   5.884   0.429  1.00  0.00     0.163 HD
BRANCH   5   8
ATOM      8  C   UNL     1       0.035   3.080   1.264  1.00  0.00     0.130 A 
ATOM      9  C   UNL     1      -0.001   0.727   0.744  1.00  0.00     0.043 A 
ATOM     10  C   UNL     1       0.480   2.016   0.499  1.00  0.00     0.060 A 
ATOM     11  C   UNL     1      -1.023   0.553   1.703  1.00  0.00     0.023 A 
ATOM     12  C   UNL     1      -1.444   1.698   2.412  1.00  0.00     0.073 A 
ATOM     13  C   UNL     1      -1.645  -0.688   1.984  1.00  0.00     0.012 A 
ATOM     14  N   UNL     1      -0.916   2.913   2.215  1.00  0.00    -0.242 NA
ATOM     15  C   UNL     1      -2.458   1.573   3.350  1.00  0.00     0.029 A 
ATOM     16  C   UNL     1      -2.660  -0.787   2.934  1.00  0.00     0.001 A 
ATOM     17  C   UNL     1      -3.071   0.348   3.617  1.00  0.00     0.002 A 
BRANCH   9  18
ATOM     18  N   UNL     1       0.455  -0.309  -0.075  1.00  0.00    -0.398 N 
ATOM     19  H   UNL     1       1.171  -0.140  -0.730  1.00  0.00     0.156 HD
ATOM     20  H   UNL     1       0.061  -1.207   0.003  1.00  0.00     0.156 HD
ENDBRANCH   9  18
ENDBRANCH   5   8
ENDBRANCH   3   4
ENDBRANCH   2   3
ENDBRANCH   1   2
BRANCH   1  21
ATOM     21  C   UNL     1       4.135   5.539  -2.703  1.00  0.00     0.116 C 
BRANCH  21  22
ATOM     22  N   UNL     1       4.987   4.468  -3.201  1.00  0.00    -0.352 N 
ATOM     23  C   UNL     1       6.218   4.582  -3.809  1.00  0.00     0.251 C 
ATOM     24  H   UNL     1       4.641   3.553  -3.091  1.00  0.00     0.163 HD
ATOM     25  O   UNL     1       6.792   3.598  -4.254  1.00  0.00    -0.269 OA
BRANCH  23  26
ATOM     26  C   UNL     1       6.799   5.930  -3.973  1.00  0.00     0.039 A 
ATOM     27  C   UNL     1       6.897   6.795  -2.882  1.00  0.00     0.014 A 
ATOM     28  C   UNL     1       7.151   6.359  -5.255  1.00  0.00     0.014 A 
ATOM     29  C   UNL     1       7.176   8.138  -3.098  1.00  0.00     0.010 A 
ATOM     30  C   UNL     1       7.502   7.694  -5.459  1.00  0.00     0.010 A 
ATOM     31  C   UNL     1       7.456   8.606  -4.392  1.00  0.00    -0.014 A 
BRANCH  31  32
ATOM     32  C   UNL     1       7.639  10.061  -4.619  1.00  0.00     0.031 A 
ATOM     33  C   UNL     1       6.628  10.838  -5.418  1.00  0.00     0.074 A 
ATOM     34  C   UNL     1       8.683  10.694  -4.053  1.00  0.00     0.049 A 
ATOM     35  N   UNL     1       6.622  12.110  -5.731  1.00  0.00    -0.248 NA
ATOM     36  C   UNL     1       5.472  10.090  -5.938  1.00  0.00     0.031 C 
ATOM     37  C   UNL     1       9.714  10.056  -3.234  1.00  0.00     0.029 A 
ATOM     38  N   UNL     1       9.034  12.019  -4.062  1.00  0.00    -0.354 N 
ATOM     39  C   UNL     1       5.482  12.308  -6.500  1.00  0.00     0.074 A 
ATOM     40  C   UNL     1       4.829  11.023  -6.626  1.00  0.00     0.031 C 
ATOM     41  C   UNL     1      10.559  10.997  -2.784  1.00  0.00     0.029 A 
ATOM     42  C   UNL     1      10.160  12.291  -3.326  1.00  0.00     0.049 A 
ATOM     43  H   UNL     1       8.527  12.709  -4.549  1.00  0.00     0.167 HD
ATOM     44  C   UNL     1       5.017  13.458  -7.045  1.00  0.00     0.037 A 
ATOM     45  C   UNL     1      10.807  13.453  -3.124  1.00  0.00     0.037 A 
ATOM     46  C   UNL     1       5.649  14.742  -6.897  1.00  0.00     0.049 A 
ATOM     47  C   UNL     1      10.291  14.705  -3.771  1.00  0.00     0.074 A 
ATOM     48  C   UNL     1       5.244  15.968  -7.397  1.00  0.00     0.029 A 
ATOM     49  N   UNL     1       6.819  14.967  -6.188  1.00  0.00    -0.354 N 
ATOM     50  N   UNL     1       9.221  14.873  -4.508  1.00  0.00    -0.248 NA
ATOM     51  C   UNL     1      11.083  15.925  -3.568  1.00  0.00     0.031 C 
ATOM     52  C   UNL     1       6.186  16.930  -7.014  1.00  0.00     0.029 A 
ATOM     53  C   UNL     1       7.160  16.308  -6.250  1.00  0.00     0.049 A 
ATOM     54  H   UNL     1       7.332  14.275  -5.712  1.00  0.00     0.167 HD
ATOM     55  C   UNL     1       9.206  16.217  -4.852  1.00  0.00     0.074 A 
ATOM     56  C   UNL     1      10.362  16.824  -4.224  1.00  0.00     0.031 C 
ATOM     57  C   UNL     1       8.318  16.890  -5.624  1.00  0.00     0.037 A 
BRANCH  44  58
ATOM     58  C   UNL     1       3.766  13.373  -7.869  1.00  0.00     0.057 A 
ATOM     59  C   UNL     1       3.823  13.478  -9.264  1.00  0.00     0.134 A 
ATOM     60  C   UNL     1       2.504  13.214  -7.283  1.00  0.00     0.134 A 
ATOM     61  F   UNL     1       5.001  13.634  -9.887  1.00  0.00    -0.206 F 
ATOM     62  C   UNL     1       2.669  13.430 -10.048  1.00  0.00     0.040 A 
ATOM     63  C   UNL     1       1.344  13.145  -8.057  1.00  0.00     0.040 A 
ATOM     64  F   UNL     1       2.384  13.091  -5.952  1.00  0.00    -0.206 F 
ATOM     65  C   UNL     1       1.425  13.258  -9.444  1.00  0.00     0.006 A 
ENDBRANCH  44  58
BRANCH  45  66
ATOM     66  C   UNL     1      12.026  13.482  -2.281  1.00  0.00     0.057 A 
ATOM     67  C   UNL     1      13.227  12.911  -2.718  1.00  0.00     0.134 A 
ATOM     68  C   UNL     1      12.016  14.085  -1.019  1.00  0.00     0.134 A 
ATOM     69  F   UNL     1      13.297  12.316  -3.918  1.00  0.00    -0.206 F 
ATOM     70  C   UNL     1      14.373  12.927  -1.924  1.00  0.00     0.040 A 
ATOM     71  C   UNL     1      13.161  14.128  -0.223  1.00  0.00     0.040 A 
ATOM     72  F   UNL     1      10.898  14.665  -0.558  1.00  0.00    -0.206 F 
ATOM     73  C   UNL     1      14.343  13.543  -0.674  1.00  0.00     0.006 A 
ENDBRANCH  45  66
BRANCH  57  74
ATOM     74  C   UNL     1       8.566  18.354  -5.816  1.00  0.00     0.057 A 
ATOM     75  C   UNL     1       7.789  19.306  -5.144  1.00  0.00     0.134 A 
ATOM     76  C   UNL     1       9.570  18.820  -6.672  1.00  0.00     0.134 A 
ATOM     77  F   UNL     1       6.809  18.921  -4.312  1.00  0.00    -0.206 F 
ATOM     78  C   UNL     1       8.007  20.673  -5.315  1.00  0.00     0.040 A 
ATOM     79  C   UNL     1       9.810  20.185  -6.837  1.00  0.00     0.040 A 
ATOM     80  F   UNL     1      10.358  17.956  -7.330  1.00  0.00    -0.206 F 
ATOM     81  C   UNL     1       9.024  21.116  -6.159  1.00  0.00     0.006 A 
ENDBRANCH  57  74
ENDBRANCH  31  32
ENDBRANCH  23  26
ENDBRANCH  21  22
ENDBRANCH   1  21
TORSDOF 12
