REMARK SMILES C[C@@H]1CC[C@H]([N@@H+]2[C@@H](C(=O)NCCCCNC(=O)c3ccc(-c4c5nc(c(-c6c(F)cccc6F)c6ccc([nH]6)c(-c6c(F)cccc6F)c6nc(c(-c7c(F)cccc7F)c7ccc4[nH]7)C=C6)C=C5)cc3)C[C@H]3CCCC[C@H]32)C1
REMARK SMILES IDX 13 1 12 2 11 3 10 4 8 5 9 6 7 8 6 9 78 10 72 12 73 13 77 14
REMARK SMILES IDX 74 15 76 16 75 17 5 18 1 19 2 20 3 21 79 22 4 23 14 24 15 25
REMARK SMILES IDX 16 26 17 28 18 29 19 30 71 31 20 32 70 33 21 34 22 35 23 36
REMARK SMILES IDX 64 37 24 38 69 39 63 40 65 41 25 42 68 43 62 44 61 45 26 47
REMARK SMILES IDX 52 48 35 49 51 50 36 51 39 52 50 53 66 54 37 55 38 56 49 58
REMARK SMILES IDX 67 59 40 60 27 61 28 62 33 63 29 64 30 65 32 66 34 67 31 68
REMARK SMILES IDX 53 69 54 70 59 71 55 72 56 73 58 74 60 75 57 76 41 77 42 78
REMARK SMILES IDX 47 79 43 80 44 81 46 82 48 83 45 84
REMARK H PARENT 10 7 6 11 15 27 65 46 39 57
REMARK Flexibility Score: inf
ROOT
ATOM      1  C   UNL     1      -6.328   1.256  -5.931  1.00  0.00     0.023 C 
ENDROOT
BRANCH   1   2
ATOM      2  C   UNL     1      -5.575   0.210  -5.116  1.00  0.00     0.023 C 
BRANCH   2   3
ATOM      3  C   UNL     1      -4.077   0.436  -4.976  1.00  0.00     0.116 C 
BRANCH   3   4
ATOM      4  N   UNL     1      -3.738   1.664  -4.290  1.00  0.00    -0.351 N 
ATOM      5  C   UNL     1      -2.787   1.888  -3.328  1.00  0.00     0.278 C 
ATOM      6  O   UNL     1      -2.673   3.051  -2.933  1.00  0.00    -0.268 OA
ATOM      7  H   UNL     1      -4.266   2.453  -4.552  1.00  0.00     0.163 HD
BRANCH   5   8
ATOM      8  C   UNL     1      -1.988   0.692  -2.736  1.00  0.00     0.275 C 
ATOM      9  N   UNL     1      -0.871   1.188  -1.877  1.00  0.00    -0.320 N 
ATOM     10  C   UNL     1       0.381   0.947  -2.603  1.00  0.00     0.188 C 
ATOM     11  H   UNL     1      -0.920   2.196  -1.728  1.00  0.00     0.349 HD
ATOM     12  C   UNL     1      -1.312  -0.199  -3.793  1.00  0.00     0.085 C 
ATOM     13  C   UNL     1       0.128  -0.360  -3.335  1.00  0.00     0.054 C 
ATOM     14  C   UNL     1       0.694   2.111  -3.565  1.00  0.00     0.065 C 
ATOM     15  C   UNL     1       1.118  -0.684  -4.448  1.00  0.00     0.010 C 
ATOM     16  C   UNL     1       1.805   1.736  -4.543  1.00  0.00     0.006 C 
ATOM     17  C   UNL     1       1.428   0.501  -5.354  1.00  0.00     0.001 C 
BRANCH   9  18
ATOM     18  C   UNL     1      -0.969   0.752  -0.473  1.00  0.00     0.185 C 
ATOM     19  C   UNL     1       2.124  -0.525   0.015  1.00  0.00     0.008 C 
ATOM     20  C   UNL     1       0.911  -0.154   0.863  1.00  0.00    -0.008 C 
ATOM     21  C   UNL     1      -0.177  -1.220   0.812  1.00  0.00     0.009 C 
ATOM     22  C   UNL     1       0.205   1.139   0.445  1.00  0.00     0.068 C 
ATOM     23  C   UNL     1      -1.228  -0.740  -0.184  1.00  0.00     0.065 C 
ENDBRANCH   9  18
ENDBRANCH   5   8
ENDBRANCH   3   4
ENDBRANCH   2   3
ENDBRANCH   1   2
BRANCH   1  24
ATOM     24  C   UNL     1      -5.751   1.561  -7.307  1.00  0.00     0.116 C 
BRANCH  24  25
ATOM     25  N   UNL     1      -5.644   0.389  -8.163  1.00  0.00    -0.352 N 
ATOM     26  C   UNL     1      -6.118   0.192  -9.439  1.00  0.00     0.251 C 
ATOM     27  H   UNL     1      -5.161  -0.374  -7.771  1.00  0.00     0.163 HD
ATOM     28  O   UNL     1      -6.027  -0.908  -9.969  1.00  0.00    -0.269 OA
BRANCH  26  29
ATOM     29  C   UNL     1      -6.771   1.308 -10.157  1.00  0.00     0.039 A 
ATOM     30  C   UNL     1      -7.986   1.075 -10.805  1.00  0.00     0.014 A 
ATOM     31  C   UNL     1      -6.199   2.582 -10.168  1.00  0.00     0.014 A 
ATOM     32  C   UNL     1      -8.665   2.139 -11.402  1.00  0.00     0.010 A 
ATOM     33  C   UNL     1      -6.918   3.654 -10.684  1.00  0.00     0.010 A 
ATOM     34  C   UNL     1      -8.154   3.444 -11.314  1.00  0.00    -0.014 A 
BRANCH  34  35
ATOM     35  C   UNL     1      -8.881   4.601 -11.895  1.00  0.00     0.031 A 
ATOM     36  C   UNL     1      -8.251   5.398 -13.005  1.00  0.00     0.074 A 
ATOM     37  C   UNL     1     -10.068   4.978 -11.383  1.00  0.00     0.049 A 
ATOM     38  N   UNL     1      -8.680   6.487 -13.589  1.00  0.00    -0.248 NA
ATOM     39  C   UNL     1      -6.949   4.925 -13.501  1.00  0.00     0.031 C 
ATOM     40  C   UNL     1     -10.761   4.321 -10.272  1.00  0.00     0.029 A 
ATOM     41  N   UNL     1     -10.899   6.016 -11.724  1.00  0.00    -0.354 N 
ATOM     42  C   UNL     1      -7.694   6.839 -14.502  1.00  0.00     0.074 A 
ATOM     43  C   UNL     1      -6.619   5.883 -14.353  1.00  0.00     0.031 C 
ATOM     44  C   UNL     1     -11.922   4.956 -10.042  1.00  0.00     0.029 A 
ATOM     45  C   UNL     1     -12.040   6.083 -10.961  1.00  0.00     0.049 A 
ATOM     46  H   UNL     1     -10.697   6.652 -12.448  1.00  0.00     0.167 HD
ATOM     47  C   UNL     1      -7.693   7.850 -15.403  1.00  0.00     0.037 A 
ATOM     48  C   UNL     1     -13.063   6.958 -10.999  1.00  0.00     0.037 A 
ATOM     49  C   UNL     1      -8.778   8.779 -15.573  1.00  0.00     0.049 A 
ATOM     50  C   UNL     1     -13.046   8.065 -12.017  1.00  0.00     0.074 A 
ATOM     51  C   UNL     1      -8.899   9.804 -16.494  1.00  0.00     0.029 A 
ATOM     52  N   UNL     1      -9.932   8.791 -14.804  1.00  0.00    -0.354 N 
ATOM     53  N   UNL     1     -12.135   8.347 -12.917  1.00  0.00    -0.248 NA
ATOM     54  C   UNL     1     -14.205   8.968 -12.032  1.00  0.00     0.031 C 
ATOM     55  C   UNL     1     -10.112  10.461 -16.259  1.00  0.00     0.029 A 
ATOM     56  C   UNL     1     -10.767   9.814 -15.224  1.00  0.00     0.049 A 
ATOM     57  H   UNL     1     -10.129   8.166 -14.070  1.00  0.00     0.167 HD
ATOM     58  C   UNL     1     -12.627   9.435 -13.628  1.00  0.00     0.074 A 
ATOM     59  C   UNL     1     -13.919   9.756 -13.059  1.00  0.00     0.031 C 
ATOM     60  C   UNL     1     -12.059  10.106 -14.659  1.00  0.00     0.037 A 
BRANCH  47  61
ATOM     61  C   UNL     1      -6.482   7.992 -16.278  1.00  0.00     0.057 A 
ATOM     62  C   UNL     1      -6.181   7.060 -17.281  1.00  0.00     0.134 A 
ATOM     63  C   UNL     1      -5.617   9.084 -16.132  1.00  0.00     0.134 A 
ATOM     64  F   UNL     1      -6.961   5.984 -17.464  1.00  0.00    -0.206 F 
ATOM     65  C   UNL     1      -5.048   7.191 -18.085  1.00  0.00     0.040 A 
ATOM     66  C   UNL     1      -4.497   9.242 -16.950  1.00  0.00     0.040 A 
ATOM     67  F   UNL     1      -5.848  10.017 -15.196  1.00  0.00    -0.206 F 
ATOM     68  C   UNL     1      -4.205   8.289 -17.924  1.00  0.00     0.006 A 
ENDBRANCH  47  61
BRANCH  48  69
ATOM     69  C   UNL     1     -14.210   6.805 -10.068  1.00  0.00     0.057 A 
ATOM     70  C   UNL     1     -15.467   6.402 -10.535  1.00  0.00     0.134 A 
ATOM     71  C   UNL     1     -14.085   7.068  -8.699  1.00  0.00     0.134 A 
ATOM     72  F   UNL     1     -15.654   6.153 -11.840  1.00  0.00    -0.206 F 
ATOM     73  C   UNL     1     -16.564   6.288  -9.680  1.00  0.00     0.040 A 
ATOM     74  C   UNL     1     -15.167   6.934  -7.828  1.00  0.00     0.040 A 
ATOM     75  F   UNL     1     -12.905   7.449  -8.188  1.00  0.00    -0.206 F 
ATOM     76  C   UNL     1     -16.414   6.551  -8.320  1.00  0.00     0.006 A 
ENDBRANCH  48  69
BRANCH  60  77
ATOM     77  C   UNL     1     -12.856  11.218 -15.277  1.00  0.00     0.057 A 
ATOM     78  C   UNL     1     -13.052  12.442 -14.627  1.00  0.00     0.134 A 
ATOM     79  C   UNL     1     -13.399  11.071 -16.560  1.00  0.00     0.134 A 
ATOM     80  F   UNL     1     -12.568  12.641 -13.391  1.00  0.00    -0.206 F 
ATOM     81  C   UNL     1     -13.783  13.473 -15.220  1.00  0.00     0.040 A 
ATOM     82  C   UNL     1     -14.108  12.104 -17.175  1.00  0.00     0.040 A 
ATOM     83  F   UNL     1     -13.239   9.927 -17.242  1.00  0.00    -0.206 F 
ATOM     84  C   UNL     1     -14.306  13.307 -16.501  1.00  0.00     0.006 A 
ENDBRANCH  60  77
ENDBRANCH  34  35
ENDBRANCH  26  29
ENDBRANCH  24  25
ENDBRANCH   1  24
TORSDOF 12
