REMARK SMILES Cc1c(CCC(=O)N[C@@H](C)C(=O)NCCCCNC(=O)c2ccc(-c3c4nc(c(-c5c(F)cccc5F)c5ccc([nH]5)c(-c5c(F)cccc5F)c5nc(c(-c6c(F)cccc6F)c6ccc3[nH]6)C=C5)C=C4)cc2)c(=O)oc2cc3oc4c(c3cc12)CCCC4
REMARK SMILES IDX 14 1 13 2 11 3 12 4 9 6 10 7 8 8 6 9 7 10 5 12 4 13 3 14
REMARK SMILES IDX 1 15 2 16 86 17 75 18 78 19 85 20 76 21 77 22 79 23 84 24
REMARK SMILES IDX 80 25 83 26 81 27 82 28 87 29 90 30 88 31 89 32 15 33 16 34
REMARK SMILES IDX 17 35 18 36 19 37 20 39 21 40 22 41 74 42 23 43 73 44 24 45
REMARK SMILES IDX 25 46 26 47 67 48 27 49 72 50 66 51 68 52 28 53 71 54 65 55
REMARK SMILES IDX 64 56 29 58 55 59 38 60 54 61 39 62 42 63 53 64 69 65 40 66
REMARK SMILES IDX 41 67 52 69 70 70 43 71 30 72 31 73 36 74 32 75 33 76 35 77
REMARK SMILES IDX 37 78 34 79 56 80 57 81 62 82 58 83 59 84 61 85 63 86 60 87
REMARK SMILES IDX 44 88 45 89 50 90 46 91 47 92 49 93 51 94 48 95
REMARK H PARENT 13 5 8 11 18 38 68 57 42 68
REMARK Flexibility Score: inf
ROOT
ATOM      1  C   UNL     1       4.346  -2.149   0.497  1.00  0.00     0.116 C 
ENDROOT
BRANCH   1   2
ATOM      2  N   UNL     1       4.946  -1.111   1.324  1.00  0.00    -0.354 N 
ATOM      3  C   UNL     1       4.495   0.028   1.924  1.00  0.00     0.242 C 
ATOM      4  O   UNL     1       5.328   0.645   2.600  1.00  0.00    -0.273 OA
ATOM      5  H   UNL     1       5.904  -1.268   1.489  1.00  0.00     0.163 HD
BRANCH   3   6
ATOM      6  C   UNL     1       3.059   0.593   1.792  1.00  0.00     0.168 C 
ATOM      7  C   UNL     1       2.127  -0.272   1.004  1.00  0.00     0.041 C 
BRANCH   6   8
ATOM      8  N   UNL     1       2.981   1.920   1.175  1.00  0.00    -0.345 N 
ATOM      9  C   UNL     1       1.835   2.678   1.090  1.00  0.00     0.220 C 
ATOM     10  O   UNL     1       1.640   3.344   0.073  1.00  0.00    -0.275 OA
ATOM     11  H   UNL     1       3.807   2.297   0.794  1.00  0.00     0.164 HD
BRANCH   9  12
ATOM     12  C   UNL     1       0.862   2.718   2.271  1.00  0.00     0.105 C 
BRANCH  12  13
ATOM     13  C   UNL     1      -0.593   2.265   1.994  1.00  0.00     0.053 C 
BRANCH  13  14
ATOM     14  C   UNL     1      -0.863   0.788   2.242  1.00  0.00     0.042 A 
ATOM     15  C   UNL     1      -1.473   0.259  -0.165  1.00  0.00     0.046 C 
ATOM     16  C   UNL     1      -1.138  -0.094   1.260  1.00  0.00    -0.030 A 
ATOM     17  C   UNL     1      -0.817  -1.497   1.553  1.00  0.00     0.022 A 
ATOM     18  C   UNL     1      -0.765   0.312   3.658  1.00  0.00     0.339 A 
ATOM     19  C   UNL     1      -0.850  -1.961   2.864  1.00  0.00     0.142 A 
ATOM     20  C   UNL     1      -0.264  -2.316   0.562  1.00  0.00     0.024 A 
ATOM     21  O   UNL     1      -0.519   1.087   4.575  1.00  0.00    -0.246 OA
ATOM     22  O   UNL     1      -1.039  -1.034   3.905  1.00  0.00    -0.422 OA
ATOM     23  C   UNL     1      -0.617  -3.303   3.208  1.00  0.00     0.095 A 
ATOM     24  C   UNL     1       0.137  -3.609   0.900  1.00  0.00     0.025 A 
ATOM     25  C   UNL     1      -0.191  -4.110   2.156  1.00  0.00     0.138 A 
ATOM     26  C   UNL     1       0.750  -4.660   0.197  1.00  0.00     0.001 A 
ATOM     27  O   UNL     1      -0.112  -5.482   2.122  1.00  0.00    -0.461 OA
ATOM     28  C   UNL     1       0.301  -5.777   0.860  1.00  0.00     0.108 A 
ATOM     29  C   UNL     1       1.221  -4.763  -1.199  1.00  0.00     0.040 C 
ATOM     30  C   UNL     1      -0.192  -6.968   0.114  1.00  0.00     0.076 C 
ATOM     31  C   UNL     1       0.144  -5.469  -2.034  1.00  0.00     0.005 C 
ATOM     32  C   UNL     1      -0.797  -6.406  -1.216  1.00  0.00     0.008 C 
ENDBRANCH  13  14
ENDBRANCH  12  13
ENDBRANCH   9  12
ENDBRANCH   6   8
ENDBRANCH   3   6
ENDBRANCH   1   2
BRANCH   1  33
ATOM     33  C   UNL     1       5.159  -2.438  -0.761  1.00  0.00     0.023 C 
BRANCH  33  34
ATOM     34  C   UNL     1       6.067  -3.643  -0.577  1.00  0.00     0.023 C 
BRANCH  34  35
ATOM     35  C   UNL     1       5.271  -4.942  -0.370  1.00  0.00     0.116 C 
BRANCH  35  36
ATOM     36  N   UNL     1       5.158  -5.775  -1.556  1.00  0.00    -0.352 N 
ATOM     37  C   UNL     1       6.141  -6.524  -2.176  1.00  0.00     0.251 C 
ATOM     38  H   UNL     1       4.267  -5.811  -1.972  1.00  0.00     0.163 HD
ATOM     39  O   UNL     1       5.912  -7.212  -3.141  1.00  0.00    -0.269 OA
BRANCH  37  40
ATOM     40  C   UNL     1       7.511  -6.363  -1.653  1.00  0.00     0.039 A 
ATOM     41  C   UNL     1       7.794  -6.715  -0.332  1.00  0.00     0.014 A 
ATOM     42  C   UNL     1       8.418  -5.643  -2.434  1.00  0.00     0.014 A 
ATOM     43  C   UNL     1       8.935  -6.206   0.266  1.00  0.00     0.010 A 
ATOM     44  C   UNL     1       9.580  -5.169  -1.843  1.00  0.00     0.010 A 
ATOM     45  C   UNL     1       9.811  -5.411  -0.483  1.00  0.00    -0.014 A 
BRANCH  45  46
ATOM     46  C   UNL     1      11.032  -4.968   0.193  1.00  0.00     0.031 A 
ATOM     47  C   UNL     1      12.240  -5.679  -0.307  1.00  0.00     0.074 A 
ATOM     48  C   UNL     1      11.198  -3.722   0.677  1.00  0.00     0.049 A 
ATOM     49  N   UNL     1      12.846  -5.327  -1.402  1.00  0.00    -0.248 NA
ATOM     50  C   UNL     1      12.623  -6.994   0.200  1.00  0.00     0.031 C 
ATOM     51  C   UNL     1      10.578  -2.515   0.120  1.00  0.00     0.029 A 
ATOM     52  N   UNL     1      12.129  -3.252   1.570  1.00  0.00    -0.354 N 
ATOM     53  C   UNL     1      13.613  -6.404  -1.793  1.00  0.00     0.074 A 
ATOM     54  C   UNL     1      13.468  -7.404  -0.756  1.00  0.00     0.031 C 
ATOM     55  C   UNL     1      11.292  -1.444   0.527  1.00  0.00     0.029 A 
ATOM     56  C   UNL     1      12.292  -1.874   1.496  1.00  0.00     0.049 A 
ATOM     57  H   UNL     1      12.626  -3.829   2.194  1.00  0.00     0.167 HD
ATOM     58  C   UNL     1      14.293  -6.442  -2.966  1.00  0.00     0.037 A 
ATOM     59  C   UNL     1      13.450  -1.227   1.795  1.00  0.00     0.037 A 
ATOM     60  C   UNL     1      14.221  -5.269  -3.783  1.00  0.00     0.049 A 
ATOM     61  C   UNL     1      14.277  -1.565   0.577  1.00  0.00     0.074 A 
ATOM     62  C   UNL     1      13.502  -4.839  -4.877  1.00  0.00     0.029 A 
ATOM     63  N   UNL     1      15.013  -4.199  -3.441  1.00  0.00    -0.354 N 
ATOM     64  N   UNL     1      14.206  -0.984  -0.593  1.00  0.00    -0.248 NA
ATOM     65  C   UNL     1      14.983  -2.849   0.571  1.00  0.00     0.031 C 
ATOM     66  C   UNL     1      13.581  -3.410  -4.852  1.00  0.00     0.029 A 
ATOM     67  C   UNL     1      14.294  -3.061  -3.706  1.00  0.00     0.049 A 
ATOM     68  H   UNL     1      15.926  -4.242  -3.074  1.00  0.00     0.167 HD
ATOM     69  C   UNL     1      14.607  -1.957  -1.515  1.00  0.00     0.074 A 
ATOM     70  C   UNL     1      15.120  -3.058  -0.731  1.00  0.00     0.031 C 
ATOM     71  C   UNL     1      14.318  -1.898  -2.848  1.00  0.00     0.037 A 
BRANCH  58  72
ATOM     72  C   UNL     1      15.175  -7.553  -3.346  1.00  0.00     0.057 A 
ATOM     73  C   UNL     1      16.556  -7.388  -3.198  1.00  0.00     0.134 A 
ATOM     74  C   UNL     1      14.711  -8.707  -3.978  1.00  0.00     0.134 A 
ATOM     75  F   UNL     1      17.041  -6.291  -2.593  1.00  0.00    -0.206 F 
ATOM     76  C   UNL     1      17.457  -8.324  -3.694  1.00  0.00     0.040 A 
ATOM     77  C   UNL     1      15.604  -9.658  -4.476  1.00  0.00     0.040 A 
ATOM     78  F   UNL     1      13.397  -8.913  -4.147  1.00  0.00    -0.206 F 
ATOM     79  C   UNL     1      16.980  -9.460  -4.345  1.00  0.00     0.006 A 
ENDBRANCH  58  72
BRANCH  59  80
ATOM     80  C   UNL     1      13.911  -1.438   3.207  1.00  0.00     0.057 A 
ATOM     81  C   UNL     1      12.982  -1.235   4.250  1.00  0.00     0.134 A 
ATOM     82  C   UNL     1      15.187  -1.848   3.608  1.00  0.00     0.134 A 
ATOM     83  F   UNL     1      11.767  -0.726   3.989  1.00  0.00    -0.206 F 
ATOM     84  C   UNL     1      13.257  -1.560   5.580  1.00  0.00     0.040 A 
ATOM     85  C   UNL     1      15.472  -2.200   4.934  1.00  0.00     0.040 A 
ATOM     86  F   UNL     1      16.197  -1.939   2.735  1.00  0.00    -0.206 F 
ATOM     87  C   UNL     1      14.498  -2.079   5.921  1.00  0.00     0.006 A 
ENDBRANCH  59  80
BRANCH  71  88
ATOM     88  C   UNL     1      13.752  -0.605  -3.324  1.00  0.00     0.057 A 
ATOM     89  C   UNL     1      14.566   0.528  -3.418  1.00  0.00     0.134 A 
ATOM     90  C   UNL     1      12.415  -0.477  -3.723  1.00  0.00     0.134 A 
ATOM     91  F   UNL     1      15.859   0.469  -3.060  1.00  0.00    -0.206 F 
ATOM     92  C   UNL     1      14.075   1.739  -3.907  1.00  0.00     0.040 A 
ATOM     93  C   UNL     1      11.920   0.722  -4.238  1.00  0.00     0.040 A 
ATOM     94  F   UNL     1      11.566  -1.515  -3.641  1.00  0.00    -0.206 F 
ATOM     95  C   UNL     1      12.751   1.835  -4.331  1.00  0.00     0.006 A 
ENDBRANCH  71  88
ENDBRANCH  45  46
ENDBRANCH  37  40
ENDBRANCH  35  36
ENDBRANCH  34  35
ENDBRANCH  33  34
ENDBRANCH   1  33
TORSDOF 15
