REMARK SMILES CC(C)[C@H](CO)Nc1ccc(C(=O)NCCCCNC(=O)c2ccc(-c3c4nc(c(-c5c(F)cccc5F)c5ccc([nH]5)c(-c5c(F)cccc5F)c5nc(c(-c6c(F)cccc6F)c6ccc3[nH]6)C=C5)C=C4)cc2)cc1
REMARK SMILES IDX 15 1 14 2 12 3 13 4 11 6 8 7 9 8 77 9 10 10 76 11 7 12 4 14
REMARK SMILES IDX 2 15 1 16 3 17 5 18 6 19 16 21 17 22 18 23 19 24 20 25 21 27
REMARK SMILES IDX 22 28 23 29 75 30 24 31 74 32 25 33 26 34 27 35 68 36 28 37
REMARK SMILES IDX 73 38 67 39 69 40 29 41 72 42 66 43 65 44 30 46 56 47 39 48
REMARK SMILES IDX 55 49 40 50 43 51 54 52 70 53 41 54 42 55 53 57 71 58 44 59
REMARK SMILES IDX 31 60 32 61 37 62 33 63 34 64 36 65 38 66 35 67 57 68 58 69
REMARK SMILES IDX 63 70 59 71 60 72 62 73 64 74 61 75 45 76 46 77 51 78 47 79
REMARK SMILES IDX 48 80 50 81 52 82 49 83
REMARK H PARENT 14 5 7 13 6 20 19 26 69 45 43 56
REMARK Flexibility Score: inf
ROOT
ATOM      1  C   UNL     1      -6.064  -3.385  -3.725  1.00  0.00     0.116 C 
ENDROOT
BRANCH   1   2
ATOM      2  N   UNL     1      -5.816  -2.991  -5.098  1.00  0.00    -0.352 N 
ATOM      3  C   UNL     1      -4.972  -2.054  -5.642  1.00  0.00     0.251 C 
ATOM      4  O   UNL     1      -4.934  -1.961  -6.869  1.00  0.00    -0.269 OA
ATOM      5  H   UNL     1      -6.351  -3.484  -5.762  1.00  0.00     0.163 HD
BRANCH   3   6
ATOM      6  C   UNL     1      -4.070  -1.199  -4.820  1.00  0.00     0.039 A 
ATOM      7  C   UNL     1      -2.197   0.342  -3.347  1.00  0.00     0.034 A 
ATOM      8  C   UNL     1      -1.948  -0.014  -4.676  1.00  0.00     0.026 A 
ATOM      9  C   UNL     1      -3.416  -0.043  -2.789  1.00  0.00     0.026 A 
ATOM     10  C   UNL     1      -2.866  -0.784  -5.402  1.00  0.00     0.016 A 
ATOM     11  C   UNL     1      -4.357  -0.766  -3.527  1.00  0.00     0.016 A 
BRANCH   7  12
ATOM     12  N   UNL     1      -1.223   1.006  -2.617  1.00  0.00    -0.380 N 
ATOM     13  H   UNL     1      -0.750   1.767  -3.025  1.00  0.00     0.160 HD
BRANCH  12  14
ATOM     14  C   UNL     1      -0.881   0.597  -1.246  1.00  0.00     0.107 C 
BRANCH  14  15
ATOM     15  C   UNL     1      -1.378   1.601  -0.158  1.00  0.00     0.007 C 
ATOM     16  C   UNL     1      -0.271   2.218   0.705  1.00  0.00     0.009 C 
ATOM     17  C   UNL     1      -2.283   2.731  -0.666  1.00  0.00     0.009 C 
ENDBRANCH  14  15
BRANCH  14  18
ATOM     18  C   UNL     1       0.641   0.290  -1.211  1.00  0.00     0.181 C 
BRANCH  18  19
ATOM     19  O   UNL     1       1.022  -0.658  -2.214  1.00  0.00    -0.394 OA
ATOM     20  H   UNL     1       0.558  -1.496  -2.061  1.00  0.00     0.210 HD
ENDBRANCH  18  19
ENDBRANCH  14  18
ENDBRANCH  12  14
ENDBRANCH   7  12
ENDBRANCH   3   6
ENDBRANCH   1   2
BRANCH   1  21
ATOM     21  C   UNL     1      -7.308  -2.684  -3.175  1.00  0.00     0.023 C 
BRANCH  21  22
ATOM     22  C   UNL     1      -8.631  -3.285  -3.652  1.00  0.00     0.023 C 
BRANCH  22  23
ATOM     23  C   UNL     1      -8.899  -4.698  -3.152  1.00  0.00     0.116 C 
BRANCH  23  24
ATOM     24  N   UNL     1      -8.976  -4.792  -1.702  1.00  0.00    -0.352 N 
ATOM     25  C   UNL     1      -9.694  -5.697  -0.954  1.00  0.00     0.251 C 
ATOM     26  H   UNL     1      -8.452  -4.129  -1.196  1.00  0.00     0.163 HD
ATOM     27  O   UNL     1      -9.748  -5.610   0.263  1.00  0.00    -0.269 OA
BRANCH  25  28
ATOM     28  C   UNL     1     -10.439  -6.755  -1.664  1.00  0.00     0.039 A 
ATOM     29  C   UNL     1     -11.810  -6.889  -1.433  1.00  0.00     0.014 A 
ATOM     30  C   UNL     1      -9.790  -7.559  -2.604  1.00  0.00     0.014 A 
ATOM     31  C   UNL     1     -12.550  -7.789  -2.201  1.00  0.00     0.010 A 
ATOM     32  C   UNL     1     -10.539  -8.406  -3.411  1.00  0.00     0.010 A 
ATOM     33  C   UNL     1     -11.924  -8.527  -3.217  1.00  0.00    -0.014 A 
BRANCH  33  34
ATOM     34  C   UNL     1     -12.680  -9.459  -4.087  1.00  0.00     0.031 A 
ATOM     35  C   UNL     1     -12.379 -10.928  -4.025  1.00  0.00     0.074 A 
ATOM     36  C   UNL     1     -13.555  -8.981  -4.991  1.00  0.00     0.049 A 
ATOM     37  N   UNL     1     -12.789 -11.892  -4.807  1.00  0.00    -0.248 NA
ATOM     38  C   UNL     1     -11.464 -11.363  -2.957  1.00  0.00     0.031 C 
ATOM     39  C   UNL     1     -13.918  -7.573  -5.161  1.00  0.00     0.029 A 
ATOM     40  N   UNL     1     -14.285  -9.632  -5.953  1.00  0.00    -0.354 N 
ATOM     41  C   UNL     1     -12.161 -13.041  -4.344  1.00  0.00     0.074 A 
ATOM     42  C   UNL     1     -11.310 -12.647  -3.242  1.00  0.00     0.031 C 
ATOM     43  C   UNL     1     -14.815  -7.468  -6.156  1.00  0.00     0.029 A 
ATOM     44  C   UNL     1     -15.055  -8.793  -6.721  1.00  0.00     0.049 A 
ATOM     45  H   UNL     1     -14.259 -10.607  -6.081  1.00  0.00     0.167 HD
ATOM     46  C   UNL     1     -12.294 -14.313  -4.788  1.00  0.00     0.037 A 
ATOM     47  C   UNL     1     -15.851  -9.063  -7.772  1.00  0.00     0.037 A 
ATOM     48  C   UNL     1     -13.166 -14.704  -5.862  1.00  0.00     0.049 A 
ATOM     49  C   UNL     1     -15.973 -10.481  -8.257  1.00  0.00     0.074 A 
ATOM     50  C   UNL     1     -13.405 -15.972  -6.362  1.00  0.00     0.029 A 
ATOM     51  N   UNL     1     -13.947 -13.827  -6.599  1.00  0.00    -0.354 N 
ATOM     52  N   UNL     1     -15.397 -11.564  -7.795  1.00  0.00    -0.248 NA
ATOM     53  C   UNL     1     -16.852 -10.714  -9.413  1.00  0.00     0.031 C 
ATOM     54  C   UNL     1     -14.313 -15.858  -7.420  1.00  0.00     0.029 A 
ATOM     55  C   UNL     1     -14.665 -14.524  -7.555  1.00  0.00     0.049 A 
ATOM     56  H   UNL     1     -13.986 -12.853  -6.463  1.00  0.00     0.167 HD
ATOM     57  C   UNL     1     -15.872 -12.611  -8.574  1.00  0.00     0.074 A 
ATOM     58  C   UNL     1     -16.779 -12.032  -9.544  1.00  0.00     0.031 C 
ATOM     59  C   UNL     1     -15.586 -13.932  -8.491  1.00  0.00     0.037 A 
BRANCH  46  60
ATOM     60  C   UNL     1     -11.474 -15.365  -4.104  1.00  0.00     0.057 A 
ATOM     61  C   UNL     1     -11.749 -15.778  -2.793  1.00  0.00     0.134 A 
ATOM     62  C   UNL     1     -10.396 -15.971  -4.760  1.00  0.00     0.134 A 
ATOM     63  F   UNL     1     -12.758 -15.224  -2.104  1.00  0.00    -0.206 F 
ATOM     64  C   UNL     1     -10.961 -16.732  -2.148  1.00  0.00     0.040 A 
ATOM     65  C   UNL     1      -9.617 -16.946  -4.135  1.00  0.00     0.040 A 
ATOM     66  F   UNL     1     -10.080 -15.624  -6.017  1.00  0.00    -0.206 F 
ATOM     67  C   UNL     1      -9.893 -17.322  -2.822  1.00  0.00     0.006 A 
ENDBRANCH  46  60
BRANCH  47  68
ATOM     68  C   UNL     1     -16.623  -7.973  -8.418  1.00  0.00     0.057 A 
ATOM     69  C   UNL     1     -18.009  -7.882  -8.246  1.00  0.00     0.134 A 
ATOM     70  C   UNL     1     -16.005  -7.003  -9.214  1.00  0.00     0.134 A 
ATOM     71  F   UNL     1     -18.658  -8.794  -7.508  1.00  0.00    -0.206 F 
ATOM     72  C   UNL     1     -18.756  -6.871  -8.852  1.00  0.00     0.040 A 
ATOM     73  C   UNL     1     -16.737  -5.974  -9.811  1.00  0.00     0.040 A 
ATOM     74  F   UNL     1     -14.679  -7.033  -9.412  1.00  0.00    -0.206 F 
ATOM     75  C   UNL     1     -18.118  -5.910  -9.634  1.00  0.00     0.006 A 
ENDBRANCH  47  68
BRANCH  59  76
ATOM     76  C   UNL     1     -16.304 -14.855  -9.428  1.00  0.00     0.057 A 
ATOM     77  C   UNL     1     -15.941 -14.971 -10.774  1.00  0.00     0.134 A 
ATOM     78  C   UNL     1     -17.325 -15.688  -8.953  1.00  0.00     0.134 A 
ATOM     79  F   UNL     1     -14.979 -14.191 -11.289  1.00  0.00    -0.206 F 
ATOM     80  C   UNL     1     -16.575 -15.882 -11.620  1.00  0.00     0.040 A 
ATOM     81  C   UNL     1     -17.952 -16.616  -9.784  1.00  0.00     0.040 A 
ATOM     82  F   UNL     1     -17.713 -15.627  -7.670  1.00  0.00    -0.206 F 
ATOM     83  C   UNL     1     -17.577 -16.714 -11.123  1.00  0.00     0.006 A 
ENDBRANCH  59  76
ENDBRANCH  33  34
ENDBRANCH  25  28
ENDBRANCH  23  24
ENDBRANCH  22  23
ENDBRANCH  21  22
ENDBRANCH   1  21
TORSDOF 16
