REMARK SMILES C[C@H](C(=O)NCCCCNC(=O)c1ccc(-c2c3nc(c(-c4c(F)cccc4F)c4ccc([nH]4)c(-c4c(F)cccc4F)c4nc(c(-c5c(F)cccc5F)c5ccc2[nH]5)C=C4)C=C3)cc1)[C@@H](C)Sc1ccc2c(c1)OCCCO2
REMARK SMILES IDX 3 1 4 2 5 3 2 5 1 6 67 7 68 8 69 9 70 10 71 11 75 12 72 13
REMARK SMILES IDX 74 14 73 15 76 16 77 17 78 18 80 20 79 21 6 23 7 24 8 25
REMARK SMILES IDX 9 26 10 27 11 28 12 30 13 31 14 32 66 33 15 34 65 35 16 36
REMARK SMILES IDX 17 37 18 38 59 39 19 40 64 41 58 42 60 43 20 44 63 45 57 46
REMARK SMILES IDX 56 47 21 49 47 50 30 51 46 52 31 53 34 54 45 55 61 56 32 57
REMARK SMILES IDX 33 58 44 60 62 61 35 62 22 63 23 64 28 65 24 66 25 67 27 68
REMARK SMILES IDX 29 69 26 70 48 71 49 72 54 73 50 74 51 75 53 76 55 77 52 78
REMARK SMILES IDX 36 79 37 80 42 81 38 82 39 83 41 84 43 85 40 86
REMARK H PARENT 5 4 10 29 60 48 34 59
REMARK Flexibility Score: 80.00
ROOT
ATOM      1  C   UNL     1       0.741   0.076   0.178  1.00  0.00     0.223 C 
ATOM      2  O   UNL     1       1.047   1.082  -0.465  1.00  0.00    -0.275 OA
ATOM      3  N   UNL     1       0.940  -1.134  -0.420  1.00  0.00    -0.356 N 
ATOM      4  H   UNL     1       1.347  -1.086  -1.315  1.00  0.00     0.163 HD
ENDROOT
BRANCH   1   5
ATOM      5  C   UNL     1       0.141   0.168   1.586  1.00  0.00     0.088 C 
ATOM      6  C   UNL     1       0.884   1.295   2.325  1.00  0.00     0.019 C 
BRANCH   5   7
ATOM      7  C   UNL     1      -1.389   0.432   1.527  1.00  0.00     0.061 C 
ATOM      8  C   UNL     1      -2.184  -0.420   0.544  1.00  0.00     0.020 C 
BRANCH   7   9
ATOM      9  S   UNL     1      -2.362   0.409   3.127  1.00  0.00    -0.122 SA
BRANCH   9  10
ATOM     10  C   UNL     1      -1.771  -0.986   4.072  1.00  0.00     0.011 A 
ATOM     11  C   UNL     1      -1.253  -2.163   3.519  1.00  0.00     0.019 A 
ATOM     12  C   UNL     1      -1.727  -0.815   5.461  1.00  0.00     0.065 A 
ATOM     13  C   UNL     1      -0.408  -2.978   4.268  1.00  0.00     0.051 A 
ATOM     14  C   UNL     1      -0.914  -1.643   6.217  1.00  0.00     0.162 A 
ATOM     15  C   UNL     1      -0.146  -2.608   5.577  1.00  0.00     0.161 A 
BRANCH  14  16
ATOM     16  O   UNL     1      -0.729  -1.442   7.555  1.00  0.00    -0.490 OA
BRANCH  16  17
ATOM     17  C   UNL     1       0.288  -0.471   7.785  1.00  0.00     0.233 C 
BRANCH  17  18
ATOM     18  C   UNL     1       1.707  -0.882   7.369  1.00  0.00     0.083 CG0
ATOM     19  G   UNL     1       1.852  -1.694   6.082  1.00  0.00     0.000 G0
ENDBRANCH  17  18
ENDBRANCH  16  17
ENDBRANCH  14  16
BRANCH  15  20
ATOM     20  O   UNL     1       1.086  -2.923   6.108  1.00  0.00    -0.490 OA
BRANCH  20  21
ATOM     21  C   UNL     1       1.852  -1.694   6.082  1.00  0.00     0.233 CG0
ATOM     22  G   UNL     1       1.707  -0.882   7.369  1.00  0.00     0.000 G0
ENDBRANCH  20  21
ENDBRANCH  15  20
ENDBRANCH   9  10
ENDBRANCH   7   9
ENDBRANCH   5   7
ENDBRANCH   1   5
BRANCH   3  23
ATOM     23  C   UNL     1       0.654  -2.479   0.042  1.00  0.00     0.116 C 
BRANCH  23  24
ATOM     24  C   UNL     1      -0.469  -3.137  -0.760  1.00  0.00     0.023 C 
BRANCH  24  25
ATOM     25  C   UNL     1      -0.129  -3.444  -2.213  1.00  0.00     0.023 C 
BRANCH  25  26
ATOM     26  C   UNL     1       1.025  -4.413  -2.390  1.00  0.00     0.116 C 
BRANCH  26  27
ATOM     27  N   UNL     1       0.788  -5.689  -1.732  1.00  0.00    -0.352 N 
ATOM     28  C   UNL     1       0.897  -6.956  -2.241  1.00  0.00     0.251 C 
ATOM     29  H   UNL     1       0.512  -5.634  -0.788  1.00  0.00     0.163 HD
ATOM     30  O   UNL     1       0.486  -7.919  -1.592  1.00  0.00    -0.269 OA
BRANCH  28  31
ATOM     31  C   UNL     1       1.492  -7.160  -3.575  1.00  0.00     0.039 A 
ATOM     32  C   UNL     1       0.918  -8.090  -4.443  1.00  0.00     0.014 A 
ATOM     33  C   UNL     1       2.618  -6.431  -3.967  1.00  0.00     0.014 A 
ATOM     34  C   UNL     1       1.456  -8.262  -5.718  1.00  0.00     0.010 A 
ATOM     35  C   UNL     1       3.080  -6.520  -5.272  1.00  0.00     0.010 A 
ATOM     36  C   UNL     1       2.530  -7.466  -6.147  1.00  0.00    -0.014 A 
BRANCH  36  37
ATOM     37  C   UNL     1       3.146  -7.659  -7.481  1.00  0.00     0.031 A 
ATOM     38  C   UNL     1       4.585  -8.094  -7.579  1.00  0.00     0.074 A 
ATOM     39  C   UNL     1       2.433  -7.406  -8.595  1.00  0.00     0.049 A 
ATOM     40  N   UNL     1       5.318  -8.297  -8.643  1.00  0.00    -0.248 NA
ATOM     41  C   UNL     1       5.307  -8.293  -6.311  1.00  0.00     0.031 C 
ATOM     42  C   UNL     1       1.050  -6.928  -8.626  1.00  0.00     0.029 A 
ATOM     43  N   UNL     1       2.777  -7.519  -9.917  1.00  0.00    -0.354 N 
ATOM     44  C   UNL     1       6.585  -8.621  -8.171  1.00  0.00     0.074 A 
ATOM     45  C   UNL     1       6.541  -8.518  -6.731  1.00  0.00     0.031 C 
ATOM     46  C   UNL     1       0.648  -6.832  -9.905  1.00  0.00     0.029 A 
ATOM     47  C   UNL     1       1.755  -7.207 -10.779  1.00  0.00     0.049 A 
ATOM     48  H   UNL     1       3.672  -7.798 -10.219  1.00  0.00     0.167 HD
ATOM     49  C   UNL     1       7.678  -9.002  -8.871  1.00  0.00     0.037 A 
ATOM     50  C   UNL     1       1.717  -7.231 -12.124  1.00  0.00     0.037 A 
ATOM     51  C   UNL     1       7.704  -9.139 -10.303  1.00  0.00     0.049 A 
ATOM     52  C   UNL     1       2.941  -7.671 -12.880  1.00  0.00     0.074 A 
ATOM     53  C   UNL     1       8.736  -9.582 -11.109  1.00  0.00     0.029 A 
ATOM     54  N   UNL     1       6.642  -8.832 -11.141  1.00  0.00    -0.354 N 
ATOM     55  N   UNL     1       4.109  -8.051 -12.420  1.00  0.00    -0.248 NA
ATOM     56  C   UNL     1       2.834  -7.702 -14.345  1.00  0.00     0.031 C 
ATOM     57  C   UNL     1       8.316  -9.495 -12.441  1.00  0.00     0.029 A 
ATOM     58  C   UNL     1       7.001  -9.058 -12.459  1.00  0.00     0.049 A 
ATOM     59  H   UNL     1       5.763  -8.503 -10.843  1.00  0.00     0.167 HD
ATOM     60  C   UNL     1       4.860  -8.407 -13.533  1.00  0.00     0.074 A 
ATOM     61  C   UNL     1       4.011  -8.205 -14.689  1.00  0.00     0.031 C 
ATOM     62  C   UNL     1       6.134  -8.867 -13.595  1.00  0.00     0.037 A 
BRANCH  49  63
ATOM     63  C   UNL     1       8.931  -9.294  -8.094  1.00  0.00     0.057 A 
ATOM     64  C   UNL     1       9.032 -10.393  -7.229  1.00  0.00     0.134 A 
ATOM     65  C   UNL     1      10.055  -8.469  -8.218  1.00  0.00     0.134 A 
ATOM     66  F   UNL     1       7.988 -11.217  -7.050  1.00  0.00    -0.206 F 
ATOM     67  C   UNL     1      10.191 -10.638  -6.489  1.00  0.00     0.040 A 
ATOM     68  C   UNL     1      11.231  -8.722  -7.509  1.00  0.00     0.040 A 
ATOM     69  F   UNL     1      10.031  -7.401  -9.030  1.00  0.00    -0.206 F 
ATOM     70  C   UNL     1      11.297  -9.804  -6.634  1.00  0.00     0.006 A 
ENDBRANCH  49  63
BRANCH  50  71
ATOM     71  C   UNL     1       0.465  -6.882 -12.843  1.00  0.00     0.057 A 
ATOM     72  C   UNL     1      -0.268  -7.859 -13.526  1.00  0.00     0.134 A 
ATOM     73  C   UNL     1      -0.022  -5.570 -12.876  1.00  0.00     0.134 A 
ATOM     74  F   UNL     1       0.156  -9.132 -13.544  1.00  0.00    -0.206 F 
ATOM     75  C   UNL     1      -1.426  -7.542 -14.239  1.00  0.00     0.040 A 
ATOM     76  C   UNL     1      -1.193  -5.243 -13.562  1.00  0.00     0.040 A 
ATOM     77  F   UNL     1       0.627  -4.590 -12.232  1.00  0.00    -0.206 F 
ATOM     78  C   UNL     1      -1.893  -6.230 -14.254  1.00  0.00     0.006 A 
ENDBRANCH  50  71
BRANCH  62  79
ATOM     79  C   UNL     1       6.663  -9.244 -14.948  1.00  0.00     0.057 A 
ATOM     80  C   UNL     1       6.949  -8.290 -15.933  1.00  0.00     0.134 A 
ATOM     81  C   UNL     1       6.913 -10.588 -15.259  1.00  0.00     0.134 A 
ATOM     82  F   UNL     1       6.723  -6.987 -15.704  1.00  0.00    -0.206 F 
ATOM     83  C   UNL     1       7.430  -8.662 -17.190  1.00  0.00     0.040 A 
ATOM     84  C   UNL     1       7.425 -10.969 -16.499  1.00  0.00     0.040 A 
ATOM     85  F   UNL     1       6.674 -11.552 -14.357  1.00  0.00    -0.206 F 
ATOM     86  C   UNL     1       7.675 -10.005 -17.473  1.00  0.00     0.006 A 
ENDBRANCH  62  79
ENDBRANCH  36  37
ENDBRANCH  28  31
ENDBRANCH  26  27
ENDBRANCH  25  26
ENDBRANCH  24  25
ENDBRANCH  23  24
ENDBRANCH   3  23
TORSDOF 14
