REMARK SMILES CC(C)(O)CCOc1ccc(C(=O)NCCCCNC(=O)c2ccc(-c3c4nc(c(-c5c(F)cccc5F)c5ccc([nH]5)c(-c5c(F)cccc5F)c5nc(c(-c6c(F)cccc6F)c6ccc3[nH]6)C=C5)C=C4)cc2)cc1
REMARK SMILES IDX 15 1 14 2 12 3 13 4 11 6 8 7 9 8 77 9 10 10 76 11 7 12 6 13
REMARK SMILES IDX 5 14 2 15 1 16 3 17 4 18 16 20 17 21 18 22 19 23 20 24 21 26
REMARK SMILES IDX 22 27 23 28 75 29 24 30 74 31 25 32 26 33 27 34 68 35 28 36
REMARK SMILES IDX 73 37 67 38 69 39 29 40 72 41 66 42 65 43 30 45 56 46 39 47
REMARK SMILES IDX 55 48 40 49 43 50 54 51 70 52 41 53 42 54 53 56 71 57 44 58
REMARK SMILES IDX 31 59 32 60 37 61 33 62 34 63 36 64 38 65 35 66 57 67 58 68
REMARK SMILES IDX 63 69 59 70 60 71 62 72 64 73 61 74 45 75 46 76 51 77 47 78
REMARK SMILES IDX 48 79 50 80 52 81 49 82
REMARK H PARENT 14 5 4 19 19 25 69 44 43 55
REMARK Flexibility Score: inf
ROOT
ATOM      1  C   UNL     1       0.256   0.221   3.760  1.00  0.00     0.116 C 
ENDROOT
BRANCH   1   2
ATOM      2  N   UNL     1       0.058   1.646   3.979  1.00  0.00    -0.352 N 
ATOM      3  C   UNL     1      -0.105   2.670   3.070  1.00  0.00     0.251 C 
ATOM      4  O   UNL     1      -0.143   3.833   3.462  1.00  0.00    -0.269 OA
ATOM      5  H   UNL     1       0.038   1.923   4.924  1.00  0.00     0.163 HD
BRANCH   3   6
ATOM      6  C   UNL     1      -0.178   2.384   1.620  1.00  0.00     0.040 A 
ATOM      7  C   UNL     1       0.045   1.582  -1.045  1.00  0.00     0.119 A 
ATOM      8  C   UNL     1       0.775   2.679  -0.578  1.00  0.00     0.047 A 
ATOM      9  C   UNL     1      -0.941   1.030  -0.229  1.00  0.00     0.047 A 
ATOM     10  C   UNL     1       0.666   3.085   0.754  1.00  0.00     0.017 A 
ATOM     11  C   UNL     1      -1.046   1.419   1.109  1.00  0.00     0.017 A 
BRANCH   7  12
ATOM     12  O   UNL     1       0.451   1.096  -2.255  1.00  0.00    -0.493 OA
BRANCH  12  13
ATOM     13  C   UNL     1       0.073  -0.230  -2.638  1.00  0.00     0.232 C 
BRANCH  13  14
ATOM     14  C   UNL     1       1.056  -1.347  -2.225  1.00  0.00     0.076 C 
BRANCH  14  15
ATOM     15  C   UNL     1       1.022  -1.855  -0.764  1.00  0.00     0.062 C 
ATOM     16  C   UNL     1       1.926  -1.034   0.162  1.00  0.00     0.042 C 
ATOM     17  C   UNL     1       1.488  -3.318  -0.688  1.00  0.00     0.042 C 
BRANCH  15  18
ATOM     18  O   UNL     1      -0.322  -1.848  -0.286  1.00  0.00    -0.390 OA
ATOM     19  H   UNL     1      -0.341  -2.167   0.630  1.00  0.00     0.211 HD
ENDBRANCH  15  18
ENDBRANCH  14  15
ENDBRANCH  13  14
ENDBRANCH  12  13
ENDBRANCH   7  12
ENDBRANCH   3   6
ENDBRANCH   1   2
BRANCH   1  20
ATOM     20  C   UNL     1       1.527  -0.319   4.417  1.00  0.00     0.023 C 
BRANCH  20  21
ATOM     21  C   UNL     1       1.528  -0.343   5.947  1.00  0.00     0.023 C 
BRANCH  21  22
ATOM     22  C   UNL     1       0.444  -1.194   6.604  1.00  0.00     0.116 C 
BRANCH  22  23
ATOM     23  N   UNL     1       0.531  -2.609   6.274  1.00  0.00    -0.352 N 
ATOM     24  C   UNL     1       0.345  -3.708   7.080  1.00  0.00     0.251 C 
ATOM     25  H   UNL     1       0.756  -2.809   5.337  1.00  0.00     0.163 HD
ATOM     26  O   UNL     1       0.552  -4.833   6.632  1.00  0.00    -0.269 OA
BRANCH  24  27
ATOM     27  C   UNL     1      -0.063  -3.547   8.496  1.00  0.00     0.039 A 
ATOM     28  C   UNL     1       0.574  -4.322   9.470  1.00  0.00     0.014 A 
ATOM     29  C   UNL     1      -1.064  -2.647   8.871  1.00  0.00     0.014 A 
ATOM     30  C   UNL     1       0.260  -4.142  10.821  1.00  0.00     0.010 A 
ATOM     31  C   UNL     1      -1.325  -2.418  10.222  1.00  0.00     0.010 A 
ATOM     32  C   UNL     1      -0.665  -3.160  11.212  1.00  0.00    -0.014 A 
BRANCH  32  33
ATOM     33  C   UNL     1      -0.940  -2.894  12.649  1.00  0.00     0.031 A 
ATOM     34  C   UNL     1      -2.308  -3.138  13.224  1.00  0.00     0.074 A 
ATOM     35  C   UNL     1       0.031  -2.376  13.428  1.00  0.00     0.049 A 
ATOM     36  N   UNL     1      -2.743  -2.930  14.442  1.00  0.00    -0.248 NA
ATOM     37  C   UNL     1      -3.331  -3.659  12.303  1.00  0.00     0.031 C 
ATOM     38  C   UNL     1       1.384  -2.039  12.983  1.00  0.00     0.029 A 
ATOM     39  N   UNL     1       0.026  -2.036  14.758  1.00  0.00    -0.354 N 
ATOM     40  C   UNL     1      -4.087  -3.283  14.430  1.00  0.00     0.074 A 
ATOM     41  C   UNL     1      -4.410  -3.665  13.072  1.00  0.00     0.031 C 
ATOM     42  C   UNL     1       2.086  -1.567  14.025  1.00  0.00     0.029 A 
ATOM     43  C   UNL     1       1.226  -1.535  15.204  1.00  0.00     0.049 A 
ATOM     44  H   UNL     1      -0.763  -2.140  15.338  1.00  0.00     0.167 HD
ATOM     45  C   UNL     1      -4.966  -3.311  15.460  1.00  0.00     0.037 A 
ATOM     46  C   UNL     1       1.592  -1.099  16.424  1.00  0.00     0.037 A 
ATOM     47  C   UNL     1      -4.640  -2.952  16.816  1.00  0.00     0.049 A 
ATOM     48  C   UNL     1       0.599  -1.145  17.552  1.00  0.00     0.074 A 
ATOM     49  C   UNL     1      -5.446  -3.006  17.940  1.00  0.00     0.029 A 
ATOM     50  N   UNL     1      -3.408  -2.470  17.231  1.00  0.00    -0.354 N 
ATOM     51  N   UNL     1      -0.646  -1.554  17.542  1.00  0.00    -0.248 NA
ATOM     52  C   UNL     1       1.067  -0.677  18.865  1.00  0.00     0.031 C 
ATOM     53  C   UNL     1      -4.715  -2.516  19.028  1.00  0.00     0.029 A 
ATOM     54  C   UNL     1      -3.438  -2.204  18.591  1.00  0.00     0.049 A 
ATOM     55  H   UNL     1      -2.628  -2.336  16.647  1.00  0.00     0.167 HD
ATOM     56  C   UNL     1      -1.101  -1.421  18.848  1.00  0.00     0.074 A 
ATOM     57  C   UNL     1       0.007  -0.908  19.627  1.00  0.00     0.031 C 
ATOM     58  C   UNL     1      -2.327  -1.699  19.356  1.00  0.00     0.037 A 
BRANCH  45  59
ATOM     59  C   UNL     1      -6.370  -3.752  15.159  1.00  0.00     0.057 A 
ATOM     60  C   UNL     1      -6.673  -5.082  14.838  1.00  0.00     0.134 A 
ATOM     61  C   UNL     1      -7.436  -2.846  15.224  1.00  0.00     0.134 A 
ATOM     62  F   UNL     1      -5.697  -5.999  14.749  1.00  0.00    -0.206 F 
ATOM     63  C   UNL     1      -7.980  -5.489  14.565  1.00  0.00     0.040 A 
ATOM     64  C   UNL     1      -8.751  -3.247  14.980  1.00  0.00     0.040 A 
ATOM     65  F   UNL     1      -7.220  -1.559  15.533  1.00  0.00    -0.206 F 
ATOM     66  C   UNL     1      -9.025  -4.571  14.642  1.00  0.00     0.006 A 
ENDBRANCH  45  59
BRANCH  46  67
ATOM     67  C   UNL     1       2.975  -0.610  16.655  1.00  0.00     0.057 A 
ATOM     68  C   UNL     1       3.881  -1.345  17.430  1.00  0.00     0.134 A 
ATOM     69  C   UNL     1       3.422   0.603  16.119  1.00  0.00     0.134 A 
ATOM     70  F   UNL     1       3.505  -2.506  17.986  1.00  0.00    -0.206 F 
ATOM     71  C   UNL     1       5.173  -0.882  17.681  1.00  0.00     0.040 A 
ATOM     72  C   UNL     1       4.720   1.067  16.341  1.00  0.00     0.040 A 
ATOM     73  F   UNL     1       2.605   1.351  15.362  1.00  0.00    -0.206 F 
ATOM     74  C   UNL     1       5.597   0.327  17.131  1.00  0.00     0.006 A 
ENDBRANCH  46  67
BRANCH  58  75
ATOM     75  C   UNL     1      -2.523  -1.488  20.829  1.00  0.00     0.057 A 
ATOM     76  C   UNL     1      -2.594  -0.207  21.391  1.00  0.00     0.134 A 
ATOM     77  C   UNL     1      -2.671  -2.582  21.691  1.00  0.00     0.134 A 
ATOM     78  F   UNL     1      -2.446   0.882  20.623  1.00  0.00    -0.206 F 
ATOM     79  C   UNL     1      -2.779  -0.022  22.763  1.00  0.00     0.040 A 
ATOM     80  C   UNL     1      -2.884  -2.409  23.059  1.00  0.00     0.040 A 
ATOM     81  F   UNL     1      -2.622  -3.836  21.216  1.00  0.00    -0.206 F 
ATOM     82  C   UNL     1      -2.931  -1.126  23.600  1.00  0.00     0.006 A 
ENDBRANCH  58  75
ENDBRANCH  32  33
ENDBRANCH  24  27
ENDBRANCH  22  23
ENDBRANCH  21  22
ENDBRANCH  20  21
ENDBRANCH   1  20
TORSDOF 16
