REMARK SMILES [NH3+][C@H]1C=C[C@H](C(=O)N2CCCc3c(C(=O)NCCCNC(=O)c4ccc(-c5c6nc(c(-c7c(F)cccc7F)c7ccc([nH]7)c(-c7c(F)cccc7F)c7nc(c(-c8c(F)cccc8F)c8ccc5[nH]8)C=C7)C=C6)cc4)cccc32)C1
REMARK SMILES IDX 17 1 16 2 14 3 15 4 13 6 8 7 9 8 80 9 10 10 12 11 79 12
REMARK SMILES IDX 11 13 78 14 77 15 6 16 7 17 5 18 2 19 3 20 81 21 4 22 1 23
REMARK SMILES IDX 18 27 19 28 20 29 21 30 22 32 23 33 24 34 76 35 25 36 75 37
REMARK SMILES IDX 26 38 27 39 28 40 69 41 29 42 74 43 68 44 70 45 30 46 73 47
REMARK SMILES IDX 67 48 66 49 31 51 57 52 40 53 56 54 41 55 44 56 55 57 71 58
REMARK SMILES IDX 42 59 43 60 54 62 72 63 45 64 32 65 33 66 38 67 34 68 35 69
REMARK SMILES IDX 37 70 39 71 36 72 58 73 59 74 64 75 60 76 61 77 63 78 65 79
REMARK SMILES IDX 62 80 46 81 47 82 52 83 48 84 49 85 51 86 53 87 50 88
REMARK H PARENT 16 5 1 24 1 25 1 26 20 31 70 50 44 61
REMARK Flexibility Score: inf
ROOT
ATOM      1  C   UNL     1      -8.431   3.469   0.576  1.00  0.00     0.118 C 
ENDROOT
BRANCH   1   2
ATOM      2  N   UNL     1      -8.231   4.885   0.815  1.00  0.00    -0.352 N 
ATOM      3  C   UNL     1      -7.242   5.824   0.710  1.00  0.00     0.251 C 
ATOM      4  O   UNL     1      -7.642   6.957   1.018  1.00  0.00    -0.269 OA
ATOM      5  H   UNL     1      -9.058   5.296   1.157  1.00  0.00     0.163 HD
BRANCH   3   6
ATOM      6  C   UNL     1      -5.798   5.698   0.270  1.00  0.00     0.045 A 
ATOM      7  N   UNL     1      -2.666   3.613  -0.184  1.00  0.00    -0.312 N 
ATOM      8  C   UNL     1      -3.339   2.329  -0.278  1.00  0.00     0.126 C 
ATOM      9  C   UNL     1      -3.539   4.755  -0.079  1.00  0.00     0.048 A 
ATOM     10  C   UNL     1      -4.250   2.192   0.916  1.00  0.00     0.027 C 
ATOM     11  C   UNL     1      -4.911   4.592   0.289  1.00  0.00    -0.011 A 
ATOM     12  C   UNL     1      -3.047   6.024  -0.397  1.00  0.00     0.027 A 
ATOM     13  C   UNL     1      -5.332   3.242   0.778  1.00  0.00     0.040 C 
ATOM     14  C   UNL     1      -3.900   7.115  -0.419  1.00  0.00     0.003 A 
ATOM     15  C   UNL     1      -5.249   6.946  -0.110  1.00  0.00     0.014 A 
BRANCH   7  16
ATOM     16  C   UNL     1      -1.305   3.713   0.128  1.00  0.00     0.234 C 
ATOM     17  O   UNL     1      -0.902   4.491   0.999  1.00  0.00    -0.274 OA
BRANCH  16  18
ATOM     18  C   UNL     1      -0.313   2.957  -0.793  1.00  0.00     0.108 C 
ATOM     19  C   UNL     1       1.012   1.214   0.309  1.00  0.00     0.205 C 
ATOM     20  C   UNL     1       1.825   2.439   0.093  1.00  0.00     0.033 C 
ATOM     21  C   UNL     1      -0.142   1.439  -0.670  1.00  0.00     0.087 C 
ATOM     22  C   UNL     1       1.106   3.399  -0.504  1.00  0.00    -0.012 C 
BRANCH  19  23
ATOM     23  N   UNL     1       1.704  -0.026   0.019  1.00  0.00    -0.352 N 
ATOM     24  H   UNL     1       2.467  -0.153   0.683  1.00  0.00     0.345 HD
ATOM     25  H   UNL     1       2.080   0.008  -0.929  1.00  0.00     0.345 HD
ATOM     26  H   UNL     1       1.052  -0.806   0.098  1.00  0.00     0.345 HD
ENDBRANCH  19  23
ENDBRANCH  16  18
ENDBRANCH   7  16
ENDBRANCH   3   6
ENDBRANCH   1   2
BRANCH   1  27
ATOM     27  C   UNL     1      -8.110   2.649   1.826  1.00  0.00     0.042 C 
BRANCH  27  28
ATOM     28  C   UNL     1      -9.310   2.031   2.511  1.00  0.00     0.118 C 
BRANCH  28  29
ATOM     29  N   UNL     1      -9.849   0.912   1.758  1.00  0.00    -0.352 N 
ATOM     30  C   UNL     1     -10.098  -0.377   2.164  1.00  0.00     0.251 C 
ATOM     31  H   UNL     1     -10.069   1.106   0.819  1.00  0.00     0.163 HD
ATOM     32  O   UNL     1     -10.362  -1.230   1.323  1.00  0.00    -0.269 OA
BRANCH  30  33
ATOM     33  C   UNL     1     -10.024  -0.749   3.598  1.00  0.00     0.039 A 
ATOM     34  C   UNL     1      -9.562  -2.024   3.939  1.00  0.00     0.014 A 
ATOM     35  C   UNL     1     -10.426   0.132   4.605  1.00  0.00     0.014 A 
ATOM     36  C   UNL     1      -9.460  -2.392   5.282  1.00  0.00     0.010 A 
ATOM     37  C   UNL     1     -10.219  -0.193   5.941  1.00  0.00     0.010 A 
ATOM     38  C   UNL     1      -9.759  -1.467   6.295  1.00  0.00    -0.014 A 
BRANCH  38  39
ATOM     39  C   UNL     1      -9.638  -1.824   7.731  1.00  0.00     0.031 A 
ATOM     40  C   UNL     1     -10.856  -1.798   8.615  1.00  0.00     0.074 A 
ATOM     41  C   UNL     1      -8.428  -2.112   8.247  1.00  0.00     0.049 A 
ATOM     42  N   UNL     1     -10.949  -2.010   9.903  1.00  0.00    -0.248 NA
ATOM     43  C   UNL     1     -12.136  -1.455   7.972  1.00  0.00     0.031 C 
ATOM     44  C   UNL     1      -7.168  -2.118   7.501  1.00  0.00     0.029 A 
ATOM     45  N   UNL     1      -8.058  -2.448   9.525  1.00  0.00    -0.354 N 
ATOM     46  C   UNL     1     -12.287  -1.810  10.222  1.00  0.00     0.074 A 
ATOM     47  C   UNL     1     -12.956  -1.395   9.010  1.00  0.00     0.031 C 
ATOM     48  C   UNL     1      -6.170  -2.471   8.326  1.00  0.00     0.029 A 
ATOM     49  C   UNL     1      -6.710  -2.674   9.666  1.00  0.00     0.049 A 
ATOM     50  H   UNL     1      -8.698  -2.520  10.270  1.00  0.00     0.167 HD
ATOM     51  C   UNL     1     -12.908  -1.983  11.413  1.00  0.00     0.037 A 
ATOM     52  C   UNL     1      -5.992  -3.000  10.757  1.00  0.00     0.037 A 
ATOM     53  C   UNL     1     -12.239  -2.422  12.609  1.00  0.00     0.049 A 
ATOM     54  C   UNL     1      -6.704  -3.181  12.069  1.00  0.00     0.074 A 
ATOM     55  C   UNL     1     -12.783  -2.688  13.852  1.00  0.00     0.029 A 
ATOM     56  N   UNL     1     -10.876  -2.657  12.708  1.00  0.00    -0.354 N 
ATOM     57  N   UNL     1      -7.981  -3.058  12.342  1.00  0.00    -0.248 NA
ATOM     58  C   UNL     1      -5.876  -3.553  13.225  1.00  0.00     0.031 C 
ATOM     59  C   UNL     1     -11.741  -3.034  14.718  1.00  0.00     0.029 A 
ATOM     60  C   UNL     1     -10.556  -3.041  13.999  1.00  0.00     0.049 A 
ATOM     61  H   UNL     1     -10.231  -2.564  11.970  1.00  0.00     0.167 HD
ATOM     62  C   UNL     1      -8.114  -3.366  13.690  1.00  0.00     0.074 A 
ATOM     63  C   UNL     1      -6.790  -3.696  14.174  1.00  0.00     0.031 C 
ATOM     64  C   UNL     1      -9.231  -3.374  14.458  1.00  0.00     0.037 A 
BRANCH  51  65
ATOM     65  C   UNL     1     -14.382  -1.701  11.475  1.00  0.00     0.057 A 
ATOM     66  C   UNL     1     -15.321  -2.510  10.819  1.00  0.00     0.134 A 
ATOM     67  C   UNL     1     -14.874  -0.623  12.221  1.00  0.00     0.134 A 
ATOM     68  F   UNL     1     -14.919  -3.552  10.075  1.00  0.00    -0.206 F 
ATOM     69  C   UNL     1     -16.689  -2.240  10.878  1.00  0.00     0.040 A 
ATOM     70  C   UNL     1     -16.242  -0.360  12.314  1.00  0.00     0.040 A 
ATOM     71  F   UNL     1     -14.034   0.191  12.879  1.00  0.00    -0.206 F 
ATOM     72  C   UNL     1     -17.154  -1.166  11.634  1.00  0.00     0.006 A 
ENDBRANCH  51  65
BRANCH  52  73
ATOM     73  C   UNL     1      -4.524  -3.200  10.651  1.00  0.00     0.057 A 
ATOM     74  C   UNL     1      -3.954  -4.469  10.805  1.00  0.00     0.134 A 
ATOM     75  C   UNL     1      -3.655  -2.130  10.399  1.00  0.00     0.134 A 
ATOM     76  F   UNL     1      -4.731  -5.531  11.064  1.00  0.00    -0.206 F 
ATOM     77  C   UNL     1      -2.573  -4.665  10.736  1.00  0.00     0.040 A 
ATOM     78  C   UNL     1      -2.276  -2.316  10.299  1.00  0.00     0.040 A 
ATOM     79  F   UNL     1      -4.138  -0.891  10.231  1.00  0.00    -0.206 F 
ATOM     80  C   UNL     1      -1.730  -3.586  10.477  1.00  0.00     0.006 A 
ENDBRANCH  52  73
BRANCH  64  81
ATOM     81  C   UNL     1      -9.074  -3.791  15.892  1.00  0.00     0.057 A 
ATOM     82  C   UNL     1      -8.437  -2.976  16.836  1.00  0.00     0.134 A 
ATOM     83  C   UNL     1      -9.607  -5.007  16.340  1.00  0.00     0.134 A 
ATOM     84  F   UNL     1      -7.896  -1.805  16.469  1.00  0.00    -0.206 F 
ATOM     85  C   UNL     1      -8.313  -3.368  18.169  1.00  0.00     0.040 A 
ATOM     86  C   UNL     1      -9.515  -5.395  17.676  1.00  0.00     0.040 A 
ATOM     87  F   UNL     1     -10.239  -5.829  15.489  1.00  0.00    -0.206 F 
ATOM     88  C   UNL     1      -8.860  -4.577  18.594  1.00  0.00     0.006 A 
ENDBRANCH  64  81
ENDBRANCH  38  39
ENDBRANCH  30  33
ENDBRANCH  28  29
ENDBRANCH  27  28
ENDBRANCH   1  27
TORSDOF 13
