REMARK SMILES Cc1c(/C=C/C(=O)NCCCNC(=O)c2ccc(-c3c4nc(c(-c5c(F)cccc5F)c5ccc([nH]5)c(-c5c(F)cccc5F)c5nc(c(-c6c(F)cccc6F)c6ccc3[nH]6)C=C5)C=C4)cc2)cccc1C(=O)N1C[C@@H](C)[C@@H](C)C1
REMARK SMILES IDX 9 1 8 2 6 3 7 4 5 6 4 7 3 8 1 9 2 10 72 11 69 12 71 13 70 14
REMARK SMILES IDX 73 15 74 16 75 17 76 18 81 19 77 20 79 21 78 22 80 23 10 24
REMARK SMILES IDX 11 25 12 26 13 27 14 29 15 30 16 31 68 32 17 33 67 34 18 35
REMARK SMILES IDX 19 36 20 37 61 38 21 39 66 40 60 41 62 42 22 43 65 44 59 45
REMARK SMILES IDX 58 46 23 48 49 49 32 50 48 51 33 52 36 53 47 54 63 55 34 56
REMARK SMILES IDX 35 57 46 59 64 60 37 61 24 62 25 63 30 64 26 65 27 66 29 67
REMARK SMILES IDX 31 68 28 69 50 70 51 71 56 72 52 73 53 74 55 75 57 76 54 77
REMARK SMILES IDX 38 78 39 79 44 80 40 81 41 82 43 83 45 84 42 85
REMARK H PARENT 8 5 12 28 62 47 36 58
REMARK Flexibility Score: inf
ROOT
ATOM      1  C   UNL     1       3.187  -4.015  -0.740  1.00  0.00     0.118 C 
ENDROOT
BRANCH   1   2
ATOM      2  N   UNL     1       2.231  -5.005  -0.258  1.00  0.00    -0.352 N 
ATOM      3  C   UNL     1       0.878  -4.878  -0.104  1.00  0.00     0.244 C 
ATOM      4  O   UNL     1       0.181  -5.837   0.205  1.00  0.00    -0.270 OA
ATOM      5  H   UNL     1       2.610  -5.880  -0.012  1.00  0.00     0.163 HD
BRANCH   3   6
ATOM      6  C   UNL     1       0.270  -3.562  -0.388  1.00  0.00     0.072 C 
ATOM      7  C   UNL     1       0.509  -2.527   0.431  1.00  0.00     0.014 C 
BRANCH   7   8
ATOM      8  C   UNL     1       0.064  -1.145   0.174  1.00  0.00    -0.022 A 
ATOM      9  C   UNL     1       2.368  -0.266   0.766  1.00  0.00     0.046 C 
ATOM     10  C   UNL     1       0.946  -0.039   0.331  1.00  0.00    -0.031 A 
ATOM     11  C   UNL     1       0.463   1.267   0.071  1.00  0.00     0.043 A 
ATOM     12  C   UNL     1      -1.281  -0.922  -0.156  1.00  0.00     0.008 A 
ATOM     13  C   UNL     1      -0.888   1.454  -0.269  1.00  0.00     0.014 A 
ATOM     14  C   UNL     1      -1.754   0.368  -0.376  1.00  0.00     0.001 A 
BRANCH  11  15
ATOM     15  C   UNL     1       1.215   2.500   0.442  1.00  0.00     0.254 C 
ATOM     16  O   UNL     1       0.644   3.287   1.198  1.00  0.00    -0.269 OA
BRANCH  15  17
ATOM     17  N   UNL     1       2.528   2.695   0.050  1.00  0.00    -0.338 N 
ATOM     18  C   UNL     1       3.392   3.509   0.882  1.00  0.00     0.123 C 
ATOM     19  C   UNL     1       3.171   2.337  -1.206  1.00  0.00     0.123 C 
ATOM     20  C   UNL     1       4.568   3.901  -0.002  1.00  0.00     0.010 C 
ATOM     21  C   UNL     1       4.644   2.764  -1.045  1.00  0.00     0.010 C 
ATOM     22  C   UNL     1       5.822   4.167   0.820  1.00  0.00     0.010 C 
ATOM     23  C   UNL     1       5.542   1.590  -0.655  1.00  0.00     0.010 C 
ENDBRANCH  15  17
ENDBRANCH  11  15
ENDBRANCH   7   8
ENDBRANCH   3   6
ENDBRANCH   1   2
BRANCH   1  24
ATOM     24  C   UNL     1       3.905  -3.308   0.405  1.00  0.00     0.042 C 
BRANCH  24  25
ATOM     25  C   UNL     1       5.169  -4.009   0.862  1.00  0.00     0.118 C 
BRANCH  25  26
ATOM     26  N   UNL     1       6.390  -3.485   0.256  1.00  0.00    -0.352 N 
ATOM     27  C   UNL     1       7.690  -3.961   0.331  1.00  0.00     0.251 C 
ATOM     28  H   UNL     1       6.273  -2.671  -0.286  1.00  0.00     0.163 HD
ATOM     29  O   UNL     1       8.596  -3.353  -0.210  1.00  0.00    -0.269 OA
BRANCH  27  30
ATOM     30  C   UNL     1       7.944  -5.282   0.958  1.00  0.00     0.039 A 
ATOM     31  C   UNL     1       8.796  -6.179   0.298  1.00  0.00     0.014 A 
ATOM     32  C   UNL     1       7.195  -5.707   2.046  1.00  0.00     0.014 A 
ATOM     33  C   UNL     1       8.697  -7.544   0.567  1.00  0.00     0.010 A 
ATOM     34  C   UNL     1       6.995  -7.056   2.216  1.00  0.00     0.010 A 
ATOM     35  C   UNL     1       7.711  -7.981   1.445  1.00  0.00    -0.014 A 
BRANCH  35  36
ATOM     36  C   UNL     1       7.277  -9.363   1.614  1.00  0.00     0.031 A 
ATOM     37  C   UNL     1       7.467 -10.033   2.920  1.00  0.00     0.074 A 
ATOM     38  C   UNL     1       6.467  -9.909   0.682  1.00  0.00     0.049 A 
ATOM     39  N   UNL     1       7.173 -11.263   3.165  1.00  0.00    -0.248 NA
ATOM     40  C   UNL     1       8.054  -9.351   4.067  1.00  0.00     0.031 C 
ATOM     41  C   UNL     1       5.529 -11.014   0.864  1.00  0.00     0.029 A 
ATOM     42  N   UNL     1       6.480  -9.691  -0.703  1.00  0.00    -0.354 N 
ATOM     43  C   UNL     1       7.275 -11.470   4.523  1.00  0.00     0.074 A 
ATOM     44  C   UNL     1       7.888 -10.265   5.026  1.00  0.00     0.031 C 
ATOM     45  C   UNL     1       5.270 -11.566  -0.330  1.00  0.00     0.029 A 
ATOM     46  C   UNL     1       6.173 -10.949  -1.284  1.00  0.00     0.049 A 
ATOM     47  H   UNL     1       6.662  -8.845  -1.173  1.00  0.00     0.167 HD
ATOM     48  C   UNL     1       6.733 -12.605   5.055  1.00  0.00     0.037 A 
ATOM     49  C   UNL     1       7.102 -11.627  -2.022  1.00  0.00     0.037 A 
ATOM     50  C   UNL     1       6.308 -13.521   3.994  1.00  0.00     0.049 A 
ATOM     51  C   UNL     1       7.491 -12.988  -1.482  1.00  0.00     0.074 A 
ATOM     52  C   UNL     1       5.101 -13.839   3.394  1.00  0.00     0.029 A 
ATOM     53  N   UNL     1       7.287 -14.090   3.202  1.00  0.00    -0.354 N 
ATOM     54  N   UNL     1       7.081 -13.474  -0.344  1.00  0.00    -0.248 NA
ATOM     55  C   UNL     1       8.459 -13.867  -2.143  1.00  0.00     0.031 C 
ATOM     56  C   UNL     1       5.379 -14.584   2.209  1.00  0.00     0.029 A 
ATOM     57  C   UNL     1       6.752 -14.721   2.100  1.00  0.00     0.049 A 
ATOM     58  H   UNL     1       8.250 -14.050   3.402  1.00  0.00     0.167 HD
ATOM     59  C   UNL     1       7.767 -14.627  -0.072  1.00  0.00     0.074 A 
ATOM     60  C   UNL     1       8.599 -14.851  -1.238  1.00  0.00     0.031 C 
ATOM     61  C   UNL     1       7.658 -15.284   1.115  1.00  0.00     0.037 A 
BRANCH  48  62
ATOM     62  C   UNL     1       6.428 -12.861   6.519  1.00  0.00     0.057 A 
ATOM     63  C   UNL     1       5.546 -13.901   6.885  1.00  0.00     0.134 A 
ATOM     64  C   UNL     1       6.903 -12.116   7.613  1.00  0.00     0.134 A 
ATOM     65  F   UNL     1       5.057 -14.763   5.983  1.00  0.00    -0.206 F 
ATOM     66  C   UNL     1       5.113 -14.117   8.201  1.00  0.00     0.040 A 
ATOM     67  C   UNL     1       6.457 -12.302   8.930  1.00  0.00     0.040 A 
ATOM     68  F   UNL     1       7.864 -11.200   7.498  1.00  0.00    -0.206 F 
ATOM     69  C   UNL     1       5.547 -13.299   9.229  1.00  0.00     0.006 A 
ENDBRANCH  48  62
BRANCH  49  70
ATOM     70  C   UNL     1       8.030 -10.716  -2.740  1.00  0.00     0.057 A 
ATOM     71  C   UNL     1       7.513  -9.881  -3.746  1.00  0.00     0.134 A 
ATOM     72  C   UNL     1       9.270 -10.373  -2.194  1.00  0.00     0.134 A 
ATOM     73  F   UNL     1       6.324 -10.154  -4.305  1.00  0.00    -0.206 F 
ATOM     74  C   UNL     1       8.146  -8.690  -4.106  1.00  0.00     0.040 A 
ATOM     75  C   UNL     1       9.919  -9.189  -2.558  1.00  0.00     0.040 A 
ATOM     76  F   UNL     1       9.812 -11.111  -1.214  1.00  0.00    -0.206 F 
ATOM     77  C   UNL     1       9.337  -8.325  -3.484  1.00  0.00     0.006 A 
ENDBRANCH  49  70
BRANCH  61  78
ATOM     78  C   UNL     1       8.440 -16.515   1.443  1.00  0.00     0.057 A 
ATOM     79  C   UNL     1       8.421 -17.649   0.623  1.00  0.00     0.134 A 
ATOM     80  C   UNL     1       9.127 -16.643   2.665  1.00  0.00     0.134 A 
ATOM     81  F   UNL     1       7.780 -17.631  -0.556  1.00  0.00    -0.206 F 
ATOM     82  C   UNL     1       9.045 -18.843   0.999  1.00  0.00     0.040 A 
ATOM     83  C   UNL     1       9.716 -17.842   3.071  1.00  0.00     0.040 A 
ATOM     84  F   UNL     1       9.267 -15.602   3.500  1.00  0.00    -0.206 F 
ATOM     85  C   UNL     1       9.678 -18.949   2.235  1.00  0.00     0.006 A 
ENDBRANCH  61  78
ENDBRANCH  35  36
ENDBRANCH  27  30
ENDBRANCH  25  26
ENDBRANCH  24  25
ENDBRANCH   1  24
TORSDOF 13
