REMARK SMILES CC[NH+](CC)[C@](C)(C(=O)NCCCNC(=O)c1ccc(-c2c3nc(c(-c4c(F)cccc4F)c4ccc([nH]4)c(-c4c(F)cccc4F)c4nc(c(-c5c(F)cccc5F)c5ccc2[nH]5)C=C4)C=C3)cc1)c1cc(F)c(C)cc1F
REMARK SMILES IDX 12 1 11 2 10 3 8 4 9 5 6 7 7 8 3 9 2 11 1 12 4 13 5 14 71 15
REMARK SMILES IDX 72 16 78 17 73 18 77 19 79 20 74 21 75 22 76 23 13 24 14 25
REMARK SMILES IDX 15 26 16 28 17 29 18 30 70 31 19 32 69 33 20 34 21 35 22 36
REMARK SMILES IDX 63 37 23 38 68 39 62 40 64 41 24 42 67 43 61 44 60 45 25 47
REMARK SMILES IDX 51 48 34 49 50 50 35 51 38 52 49 53 65 54 36 55 37 56 48 58
REMARK SMILES IDX 66 59 39 60 26 61 27 62 32 63 28 64 29 65 31 66 33 67 30 68
REMARK SMILES IDX 52 69 53 70 58 71 54 72 55 73 57 74 59 75 56 76 40 77 41 78
REMARK SMILES IDX 46 79 42 80 43 81 45 82 47 83 44 84
REMARK H PARENT 10 6 3 10 14 27 64 46 38 57
REMARK Flexibility Score: inf
ROOT
ATOM      1  C   UNL     1       0.020  -0.393  -1.243  1.00  0.00     0.042 C 
ENDROOT
BRANCH   1   2
ATOM      2  C   UNL     1       1.074  -0.732  -0.209  1.00  0.00     0.118 C 
BRANCH   2   3
ATOM      3  N   UNL     1       1.987   0.359   0.064  1.00  0.00    -0.350 N 
ATOM      4  C   UNL     1       2.685   0.684   1.196  1.00  0.00     0.286 C 
ATOM      5  O   UNL     1       3.686   1.387   0.995  1.00  0.00    -0.267 OA
ATOM      6  H   UNL     1       2.131   0.971  -0.694  1.00  0.00     0.163 HD
BRANCH   4   7
ATOM      7  C   UNL     1       2.262   0.207   2.646  1.00  0.00     0.202 C 
ATOM      8  C   UNL     1       0.713   0.305   2.812  1.00  0.00     0.096 C 
BRANCH   7   9
ATOM      9  N   UNL     1       2.826  -1.169   3.004  1.00  0.00    -0.319 N 
ATOM     10  H   UNL     1       3.768  -0.909   3.294  1.00  0.00     0.349 HD
BRANCH   9  11
ATOM     11  C   UNL     1       3.071  -2.149   1.932  1.00  0.00     0.259 C 
ATOM     12  C   UNL     1       4.260  -1.914   1.002  1.00  0.00     0.071 C 
ENDBRANCH   9  11
BRANCH   9  13
ATOM     13  C   UNL     1       2.061  -1.811   4.105  1.00  0.00     0.259 C 
ATOM     14  C   UNL     1       2.814  -2.933   4.821  1.00  0.00     0.071 C 
ENDBRANCH   9  13
ENDBRANCH   7   9
BRANCH   7  15
ATOM     15  C   UNL     1       2.808   1.296   3.645  1.00  0.00     0.060 A 
ATOM     16  C   UNL     1       3.616   0.989   4.754  1.00  0.00     0.053 A 
ATOM     17  C   UNL     1       2.419   2.644   3.500  1.00  0.00     0.133 A 
ATOM     18  C   UNL     1       3.912   1.958   5.714  1.00  0.00     0.126 A 
ATOM     19  C   UNL     1       2.740   3.619   4.447  1.00  0.00     0.046 A 
ATOM     20  F   UNL     1       1.667   3.020   2.455  1.00  0.00    -0.206 F 
ATOM     21  F   UNL     1       4.600   1.593   6.805  1.00  0.00    -0.207 F 
ATOM     22  C   UNL     1       3.470   3.276   5.585  1.00  0.00    -0.012 A 
ATOM     23  C   UNL     1       3.697   4.266   6.685  1.00  0.00     0.047 C 
ENDBRANCH   7  15
ENDBRANCH   4   7
ENDBRANCH   2   3
ENDBRANCH   1   2
BRANCH   1  24
ATOM     24  C   UNL     1       0.602  -0.131  -2.624  1.00  0.00     0.118 C 
BRANCH  24  25
ATOM     25  N   UNL     1       1.299  -1.287  -3.184  1.00  0.00    -0.352 N 
ATOM     26  C   UNL     1       0.942  -2.159  -4.188  1.00  0.00     0.251 C 
ATOM     27  H   UNL     1       2.173  -1.474  -2.773  1.00  0.00     0.163 HD
ATOM     28  O   UNL     1       1.596  -3.173  -4.380  1.00  0.00    -0.269 OA
BRANCH  26  29
ATOM     29  C   UNL     1      -0.257  -1.886  -5.009  1.00  0.00     0.039 A 
ATOM     30  C   UNL     1      -1.127  -2.934  -5.320  1.00  0.00     0.014 A 
ATOM     31  C   UNL     1      -0.537  -0.593  -5.447  1.00  0.00     0.014 A 
ATOM     32  C   UNL     1      -2.333  -2.659  -5.970  1.00  0.00     0.010 A 
ATOM     33  C   UNL     1      -1.786  -0.304  -5.979  1.00  0.00     0.010 A 
ATOM     34  C   UNL     1      -2.701  -1.333  -6.245  1.00  0.00    -0.014 A 
BRANCH  34  35
ATOM     35  C   UNL     1      -4.034  -0.981  -6.800  1.00  0.00     0.031 A 
ATOM     36  C   UNL     1      -4.130  -0.208  -8.088  1.00  0.00     0.074 A 
ATOM     37  C   UNL     1      -5.147  -1.252  -6.089  1.00  0.00     0.049 A 
ATOM     38  N   UNL     1      -5.179   0.336  -8.650  1.00  0.00    -0.248 NA
ATOM     39  C   UNL     1      -2.872   0.028  -8.816  1.00  0.00     0.031 C 
ATOM     40  C   UNL     1      -5.187  -1.927  -4.790  1.00  0.00     0.029 A 
ATOM     41  N   UNL     1      -6.465  -0.970  -6.352  1.00  0.00    -0.354 N 
ATOM     42  C   UNL     1      -4.701   1.011  -9.766  1.00  0.00     0.074 A 
ATOM     43  C   UNL     1      -3.264   0.850  -9.778  1.00  0.00     0.031 C 
ATOM     44  C   UNL     1      -6.463  -2.029  -4.382  1.00  0.00     0.029 A 
ATOM     45  C   UNL     1      -7.327  -1.389  -5.367  1.00  0.00     0.049 A 
ATOM     46  H   UNL     1      -6.765  -0.510  -7.170  1.00  0.00     0.167 HD
ATOM     47  C   UNL     1      -5.398   1.684 -10.711  1.00  0.00     0.037 A 
ATOM     48  C   UNL     1      -8.663  -1.261  -5.264  1.00  0.00     0.037 A 
ATOM     49  C   UNL     1      -6.833   1.779 -10.738  1.00  0.00     0.049 A 
ATOM     50  C   UNL     1      -9.419  -0.564  -6.360  1.00  0.00     0.074 A 
ATOM     51  C   UNL     1      -7.639   2.351 -11.706  1.00  0.00     0.029 A 
ATOM     52  N   UNL     1      -7.674   1.278  -9.758  1.00  0.00    -0.354 N 
ATOM     53  N   UNL     1      -8.959   0.004  -7.448  1.00  0.00    -0.248 NA
ATOM     54  C   UNL     1     -10.881  -0.496  -6.218  1.00  0.00     0.031 C 
ATOM     55  C   UNL     1      -8.970   2.219 -11.298  1.00  0.00     0.029 A 
ATOM     56  C   UNL     1      -8.992   1.536 -10.093  1.00  0.00     0.049 A 
ATOM     57  H   UNL     1      -7.378   0.808  -8.944  1.00  0.00     0.167 HD
ATOM     58  C   UNL     1     -10.073   0.474  -8.131  1.00  0.00     0.074 A 
ATOM     59  C   UNL     1     -11.232   0.111  -7.343  1.00  0.00     0.031 C 
ATOM     60  C   UNL     1     -10.131   1.150  -9.303  1.00  0.00     0.037 A 
BRANCH  47  61
ATOM     61  C   UNL     1      -4.623   2.350 -11.808  1.00  0.00     0.057 A 
ATOM     62  C   UNL     1      -3.990   1.613 -12.817  1.00  0.00     0.134 A 
ATOM     63  C   UNL     1      -4.549   3.746 -11.884  1.00  0.00     0.134 A 
ATOM     64  F   UNL     1      -4.011   0.271 -12.794  1.00  0.00    -0.206 F 
ATOM     65  C   UNL     1      -3.293   2.239 -13.851  1.00  0.00     0.040 A 
ATOM     66  C   UNL     1      -3.877   4.385 -12.927  1.00  0.00     0.040 A 
ATOM     67  F   UNL     1      -5.138   4.512 -10.953  1.00  0.00    -0.206 F 
ATOM     68  C   UNL     1      -3.243   3.631 -13.912  1.00  0.00     0.006 A 
ENDBRANCH  47  61
BRANCH  48  69
ATOM     69  C   UNL     1      -9.381  -1.821  -4.091  1.00  0.00     0.057 A 
ATOM     70  C   UNL     1     -10.207  -2.944  -4.222  1.00  0.00     0.134 A 
ATOM     71  C   UNL     1      -9.281  -1.239  -2.823  1.00  0.00     0.134 A 
ATOM     72  F   UNL     1     -10.357  -3.535  -5.417  1.00  0.00    -0.206 F 
ATOM     73  C   UNL     1     -10.928  -3.452  -3.141  1.00  0.00     0.040 A 
ATOM     74  C   UNL     1      -9.978  -1.751  -1.727  1.00  0.00     0.040 A 
ATOM     75  F   UNL     1      -8.498  -0.167  -2.629  1.00  0.00    -0.206 F 
ATOM     76  C   UNL     1     -10.812  -2.856  -1.887  1.00  0.00     0.006 A 
ENDBRANCH  48  69
BRANCH  60  77
ATOM     77  C   UNL     1     -11.491   1.506  -9.822  1.00  0.00     0.057 A 
ATOM     78  C   UNL     1     -12.248   2.538  -9.255  1.00  0.00     0.134 A 
ATOM     79  C   UNL     1     -12.027   0.838 -10.930  1.00  0.00     0.134 A 
ATOM     80  F   UNL     1     -11.794   3.205  -8.184  1.00  0.00    -0.206 F 
ATOM     81  C   UNL     1     -13.501   2.882  -9.763  1.00  0.00     0.040 A 
ATOM     82  C   UNL     1     -13.268   1.189 -11.461  1.00  0.00     0.040 A 
ATOM     83  F   UNL     1     -11.345  -0.154 -11.523  1.00  0.00    -0.206 F 
ATOM     84  C   UNL     1     -14.011   2.212 -10.874  1.00  0.00     0.006 A 
ENDBRANCH  60  77
ENDBRANCH  34  35
ENDBRANCH  26  29
ENDBRANCH  24  25
ENDBRANCH   1  24
TORSDOF 14
