REMARK SMILES CN1C(=O)C[C@@H](C(=O)NCCCNC(=O)c2ccc(-c3c4nc(c(-c5c(F)cccc5F)c5ccc([nH]5)c(-c5c(F)cccc5F)c5nc(c(-c6c(F)cccc6F)c6ccc3[nH]6)C=C5)C=C4)cc2)C12CCN(C(=O)c1ccccc1-n1cccn1)CC2
REMARK SMILES IDX 11 1 10 2 9 3 7 4 8 5 6 7 1 8 2 9 3 10 70 11 4 12 5 13 71 14
REMARK SMILES IDX 88 15 72 16 87 17 73 18 74 19 75 20 76 21 77 22 81 23 78 24
REMARK SMILES IDX 80 25 79 26 82 27 83 28 86 29 84 30 85 31 12 32 13 33 14 34
REMARK SMILES IDX 15 36 16 37 17 38 69 39 18 40 68 41 19 42 20 43 21 44 62 45
REMARK SMILES IDX 22 46 67 47 61 48 63 49 23 50 66 51 60 52 59 53 24 55 50 56
REMARK SMILES IDX 33 57 49 58 34 59 37 60 48 61 64 62 35 63 36 64 47 66 65 67
REMARK SMILES IDX 38 68 25 69 26 70 31 71 27 72 28 73 30 74 32 75 29 76 51 77
REMARK SMILES IDX 52 78 57 79 53 80 54 81 56 82 58 83 55 84 39 85 40 86 45 87
REMARK SMILES IDX 41 88 42 89 44 90 46 91 43 92
REMARK H PARENT 9 6 13 35 63 54 37 65
REMARK Flexibility Score: inf
ROOT
ATOM      1  C   UNL     1      -0.235   0.385  -3.327  1.00  0.00     0.042 C 
ENDROOT
BRANCH   1   2
ATOM      2  C   UNL     1      -0.789   1.752  -2.925  1.00  0.00     0.117 C 
BRANCH   2   3
ATOM      3  N   UNL     1      -2.135   1.714  -2.368  1.00  0.00    -0.356 N 
ATOM      4  C   UNL     1      -2.655   1.908  -1.130  1.00  0.00     0.226 C 
ATOM      5  O   UNL     1      -3.889   1.847  -1.050  1.00  0.00    -0.275 OA
ATOM      6  H   UNL     1      -2.821   1.500  -3.040  1.00  0.00     0.163 HD
BRANCH   4   7
ATOM      7  C   UNL     1      -1.853   2.123   0.156  1.00  0.00     0.113 C 
ATOM      8  C   UNL     1       1.523   0.528   0.096  1.00  0.00     0.147 C 
ATOM      9  N   UNL     1       0.357   1.386   0.173  1.00  0.00    -0.339 N 
ATOM     10  C   UNL     1       0.443   2.758  -0.010  1.00  0.00     0.223 C 
ATOM     11  C   UNL     1      -0.972   0.946   0.633  1.00  0.00     0.058 C 
ATOM     12  O   UNL     1       1.453   3.399  -0.263  1.00  0.00    -0.275 OA
ATOM     13  C   UNL     1      -0.936   3.344   0.098  1.00  0.00     0.116 C 
ATOM     14  C   UNL     1      -1.423  -0.418   0.066  1.00  0.00     0.051 C 
ATOM     15  C   UNL     1      -0.926   0.855   2.195  1.00  0.00     0.051 C 
ATOM     16  C   UNL     1      -2.682  -0.956   0.735  1.00  0.00     0.122 C 
ATOM     17  C   UNL     1      -2.139   0.168   2.830  1.00  0.00     0.122 C 
ATOM     18  N   UNL     1      -2.427  -1.094   2.160  1.00  0.00    -0.338 N 
ATOM     19  C   UNL     1      -2.410  -2.292   2.874  1.00  0.00     0.256 C 
ATOM     20  O   UNL     1      -2.204  -2.363   4.082  1.00  0.00    -0.269 OA
BRANCH  19  21
ATOM     21  C   UNL     1      -2.683  -3.563   2.160  1.00  0.00     0.065 A 
ATOM     22  C   UNL     1      -3.938  -4.144   2.405  1.00  0.00     0.016 A 
ATOM     23  C   UNL     1      -1.825  -4.140   1.210  1.00  0.00     0.077 A 
ATOM     24  C   UNL     1      -4.353  -5.263   1.681  1.00  0.00     0.001 A 
ATOM     25  C   UNL     1      -2.280  -5.229   0.442  1.00  0.00     0.029 A 
ATOM     26  C   UNL     1      -3.533  -5.792   0.688  1.00  0.00     0.002 A 
BRANCH  23  27
ATOM     27  N   UNL     1      -0.498  -3.696   0.994  1.00  0.00    -0.240 N 
ATOM     28  C   UNL     1       0.377  -3.125   1.892  1.00  0.00     0.115 A 
ATOM     29  N   UNL     1       0.079  -3.831  -0.232  1.00  0.00    -0.177 NA
ATOM     30  C   UNL     1       1.546  -2.873   1.215  1.00  0.00     0.042 A 
ATOM     31  C   UNL     1       1.298  -3.310  -0.093  1.00  0.00     0.135 A 
ENDBRANCH  23  27
ENDBRANCH  19  21
ENDBRANCH   4   7
ENDBRANCH   2   3
ENDBRANCH   1   2
BRANCH   1  32
ATOM     32  C   UNL     1      -1.000  -0.284  -4.462  1.00  0.00     0.118 C 
BRANCH  32  33
ATOM     33  N   UNL     1      -0.820   0.427  -5.719  1.00  0.00    -0.352 N 
ATOM     34  C   UNL     1      -0.106   0.076  -6.838  1.00  0.00     0.251 C 
ATOM     35  H   UNL     1      -1.282   1.294  -5.776  1.00  0.00     0.163 HD
ATOM     36  O   UNL     1       0.171   0.936  -7.670  1.00  0.00    -0.269 OA
BRANCH  34  37
ATOM     37  C   UNL     1       0.334  -1.320  -7.051  1.00  0.00     0.039 A 
ATOM     38  C   UNL     1       1.581  -1.555  -7.638  1.00  0.00     0.014 A 
ATOM     39  C   UNL     1      -0.495  -2.397  -6.726  1.00  0.00     0.014 A 
ATOM     40  C   UNL     1       2.016  -2.866  -7.846  1.00  0.00     0.010 A 
ATOM     41  C   UNL     1      -0.024  -3.701  -6.851  1.00  0.00     0.010 A 
ATOM     42  C   UNL     1       1.232  -3.952  -7.422  1.00  0.00    -0.014 A 
BRANCH  42  43
ATOM     43  C   UNL     1       1.708  -5.352  -7.569  1.00  0.00     0.031 A 
ATOM     44  C   UNL     1       0.947  -6.329  -8.424  1.00  0.00     0.074 A 
ATOM     45  C   UNL     1       2.793  -5.760  -6.881  1.00  0.00     0.049 A 
ATOM     46  N   UNL     1       1.168  -7.604  -8.620  1.00  0.00    -0.248 NA
ATOM     47  C   UNL     1      -0.236  -5.811  -9.131  1.00  0.00     0.031 C 
ATOM     48  C   UNL     1       3.590  -4.922  -5.983  1.00  0.00     0.029 A 
ATOM     49  N   UNL     1       3.408  -6.985  -6.823  1.00  0.00    -0.354 N 
ATOM     50  C   UNL     1       0.150  -8.041  -9.459  1.00  0.00     0.074 A 
ATOM     51  C   UNL     1      -0.723  -6.911  -9.688  1.00  0.00     0.031 C 
ATOM     52  C   UNL     1       4.602  -5.649  -5.484  1.00  0.00     0.029 A 
ATOM     53  C   UNL     1       4.500  -7.014  -5.990  1.00  0.00     0.049 A 
ATOM     54  H   UNL     1       3.096  -7.769  -7.330  1.00  0.00     0.167 HD
ATOM     55  C   UNL     1      -0.029  -9.267 -10.007  1.00  0.00     0.037 A 
ATOM     56  C   UNL     1       5.321  -8.029  -5.660  1.00  0.00     0.037 A 
ATOM     57  C   UNL     1       0.853 -10.384  -9.791  1.00  0.00     0.049 A 
ATOM     58  C   UNL     1       5.090  -9.385  -6.269  1.00  0.00     0.074 A 
ATOM     59  C   UNL     1       0.791 -11.650 -10.347  1.00  0.00     0.029 A 
ATOM     60  N   UNL     1       1.954 -10.370  -8.948  1.00  0.00    -0.354 N 
ATOM     61  N   UNL     1       4.164  -9.765  -7.115  1.00  0.00    -0.248 NA
ATOM     62  C   UNL     1       6.023 -10.452  -5.881  1.00  0.00     0.031 C 
ATOM     63  C   UNL     1       1.822 -12.419  -9.797  1.00  0.00     0.029 A 
ATOM     64  C   UNL     1       2.564 -11.614  -8.947  1.00  0.00     0.049 A 
ATOM     65  H   UNL     1       2.258  -9.592  -8.428  1.00  0.00     0.167 HD
ATOM     66  C   UNL     1       4.420 -11.103  -7.385  1.00  0.00     0.074 A 
ATOM     67  C   UNL     1       5.598 -11.464  -6.624  1.00  0.00     0.031 C 
ATOM     68  C   UNL     1       3.741 -11.957  -8.190  1.00  0.00     0.037 A 
BRANCH  55  69
ATOM     69  C   UNL     1      -1.225  -9.465 -10.895  1.00  0.00     0.057 A 
ATOM     70  C   UNL     1      -1.325  -8.853 -12.152  1.00  0.00     0.134 A 
ATOM     71  C   UNL     1      -2.271 -10.313 -10.507  1.00  0.00     0.134 A 
ATOM     72  F   UNL     1      -0.364  -8.021 -12.582  1.00  0.00    -0.206 F 
ATOM     73  C   UNL     1      -2.433  -9.055 -12.978  1.00  0.00     0.040 A 
ATOM     74  C   UNL     1      -3.369 -10.547 -11.338  1.00  0.00     0.040 A 
ATOM     75  F   UNL     1      -2.239 -10.938  -9.321  1.00  0.00    -0.206 F 
ATOM     76  C   UNL     1      -3.455  -9.911 -12.574  1.00  0.00     0.006 A 
ENDBRANCH  55  69
BRANCH  56  77
ATOM     77  C   UNL     1       6.447  -7.802  -4.717  1.00  0.00     0.057 A 
ATOM     78  C   UNL     1       7.777  -7.862  -5.151  1.00  0.00     0.134 A 
ATOM     79  C   UNL     1       6.224  -7.533  -3.361  1.00  0.00     0.134 A 
ATOM     80  F   UNL     1       8.057  -8.132  -6.434  1.00  0.00    -0.206 F 
ATOM     81  C   UNL     1       8.844  -7.689  -4.267  1.00  0.00     0.040 A 
ATOM     82  C   UNL     1       7.281  -7.329  -2.472  1.00  0.00     0.040 A 
ATOM     83  F   UNL     1       4.974  -7.451  -2.883  1.00  0.00    -0.206 F 
ATOM     84  C   UNL     1       8.596  -7.416  -2.924  1.00  0.00     0.006 A 
ENDBRANCH  56  77
BRANCH  68  85
ATOM     85  C   UNL     1       4.279 -13.353  -8.322  1.00  0.00     0.057 A 
ATOM     86  C   UNL     1       4.207 -14.280  -7.274  1.00  0.00     0.134 A 
ATOM     87  C   UNL     1       4.843 -13.785  -9.530  1.00  0.00     0.134 A 
ATOM     88  F   UNL     1       3.690 -13.927  -6.088  1.00  0.00    -0.206 F 
ATOM     89  C   UNL     1       4.702 -15.578  -7.414  1.00  0.00     0.040 A 
ATOM     90  C   UNL     1       5.312 -15.089  -9.692  1.00  0.00     0.040 A 
ATOM     91  F   UNL     1       4.934 -12.952 -10.577  1.00  0.00    -0.206 F 
ATOM     92  C   UNL     1       5.249 -15.988  -8.629  1.00  0.00     0.006 A 
ENDBRANCH  68  85
ENDBRANCH  42  43
ENDBRANCH  34  37
ENDBRANCH  32  33
ENDBRANCH   1  32
TORSDOF 12
