REMARK SMILES CCCc1nn2c(=O)cc(CSc3ccccc3C(=O)NCCCNC(=O)c3ccc(-c4c5nc(c(-c6c(F)cccc6F)c6ccc([nH]6)c(-c6c(F)cccc6F)c6nc(c(-c7c(F)cccc7F)c7ccc4[nH]7)C=C6)C=C5)cc3)nc2s1
REMARK SMILES IDX 19 1 20 2 21 3 18 5 13 6 14 7 15 8 17 9 16 10 12 11 11 12
REMARK SMILES IDX 10 13 4 14 5 15 84 16 6 17 83 18 7 19 82 20 8 21 9 22 3 23
REMARK SMILES IDX 2 24 1 25 22 26 23 27 24 28 25 29 26 30 27 32 28 33 29 34
REMARK SMILES IDX 81 35 30 36 80 37 31 38 32 39 33 40 74 41 34 42 79 43 73 44
REMARK SMILES IDX 75 45 35 46 78 47 72 48 71 49 36 51 62 52 45 53 61 54 46 55
REMARK SMILES IDX 49 56 60 57 76 58 47 59 48 60 59 62 77 63 50 64 37 65 38 66
REMARK SMILES IDX 43 67 39 68 40 69 42 70 44 71 41 72 63 73 64 74 69 75 65 76
REMARK SMILES IDX 66 77 68 78 70 79 67 80 51 81 52 82 57 83 53 84 54 85 56 86
REMARK SMILES IDX 58 87 55 88
REMARK H PARENT 21 4 25 31 75 50 49 61
REMARK Flexibility Score: inf
ROOT
ATOM      1  C   UNL     1       1.893  -2.957  -5.820  1.00  0.00     0.252 C 
ATOM      2  O   UNL     1       1.845  -1.752  -5.566  1.00  0.00    -0.269 OA
ATOM      3  N   UNL     1       1.927  -3.848  -4.782  1.00  0.00    -0.352 N 
ATOM      4  H   UNL     1       1.898  -3.445  -3.884  1.00  0.00     0.163 HD
ENDROOT
BRANCH   1   5
ATOM      5  C   UNL     1       2.058  -3.378  -7.222  1.00  0.00     0.053 A 
ATOM      6  C   UNL     1       1.324  -4.349  -7.923  1.00  0.00     0.020 A 
ATOM      7  C   UNL     1       1.869  -4.769  -9.160  1.00  0.00     0.016 A 
ATOM      8  C   UNL     1       3.014  -4.184  -9.720  1.00  0.00     0.001 A 
ATOM      9  C   UNL     1       3.158  -2.729  -7.834  1.00  0.00     0.015 A 
ATOM     10  C   UNL     1       3.636  -3.130  -9.074  1.00  0.00     0.001 A 
BRANCH   6  11
ATOM     11  S   UNL     1      -0.081  -5.341  -7.414  1.00  0.00    -0.119 SA
BRANCH  11  12
ATOM     12  C   UNL     1      -1.498  -4.327  -6.878  1.00  0.00     0.131 C 
BRANCH  12  13
ATOM     13  C   UNL     1      -1.270  -2.995  -6.217  1.00  0.00     0.060 A 
ATOM     14  C   UNL     1      -0.000   0.104  -3.124  1.00  0.00     0.117 A 
ATOM     15  N   UNL     1      -0.467   0.485  -4.272  1.00  0.00    -0.156 NA
ATOM     16  S   UNL     1      -0.190  -1.586  -2.718  1.00  0.00    -0.079 S 
ATOM     17  N   UNL     1      -0.891  -0.626  -4.968  1.00  0.00    -0.167 N 
ATOM     18  C   UNL     1      -0.761  -1.835  -4.340  1.00  0.00     0.215 A 
ATOM     19  C   UNL     1      -1.302  -0.548  -6.278  1.00  0.00     0.275 A 
ATOM     20  N   UNL     1      -0.977  -3.000  -4.863  1.00  0.00    -0.223 NA
ATOM     21  O   UNL     1      -1.530   0.469  -6.926  1.00  0.00    -0.267 OA
ATOM     22  C   UNL     1      -1.472  -1.869  -6.922  1.00  0.00     0.098 A 
BRANCH  14  23
ATOM     23  C   UNL     1       0.780   1.030  -2.229  1.00  0.00     0.069 C 
BRANCH  23  24
ATOM     24  C   UNL     1       0.292   1.155  -0.788  1.00  0.00     0.004 C 
ATOM     25  C   UNL     1       0.984   0.191   0.168  1.00  0.00     0.004 C 
ENDBRANCH  23  24
ENDBRANCH  14  23
ENDBRANCH  12  13
ENDBRANCH  11  12
ENDBRANCH   6  11
ENDBRANCH   1   5
BRANCH   3  26
ATOM     26  C   UNL     1       1.999  -5.294  -4.803  1.00  0.00     0.118 C 
BRANCH  26  27
ATOM     27  C   UNL     1       2.008  -5.914  -3.420  1.00  0.00     0.042 C 
BRANCH  27  28
ATOM     28  C   UNL     1       0.750  -5.618  -2.607  1.00  0.00     0.118 C 
BRANCH  28  29
ATOM     29  N   UNL     1      -0.466  -6.272  -3.079  1.00  0.00    -0.352 N 
ATOM     30  C   UNL     1      -1.391  -7.000  -2.355  1.00  0.00     0.251 C 
ATOM     31  H   UNL     1      -0.652  -6.184  -4.042  1.00  0.00     0.163 HD
ATOM     32  O   UNL     1      -2.356  -7.520  -2.893  1.00  0.00    -0.269 OA
BRANCH  30  33
ATOM     33  C   UNL     1      -1.155  -7.190  -0.906  1.00  0.00     0.039 A 
ATOM     34  C   UNL     1      -1.071  -8.489  -0.402  1.00  0.00     0.014 A 
ATOM     35  C   UNL     1      -0.884  -6.091  -0.089  1.00  0.00     0.014 A 
ATOM     36  C   UNL     1      -0.585  -8.690   0.892  1.00  0.00     0.010 A 
ATOM     37  C   UNL     1      -0.311  -6.297   1.161  1.00  0.00     0.010 A 
ATOM     38  C   UNL     1      -0.132  -7.599   1.655  1.00  0.00    -0.014 A 
BRANCH  38  39
ATOM     39  C   UNL     1       0.579  -7.798   2.945  1.00  0.00     0.031 A 
ATOM     40  C   UNL     1       0.024  -7.215   4.213  1.00  0.00     0.074 A 
ATOM     41  C   UNL     1       1.774  -8.423   2.961  1.00  0.00     0.049 A 
ATOM     42  N   UNL     1       0.546  -7.197   5.413  1.00  0.00    -0.248 NA
ATOM     43  C   UNL     1      -1.274  -6.530   4.111  1.00  0.00     0.031 C 
ATOM     44  C   UNL     1       2.460  -8.978   1.791  1.00  0.00     0.029 A 
ATOM     45  N   UNL     1       2.631  -8.688   4.000  1.00  0.00    -0.354 N 
ATOM     46  C   UNL     1      -0.346  -6.481   6.201  1.00  0.00     0.074 A 
ATOM     47  C   UNL     1      -1.414  -6.035   5.332  1.00  0.00     0.031 C 
ATOM     48  C   UNL     1       3.610  -9.549   2.183  1.00  0.00     0.029 A 
ATOM     49  C   UNL     1       3.765  -9.368   3.623  1.00  0.00     0.049 A 
ATOM     50  H   UNL     1       2.451  -8.417   4.929  1.00  0.00     0.167 HD
ATOM     51  C   UNL     1      -0.296  -6.238   7.532  1.00  0.00     0.037 A 
ATOM     52  C   UNL     1       4.810  -9.799   4.354  1.00  0.00     0.037 A 
ATOM     53  C   UNL     1       0.744  -6.712   8.405  1.00  0.00     0.049 A 
ATOM     54  C   UNL     1       4.833  -9.536   5.833  1.00  0.00     0.074 A 
ATOM     55  C   UNL     1       0.851  -6.571   9.777  1.00  0.00     0.029 A 
ATOM     56  N   UNL     1       1.858  -7.426   7.988  1.00  0.00    -0.354 N 
ATOM     57  N   UNL     1       3.952  -8.909   6.574  1.00  0.00    -0.248 NA
ATOM     58  C   UNL     1       5.994 -10.043   6.578  1.00  0.00     0.031 C 
ATOM     59  C   UNL     1       2.044  -7.176  10.188  1.00  0.00     0.029 A 
ATOM     60  C   UNL     1       2.662  -7.724   9.076  1.00  0.00     0.049 A 
ATOM     61  H   UNL     1       2.049  -7.682   7.057  1.00  0.00     0.167 HD
ATOM     62  C   UNL     1       4.437  -8.970   7.874  1.00  0.00     0.074 A 
ATOM     63  C   UNL     1       5.685  -9.703   7.822  1.00  0.00     0.031 C 
ATOM     64  C   UNL     1       3.896  -8.463   9.008  1.00  0.00     0.037 A 
BRANCH  51  65
ATOM     65  C   UNL     1      -1.414  -5.429   8.120  1.00  0.00     0.057 A 
ATOM     66  C   UNL     1      -2.710  -5.948   8.245  1.00  0.00     0.134 A 
ATOM     67  C   UNL     1      -1.195  -4.122   8.572  1.00  0.00     0.134 A 
ATOM     68  F   UNL     1      -2.990  -7.189   7.818  1.00  0.00    -0.206 F 
ATOM     69  C   UNL     1      -3.755  -5.184   8.767  1.00  0.00     0.040 A 
ATOM     70  C   UNL     1      -2.226  -3.358   9.120  1.00  0.00     0.040 A 
ATOM     71  F   UNL     1       0.023  -3.567   8.485  1.00  0.00    -0.206 F 
ATOM     72  C   UNL     1      -3.513  -3.886   9.210  1.00  0.00     0.006 A 
ENDBRANCH  51  65
BRANCH  52  73
ATOM     73  C   UNL     1       5.906 -10.563   3.707  1.00  0.00     0.057 A 
ATOM     74  C   UNL     1       6.043 -11.939   3.927  1.00  0.00     0.134 A 
ATOM     75  C   UNL     1       6.838  -9.946   2.866  1.00  0.00     0.134 A 
ATOM     76  F   UNL     1       5.191 -12.580   4.739  1.00  0.00    -0.206 F 
ATOM     77  C   UNL     1       7.079 -12.672   3.345  1.00  0.00     0.040 A 
ATOM     78  C   UNL     1       7.867 -10.671   2.262  1.00  0.00     0.040 A 
ATOM     79  F   UNL     1       6.756  -8.632   2.612  1.00  0.00    -0.206 F 
ATOM     80  C   UNL     1       7.992 -12.038   2.506  1.00  0.00     0.006 A 
ENDBRANCH  52  73
BRANCH  64  81
ATOM     81  C   UNL     1       4.633  -8.716  10.289  1.00  0.00     0.057 A 
ATOM     82  C   UNL     1       5.809  -8.029  10.611  1.00  0.00     0.134 A 
ATOM     83  C   UNL     1       4.138  -9.633  11.225  1.00  0.00     0.134 A 
ATOM     84  F   UNL     1       6.340  -7.149   9.749  1.00  0.00    -0.206 F 
ATOM     85  C   UNL     1       6.479  -8.258  11.814  1.00  0.00     0.040 A 
ATOM     86  C   UNL     1       4.786  -9.854  12.440  1.00  0.00     0.040 A 
ATOM     87  F   UNL     1       3.012 -10.319  10.978  1.00  0.00    -0.206 F 
ATOM     88  C   UNL     1       5.963  -9.168  12.736  1.00  0.00     0.006 A 
ENDBRANCH  64  81
ENDBRANCH  38  39
ENDBRANCH  30  33
ENDBRANCH  28  29
ENDBRANCH  27  28
ENDBRANCH  26  27
ENDBRANCH   3  26
TORSDOF 15
