REMARK SMILES CCn1c(CC2CC[NH+](Cc3cn[nH]c3C(=O)NCCCNC(=O)c3ccc(-c4c5nc(c(-c6c(F)cccc6F)c6ccc([nH]6)c(-c6c(F)cccc6F)c6nc(c(-c7c(F)cccc7F)c7ccc4[nH]7)C=C6)C=C5)cc3)CC2)nn(C)c1=O
REMARK SMILES IDX 16 1 17 2 18 3 15 5 11 6 12 7 13 8 14 9 10 11 9 12 6 13 7 14
REMARK SMILES IDX 80 15 8 16 79 17 5 19 4 20 3 21 84 22 81 23 82 24 85 25
REMARK SMILES IDX 83 26 2 27 1 28 19 29 20 30 21 31 22 32 23 33 24 35 25 36
REMARK SMILES IDX 26 37 78 38 27 39 77 40 28 41 29 42 30 43 71 44 31 45 76 46
REMARK SMILES IDX 70 47 72 48 32 49 75 50 69 51 68 52 33 54 59 55 42 56 58 57
REMARK SMILES IDX 43 58 46 59 57 60 73 61 44 62 45 63 56 65 74 66 47 67 34 68
REMARK SMILES IDX 35 69 40 70 36 71 37 72 39 73 41 74 38 75 60 76 61 77 66 78
REMARK SMILES IDX 62 79 63 80 65 81 67 82 64 83 48 84 49 85 54 86 50 87 51 88
REMARK SMILES IDX 53 89 55 90 52 91
REMARK H PARENT 18 4 14 10 9 18 22 34 72 53 46 64
REMARK Flexibility Score: inf
ROOT
ATOM      1  C   UNL     1       2.350   2.100   5.319  1.00  0.00     0.269 C 
ATOM      2  O   UNL     1       2.220   0.880   5.213  1.00  0.00    -0.268 OA
ATOM      3  N   UNL     1       2.197   2.638   6.571  1.00  0.00    -0.351 N 
ATOM      4  H   UNL     1       2.027   1.988   7.290  1.00  0.00     0.163 HD
ENDROOT
BRANCH   1   5
ATOM      5  C   UNL     1       2.827   2.907   4.226  1.00  0.00     0.131 A 
ATOM      6  C   UNL     1       2.587   4.164   3.665  1.00  0.00     0.057 A 
ATOM      7  C   UNL     1       3.714   4.351   2.825  1.00  0.00     0.145 A 
ATOM      8  N   UNL     1       4.480   3.274   2.712  1.00  0.00    -0.183 NA
ATOM      9  N   UNL     1       3.816   2.364   3.432  1.00  0.00    -0.272 N 
ATOM     10  H   UNL     1       4.013   1.401   3.399  1.00  0.00     0.190 HD
BRANCH   6  11
ATOM     11  C   UNL     1       1.609   5.270   3.888  1.00  0.00     0.303 C 
BRANCH  11  12
ATOM     12  N   UNL     1       0.217   5.101   3.432  1.00  0.00    -0.331 N 
ATOM     13  C   UNL     1      -1.819   4.398   1.392  1.00  0.00     0.008 C 
ATOM     14  C   UNL     1      -1.391   5.848   1.608  1.00  0.00     0.065 C 
ATOM     15  C   UNL     1      -1.726   3.679   2.736  1.00  0.00     0.065 C 
ATOM     16  C   UNL     1      -0.039   5.991   2.296  1.00  0.00     0.262 C 
ATOM     17  C   UNL     1      -0.325   3.750   3.350  1.00  0.00     0.262 C 
ATOM     18  H   UNL     1      -0.373   5.405   4.207  1.00  0.00     0.348 HD
BRANCH  13  19
ATOM     19  C   UNL     1      -1.165   3.669   0.196  1.00  0.00     0.081 C 
BRANCH  19  20
ATOM     20  C   UNL     1       0.333   3.450   0.152  1.00  0.00     0.133 A 
ATOM     21  N   UNL     1       0.925   2.271   0.436  1.00  0.00    -0.279 N 
ATOM     22  C   UNL     1       2.275   2.464   0.233  1.00  0.00     0.345 A 
ATOM     23  N   UNL     1       1.159   4.388  -0.224  1.00  0.00    -0.155 NA
ATOM     24  N   UNL     1       2.395   3.793  -0.164  1.00  0.00    -0.216 N 
ATOM     25  O   UNL     1       3.155   1.625   0.347  1.00  0.00    -0.246 OA
ATOM     26  C   UNL     1       3.615   4.478  -0.493  1.00  0.00     0.179 C 
BRANCH  21  27
ATOM     27  C   UNL     1       0.381   0.993   0.856  1.00  0.00     0.125 C 
ATOM     28  C   UNL     1       0.562  -0.075  -0.214  1.00  0.00     0.028 C 
ENDBRANCH  21  27
ENDBRANCH  19  20
ENDBRANCH  13  19
ENDBRANCH  11  12
ENDBRANCH   6  11
ENDBRANCH   1   5
BRANCH   3  29
ATOM     29  C   UNL     1       2.248   4.026   6.989  1.00  0.00     0.118 C 
BRANCH  29  30
ATOM     30  C   UNL     1       0.862   4.662   6.866  1.00  0.00     0.042 C 
BRANCH  30  31
ATOM     31  C   UNL     1      -0.009   4.473   8.069  1.00  0.00     0.118 C 
BRANCH  31  32
ATOM     32  N   UNL     1       0.361   5.426   9.118  1.00  0.00    -0.352 N 
ATOM     33  C   UNL     1      -0.120   5.493  10.413  1.00  0.00     0.251 C 
ATOM     34  H   UNL     1       1.034   6.101   8.871  1.00  0.00     0.163 HD
ATOM     35  O   UNL     1      -0.070   6.513  11.065  1.00  0.00    -0.269 OA
BRANCH  33  36
ATOM     36  C   UNL     1      -0.697   4.256  10.956  1.00  0.00     0.039 A 
ATOM     37  C   UNL     1      -1.892   4.242  11.673  1.00  0.00     0.014 A 
ATOM     38  C   UNL     1      -0.070   3.083  10.565  1.00  0.00     0.014 A 
ATOM     39  C   UNL     1      -2.475   3.008  11.927  1.00  0.00     0.010 A 
ATOM     40  C   UNL     1      -0.822   1.955  10.498  1.00  0.00     0.010 A 
ATOM     41  C   UNL     1      -1.935   1.868  11.308  1.00  0.00    -0.014 A 
BRANCH  41  42
ATOM     42  C   UNL     1      -2.531   0.553  11.424  1.00  0.00     0.031 A 
ATOM     43  C   UNL     1      -3.977   0.523  11.127  1.00  0.00     0.074 A 
ATOM     44  C   UNL     1      -1.795  -0.568  11.594  1.00  0.00     0.049 A 
ATOM     45  N   UNL     1      -4.936   0.457  11.986  1.00  0.00    -0.248 NA
ATOM     46  C   UNL     1      -4.420   0.798   9.752  1.00  0.00     0.031 C 
ATOM     47  C   UNL     1      -0.336  -0.747  11.575  1.00  0.00     0.029 A 
ATOM     48  N   UNL     1      -2.241  -1.841  11.733  1.00  0.00    -0.354 N 
ATOM     49  C   UNL     1      -6.104   0.420  11.237  1.00  0.00     0.074 A 
ATOM     50  C   UNL     1      -5.744   0.866   9.916  1.00  0.00     0.031 C 
ATOM     51  C   UNL     1      -0.038  -2.058  11.450  1.00  0.00     0.029 A 
ATOM     52  C   UNL     1      -1.263  -2.818  11.573  1.00  0.00     0.049 A 
ATOM     53  H   UNL     1      -3.181  -2.057  11.931  1.00  0.00     0.167 HD
ATOM     54  C   UNL     1      -7.195  -0.249  11.700  1.00  0.00     0.037 A 
ATOM     55  C   UNL     1      -1.491  -4.153  11.510  1.00  0.00     0.037 A 
ATOM     56  C   UNL     1      -7.065  -0.532  13.114  1.00  0.00     0.049 A 
ATOM     57  C   UNL     1      -2.822  -4.386  12.140  1.00  0.00     0.074 A 
ATOM     58  C   UNL     1      -6.826   0.248  14.232  1.00  0.00     0.029 A 
ATOM     59  N   UNL     1      -6.734  -1.815  13.487  1.00  0.00    -0.354 N 
ATOM     60  N   UNL     1      -3.057  -4.198  13.412  1.00  0.00    -0.248 NA
ATOM     61  C   UNL     1      -3.991  -4.317  11.273  1.00  0.00     0.031 C 
ATOM     62  C   UNL     1      -5.881  -0.496  15.000  1.00  0.00     0.029 A 
ATOM     63  C   UNL     1      -5.681  -1.722  14.365  1.00  0.00     0.049 A 
ATOM     64  H   UNL     1      -7.169  -2.643  13.182  1.00  0.00     0.167 HD
ATOM     65  C   UNL     1      -4.296  -3.571  13.457  1.00  0.00     0.074 A 
ATOM     66  C   UNL     1      -4.849  -3.727  12.111  1.00  0.00     0.031 C 
ATOM     67  C   UNL     1      -4.633  -2.713  14.468  1.00  0.00     0.037 A 
BRANCH  54  68
ATOM     68  C   UNL     1      -8.165  -0.990  10.817  1.00  0.00     0.057 A 
ATOM     69  C   UNL     1      -9.329  -1.530  11.392  1.00  0.00     0.134 A 
ATOM     70  C   UNL     1      -7.880  -1.441   9.511  1.00  0.00     0.134 A 
ATOM     71  F   UNL     1      -9.703  -1.190  12.635  1.00  0.00    -0.206 F 
ATOM     72  C   UNL     1     -10.101  -2.503  10.749  1.00  0.00     0.040 A 
ATOM     73  C   UNL     1      -8.674  -2.371   8.839  1.00  0.00     0.040 A 
ATOM     74  F   UNL     1      -6.770  -1.093   8.851  1.00  0.00    -0.206 F 
ATOM     75  C   UNL     1      -9.770  -2.933   9.470  1.00  0.00     0.006 A 
ENDBRANCH  54  68
BRANCH  55  76
ATOM     76  C   UNL     1      -0.811  -5.153  10.653  1.00  0.00     0.057 A 
ATOM     77  C   UNL     1      -1.040  -6.525  10.828  1.00  0.00     0.134 A 
ATOM     78  C   UNL     1      -0.136  -4.792   9.471  1.00  0.00     0.134 A 
ATOM     79  F   UNL     1      -1.705  -6.971  11.904  1.00  0.00    -0.206 F 
ATOM     80  C   UNL     1      -0.656  -7.476   9.872  1.00  0.00     0.040 A 
ATOM     81  C   UNL     1       0.260  -5.731   8.512  1.00  0.00     0.040 A 
ATOM     82  F   UNL     1       0.085  -3.507   9.160  1.00  0.00    -0.206 F 
ATOM     83  C   UNL     1      -0.015  -7.078   8.703  1.00  0.00     0.006 A 
ENDBRANCH  55  76
BRANCH  67  84
ATOM     84  C   UNL     1      -3.725  -2.610  15.667  1.00  0.00     0.057 A 
ATOM     85  C   UNL     1      -2.385  -2.192  15.616  1.00  0.00     0.134 A 
ATOM     86  C   UNL     1      -4.282  -2.762  16.942  1.00  0.00     0.134 A 
ATOM     87  F   UNL     1      -1.786  -1.918  14.452  1.00  0.00    -0.206 F 
ATOM     88  C   UNL     1      -1.630  -1.974  16.775  1.00  0.00     0.040 A 
ATOM     89  C   UNL     1      -3.550  -2.514  18.107  1.00  0.00     0.040 A 
ATOM     90  F   UNL     1      -5.573  -3.104  17.078  1.00  0.00    -0.206 F 
ATOM     91  C   UNL     1      -2.216  -2.127  18.027  1.00  0.00     0.006 A 
ENDBRANCH  67  84
ENDBRANCH  41  42
ENDBRANCH  33  36
ENDBRANCH  31  32
ENDBRANCH  30  31
ENDBRANCH  29  30
ENDBRANCH   3  29
TORSDOF 15
