REMARK SMILES CC1=C[C@H](C)[C@H](CN2C[C@]34C=C[C@@H](O3)[C@H](C(=O)NCCCNC(=O)c3ccc(-c5c6nc(c(-c7c(F)cccc7F)c7ccc([nH]7)c(-c7c(F)cccc7F)c7nc(c(-c8c(F)cccc8F)c8ccc5[nH]8)C=C7)C=C6)cc3)[C@@H]4C2=O)[C@H](C)C1
REMARK SMILES IDX 20 1 19 2 18 3 16 4 17 5 15 7 8 8 9 9 80 10 10 11 79 12
REMARK SMILES IDX 81 13 11 14 14 15 12 16 13 17 7 18 6 19 1 20 2 21 3 22 84 23
REMARK SMILES IDX 4 24 82 25 5 26 83 27 21 28 22 29 23 30 24 32 25 33 26 34
REMARK SMILES IDX 78 35 27 36 77 37 28 38 29 39 30 40 71 41 31 42 76 43 70 44
REMARK SMILES IDX 72 45 32 46 75 47 69 48 68 49 33 51 59 52 42 53 58 54 43 55
REMARK SMILES IDX 46 56 57 57 73 58 44 59 45 60 56 62 74 63 47 64 34 65 35 66
REMARK SMILES IDX 40 67 36 68 37 69 39 70 41 71 38 72 60 73 61 74 66 75 62 76
REMARK SMILES IDX 63 77 65 78 67 79 64 80 48 81 49 82 54 83 50 84 51 85 53 86
REMARK SMILES IDX 55 87 52 88
REMARK H PARENT 18 6 22 31 72 50 46 61
REMARK Flexibility Score: inf
ROOT
ATOM      1  C   UNL     1      -6.240   0.165 -10.535  1.00  0.00     0.042 C 
ENDROOT
BRANCH   1   2
ATOM      2  C   UNL     1      -4.909   0.646  -9.980  1.00  0.00     0.117 C 
BRANCH   2   3
ATOM      3  N   UNL     1      -4.509   0.012  -8.732  1.00  0.00    -0.356 N 
ATOM      4  C   UNL     1      -3.281   0.085  -8.116  1.00  0.00     0.227 C 
ATOM      5  O   UNL     1      -3.118  -0.506  -7.052  1.00  0.00    -0.275 OA
ATOM      6  H   UNL     1      -5.194  -0.531  -8.279  1.00  0.00     0.163 HD
BRANCH   4   7
ATOM      7  C   UNL     1      -2.171   0.847  -8.813  1.00  0.00     0.127 C 
ATOM      8  N   UNL     1      -0.192   0.934  -5.889  1.00  0.00    -0.339 N 
ATOM      9  C   UNL     1      -1.131   1.999  -6.014  1.00  0.00     0.160 C 
ATOM     10  C   UNL     1      -0.202   0.205  -7.049  1.00  0.00     0.230 C 
ATOM     11  C   UNL     1      -1.010   2.617  -7.439  1.00  0.00     0.117 C 
ATOM     12  C   UNL     1      -0.867   1.098  -8.061  1.00  0.00     0.132 C 
ATOM     13  O   UNL     1       0.398  -0.829  -7.290  1.00  0.00    -0.274 OA
ATOM     14  C   UNL     1      -2.366   3.350  -7.160  1.00  0.00     0.009 C 
ATOM     15  O   UNL     1      -1.236   2.944  -8.823  1.00  0.00    -0.360 OA
ATOM     16  C   UNL     1      -3.274   3.043  -8.087  1.00  0.00     0.004 C 
ATOM     17  C   UNL     1      -2.512   2.305  -9.113  1.00  0.00     0.155 C 
BRANCH   8  18
ATOM     18  C   UNL     1       0.904   1.004  -4.936  1.00  0.00     0.124 C 
BRANCH  18  19
ATOM     19  C   UNL     1       0.421   1.036  -3.465  1.00  0.00     0.018 C 
ATOM     20  C   UNL     1       0.894   0.356   0.918  1.00  0.00     0.039 C 
ATOM     21  C   UNL     1       0.820   0.508  -0.574  1.00  0.00    -0.077 C 
ATOM     22  C   UNL     1       0.247  -0.419  -1.352  1.00  0.00    -0.025 C 
ATOM     23  C   UNL     1       1.497   1.713  -1.144  1.00  0.00     0.034 C 
ATOM     24  C   UNL     1       0.236  -0.385  -2.853  1.00  0.00     0.014 C 
ATOM     25  C   UNL     1       1.058   2.142  -2.554  1.00  0.00    -0.005 C 
ATOM     26  C   UNL     1       1.196  -1.461  -3.370  1.00  0.00     0.012 C 
ATOM     27  C   UNL     1       2.171   3.001  -3.170  1.00  0.00     0.008 C 
ENDBRANCH  18  19
ENDBRANCH   8  18
ENDBRANCH   4   7
ENDBRANCH   2   3
ENDBRANCH   1   2
BRANCH   1  28
ATOM     28  C   UNL     1      -7.443   0.848  -9.885  1.00  0.00     0.118 C 
BRANCH  28  29
ATOM     29  N   UNL     1      -7.593   2.250 -10.275  1.00  0.00    -0.352 N 
ATOM     30  C   UNL     1      -8.375   2.857 -11.232  1.00  0.00     0.251 C 
ATOM     31  H   UNL     1      -7.031   2.874  -9.760  1.00  0.00     0.163 HD
ATOM     32  O   UNL     1      -8.200   4.046 -11.488  1.00  0.00    -0.269 OA
BRANCH  30  33
ATOM     33  C   UNL     1      -9.397   2.095 -11.983  1.00  0.00     0.039 A 
ATOM     34  C   UNL     1      -9.533   2.309 -13.360  1.00  0.00     0.014 A 
ATOM     35  C   UNL     1     -10.234   1.184 -11.341  1.00  0.00     0.014 A 
ATOM     36  C   UNL     1     -10.417   1.522 -14.105  1.00  0.00     0.010 A 
ATOM     37  C   UNL     1     -11.044   0.339 -12.093  1.00  0.00     0.010 A 
ATOM     38  C   UNL     1     -11.130   0.483 -13.486  1.00  0.00    -0.014 A 
BRANCH  38  39
ATOM     39  C   UNL     1     -11.937  -0.496 -14.261  1.00  0.00     0.031 A 
ATOM     40  C   UNL     1     -13.406  -0.655 -13.984  1.00  0.00     0.074 A 
ATOM     41  C   UNL     1     -11.321  -1.331 -15.121  1.00  0.00     0.049 A 
ATOM     42  N   UNL     1     -14.233  -1.577 -14.409  1.00  0.00    -0.248 NA
ATOM     43  C   UNL     1     -14.018   0.332 -13.081  1.00  0.00     0.031 C 
ATOM     44  C   UNL     1      -9.893  -1.317 -15.446  1.00  0.00     0.029 A 
ATOM     45  N   UNL     1     -11.817  -2.377 -15.861  1.00  0.00    -0.354 N 
ATOM     46  C   UNL     1     -15.450  -1.302 -13.798  1.00  0.00     0.074 A 
ATOM     47  C   UNL     1     -15.245  -0.150 -12.946  1.00  0.00     0.031 C 
ATOM     48  C   UNL     1      -9.631  -2.295 -16.328  1.00  0.00     0.029 A 
ATOM     49  C   UNL     1     -10.858  -3.036 -16.593  1.00  0.00     0.049 A 
ATOM     50  H   UNL     1     -12.768  -2.630 -15.867  1.00  0.00     0.167 HD
ATOM     51  C   UNL     1     -16.634  -1.941 -13.947  1.00  0.00     0.037 A 
ATOM     52  C   UNL     1     -10.951  -4.130 -17.374  1.00  0.00     0.037 A 
ATOM     53  C   UNL     1     -16.850  -3.056 -14.832  1.00  0.00     0.049 A 
ATOM     54  C   UNL     1     -12.277  -4.818 -17.526  1.00  0.00     0.074 A 
ATOM     55  C   UNL     1     -18.034  -3.713 -15.117  1.00  0.00     0.029 A 
ATOM     56  N   UNL     1     -15.858  -3.675 -15.576  1.00  0.00    -0.354 N 
ATOM     57  N   UNL     1     -13.430  -4.514 -16.984  1.00  0.00    -0.248 NA
ATOM     58  C   UNL     1     -12.312  -6.005 -18.392  1.00  0.00     0.031 C 
ATOM     59  C   UNL     1     -17.752  -4.752 -16.011  1.00  0.00     0.029 A 
ATOM     60  C   UNL     1     -16.399  -4.720 -16.306  1.00  0.00     0.049 A 
ATOM     61  H   UNL     1     -14.910  -3.410 -15.585  1.00  0.00     0.167 HD
ATOM     62  C   UNL     1     -14.332  -5.459 -17.456  1.00  0.00     0.074 A 
ATOM     63  C   UNL     1     -13.594  -6.340 -18.338  1.00  0.00     0.031 C 
ATOM     64  C   UNL     1     -15.652  -5.585 -17.181  1.00  0.00     0.037 A 
BRANCH  51  65
ATOM     65  C   UNL     1     -17.796  -1.442 -13.140  1.00  0.00     0.057 A 
ATOM     66  C   UNL     1     -18.432  -0.230 -13.436  1.00  0.00     0.134 A 
ATOM     67  C   UNL     1     -18.304  -2.198 -12.076  1.00  0.00     0.134 A 
ATOM     68  F   UNL     1     -17.985   0.546 -14.435  1.00  0.00    -0.206 F 
ATOM     69  C   UNL     1     -19.518   0.225 -12.686  1.00  0.00     0.040 A 
ATOM     70  C   UNL     1     -19.404  -1.764 -11.335  1.00  0.00     0.040 A 
ATOM     71  F   UNL     1     -17.744  -3.371 -11.745  1.00  0.00    -0.206 F 
ATOM     72  C   UNL     1     -20.010  -0.546 -11.635  1.00  0.00     0.006 A 
ENDBRANCH  51  65
BRANCH  52  73
ATOM     73  C   UNL     1      -9.749  -4.640 -18.079  1.00  0.00     0.057 A 
ATOM     74  C   UNL     1      -9.613  -4.489 -19.463  1.00  0.00     0.134 A 
ATOM     75  C   UNL     1      -8.714  -5.286 -17.393  1.00  0.00     0.134 A 
ATOM     76  F   UNL     1     -10.583  -3.895 -20.174  1.00  0.00    -0.206 F 
ATOM     77  C   UNL     1      -8.496  -4.973 -20.145  1.00  0.00     0.040 A 
ATOM     78  C   UNL     1      -7.582  -5.758 -18.059  1.00  0.00     0.040 A 
ATOM     79  F   UNL     1      -8.783  -5.455 -16.065  1.00  0.00    -0.206 F 
ATOM     80  C   UNL     1      -7.473  -5.606 -19.441  1.00  0.00     0.006 A 
ENDBRANCH  52  73
BRANCH  64  81
ATOM     81  C   UNL     1     -16.389  -6.701 -17.856  1.00  0.00     0.057 A 
ATOM     82  C   UNL     1     -16.258  -8.028 -17.430  1.00  0.00     0.134 A 
ATOM     83  C   UNL     1     -17.275  -6.439 -18.908  1.00  0.00     0.134 A 
ATOM     84  F   UNL     1     -15.413  -8.344 -16.437  1.00  0.00    -0.206 F 
ATOM     85  C   UNL     1     -16.977  -9.060 -18.036  1.00  0.00     0.040 A 
ATOM     86  C   UNL     1     -18.014  -7.459 -19.507  1.00  0.00     0.040 A 
ATOM     87  F   UNL     1     -17.448  -5.187 -19.357  1.00  0.00    -0.206 F 
ATOM     88  C   UNL     1     -17.864  -8.775 -19.073  1.00  0.00     0.006 A 
ENDBRANCH  64  81
ENDBRANCH  38  39
ENDBRANCH  30  33
ENDBRANCH  28  29
ENDBRANCH   1  28
TORSDOF 12
