REMARK SMILES O=C(Cn1c(SCCOc2ccccc2Cl)nc2ccccc21)NCCCNC(=O)c1ccc(-c2c3nc(c(-c4c(F)cccc4F)c4ccc([nH]4)c(-c4c(F)cccc4F)c4nc(c(-c5c(F)cccc5F)c5ccc2[nH]5)C=C4)C=C3)cc1
REMARK SMILES IDX 1 1 2 2 24 3 3 5 4 6 5 7 23 8 17 9 18 10 22 11 19 12 21 13
REMARK SMILES IDX 20 14 6 15 7 16 8 17 9 18 10 19 11 20 15 21 12 22 14 23
REMARK SMILES IDX 16 24 13 25 25 26 26 27 27 28 28 29 29 30 30 32 31 33 32 34
REMARK SMILES IDX 84 35 33 36 83 37 34 38 35 39 36 40 77 41 37 42 82 43 76 44
REMARK SMILES IDX 78 45 38 46 81 47 75 48 74 49 39 51 65 52 48 53 64 54 49 55
REMARK SMILES IDX 52 56 63 57 79 58 50 59 51 60 62 62 80 63 53 64 40 65 41 66
REMARK SMILES IDX 46 67 42 68 43 69 45 70 47 71 44 72 66 73 67 74 72 75 68 76
REMARK SMILES IDX 69 77 71 78 73 79 70 80 54 81 55 82 60 83 56 84 57 85 59 86
REMARK SMILES IDX 61 87 58 88
REMARK H PARENT 24 4 28 31 78 50 52 61
REMARK Flexibility Score: inf
ROOT
ATOM      1  O   UNL     1       1.723  -1.615   0.822  1.00  0.00    -0.273 OA
ATOM      2  C   UNL     1       2.693  -0.868   0.671  1.00  0.00     0.240 C 
ATOM      3  N   UNL     1       3.122  -0.017   1.654  1.00  0.00    -0.354 N 
ATOM      4  H   UNL     1       4.005   0.406   1.553  1.00  0.00     0.163 HD
ENDROOT
BRANCH   2   5
ATOM      5  C   UNL     1       3.493  -0.875  -0.601  1.00  0.00     0.224 C 
BRANCH   5   6
ATOM      6  N   UNL     1       4.104   0.374  -1.040  1.00  0.00    -0.309 N 
ATOM      7  C   UNL     1       3.765   1.698  -0.854  1.00  0.00     0.169 A 
ATOM      8  C   UNL     1       5.243   0.363  -1.846  1.00  0.00     0.069 A 
ATOM      9  N   UNL     1       4.734   2.489  -1.271  1.00  0.00    -0.222 NA
ATOM     10  C   UNL     1       5.614   1.696  -1.946  1.00  0.00     0.090 A 
ATOM     11  C   UNL     1       5.947  -0.658  -2.504  1.00  0.00     0.028 A 
ATOM     12  C   UNL     1       6.737   2.054  -2.708  1.00  0.00     0.030 A 
ATOM     13  C   UNL     1       7.038  -0.280  -3.297  1.00  0.00     0.002 A 
ATOM     14  C   UNL     1       7.434   1.054  -3.395  1.00  0.00     0.002 A 
BRANCH   7  15
ATOM     15  S   UNL     1       2.380   2.437  -0.113  1.00  0.00    -0.084 SA
BRANCH  15  16
ATOM     16  C   UNL     1       0.864   1.484  -0.380  1.00  0.00     0.119 C 
BRANCH  16  17
ATOM     17  C   UNL     1       0.340   1.003  -1.740  1.00  0.00     0.241 C 
BRANCH  17  18
ATOM     18  O   UNL     1       1.286   0.452  -2.643  1.00  0.00    -0.491 OA
BRANCH  18  19
ATOM     19  C   UNL     1       1.953   1.308  -3.484  1.00  0.00     0.137 A 
ATOM     20  C   UNL     1       1.886   2.703  -3.395  1.00  0.00     0.048 A 
ATOM     21  C   UNL     1       2.864   0.732  -4.382  1.00  0.00     0.083 A 
ATOM     22  C   UNL     1       2.815   3.498  -4.064  1.00  0.00     0.004 A 
ATOM     23  C   UNL     1       3.771   1.533  -5.080  1.00  0.00     0.024 A 
ATOM     24  Cl  UNL     1       2.942  -0.981  -4.613  1.00  0.00    -0.080 Cl
ATOM     25  C   UNL     1       3.770   2.914  -4.889  1.00  0.00     0.002 A 
ENDBRANCH  18  19
ENDBRANCH  17  18
ENDBRANCH  16  17
ENDBRANCH  15  16
ENDBRANCH   7  15
ENDBRANCH   5   6
ENDBRANCH   2   5
BRANCH   3  26
ATOM     26  C   UNL     1       2.344   0.294   2.832  1.00  0.00     0.117 C 
BRANCH  26  27
ATOM     27  C   UNL     1       2.855  -0.435   4.058  1.00  0.00     0.042 C 
BRANCH  27  28
ATOM     28  C   UNL     1       4.382  -0.423   4.176  1.00  0.00     0.118 C 
BRANCH  28  29
ATOM     29  N   UNL     1       4.979   0.898   4.135  1.00  0.00    -0.352 N 
ATOM     30  C   UNL     1       5.301   1.823   5.084  1.00  0.00     0.251 C 
ATOM     31  H   UNL     1       5.200   1.191   3.222  1.00  0.00     0.163 HD
ATOM     32  O   UNL     1       5.997   2.770   4.713  1.00  0.00    -0.269 OA
BRANCH  30  33
ATOM     33  C   UNL     1       4.805   1.804   6.482  1.00  0.00     0.039 A 
ATOM     34  C   UNL     1       3.975   0.826   7.032  1.00  0.00     0.014 A 
ATOM     35  C   UNL     1       5.132   2.931   7.256  1.00  0.00     0.014 A 
ATOM     36  C   UNL     1       3.368   1.032   8.259  1.00  0.00     0.010 A 
ATOM     37  C   UNL     1       4.556   3.129   8.499  1.00  0.00     0.010 A 
ATOM     38  C   UNL     1       3.626   2.207   8.963  1.00  0.00    -0.014 A 
BRANCH  38  39
ATOM     39  C   UNL     1       2.981   2.376  10.255  1.00  0.00     0.031 A 
ATOM     40  C   UNL     1       3.384   1.355  11.259  1.00  0.00     0.074 A 
ATOM     41  C   UNL     1       2.181   3.427  10.523  1.00  0.00     0.049 A 
ATOM     42  N   UNL     1       2.640   0.476  11.846  1.00  0.00    -0.248 NA
ATOM     43  C   UNL     1       4.823   1.190  11.524  1.00  0.00     0.031 C 
ATOM     44  C   UNL     1       1.924   4.596   9.675  1.00  0.00     0.029 A 
ATOM     45  N   UNL     1       1.494   3.721  11.661  1.00  0.00    -0.354 N 
ATOM     46  C   UNL     1       3.485  -0.220  12.711  1.00  0.00     0.074 A 
ATOM     47  C   UNL     1       4.827   0.140  12.345  1.00  0.00     0.031 C 
ATOM     48  C   UNL     1       1.335   5.564  10.412  1.00  0.00     0.029 A 
ATOM     49  C   UNL     1       1.049   5.035  11.734  1.00  0.00     0.049 A 
ATOM     50  H   UNL     1       1.328   3.059  12.371  1.00  0.00     0.167 HD
ATOM     51  C   UNL     1       2.997  -0.828  13.826  1.00  0.00     0.037 A 
ATOM     52  C   UNL     1       0.526   5.656  12.820  1.00  0.00     0.037 A 
ATOM     53  C   UNL     1       1.575  -1.032  13.719  1.00  0.00     0.049 A 
ATOM     54  C   UNL     1       0.088   4.606  13.765  1.00  0.00     0.074 A 
ATOM     55  C   UNL     1       0.737  -1.796  12.934  1.00  0.00     0.029 A 
ATOM     56  N   UNL     1       0.786  -0.087  14.321  1.00  0.00    -0.354 N 
ATOM     57  N   UNL     1      -0.922   3.814  13.547  1.00  0.00    -0.248 NA
ATOM     58  C   UNL     1       1.030   4.149  14.776  1.00  0.00     0.031 C 
ATOM     59  C   UNL     1      -0.455  -1.023  12.793  1.00  0.00     0.029 A 
ATOM     60  C   UNL     1      -0.306   0.150  13.534  1.00  0.00     0.049 A 
ATOM     61  H   UNL     1       0.976   0.351  15.182  1.00  0.00     0.167 HD
ATOM     62  C   UNL     1      -0.519   2.585  14.046  1.00  0.00     0.074 A 
ATOM     63  C   UNL     1       0.621   2.884  14.908  1.00  0.00     0.031 C 
ATOM     64  C   UNL     1      -0.973   1.429  13.477  1.00  0.00     0.037 A 
BRANCH  51  65
ATOM     65  C   UNL     1       3.686  -0.787  15.179  1.00  0.00     0.057 A 
ATOM     66  C   UNL     1       4.708   0.118  15.531  1.00  0.00     0.134 A 
ATOM     67  C   UNL     1       3.066  -1.430  16.270  1.00  0.00     0.134 A 
ATOM     68  F   UNL     1       5.386   0.835  14.629  1.00  0.00    -0.206 F 
ATOM     69  C   UNL     1       5.034   0.419  16.857  1.00  0.00     0.040 A 
ATOM     70  C   UNL     1       3.353  -1.101  17.601  1.00  0.00     0.040 A 
ATOM     71  F   UNL     1       2.088  -2.328  16.076  1.00  0.00    -0.206 F 
ATOM     72  C   UNL     1       4.327  -0.158  17.898  1.00  0.00     0.006 A 
ENDBRANCH  51  65
BRANCH  52  73
ATOM     73  C   UNL     1       0.616   7.078  13.213  1.00  0.00     0.057 A 
ATOM     74  C   UNL     1       1.756   7.842  12.908  1.00  0.00     0.134 A 
ATOM     75  C   UNL     1      -0.282   7.647  14.127  1.00  0.00     0.134 A 
ATOM     76  F   UNL     1       2.717   7.357  12.109  1.00  0.00    -0.206 F 
ATOM     77  C   UNL     1       1.996   9.093  13.486  1.00  0.00     0.040 A 
ATOM     78  C   UNL     1      -0.052   8.898  14.716  1.00  0.00     0.040 A 
ATOM     79  F   UNL     1      -1.374   6.974  14.516  1.00  0.00    -0.206 F 
ATOM     80  C   UNL     1       1.096   9.621  14.403  1.00  0.00     0.006 A 
ENDBRANCH  52  73
BRANCH  64  81
ATOM     81  C   UNL     1      -2.146   1.551  12.545  1.00  0.00     0.057 A 
ATOM     82  C   UNL     1      -3.335   0.895  12.875  1.00  0.00     0.134 A 
ATOM     83  C   UNL     1      -2.106   2.212  11.308  1.00  0.00     0.134 A 
ATOM     84  F   UNL     1      -3.425   0.194  14.016  1.00  0.00    -0.206 F 
ATOM     85  C   UNL     1      -4.443   0.911  12.027  1.00  0.00     0.040 A 
ATOM     86  C   UNL     1      -3.220   2.265  10.465  1.00  0.00     0.040 A 
ATOM     87  F   UNL     1      -0.981   2.785  10.864  1.00  0.00    -0.206 F 
ATOM     88  C   UNL     1      -4.394   1.611  10.824  1.00  0.00     0.006 A 
ENDBRANCH  64  81
ENDBRANCH  38  39
ENDBRANCH  30  33
ENDBRANCH  28  29
ENDBRANCH  27  28
ENDBRANCH  26  27
ENDBRANCH   3  26
TORSDOF 16
