REMARK SMILES C[C@@H]1[C@H](C(=O)NCCCNC(=O)c2ccc(-c3c4nc(c(-c5c(F)cccc5F)c5ccc([nH]5)c(-c5c(F)cccc5F)c5nc(c(-c6c(F)cccc6F)c6ccc3[nH]6)C=C5)C=C4)cc2)CCN1C(=O)COc1ccccc1O
REMARK SMILES IDX 4 1 5 2 6 3 3 5 1 6 2 7 69 8 67 9 68 10 70 11 71 12 72 13
REMARK SMILES IDX 73 14 74 15 75 16 79 17 76 18 78 19 77 20 80 21 7 23 8 24
REMARK SMILES IDX 9 25 10 26 11 27 12 29 13 30 14 31 66 32 15 33 65 34 16 35
REMARK SMILES IDX 17 36 18 37 59 38 19 39 64 40 58 41 60 42 20 43 63 44 57 45
REMARK SMILES IDX 56 46 21 48 47 49 30 50 46 51 31 52 34 53 45 54 61 55 32 56
REMARK SMILES IDX 33 57 44 59 62 60 35 61 22 62 23 63 28 64 24 65 25 66 27 67
REMARK SMILES IDX 29 68 26 69 48 70 49 71 54 72 50 73 51 74 53 75 55 76 52 77
REMARK SMILES IDX 36 78 37 79 42 80 38 81 39 82 41 83 43 84 40 85
REMARK H PARENT 6 4 80 22 10 28 60 47 34 58
REMARK Flexibility Score: inf
ROOT
ATOM      1  C   UNL     1       0.673   2.291  -0.085  1.00  0.00     0.225 C 
ATOM      2  O   UNL     1       0.907   3.145  -0.946  1.00  0.00    -0.275 OA
ATOM      3  N   UNL     1       1.178   2.523   1.151  1.00  0.00    -0.356 N 
ATOM      4  H   UNL     1       1.621   3.397   1.239  1.00  0.00     0.163 HD
ENDROOT
BRANCH   1   5
ATOM      5  C   UNL     1      -0.127   1.055  -0.452  1.00  0.00     0.102 C 
ATOM      6  C   UNL     1       2.062  -0.345  -0.158  1.00  0.00     0.032 C 
ATOM      7  C   UNL     1       0.648  -0.244  -0.716  1.00  0.00     0.094 C 
ATOM      8  N   UNL     1      -0.215  -1.310  -0.183  1.00  0.00    -0.336 N 
ATOM      9  C   UNL     1      -1.304   0.722   0.461  1.00  0.00     0.037 C 
ATOM     10  C   UNL     1      -1.310  -0.787   0.612  1.00  0.00     0.121 C 
BRANCH   8  11
ATOM     11  C   UNL     1      -0.033  -2.687  -0.240  1.00  0.00     0.260 C 
ATOM     12  O   UNL     1      -0.660  -3.438   0.512  1.00  0.00    -0.271 OA
BRANCH  11  13
ATOM     13  C   UNL     1       0.943  -3.275  -1.270  1.00  0.00     0.329 C 
BRANCH  13  14
ATOM     14  O   UNL     1       1.251  -2.487  -2.411  1.00  0.00    -0.480 OA
BRANCH  14  15
ATOM     15  C   UNL     1       0.531  -2.764  -3.539  1.00  0.00     0.161 A 
ATOM     16  C   UNL     1       1.286  -2.975  -4.694  1.00  0.00     0.050 A 
ATOM     17  C   UNL     1      -0.862  -2.739  -3.634  1.00  0.00     0.157 A 
ATOM     18  C   UNL     1       0.654  -3.212  -5.916  1.00  0.00     0.004 A 
ATOM     19  C   UNL     1      -1.496  -3.006  -4.843  1.00  0.00     0.050 A 
ATOM     20  C   UNL     1      -0.737  -3.239  -5.988  1.00  0.00     0.004 A 
BRANCH  17  21
ATOM     21  O   UNL     1      -1.681  -2.383  -2.604  1.00  0.00    -0.504 OA
ATOM     22  H   UNL     1      -1.319  -2.189  -1.762  1.00  0.00     0.293 HD
ENDBRANCH  17  21
ENDBRANCH  14  15
ENDBRANCH  13  14
ENDBRANCH  11  13
ENDBRANCH   8  11
ENDBRANCH   1   5
BRANCH   3  23
ATOM     23  C   UNL     1       1.194   1.735   2.374  1.00  0.00     0.117 C 
BRANCH  23  24
ATOM     24  C   UNL     1       2.613   1.396   2.824  1.00  0.00     0.042 C 
BRANCH  24  25
ATOM     25  C   UNL     1       3.476   2.602   3.158  1.00  0.00     0.118 C 
BRANCH  25  26
ATOM     26  N   UNL     1       3.195   3.136   4.478  1.00  0.00    -0.352 N 
ATOM     27  C   UNL     1       3.913   3.027   5.645  1.00  0.00     0.251 C 
ATOM     28  H   UNL     1       2.363   3.657   4.548  1.00  0.00     0.163 HD
ATOM     29  O   UNL     1       3.395   3.373   6.703  1.00  0.00    -0.269 OA
BRANCH  27  30
ATOM     30  C   UNL     1       5.290   2.479   5.648  1.00  0.00     0.039 A 
ATOM     31  C   UNL     1       5.678   1.642   6.699  1.00  0.00     0.014 A 
ATOM     32  C   UNL     1       6.218   2.819   4.661  1.00  0.00     0.014 A 
ATOM     33  C   UNL     1       6.970   1.108   6.729  1.00  0.00     0.010 A 
ATOM     34  C   UNL     1       7.472   2.212   4.639  1.00  0.00     0.010 A 
ATOM     35  C   UNL     1       7.871   1.366   5.684  1.00  0.00    -0.014 A 
BRANCH  35  36
ATOM     36  C   UNL     1       9.246   0.800   5.686  1.00  0.00     0.031 A 
ATOM     37  C   UNL     1      10.439   1.719   5.734  1.00  0.00     0.074 A 
ATOM     38  C   UNL     1       9.429  -0.531   5.590  1.00  0.00     0.049 A 
ATOM     39  N   UNL     1      11.713   1.427   5.661  1.00  0.00    -0.248 NA
ATOM     40  C   UNL     1      10.161   3.160   5.848  1.00  0.00     0.031 C 
ATOM     41  C   UNL     1       8.363  -1.529   5.494  1.00  0.00     0.029 A 
ATOM     42  N   UNL     1      10.583  -1.273   5.550  1.00  0.00    -0.354 N 
ATOM     43  C   UNL     1      12.383   2.644   5.696  1.00  0.00     0.074 A 
ATOM     44  C   UNL     1      11.375   3.680   5.744  1.00  0.00     0.031 C 
ATOM     45  C   UNL     1       8.911  -2.754   5.433  1.00  0.00     0.029 A 
ATOM     46  C   UNL     1      10.365  -2.626   5.448  1.00  0.00     0.049 A 
ATOM     47  H   UNL     1      11.482  -0.874   5.589  1.00  0.00     0.167 HD
ATOM     48  C   UNL     1      13.716   2.880   5.712  1.00  0.00     0.037 A 
ATOM     49  C   UNL     1      11.239  -3.648   5.374  1.00  0.00     0.037 A 
ATOM     50  C   UNL     1      14.721   1.851   5.710  1.00  0.00     0.049 A 
ATOM     51  C   UNL     1      12.714  -3.362   5.407  1.00  0.00     0.074 A 
ATOM     52  C   UNL     1      16.096   1.988   5.788  1.00  0.00     0.029 A 
ATOM     53  N   UNL     1      14.457   0.492   5.632  1.00  0.00    -0.354 N 
ATOM     54  N   UNL     1      13.331  -2.208   5.493  1.00  0.00    -0.248 NA
ATOM     55  C   UNL     1      13.616  -4.521   5.339  1.00  0.00     0.031 C 
ATOM     56  C   UNL     1      16.667   0.712   5.725  1.00  0.00     0.029 A 
ATOM     57  C   UNL     1      15.645  -0.220   5.647  1.00  0.00     0.049 A 
ATOM     58  H   UNL     1      13.559   0.093   5.574  1.00  0.00     0.167 HD
ATOM     59  C   UNL     1      14.688  -2.503   5.516  1.00  0.00     0.074 A 
ATOM     60  C   UNL     1      14.805  -3.945   5.446  1.00  0.00     0.031 C 
ATOM     61  C   UNL     1      15.743  -1.656   5.588  1.00  0.00     0.037 A 
BRANCH  48  62
ATOM     62  C   UNL     1      14.164   4.312   5.747  1.00  0.00     0.057 A 
ATOM     63  C   UNL     1      14.008   5.107   6.890  1.00  0.00     0.134 A 
ATOM     64  C   UNL     1      14.783   4.896   4.634  1.00  0.00     0.134 A 
ATOM     65  F   UNL     1      13.411   4.612   7.985  1.00  0.00    -0.206 F 
ATOM     66  C   UNL     1      14.427   6.438   6.917  1.00  0.00     0.040 A 
ATOM     67  C   UNL     1      15.229   6.218   4.658  1.00  0.00     0.040 A 
ATOM     68  F   UNL     1      14.968   4.190   3.509  1.00  0.00    -0.206 F 
ATOM     69  C   UNL     1      15.045   6.995   5.800  1.00  0.00     0.006 A 
ENDBRANCH  48  62
BRANCH  49  70
ATOM     70  C   UNL     1      10.742  -5.044   5.290  1.00  0.00     0.057 A 
ATOM     71  C   UNL     1      10.869  -5.918   6.376  1.00  0.00     0.134 A 
ATOM     72  C   UNL     1      10.138  -5.539   4.129  1.00  0.00     0.134 A 
ATOM     73  F   UNL     1      11.458  -5.505   7.509  1.00  0.00    -0.206 F 
ATOM     74  C   UNL     1      10.428  -7.240   6.307  1.00  0.00     0.040 A 
ATOM     75  C   UNL     1       9.672  -6.853   4.053  1.00  0.00     0.040 A 
ATOM     76  F   UNL     1       9.982  -4.749   3.057  1.00  0.00    -0.206 F 
ATOM     77  C   UNL     1       9.822  -7.709   5.143  1.00  0.00     0.006 A 
ENDBRANCH  49  70
BRANCH  61  78
ATOM     78  C   UNL     1      17.111  -2.266   5.630  1.00  0.00     0.057 A 
ATOM     79  C   UNL     1      17.705  -2.825   4.492  1.00  0.00     0.134 A 
ATOM     80  C   UNL     1      17.858  -2.257   6.815  1.00  0.00     0.134 A 
ATOM     81  F   UNL     1      17.036  -2.876   3.331  1.00  0.00    -0.206 F 
ATOM     82  C   UNL     1      18.989  -3.372   4.536  1.00  0.00     0.040 A 
ATOM     83  C   UNL     1      19.151  -2.780   6.865  1.00  0.00     0.040 A 
ATOM     84  F   UNL     1      17.349  -1.728   7.938  1.00  0.00    -0.206 F 
ATOM     85  C   UNL     1      19.718  -3.344   5.724  1.00  0.00     0.006 A 
ENDBRANCH  61  78
ENDBRANCH  35  36
ENDBRANCH  27  30
ENDBRANCH  25  26
ENDBRANCH  24  25
ENDBRANCH  23  24
ENDBRANCH   3  23
TORSDOF 15
