REMARK SMILES O=C(CNC(=O)N1CC(NCCCNC(=O)c2ccc(-c3c4nc(c(-c5c(F)cccc5F)c5ccc([nH]5)c(-c5c(F)cccc5F)c5nc(c(-c6c(F)cccc6F)c6ccc3[nH]6)C=C5)C=C4)cc2)=[NH+]c2ccccc21)N[C@H](C(=O)[O-])c1ccccc1
REMARK SMILES IDX 11 1 10 2 7 3 8 4 77 5 9 6 72 7 76 8 71 9 73 10 75 11 74 14
REMARK SMILES IDX 5 15 4 16 6 18 3 19 2 20 1 21 78 22 79 24 83 25 84 26 88 27
REMARK SMILES IDX 85 28 87 29 86 30 80 31 81 32 82 33 12 34 13 35 14 36 15 37
REMARK SMILES IDX 16 39 17 40 18 41 70 42 19 43 69 44 20 45 21 46 22 47 63 48
REMARK SMILES IDX 23 49 68 50 62 51 64 52 24 53 67 54 61 55 60 56 25 58 51 59
REMARK SMILES IDX 34 60 50 61 35 62 38 63 49 64 65 65 36 66 37 67 48 69 66 70
REMARK SMILES IDX 39 71 26 72 27 73 32 74 28 75 29 76 31 77 33 78 30 79 52 80
REMARK SMILES IDX 53 81 58 82 54 83 55 84 57 85 59 86 56 87 40 88 41 89 46 90
REMARK SMILES IDX 42 91 43 92 45 93 47 94 44 95
REMARK H PARENT 10 12 71 13 4 17 78 23 14 38 64 57 38 68
REMARK Flexibility Score: inf
ROOT
ATOM      1  C   UNL     1      -1.704   6.696   0.288  1.00  0.00     0.235 C 
ENDROOT
BRANCH   1   2
ATOM      2  N   UNL     1      -1.102   6.128   1.471  1.00  0.00    -0.277 N 
ATOM      3  N   UNL     1       2.469   6.944   1.621  1.00  0.00    -0.278 N 
ATOM      4  C   UNL     1       1.103   7.376   1.355  1.00  0.00     0.255 C 
ATOM      5  C   UNL     1       2.725   6.641   2.984  1.00  0.00     0.093 A 
ATOM      6  C   UNL     1       0.124   6.402   2.021  1.00  0.00     0.268 C 
ATOM      7  C   UNL     1       1.665   6.090   3.731  1.00  0.00     0.148 A 
ATOM      8  C   UNL     1       3.972   6.859   3.582  1.00  0.00     0.031 A 
ATOM      9  N   UNL     1       0.404   5.820   3.158  1.00  0.00    -0.241 N 
ATOM     10  C   UNL     1       1.895   5.709   5.054  1.00  0.00     0.054 A 
ATOM     11  C   UNL     1       4.181   6.489   4.911  1.00  0.00     0.002 A 
ATOM     12  H   UNL     1      -1.643   5.455   1.944  1.00  0.00     0.304 HD
ATOM     13  H   UNL     1      -0.239   5.218   3.596  1.00  0.00     0.312 HD
ATOM     14  C   UNL     1       3.148   5.904   5.642  1.00  0.00     0.005 A 
BRANCH   3  15
ATOM     15  C   UNL     1       3.383   6.992   0.602  1.00  0.00     0.323 C 
ATOM     16  N   UNL     1       4.405   6.097   0.578  1.00  0.00    -0.329 N 
ATOM     17  H   UNL     1       5.200   6.370   0.066  1.00  0.00     0.165 HD
ATOM     18  O   UNL     1       3.264   7.751  -0.361  1.00  0.00    -0.248 OA
BRANCH  16  19
ATOM     19  C   UNL     1       4.482   4.785   1.209  1.00  0.00     0.218 C 
BRANCH  19  20
ATOM     20  C   UNL     1       4.278   3.697   0.161  1.00  0.00     0.240 C 
ATOM     21  O   UNL     1       5.215   3.213  -0.468  1.00  0.00    -0.273 OA
ATOM     22  N   UNL     1       2.956   3.364  -0.050  1.00  0.00    -0.342 N 
ATOM     23  H   UNL     1       2.255   3.885   0.404  1.00  0.00     0.164 HD
BRANCH  22  24
ATOM     24  C   UNL     1       2.563   2.257  -0.928  1.00  0.00     0.158 C 
BRANCH  24  25
ATOM     25  C   UNL     1       2.903   2.499  -2.399  1.00  0.00    -0.020 A 
ATOM     26  C   UNL     1       3.229   1.465  -3.291  1.00  0.00     0.006 A 
ATOM     27  C   UNL     1       2.814   3.804  -2.928  1.00  0.00     0.006 A 
ATOM     28  C   UNL     1       3.487   1.725  -4.641  1.00  0.00     0.000 A 
ATOM     29  C   UNL     1       3.079   4.065  -4.276  1.00  0.00     0.000 A 
ATOM     30  C   UNL     1       3.417   3.024  -5.133  1.00  0.00     0.000 A 
ENDBRANCH  24  25
BRANCH  24  31
ATOM     31  C   UNL     1       2.963   0.900  -0.299  1.00  0.00     0.068 C 
ATOM     32  O   UNL     1       2.851  -0.217  -0.794  1.00  0.00    -0.548 OA
ATOM     33  O   UNL     1       3.338   0.980   1.002  1.00  0.00    -0.548 OA
ENDBRANCH  24  31
ENDBRANCH  22  24
ENDBRANCH  19  20
ENDBRANCH  16  19
ENDBRANCH   3  15
ENDBRANCH   1   2
BRANCH   1  34
ATOM     34  C   UNL     1      -1.625   5.729  -0.889  1.00  0.00     0.067 C 
BRANCH  34  35
ATOM     35  C   UNL     1      -2.417   4.436  -0.696  1.00  0.00     0.120 C 
BRANCH  35  36
ATOM     36  N   UNL     1      -3.847   4.661  -0.525  1.00  0.00    -0.352 N 
ATOM     37  C   UNL     1      -4.917   4.234  -1.272  1.00  0.00     0.251 C 
ATOM     38  H   UNL     1      -4.085   5.211   0.256  1.00  0.00     0.163 HD
ATOM     39  O   UNL     1      -6.036   4.686  -1.033  1.00  0.00    -0.269 OA
BRANCH  37  40
ATOM     40  C   UNL     1      -4.742   3.261  -2.370  1.00  0.00     0.039 A 
ATOM     41  C   UNL     1      -5.429   3.472  -3.570  1.00  0.00     0.014 A 
ATOM     42  C   UNL     1      -3.936   2.130  -2.218  1.00  0.00     0.014 A 
ATOM     43  C   UNL     1      -5.238   2.600  -4.645  1.00  0.00     0.010 A 
ATOM     44  C   UNL     1      -3.694   1.298  -3.309  1.00  0.00     0.010 A 
ATOM     45  C   UNL     1      -4.332   1.533  -4.537  1.00  0.00    -0.014 A 
BRANCH  45  46
ATOM     46  C   UNL     1      -4.003   0.678  -5.705  1.00  0.00     0.031 A 
ATOM     47  C   UNL     1      -4.347  -0.783  -5.708  1.00  0.00     0.074 A 
ATOM     48  C   UNL     1      -3.315   1.208  -6.735  1.00  0.00     0.049 A 
ATOM     49  N   UNL     1      -4.060  -1.698  -6.599  1.00  0.00    -0.248 NA
ATOM     50  C   UNL     1      -5.094  -1.286  -4.546  1.00  0.00     0.031 C 
ATOM     51  C   UNL     1      -2.892   2.606  -6.839  1.00  0.00     0.029 A 
ATOM     52  N   UNL     1      -2.839   0.630  -7.885  1.00  0.00    -0.354 N 
ATOM     53  C   UNL     1      -4.575  -2.887  -6.100  1.00  0.00     0.074 A 
ATOM     54  C   UNL     1      -5.155  -2.583  -4.808  1.00  0.00     0.031 C 
ATOM     55  C   UNL     1      -2.244   2.783  -8.001  1.00  0.00     0.029 A 
ATOM     56  C   UNL     1      -2.165   1.505  -8.701  1.00  0.00     0.049 A 
ATOM     57  H   UNL     1      -2.968  -0.321  -8.104  1.00  0.00     0.167 HD
ATOM     58  C   UNL     1      -4.580  -4.115  -6.672  1.00  0.00     0.037 A 
ATOM     59  C   UNL     1      -1.543   1.300  -9.877  1.00  0.00     0.037 A 
ATOM     60  C   UNL     1      -4.014  -4.412  -7.963  1.00  0.00     0.049 A 
ATOM     61  C   UNL     1      -1.521  -0.079 -10.470  1.00  0.00     0.074 A 
ATOM     62  C   UNL     1      -4.031  -5.609  -8.658  1.00  0.00     0.029 A 
ATOM     63  N   UNL     1      -3.318  -3.504  -8.748  1.00  0.00    -0.354 N 
ATOM     64  N   UNL     1      -2.067  -1.181 -10.018  1.00  0.00    -0.248 NA
ATOM     65  C   UNL     1      -0.789  -0.243 -11.733  1.00  0.00     0.031 C 
ATOM     66  C   UNL     1      -3.305  -5.438  -9.843  1.00  0.00     0.029 A 
ATOM     67  C   UNL     1      -2.873  -4.123  -9.906  1.00  0.00     0.049 A 
ATOM     68  H   UNL     1      -3.164  -2.560  -8.517  1.00  0.00     0.167 HD
ATOM     69  C   UNL     1      -1.767  -2.165 -10.950  1.00  0.00     0.074 A 
ATOM     70  C   UNL     1      -0.996  -1.526 -11.998  1.00  0.00     0.031 C 
ATOM     71  C   UNL     1      -2.102  -3.478 -10.939  1.00  0.00     0.037 A 
BRANCH  58  72
ATOM     72  C   UNL     1      -5.212  -5.231  -5.892  1.00  0.00     0.057 A 
ATOM     73  C   UNL     1      -6.597  -5.299  -5.687  1.00  0.00     0.134 A 
ATOM     74  C   UNL     1      -4.428  -6.255  -5.345  1.00  0.00     0.134 A 
ATOM     75  F   UNL     1      -7.404  -4.345  -6.176  1.00  0.00    -0.206 F 
ATOM     76  C   UNL     1      -7.175  -6.323  -4.934  1.00  0.00     0.040 A 
ATOM     77  C   UNL     1      -4.998  -7.298  -4.613  1.00  0.00     0.040 A 
ATOM     78  F   UNL     1      -3.097  -6.257  -5.510  1.00  0.00    -0.206 F 
ATOM     79  C   UNL     1      -6.374  -7.329  -4.398  1.00  0.00     0.006 A 
ENDBRANCH  58  72
BRANCH  59  80
ATOM     80  C   UNL     1      -0.916   2.442 -10.586  1.00  0.00     0.057 A 
ATOM     81  C   UNL     1      -1.502   2.970 -11.741  1.00  0.00     0.134 A 
ATOM     82  C   UNL     1       0.259   3.044 -10.122  1.00  0.00     0.134 A 
ATOM     83  F   UNL     1      -2.619   2.421 -12.242  1.00  0.00    -0.206 F 
ATOM     84  C   UNL     1      -0.940   4.054 -12.415  1.00  0.00     0.040 A 
ATOM     85  C   UNL     1       0.822   4.142 -10.775  1.00  0.00     0.040 A 
ATOM     86  F   UNL     1       0.865   2.586  -9.017  1.00  0.00    -0.206 F 
ATOM     87  C   UNL     1       0.223   4.647 -11.927  1.00  0.00     0.006 A 
ENDBRANCH  59  80
BRANCH  71  88
ATOM     88  C   UNL     1      -1.656  -4.307 -12.107  1.00  0.00     0.057 A 
ATOM     89  C   UNL     1      -0.321  -4.697 -12.267  1.00  0.00     0.134 A 
ATOM     90  C   UNL     1      -2.580  -4.750 -13.062  1.00  0.00     0.134 A 
ATOM     91  F   UNL     1       0.615  -4.292 -11.395  1.00  0.00    -0.206 F 
ATOM     92  C   UNL     1       0.083  -5.485 -13.346  1.00  0.00     0.040 A 
ATOM     93  C   UNL     1      -2.192  -5.557 -14.132  1.00  0.00     0.040 A 
ATOM     94  F   UNL     1      -3.875  -4.415 -12.964  1.00  0.00    -0.206 F 
ATOM     95  C   UNL     1      -0.855  -5.923 -14.278  1.00  0.00     0.006 A 
ENDBRANCH  71  88
ENDBRANCH  45  46
ENDBRANCH  37  40
ENDBRANCH  35  36
ENDBRANCH  34  35
ENDBRANCH   1  34
TORSDOF 15
