REMARK SMILES C[C@H](Oc1ccc(/C=C2\SC(=S)N(N)C2=O)cc1)C(=O)NCCCNC(=O)c1ccc(-c2c3nc(c(-c4c(F)cccc4F)c4ccc([nH]4)c(-c4c(F)cccc4F)c4nc(c(-c5c(F)cccc5F)c5ccc2[nH]5)C=C4)C=C3)cc1
REMARK SMILES IDX 22 1 21 2 19 3 20 4 2 6 1 7 3 8 4 9 5 10 18 11 6 12 17 13
REMARK SMILES IDX 7 14 8 15 9 16 10 17 15 18 11 19 13 20 16 21 12 22 14 23
REMARK SMILES IDX 23 26 24 27 25 28 26 29 27 31 28 32 29 33 81 34 30 35 80 36
REMARK SMILES IDX 31 37 32 38 33 39 74 40 34 41 79 42 73 43 75 44 35 45 78 46
REMARK SMILES IDX 72 47 71 48 36 50 62 51 45 52 61 53 46 54 49 55 60 56 76 57
REMARK SMILES IDX 47 58 48 59 59 61 77 62 50 63 37 64 38 65 43 66 39 67 40 68
REMARK SMILES IDX 42 69 44 70 41 71 63 72 64 73 69 74 65 75 66 76 68 77 70 78
REMARK SMILES IDX 67 79 51 80 52 81 57 82 53 83 54 84 56 85 58 86 55 87
REMARK H PARENT 21 5 14 24 14 25 25 30 75 49 49 60
REMARK Flexibility Score: inf
ROOT
ATOM      1  C   UNL     1      -1.113  -2.293  -0.147  1.00  0.00     0.118 C 
ENDROOT
BRANCH   1   2
ATOM      2  N   UNL     1      -1.676  -1.112  -0.781  1.00  0.00    -0.353 N 
ATOM      3  C   UNL     1      -1.028  -0.063  -1.379  1.00  0.00     0.260 C 
ATOM      4  O   UNL     1      -1.709   0.864  -1.824  1.00  0.00    -0.271 OA
ATOM      5  H   UNL     1      -2.659  -1.058  -0.781  1.00  0.00     0.163 HD
BRANCH   3   6
ATOM      6  C   UNL     1       0.496  -0.103  -1.556  1.00  0.00     0.258 C 
ATOM      7  C   UNL     1       0.806  -1.257  -2.524  1.00  0.00     0.064 C 
BRANCH   6   8
ATOM      8  O   UNL     1       1.031  -0.168  -0.227  1.00  0.00    -0.481 OA
BRANCH   8   9
ATOM      9  C   UNL     1       2.342  -0.458  -0.014  1.00  0.00     0.120 A 
ATOM     10  C   UNL     1       3.342  -0.440  -0.975  1.00  0.00     0.047 A 
ATOM     11  C   UNL     1       2.666  -0.832   1.294  1.00  0.00     0.047 A 
ATOM     12  C   UNL     1       4.603  -0.957  -0.678  1.00  0.00     0.012 A 
ATOM     13  C   UNL     1       3.936  -1.336   1.599  1.00  0.00     0.012 A 
ATOM     14  C   UNL     1       4.891  -1.478   0.589  1.00  0.00    -0.024 A 
BRANCH  14  15
ATOM     15  C   UNL     1       6.178  -2.134   0.868  1.00  0.00     0.029 C 
ATOM     16  C   UNL     1       6.756  -3.092   0.123  1.00  0.00     0.082 C 
ATOM     17  S   UNL     1       6.143  -3.844  -1.308  1.00  0.00    -0.053 SA
ATOM     18  C   UNL     1       8.090  -3.662   0.469  1.00  0.00     0.280 C 
ATOM     19  C   UNL     1       7.556  -4.866  -1.515  1.00  0.00     0.162 C 
ATOM     20  N   UNL     1       8.435  -4.628  -0.474  1.00  0.00    -0.226 N 
ATOM     21  O   UNL     1       8.779  -3.292   1.408  1.00  0.00    -0.267 OA
ATOM     22  S   UNL     1       7.755  -5.905  -2.805  1.00  0.00    -0.050 S 
BRANCH  20  23
ATOM     23  N   UNL     1       9.663  -5.333  -0.337  1.00  0.00    -0.239 NA
ATOM     24  H   UNL     1       9.761  -5.998  -1.104  1.00  0.00     0.144 HD
ATOM     25  H   UNL     1       9.669  -5.836   0.551  1.00  0.00     0.144 HD
ENDBRANCH  20  23
ENDBRANCH  14  15
ENDBRANCH   8   9
ENDBRANCH   6   8
ENDBRANCH   3   6
ENDBRANCH   1   2
BRANCH   1  26
ATOM     26  C   UNL     1      -1.456  -2.366   1.331  1.00  0.00     0.042 C 
BRANCH  26  27
ATOM     27  C   UNL     1      -2.941  -2.549   1.596  1.00  0.00     0.118 C 
BRANCH  27  28
ATOM     28  N   UNL     1      -3.457  -3.802   1.057  1.00  0.00    -0.352 N 
ATOM     29  C   UNL     1      -4.067  -4.852   1.695  1.00  0.00     0.251 C 
ATOM     30  H   UNL     1      -3.352  -3.911   0.085  1.00  0.00     0.163 HD
ATOM     31  O   UNL     1      -4.262  -5.903   1.092  1.00  0.00    -0.269 OA
BRANCH  29  32
ATOM     32  C   UNL     1      -4.468  -4.729   3.112  1.00  0.00     0.039 A 
ATOM     33  C   UNL     1      -4.273  -5.816   3.966  1.00  0.00     0.014 A 
ATOM     34  C   UNL     1      -5.036  -3.549   3.599  1.00  0.00     0.014 A 
ATOM     35  C   UNL     1      -4.585  -5.694   5.320  1.00  0.00     0.010 A 
ATOM     36  C   UNL     1      -5.246  -3.393   4.964  1.00  0.00     0.010 A 
ATOM     37  C   UNL     1      -5.035  -4.468   5.838  1.00  0.00    -0.014 A 
BRANCH  37  38
ATOM     38  C   UNL     1      -5.300  -4.297   7.288  1.00  0.00     0.031 A 
ATOM     39  C   UNL     1      -6.682  -3.949   7.769  1.00  0.00     0.074 A 
ATOM     40  C   UNL     1      -4.284  -4.401   8.167  1.00  0.00     0.049 A 
ATOM     41  N   UNL     1      -7.099  -3.719   8.989  1.00  0.00    -0.248 NA
ATOM     42  C   UNL     1      -7.729  -3.813   6.744  1.00  0.00     0.031 C 
ATOM     43  C   UNL     1      -2.889  -4.680   7.820  1.00  0.00     0.029 A 
ATOM     44  N   UNL     1      -4.267  -4.280   9.533  1.00  0.00    -0.354 N 
ATOM     45  C   UNL     1      -8.447  -3.402   8.873  1.00  0.00     0.074 A 
ATOM     46  C   UNL     1      -8.763  -3.404   7.463  1.00  0.00     0.031 C 
ATOM     47  C   UNL     1      -2.160  -4.744   8.945  1.00  0.00     0.029 A 
ATOM     48  C   UNL     1      -3.024  -4.467  10.088  1.00  0.00     0.049 A 
ATOM     49  H   UNL     1      -5.070  -4.079  10.066  1.00  0.00     0.167 HD
ATOM     50  C   UNL     1      -9.347  -3.159   9.856  1.00  0.00     0.037 A 
ATOM     51  C   UNL     1      -2.625  -4.415  11.372  1.00  0.00     0.037 A 
ATOM     52  C   UNL     1      -9.032  -3.176  11.260  1.00  0.00     0.049 A 
ATOM     53  C   UNL     1      -3.641  -4.129  12.443  1.00  0.00     0.074 A 
ATOM     54  C   UNL     1      -9.883  -2.999  12.336  1.00  0.00     0.029 A 
ATOM     55  N   UNL     1      -7.763  -3.377  11.782  1.00  0.00    -0.354 N 
ATOM     56  N   UNL     1      -4.928  -3.906  12.325  1.00  0.00    -0.248 NA
ATOM     57  C   UNL     1      -3.150  -4.096  13.828  1.00  0.00     0.031 C 
ATOM     58  C   UNL     1      -9.120  -3.038  13.507  1.00  0.00     0.029 A 
ATOM     59  C   UNL     1      -7.804  -3.301  13.165  1.00  0.00     0.049 A 
ATOM     60  H   UNL     1      -6.953  -3.548  11.249  1.00  0.00     0.167 HD
ATOM     61  C   UNL     1      -5.405  -3.738  13.619  1.00  0.00     0.074 A 
ATOM     62  C   UNL     1      -4.272  -3.901  14.506  1.00  0.00     0.031 C 
ATOM     63  C   UNL     1      -6.668  -3.472  14.035  1.00  0.00     0.037 A 
BRANCH  50  64
ATOM     64  C   UNL     1     -10.759  -2.856   9.443  1.00  0.00     0.057 A 
ATOM     65  C   UNL     1     -11.588  -3.829   8.867  1.00  0.00     0.134 A 
ATOM     66  C   UNL     1     -11.310  -1.586   9.653  1.00  0.00     0.134 A 
ATOM     67  F   UNL     1     -11.121  -5.064   8.626  1.00  0.00    -0.206 F 
ATOM     68  C   UNL     1     -12.901  -3.542   8.489  1.00  0.00     0.040 A 
ATOM     69  C   UNL     1     -12.631  -1.295   9.309  1.00  0.00     0.040 A 
ATOM     70  F   UNL     1     -10.576  -0.608  10.206  1.00  0.00    -0.206 F 
ATOM     71  C   UNL     1     -13.428  -2.273   8.718  1.00  0.00     0.006 A 
ENDBRANCH  50  64
BRANCH  51  72
ATOM     72  C   UNL     1      -1.202  -4.660  11.722  1.00  0.00     0.057 A 
ATOM     73  C   UNL     1      -0.818  -5.805  12.429  1.00  0.00     0.134 A 
ATOM     74  C   UNL     1      -0.195  -3.753  11.370  1.00  0.00     0.134 A 
ATOM     75  F   UNL     1      -1.738  -6.704  12.809  1.00  0.00    -0.206 F 
ATOM     76  C   UNL     1       0.510  -6.028  12.797  1.00  0.00     0.040 A 
ATOM     77  C   UNL     1       1.141  -3.977  11.706  1.00  0.00     0.040 A 
ATOM     78  F   UNL     1      -0.494  -2.641  10.683  1.00  0.00    -0.206 F 
ATOM     79  C   UNL     1       1.496  -5.113  12.430  1.00  0.00     0.006 A 
ENDBRANCH  51  72
BRANCH  63  80
ATOM     80  C   UNL     1      -6.899  -3.383  15.516  1.00  0.00     0.057 A 
ATOM     81  C   UNL     1      -6.413  -2.315  16.282  1.00  0.00     0.134 A 
ATOM     82  C   UNL     1      -7.647  -4.365  16.179  1.00  0.00     0.134 A 
ATOM     83  F   UNL     1      -5.678  -1.348  15.712  1.00  0.00    -0.206 F 
ATOM     84  C   UNL     1      -6.638  -2.243  17.658  1.00  0.00     0.040 A 
ATOM     85  C   UNL     1      -7.906  -4.286  17.548  1.00  0.00     0.040 A 
ATOM     86  F   UNL     1      -8.152  -5.409  15.505  1.00  0.00    -0.206 F 
ATOM     87  C   UNL     1      -7.393  -3.227  18.293  1.00  0.00     0.006 A 
ENDBRANCH  63  80
ENDBRANCH  37  38
ENDBRANCH  29  32
ENDBRANCH  27  28
ENDBRANCH  26  27
ENDBRANCH   1  26
TORSDOF 14
