REMARK SMILES CC[C@H](C)c1ccccc1Oc1cccc(F)c1C(=O)NCCCNC(=O)c1ccc(-c2c3nc(c(-c4c(F)cccc4F)c4ccc([nH]4)c(-c4c(F)cccc4F)c4nc(c(-c5c(F)cccc5F)c5ccc2[nH]5)C=C4)C=C3)cc1
REMARK SMILES IDX 22 1 21 2 19 3 20 4 18 6 12 7 13 8 14 9 16 10 15 11 17 12
REMARK SMILES IDX 11 13 10 14 5 15 6 16 7 17 9 18 8 19 3 20 4 21 2 22 1 23
REMARK SMILES IDX 23 24 24 25 25 26 26 27 27 29 28 30 29 31 81 32 30 33 80 34
REMARK SMILES IDX 31 35 32 36 33 37 74 38 34 39 79 40 73 41 75 42 35 43 78 44
REMARK SMILES IDX 72 45 71 46 36 48 62 49 45 50 61 51 46 52 49 53 60 54 76 55
REMARK SMILES IDX 47 56 48 57 59 59 77 60 50 61 37 62 38 63 43 64 39 65 40 66
REMARK SMILES IDX 42 67 44 68 41 69 63 70 64 71 69 72 65 73 66 74 68 75 70 76
REMARK SMILES IDX 67 77 51 78 52 79 57 80 53 81 54 82 56 83 58 84 55 85
REMARK H PARENT 21 5 25 28 75 47 49 58
REMARK Flexibility Score: inf
ROOT
ATOM      1  C   UNL     1       1.815   2.363   3.969  1.00  0.00     0.118 C 
ENDROOT
BRANCH   1   2
ATOM      2  N   UNL     1       2.762   1.762   3.079  1.00  0.00    -0.352 N 
ATOM      3  C   UNL     1       2.457   1.046   1.945  1.00  0.00     0.258 C 
ATOM      4  O   UNL     1       3.297   1.036   1.045  1.00  0.00    -0.269 OA
ATOM      5  H   UNL     1       3.715   1.872   3.298  1.00  0.00     0.163 HD
BRANCH   3   6
ATOM      6  C   UNL     1       1.233   0.202   1.814  1.00  0.00     0.118 A 
ATOM      7  C   UNL     1      -0.121   0.521   2.018  1.00  0.00     0.143 A 
ATOM      8  C   UNL     1      -1.091  -0.507   1.910  1.00  0.00     0.048 A 
ATOM      9  C   UNL     1      -0.769  -1.796   1.500  1.00  0.00     0.007 A 
ATOM     10  C   UNL     1       1.529  -1.113   1.386  1.00  0.00     0.139 A 
ATOM     11  C   UNL     1       0.550  -2.091   1.214  1.00  0.00     0.040 A 
ATOM     12  F   UNL     1       2.795  -1.496   1.153  1.00  0.00    -0.206 F 
BRANCH   7  13
ATOM     13  O   UNL     1      -0.755   1.669   2.417  1.00  0.00    -0.456 OA
BRANCH  13  14
ATOM     14  C   UNL     1      -0.500   2.965   2.045  1.00  0.00     0.130 A 
ATOM     15  C   UNL     1      -0.009   3.478   0.832  1.00  0.00    -0.002 A 
ATOM     16  C   UNL     1       0.216   4.875   0.794  1.00  0.00     0.008 A 
ATOM     17  C   UNL     1      -0.070   5.724   1.872  1.00  0.00     0.001 A 
ATOM     18  C   UNL     1      -0.877   3.846   3.091  1.00  0.00     0.047 A 
ATOM     19  C   UNL     1      -0.642   5.212   3.021  1.00  0.00     0.004 A 
BRANCH  15  20
ATOM     20  C   UNL     1       0.307   2.607  -0.383  1.00  0.00     0.019 C 
ATOM     21  C   UNL     1      -0.867   1.684  -0.774  1.00  0.00     0.013 C 
BRANCH  20  22
ATOM     22  C   UNL     1       0.821   3.318  -1.659  1.00  0.00     0.005 C 
ATOM     23  C   UNL     1       1.621   2.372  -2.550  1.00  0.00     0.004 C 
ENDBRANCH  20  22
ENDBRANCH  15  20
ENDBRANCH  13  14
ENDBRANCH   7  13
ENDBRANCH   3   6
ENDBRANCH   1   2
BRANCH   1  24
ATOM     24  C   UNL     1       2.196   2.467   5.418  1.00  0.00     0.042 C 
BRANCH  24  25
ATOM     25  C   UNL     1       2.982   3.712   5.771  1.00  0.00     0.118 C 
BRANCH  25  26
ATOM     26  N   UNL     1       2.312   4.979   5.456  1.00  0.00    -0.352 N 
ATOM     27  C   UNL     1       1.968   6.041   6.260  1.00  0.00     0.251 C 
ATOM     28  H   UNL     1       2.067   5.088   4.508  1.00  0.00     0.163 HD
ATOM     29  O   UNL     1       1.334   6.986   5.797  1.00  0.00    -0.269 OA
BRANCH  27  30
ATOM     30  C   UNL     1       2.311   6.019   7.698  1.00  0.00     0.039 A 
ATOM     31  C   UNL     1       1.378   6.469   8.637  1.00  0.00     0.014 A 
ATOM     32  C   UNL     1       3.523   5.484   8.124  1.00  0.00     0.014 A 
ATOM     33  C   UNL     1       1.621   6.269   9.997  1.00  0.00     0.010 A 
ATOM     34  C   UNL     1       3.686   5.136   9.454  1.00  0.00     0.010 A 
ATOM     35  C   UNL     1       2.750   5.544  10.412  1.00  0.00    -0.014 A 
BRANCH  35  36
ATOM     36  C   UNL     1       3.009   5.231  11.838  1.00  0.00     0.031 A 
ATOM     37  C   UNL     1       4.301   5.681  12.470  1.00  0.00     0.074 A 
ATOM     38  C   UNL     1       2.139   4.471  12.531  1.00  0.00     0.049 A 
ATOM     39  N   UNL     1       4.779   5.415  13.658  1.00  0.00    -0.248 NA
ATOM     40  C   UNL     1       5.203   6.492  11.633  1.00  0.00     0.031 C 
ATOM     41  C   UNL     1       0.894   3.904  12.005  1.00  0.00     0.029 A 
ATOM     42  N   UNL     1       2.174   4.037  13.832  1.00  0.00    -0.354 N 
ATOM     43  C   UNL     1       6.044   5.990  13.689  1.00  0.00     0.074 A 
ATOM     44  C   UNL     1       6.293   6.547  12.380  1.00  0.00     0.031 C 
ATOM     45  C   UNL     1       0.264   3.237  12.986  1.00  0.00     0.029 A 
ATOM     46  C   UNL     1       1.075   3.296  14.196  1.00  0.00     0.049 A 
ATOM     47  H   UNL     1       2.916   4.237  14.447  1.00  0.00     0.167 HD
ATOM     48  C   UNL     1       6.906   6.085  14.727  1.00  0.00     0.037 A 
ATOM     49  C   UNL     1       0.760   2.735  15.378  1.00  0.00     0.037 A 
ATOM     50  C   UNL     1       6.622   5.590  16.045  1.00  0.00     0.049 A 
ATOM     51  C   UNL     1       1.705   2.906  16.536  1.00  0.00     0.074 A 
ATOM     52  C   UNL     1       7.383   5.703  17.194  1.00  0.00     0.029 A 
ATOM     53  N   UNL     1       5.470   4.898  16.390  1.00  0.00    -0.354 N 
ATOM     54  N   UNL     1       2.866   3.515  16.572  1.00  0.00    -0.248 NA
ATOM     55  C   UNL     1       1.292   2.321  17.818  1.00  0.00     0.031 C 
ATOM     56  C   UNL     1       6.704   5.052  18.229  1.00  0.00     0.029 A 
ATOM     57  C   UNL     1       5.503   4.570  17.733  1.00  0.00     0.049 A 
ATOM     58  H   UNL     1       4.739   4.673  15.770  1.00  0.00     0.167 HD
ATOM     59  C   UNL     1       3.309   3.412  17.883  1.00  0.00     0.074 A 
ATOM     60  C   UNL     1       2.284   2.695  18.614  1.00  0.00     0.031 C 
ATOM     61  C   UNL     1       4.461   3.865  18.436  1.00  0.00     0.037 A 
BRANCH  48  62
ATOM     62  C   UNL     1       8.217   6.773  14.475  1.00  0.00     0.057 A 
ATOM     63  C   UNL     1       8.294   8.149  14.218  1.00  0.00     0.134 A 
ATOM     64  C   UNL     1       9.418   6.053  14.490  1.00  0.00     0.134 A 
ATOM     65  F   UNL     1       7.179   8.895  14.171  1.00  0.00    -0.206 F 
ATOM     66  C   UNL     1       9.511   8.777  13.949  1.00  0.00     0.040 A 
ATOM     67  C   UNL     1      10.645   6.676  14.253  1.00  0.00     0.040 A 
ATOM     68  F   UNL     1       9.419   4.734  14.731  1.00  0.00    -0.206 F 
ATOM     69  C   UNL     1      10.693   8.040  13.973  1.00  0.00     0.006 A 
ENDBRANCH  48  62
BRANCH  49  70
ATOM     70  C   UNL     1      -0.526   2.011  15.543  1.00  0.00     0.057 A 
ATOM     71  C   UNL     1      -1.564   2.555  16.308  1.00  0.00     0.134 A 
ATOM     72  C   UNL     1      -0.751   0.766  14.944  1.00  0.00     0.134 A 
ATOM     73  F   UNL     1      -1.403   3.738  16.919  1.00  0.00    -0.206 F 
ATOM     74  C   UNL     1      -2.772   1.879  16.491  1.00  0.00     0.040 A 
ATOM     75  C   UNL     1      -1.963   0.089  15.099  1.00  0.00     0.040 A 
ATOM     76  F   UNL     1       0.198   0.195  14.189  1.00  0.00    -0.206 F 
ATOM     77  C   UNL     1      -2.975   0.643  15.881  1.00  0.00     0.006 A 
ENDBRANCH  49  70
BRANCH  61  78
ATOM     78  C   UNL     1       4.652   3.630  19.903  1.00  0.00     0.057 A 
ATOM     79  C   UNL     1       4.942   2.359  20.415  1.00  0.00     0.134 A 
ATOM     80  C   UNL     1       4.582   4.695  20.809  1.00  0.00     0.134 A 
ATOM     81  F   UNL     1       5.011   1.297  19.598  1.00  0.00    -0.206 F 
ATOM     82  C   UNL     1       5.133   2.152  21.781  1.00  0.00     0.040 A 
ATOM     83  C   UNL     1       4.797   4.506  22.174  1.00  0.00     0.040 A 
ATOM     84  F   UNL     1       4.317   5.939  20.380  1.00  0.00    -0.206 F 
ATOM     85  C   UNL     1       5.067   3.229  22.664  1.00  0.00     0.006 A 
ENDBRANCH  61  78
ENDBRANCH  35  36
ENDBRANCH  27  30
ENDBRANCH  25  26
ENDBRANCH  24  25
ENDBRANCH   1  24
TORSDOF 14
