REMARK SMILES O=C(NCCCNC(=O)[C@@H]1C=C[C@H](NC(=O)[C@@H]2CCSC2)C1)c1ccc(-c2c3nc(c(-c4c(F)cccc4F)c4ccc([nH]4)c(-c4c(F)cccc4F)c4nc(c(-c5c(F)cccc5F)c5ccc2[nH]5)C=C4)C=C3)cc1
REMARK SMILES IDX 5 1 4 2 3 3 1 4 2 5 23 7 24 8 76 9 25 10 75 11 26 12 27 13
REMARK SMILES IDX 28 14 69 15 29 16 74 17 68 18 70 19 30 20 73 21 67 22 66 23
REMARK SMILES IDX 31 25 57 26 40 27 56 28 41 29 44 30 55 31 71 32 42 33 43 34
REMARK SMILES IDX 54 36 72 37 45 38 32 39 33 40 38 41 34 42 35 43 37 44 39 45
REMARK SMILES IDX 36 46 58 47 59 48 64 49 60 50 61 51 63 52 65 53 62 54 46 55
REMARK SMILES IDX 47 56 52 57 48 58 49 59 51 60 53 61 50 62 6 63 7 64 8 65
REMARK SMILES IDX 9 67 10 68 11 69 22 70 12 71 13 72 14 73 15 74 16 76 17 77
REMARK SMILES IDX 18 78 21 79 19 80 20 81
REMARK H PARENT 3 6 70 24 44 35 7 66 14 75
REMARK Flexibility Score: inf
ROOT
ATOM      1  C   UNL     1       5.011  -2.884  -0.601  1.00  0.00     0.042 C 
ENDROOT
BRANCH   1   2
ATOM      2  C   UNL     1       6.145  -2.382   0.286  1.00  0.00     0.118 C 
BRANCH   2   3
ATOM      3  N   UNL     1       6.014  -0.978   0.652  1.00  0.00    -0.352 N 
ATOM      4  O   UNL     1       5.337   0.862   1.741  1.00  0.00    -0.269 OA
ATOM      5  C   UNL     1       5.489  -0.360   1.759  1.00  0.00     0.251 C 
ATOM      6  H   UNL     1       6.370  -0.355  -0.023  1.00  0.00     0.163 HD
BRANCH   5   7
ATOM      7  C   UNL     1       5.070  -1.122   2.958  1.00  0.00     0.039 A 
ATOM      8  C   UNL     1       5.810  -2.200   3.440  1.00  0.00     0.014 A 
ATOM      9  C   UNL     1       3.935  -0.701   3.664  1.00  0.00     0.014 A 
ATOM     10  C   UNL     1       5.326  -2.960   4.502  1.00  0.00     0.010 A 
ATOM     11  C   UNL     1       3.506  -1.403   4.798  1.00  0.00     0.010 A 
ATOM     12  C   UNL     1       4.173  -2.569   5.201  1.00  0.00    -0.014 A 
BRANCH  12  13
ATOM     13  C   UNL     1       3.715  -3.378   6.364  1.00  0.00     0.031 A 
ATOM     14  C   UNL     1       2.381  -4.077   6.351  1.00  0.00     0.074 A 
ATOM     15  C   UNL     1       4.534  -3.522   7.425  1.00  0.00     0.049 A 
ATOM     16  N   UNL     1       1.860  -4.878   7.247  1.00  0.00    -0.248 NA
ATOM     17  C   UNL     1       1.514  -3.841   5.187  1.00  0.00     0.031 C 
ATOM     18  C   UNL     1       5.845  -2.884   7.569  1.00  0.00     0.029 A 
ATOM     19  N   UNL     1       4.403  -4.270   8.567  1.00  0.00    -0.354 N 
ATOM     20  C   UNL     1       0.602  -5.223   6.768  1.00  0.00     0.074 A 
ATOM     21  C   UNL     1       0.424  -4.521   5.516  1.00  0.00     0.031 C 
ATOM     22  C   UNL     1       6.423  -3.316   8.699  1.00  0.00     0.029 A 
ATOM     23  C   UNL     1       5.502  -4.211   9.390  1.00  0.00     0.049 A 
ATOM     24  H   UNL     1       3.599  -4.798   8.777  1.00  0.00     0.167 HD
ATOM     25  C   UNL     1      -0.316  -6.056   7.317  1.00  0.00     0.037 A 
ATOM     26  C   UNL     1       5.744  -4.807  10.572  1.00  0.00     0.037 A 
ATOM     27  C   UNL     1      -0.130  -6.770   8.555  1.00  0.00     0.049 A 
ATOM     28  C   UNL     1       4.701  -5.710  11.165  1.00  0.00     0.074 A 
ATOM     29  C   UNL     1      -0.981  -7.675   9.165  1.00  0.00     0.029 A 
ATOM     30  N   UNL     1       0.981  -6.652   9.378  1.00  0.00    -0.354 N 
ATOM     31  N   UNL     1       3.540  -6.067  10.673  1.00  0.00    -0.248 NA
ATOM     32  C   UNL     1       5.003  -6.290  12.480  1.00  0.00     0.031 C 
ATOM     33  C   UNL     1      -0.411  -8.063  10.383  1.00  0.00     0.029 A 
ATOM     34  C   UNL     1       0.823  -7.445  10.504  1.00  0.00     0.049 A 
ATOM     35  H   UNL     1       1.766  -6.088   9.190  1.00  0.00     0.167 HD
ATOM     36  C   UNL     1       2.984  -6.934  11.604  1.00  0.00     0.074 A 
ATOM     37  C   UNL     1       3.944  -7.061  12.681  1.00  0.00     0.031 C 
ATOM     38  C   UNL     1       1.786  -7.567  11.569  1.00  0.00     0.037 A 
BRANCH  25  39
ATOM     39  C   UNL     1      -1.622  -6.227   6.592  1.00  0.00     0.057 A 
ATOM     40  C   UNL     1      -1.717  -6.923   5.379  1.00  0.00     0.134 A 
ATOM     41  C   UNL     1      -2.809  -5.720   7.137  1.00  0.00     0.134 A 
ATOM     42  F   UNL     1      -0.619  -7.426   4.795  1.00  0.00    -0.206 F 
ATOM     43  C   UNL     1      -2.940  -7.086   4.724  1.00  0.00     0.040 A 
ATOM     44  C   UNL     1      -4.041  -5.900   6.505  1.00  0.00     0.040 A 
ATOM     45  F   UNL     1      -2.794  -5.051   8.300  1.00  0.00    -0.206 F 
ATOM     46  C   UNL     1      -4.108  -6.579   5.290  1.00  0.00     0.006 A 
ENDBRANCH  25  39
BRANCH  26  47
ATOM     47  C   UNL     1       7.035  -4.577  11.268  1.00  0.00     0.057 A 
ATOM     48  C   UNL     1       7.975  -5.605  11.407  1.00  0.00     0.134 A 
ATOM     49  C   UNL     1       7.361  -3.329  11.812  1.00  0.00     0.134 A 
ATOM     50  F   UNL     1       7.714  -6.829  10.924  1.00  0.00    -0.206 F 
ATOM     51  C   UNL     1       9.185  -5.405  12.074  1.00  0.00     0.040 A 
ATOM     52  C   UNL     1       8.578  -3.106  12.456  1.00  0.00     0.040 A 
ATOM     53  F   UNL     1       6.505  -2.301  11.707  1.00  0.00    -0.206 F 
ATOM     54  C   UNL     1       9.491  -4.149  12.595  1.00  0.00     0.006 A 
ENDBRANCH  26  47
BRANCH  38  55
ATOM     55  C   UNL     1       1.468  -8.488  12.712  1.00  0.00     0.057 A 
ATOM     56  C   UNL     1       1.180  -8.006  13.995  1.00  0.00     0.134 A 
ATOM     57  C   UNL     1       1.436  -9.875  12.520  1.00  0.00     0.134 A 
ATOM     58  F   UNL     1       1.208  -6.689  14.250  1.00  0.00    -0.206 F 
ATOM     59  C   UNL     1       0.903  -8.873  15.054  1.00  0.00     0.040 A 
ATOM     60  C   UNL     1       1.131 -10.750  13.563  1.00  0.00     0.040 A 
ATOM     61  F   UNL     1       1.694 -10.402  11.313  1.00  0.00    -0.206 F 
ATOM     62  C   UNL     1       0.873 -10.250  14.837  1.00  0.00     0.006 A 
ENDBRANCH  38  55
ENDBRANCH  12  13
ENDBRANCH   5   7
ENDBRANCH   2   3
ENDBRANCH   1   2
BRANCH   1  63
ATOM     63  C   UNL     1       4.920  -2.216  -1.971  1.00  0.00     0.117 C 
BRANCH  63  64
ATOM     64  N   UNL     1       6.128  -2.333  -2.763  1.00  0.00    -0.356 N 
ATOM     65  C   UNL     1       6.330  -2.962  -3.954  1.00  0.00     0.227 C 
ATOM     66  H   UNL     1       6.921  -1.891  -2.383  1.00  0.00     0.163 HD
ATOM     67  O   UNL     1       7.281  -2.559  -4.630  1.00  0.00    -0.274 OA
BRANCH  65  68
ATOM     68  C   UNL     1       5.386  -4.076  -4.451  1.00  0.00     0.103 C 
ATOM     69  C   UNL     1       5.110  -5.163  -3.450  1.00  0.00    -0.016 C 
ATOM     70  C   UNL     1       5.985  -4.875  -5.646  1.00  0.00     0.047 C 
ATOM     71  C   UNL     1       5.536  -6.369  -3.838  1.00  0.00    -0.006 C 
ATOM     72  C   UNL     1       6.137  -6.338  -5.193  1.00  0.00     0.106 C 
BRANCH  72  73
ATOM     73  N   UNL     1       7.453  -6.956  -5.180  1.00  0.00    -0.350 N 
ATOM     74  C   UNL     1       8.659  -6.643  -4.630  1.00  0.00     0.224 C 
ATOM     75  H   UNL     1       7.479  -7.799  -5.688  1.00  0.00     0.164 HD
ATOM     76  O   UNL     1       9.574  -7.461  -4.742  1.00  0.00    -0.275 OA
BRANCH  74  77
ATOM     77  C   UNL     1       8.852  -5.345  -3.883  1.00  0.00     0.089 C 
ATOM     78  C   UNL     1      10.223  -4.705  -4.150  1.00  0.00     0.025 C 
ATOM     79  C   UNL     1       8.625  -5.532  -2.388  1.00  0.00     0.083 C 
ATOM     80  C   UNL     1      11.103  -4.855  -2.925  1.00  0.00     0.070 C 
ATOM     81  S   UNL     1       9.953  -4.632  -1.555  1.00  0.00    -0.161 SA
ENDBRANCH  74  77
ENDBRANCH  72  73
ENDBRANCH  65  68
ENDBRANCH  63  64
ENDBRANCH   1  63
TORSDOF 12
