REMARK SMILES O=C(NCCCNC(=O)[C@@H]1[C@@H](C(=O)Nc2nc(-c3ccc(F)cc3)cs2)[C@H]2C=C[C@@H]1O2)c1ccc(-c2c3nc(c(-c4c(F)cccc4F)c4ccc([nH]4)c(-c4c(F)cccc4F)c4nc(c(-c5c(F)cccc5F)c5ccc2[nH]5)C=C4)C=C3)cc1
REMARK SMILES IDX 5 1 4 2 3 3 1 4 2 5 32 7 33 8 85 9 34 10 84 11 35 12 36 13
REMARK SMILES IDX 37 14 78 15 38 16 83 17 77 18 79 19 39 20 82 21 76 22 75 23
REMARK SMILES IDX 40 25 66 26 49 27 65 28 50 29 53 30 64 31 80 32 51 33 52 34
REMARK SMILES IDX 63 36 81 37 54 38 41 39 42 40 47 41 43 42 44 43 46 44 48 45
REMARK SMILES IDX 45 46 67 47 68 48 73 49 69 50 70 51 72 52 74 53 71 54 55 55
REMARK SMILES IDX 56 56 61 57 57 58 58 59 60 60 62 61 59 62 6 63 7 64 8 65
REMARK SMILES IDX 9 67 10 68 11 69 30 70 27 71 29 72 31 73 28 74 12 75 13 76
REMARK SMILES IDX 14 77 15 79 16 80 26 81 17 82 25 83 18 84 19 85 24 86 20 87
REMARK SMILES IDX 23 88 21 89 22 90
REMARK H PARENT 3 6 79 24 53 35 7 66 14 78
REMARK Flexibility Score: inf
ROOT
ATOM      1  C   UNL     1       5.002  -2.279   0.435  1.00  0.00     0.042 C 
ENDROOT
BRANCH   1   2
ATOM      2  C   UNL     1       4.574  -1.201  -0.550  1.00  0.00     0.118 C 
BRANCH   2   3
ATOM      3  N   UNL     1       3.139  -0.955  -0.558  1.00  0.00    -0.352 N 
ATOM      4  O   UNL     1       1.178   0.059  -0.123  1.00  0.00    -0.269 OA
ATOM      5  C   UNL     1       2.405   0.129  -0.141  1.00  0.00     0.251 C 
ATOM      6  H   UNL     1       2.601  -1.693  -0.925  1.00  0.00     0.163 HD
BRANCH   5   7
ATOM      7  C   UNL     1       3.072   1.364   0.325  1.00  0.00     0.039 A 
ATOM      8  C   UNL     1       4.190   1.876  -0.331  1.00  0.00     0.014 A 
ATOM      9  C   UNL     1       2.552   2.036   1.437  1.00  0.00     0.014 A 
ATOM     10  C   UNL     1       4.899   2.930   0.231  1.00  0.00     0.010 A 
ATOM     11  C   UNL     1       3.204   3.167   1.938  1.00  0.00     0.010 A 
ATOM     12  C   UNL     1       4.412   3.594   1.369  1.00  0.00    -0.014 A 
BRANCH  12  13
ATOM     13  C   UNL     1       5.169   4.749   1.917  1.00  0.00     0.031 A 
ATOM     14  C   UNL     1       5.763   4.706   3.297  1.00  0.00     0.074 A 
ATOM     15  C   UNL     1       5.363   5.830   1.135  1.00  0.00     0.049 A 
ATOM     16  N   UNL     1       6.480   5.612   3.914  1.00  0.00    -0.248 NA
ATOM     17  C   UNL     1       5.519   3.494   4.094  1.00  0.00     0.031 C 
ATOM     18  C   UNL     1       4.835   5.991  -0.221  1.00  0.00     0.029 A 
ATOM     19  N   UNL     1       6.078   6.979   1.353  1.00  0.00    -0.354 N 
ATOM     20  C   UNL     1       6.754   5.092   5.172  1.00  0.00     0.074 A 
ATOM     21  C   UNL     1       6.103   3.801   5.244  1.00  0.00     0.031 C 
ATOM     22  C   UNL     1       5.297   7.138  -0.738  1.00  0.00     0.029 A 
ATOM     23  C   UNL     1       6.097   7.824   0.270  1.00  0.00     0.049 A 
ATOM     24  H   UNL     1       6.534   7.180   2.202  1.00  0.00     0.167 HD
ATOM     25  C   UNL     1       7.490   5.636   6.171  1.00  0.00     0.037 A 
ATOM     26  C   UNL     1       6.686   9.022   0.103  1.00  0.00     0.037 A 
ATOM     27  C   UNL     1       8.150   6.914   6.090  1.00  0.00     0.049 A 
ATOM     28  C   UNL     1       7.480   9.612   1.229  1.00  0.00     0.074 A 
ATOM     29  C   UNL     1       8.930   7.543   7.045  1.00  0.00     0.029 A 
ATOM     30  N   UNL     1       8.109   7.758   4.990  1.00  0.00    -0.354 N 
ATOM     31  N   UNL     1       7.731   9.106   2.411  1.00  0.00    -0.248 NA
ATOM     32  C   UNL     1       8.064  10.941   1.004  1.00  0.00     0.031 C 
ATOM     33  C   UNL     1       9.329   8.783   6.538  1.00  0.00     0.029 A 
ATOM     34  C   UNL     1       8.838   8.907   5.248  1.00  0.00     0.049 A 
ATOM     35  H   UNL     1       7.632   7.568   4.150  1.00  0.00     0.167 HD
ATOM     36  C   UNL     1       8.513  10.045   3.068  1.00  0.00     0.074 A 
ATOM     37  C   UNL     1       8.706  11.147   2.146  1.00  0.00     0.031 C 
ATOM     38  C   UNL     1       9.023   9.996   4.322  1.00  0.00     0.037 A 
BRANCH  25  39
ATOM     39  C   UNL     1       7.613   4.856   7.449  1.00  0.00     0.057 A 
ATOM     40  C   UNL     1       6.979   5.296   8.618  1.00  0.00     0.134 A 
ATOM     41  C   UNL     1       8.396   3.698   7.536  1.00  0.00     0.134 A 
ATOM     42  F   UNL     1       6.221   6.402   8.607  1.00  0.00    -0.206 F 
ATOM     43  C   UNL     1       7.124   4.616   9.828  1.00  0.00     0.040 A 
ATOM     44  C   UNL     1       8.529   2.995   8.735  1.00  0.00     0.040 A 
ATOM     45  F   UNL     1       9.020   3.216   6.450  1.00  0.00    -0.206 F 
ATOM     46  C   UNL     1       7.897   3.458   9.888  1.00  0.00     0.006 A 
ENDBRANCH  25  39
BRANCH  26  47
ATOM     47  C   UNL     1       6.553   9.716  -1.200  1.00  0.00     0.057 A 
ATOM     48  C   UNL     1       5.329  10.252  -1.618  1.00  0.00     0.134 A 
ATOM     49  C   UNL     1       7.631   9.793  -2.088  1.00  0.00     0.134 A 
ATOM     50  F   UNL     1       4.256  10.198  -0.815  1.00  0.00    -0.206 F 
ATOM     51  C   UNL     1       5.173  10.814  -2.886  1.00  0.00     0.040 A 
ATOM     52  C   UNL     1       7.495  10.373  -3.350  1.00  0.00     0.040 A 
ATOM     53  F   UNL     1       8.830   9.307  -1.738  1.00  0.00    -0.206 F 
ATOM     54  C   UNL     1       6.259  10.875  -3.756  1.00  0.00     0.006 A 
ENDBRANCH  26  47
BRANCH  38  55
ATOM     55  C   UNL     1       9.860  11.156   4.771  1.00  0.00     0.057 A 
ATOM     56  C   UNL     1      11.246  11.019   4.918  1.00  0.00     0.134 A 
ATOM     57  C   UNL     1       9.289  12.386   5.118  1.00  0.00     0.134 A 
ATOM     58  F   UNL     1      11.852   9.863   4.610  1.00  0.00    -0.206 F 
ATOM     59  C   UNL     1      12.034  12.062   5.405  1.00  0.00     0.040 A 
ATOM     60  C   UNL     1      10.070  13.445   5.585  1.00  0.00     0.040 A 
ATOM     61  F   UNL     1       7.968  12.584   4.988  1.00  0.00    -0.206 F 
ATOM     62  C   UNL     1      11.446  13.281   5.738  1.00  0.00     0.006 A 
ENDBRANCH  38  55
ENDBRANCH  12  13
ENDBRANCH   5   7
ENDBRANCH   2   3
ENDBRANCH   1   2
BRANCH   1  63
ATOM     63  C   UNL     1       4.445  -3.658   0.129  1.00  0.00     0.117 C 
BRANCH  63  64
ATOM     64  N   UNL     1       4.816  -4.147  -1.188  1.00  0.00    -0.356 N 
ATOM     65  C   UNL     1       5.397  -5.337  -1.539  1.00  0.00     0.227 C 
ATOM     66  H   UNL     1       4.624  -3.535  -1.934  1.00  0.00     0.163 HD
ATOM     67  O   UNL     1       5.398  -5.642  -2.731  1.00  0.00    -0.275 OA
BRANCH  65  68
ATOM     68  C   UNL     1       5.953  -6.219  -0.437  1.00  0.00     0.127 C 
ATOM     69  C   UNL     1       6.776  -7.441  -0.938  1.00  0.00     0.127 C 
ATOM     70  C   UNL     1       4.729  -6.907   0.205  1.00  0.00     0.155 C 
ATOM     71  C   UNL     1       5.931  -8.609  -0.374  1.00  0.00     0.155 C 
ATOM     72  C   UNL     1       5.128  -7.562   1.487  1.00  0.00     0.004 C 
ATOM     73  O   UNL     1       4.602  -8.087  -0.634  1.00  0.00    -0.365 OA
ATOM     74  C   UNL     1       5.855  -8.627   1.130  1.00  0.00     0.004 C 
BRANCH  69  75
ATOM     75  C   UNL     1       8.227  -7.550  -0.471  1.00  0.00     0.233 C 
ATOM     76  O   UNL     1       8.556  -8.207   0.522  1.00  0.00    -0.274 OA
ATOM     77  N   UNL     1       9.249  -7.048  -1.215  1.00  0.00    -0.302 N 
ATOM     78  H   UNL     1      10.147  -7.402  -1.019  1.00  0.00     0.172 HD
BRANCH  77  79
ATOM     79  C   UNL     1       9.170  -6.115  -2.196  1.00  0.00     0.189 A 
ATOM     80  N   UNL     1       8.236  -5.229  -2.400  1.00  0.00    -0.220 NA
ATOM     81  S   UNL     1      10.519  -6.072  -3.240  1.00  0.00    -0.105 S 
ATOM     82  C   UNL     1       8.555  -4.496  -3.529  1.00  0.00     0.084 A 
ATOM     83  C   UNL     1       9.739  -4.844  -4.152  1.00  0.00     0.097 A 
BRANCH  82  84
ATOM     84  C   UNL     1       7.724  -3.401  -3.982  1.00  0.00     0.001 A 
ATOM     85  C   UNL     1       7.642  -2.235  -3.208  1.00  0.00     0.013 A 
ATOM     86  C   UNL     1       7.011  -3.491  -5.184  1.00  0.00     0.013 A 
ATOM     87  C   UNL     1       6.870  -1.158  -3.647  1.00  0.00     0.040 A 
ATOM     88  C   UNL     1       6.227  -2.418  -5.612  1.00  0.00     0.040 A 
ATOM     89  C   UNL     1       6.167  -1.262  -4.842  1.00  0.00     0.123 A 
ATOM     90  F   UNL     1       5.416  -0.232  -5.252  1.00  0.00    -0.207 F 
ENDBRANCH  82  84
ENDBRANCH  77  79
ENDBRANCH  69  75
ENDBRANCH  65  68
ENDBRANCH  63  64
ENDBRANCH   1  63
TORSDOF 13
