REMARK SMILES C[C@@H]1C(=O)NC(=O)CN1C(=O)NC1(CC(=O)NCCCNC(=O)c2ccc(-c3c4nc(c(-c5c(F)cccc5F)c5ccc([nH]5)c(-c5c(F)cccc5F)c5nc(c(-c6c(F)cccc6F)c6ccc3[nH]6)C=C5)C=C4)cc2)CCC1
REMARK SMILES IDX 18 1 17 2 15 3 16 4 14 6 13 7 78 8 80 9 79 10 12 11 10 12
REMARK SMILES IDX 11 13 9 15 1 16 2 17 3 18 4 19 5 20 8 21 6 22 7 24 19 25
REMARK SMILES IDX 20 26 21 27 22 28 23 30 24 31 25 32 77 33 26 34 76 35 27 36
REMARK SMILES IDX 28 37 29 38 70 39 30 40 75 41 69 42 71 43 31 44 74 45 68 46
REMARK SMILES IDX 67 47 32 49 58 50 41 51 57 52 42 53 45 54 56 55 72 56 43 57
REMARK SMILES IDX 44 58 55 60 73 61 46 62 33 63 34 64 39 65 35 66 36 67 38 68
REMARK SMILES IDX 40 69 37 70 59 71 60 72 65 73 61 74 62 75 64 76 66 77 63 78
REMARK SMILES IDX 47 79 48 80 53 81 49 82 50 83 52 84 54 85 51 86
REMARK H PARENT 17 5 12 14 5 23 21 29 71 48 45 59
REMARK Flexibility Score: inf
ROOT
ATOM      1  C   UNL     1      -1.736   1.231   5.743  1.00  0.00     0.117 C 
ENDROOT
BRANCH   1   2
ATOM      2  N   UNL     1      -1.364   2.323   4.862  1.00  0.00    -0.356 N 
ATOM      3  C   UNL     1      -0.487   2.340   3.825  1.00  0.00     0.222 C 
ATOM      4  O   UNL     1      -0.111   3.432   3.400  1.00  0.00    -0.275 OA
ATOM      5  H   UNL     1      -1.814   3.180   5.044  1.00  0.00     0.163 HD
BRANCH   3   6
ATOM      6  C   UNL     1      -0.085   1.046   3.166  1.00  0.00     0.128 C 
BRANCH   6   7
ATOM      7  C   UNL     1       1.406   0.687   3.188  1.00  0.00     0.051 C 
ATOM      8  C   UNL     1       1.817  -0.792   2.836  1.00  0.00     0.029 C 
ATOM      9  C   UNL     1       1.939   0.329   4.625  1.00  0.00     0.029 C 
ATOM     10  C   UNL     1       1.632  -1.145   4.320  1.00  0.00     0.005 C 
BRANCH   7  11
ATOM     11  N   UNL     1       2.271   1.701   2.551  1.00  0.00    -0.332 N 
ATOM     12  C   UNL     1       2.312   2.375   1.383  1.00  0.00     0.318 C 
ATOM     13  O   UNL     1       3.111   3.317   1.356  1.00  0.00    -0.249 OA
ATOM     14  H   UNL     1       3.021   1.952   3.137  1.00  0.00     0.165 HD
BRANCH  12  15
ATOM     15  N   UNL     1       1.543   2.073   0.300  1.00  0.00    -0.304 N 
ATOM     16  C   UNL     1       1.590  -0.012  -1.056  1.00  0.00     0.042 C 
ATOM     17  C   UNL     1       0.858   0.818  -0.010  1.00  0.00     0.174 C 
ATOM     18  C   UNL     1      -0.594   1.074  -0.433  1.00  0.00     0.249 C 
ATOM     19  O   UNL     1      -1.441   0.181  -0.444  1.00  0.00    -0.272 OA
ATOM     20  N   UNL     1      -0.888   2.320  -0.925  1.00  0.00    -0.293 N 
ATOM     21  C   UNL     1       1.449   3.095  -0.745  1.00  0.00     0.222 C 
ATOM     22  C   UNL     1       0.002   3.341  -1.159  1.00  0.00     0.246 C 
ATOM     23  H   UNL     1      -1.833   2.501  -1.133  1.00  0.00     0.173 HD
ATOM     24  O   UNL     1      -0.345   4.319  -1.819  1.00  0.00    -0.273 OA
ENDBRANCH  12  15
ENDBRANCH   7  11
ENDBRANCH   6   7
ENDBRANCH   3   6
ENDBRANCH   1   2
BRANCH   1  25
ATOM     25  C   UNL     1      -0.988   1.342   7.064  1.00  0.00     0.042 C 
BRANCH  25  26
ATOM     26  C   UNL     1      -1.380   2.583   7.850  1.00  0.00     0.118 C 
BRANCH  26  27
ATOM     27  N   UNL     1      -2.726   2.468   8.387  1.00  0.00    -0.352 N 
ATOM     28  C   UNL     1      -3.130   2.082   9.640  1.00  0.00     0.251 C 
ATOM     29  H   UNL     1      -3.451   2.701   7.762  1.00  0.00     0.163 HD
ATOM     30  O   UNL     1      -4.291   1.738   9.831  1.00  0.00    -0.269 OA
BRANCH  28  31
ATOM     31  C   UNL     1      -2.159   2.070  10.754  1.00  0.00     0.039 A 
ATOM     32  C   UNL     1      -2.209   1.040  11.696  1.00  0.00     0.014 A 
ATOM     33  C   UNL     1      -1.218   3.094  10.886  1.00  0.00     0.014 A 
ATOM     34  C   UNL     1      -1.286   1.019  12.744  1.00  0.00     0.010 A 
ATOM     35  C   UNL     1      -0.228   3.006  11.854  1.00  0.00     0.010 A 
ATOM     36  C   UNL     1      -0.273   1.988  12.815  1.00  0.00    -0.014 A 
BRANCH  36  37
ATOM     37  C   UNL     1       0.712   2.006  13.924  1.00  0.00     0.031 A 
ATOM     38  C   UNL     1       0.768   3.194  14.848  1.00  0.00     0.074 A 
ATOM     39  C   UNL     1       1.587   0.993  14.063  1.00  0.00     0.049 A 
ATOM     40  N   UNL     1       1.602   3.446  15.824  1.00  0.00    -0.248 NA
ATOM     41  C   UNL     1      -0.222   4.260  14.618  1.00  0.00     0.031 C 
ATOM     42  C   UNL     1       1.663  -0.188  13.201  1.00  0.00     0.029 A 
ATOM     43  N   UNL     1       2.585   0.798  14.983  1.00  0.00    -0.354 N 
ATOM     44  C   UNL     1       1.253   4.704  16.302  1.00  0.00     0.074 A 
ATOM     45  C   UNL     1       0.180   5.193  15.467  1.00  0.00     0.031 C 
ATOM     46  C   UNL     1       2.628  -1.003  13.657  1.00  0.00     0.029 A 
ATOM     47  C   UNL     1       3.263  -0.385  14.817  1.00  0.00     0.049 A 
ATOM     48  H   UNL     1       2.795   1.444  15.695  1.00  0.00     0.167 HD
ATOM     49  C   UNL     1       1.756   5.378  17.363  1.00  0.00     0.037 A 
ATOM     50  C   UNL     1       4.279  -0.910  15.525  1.00  0.00     0.037 A 
ATOM     51  C   UNL     1       2.793   4.867  18.217  1.00  0.00     0.049 A 
ATOM     52  C   UNL     1       4.817  -0.147  16.703  1.00  0.00     0.074 A 
ATOM     53  C   UNL     1       3.335   5.437  19.355  1.00  0.00     0.029 A 
ATOM     54  N   UNL     1       3.442   3.656  18.026  1.00  0.00    -0.354 N 
ATOM     55  N   UNL     1       4.438   1.014  17.181  1.00  0.00    -0.248 NA
ATOM     56  C   UNL     1       5.923  -0.770  17.443  1.00  0.00     0.031 C 
ATOM     57  C   UNL     1       4.337   4.586  19.833  1.00  0.00     0.029 A 
ATOM     58  C   UNL     1       4.390   3.467  19.016  1.00  0.00     0.049 A 
ATOM     59  H   UNL     1       3.256   3.025  17.294  1.00  0.00     0.167 HD
ATOM     60  C   UNL     1       5.236   1.247  18.293  1.00  0.00     0.074 A 
ATOM     61  C   UNL     1       6.113   0.101  18.425  1.00  0.00     0.031 C 
ATOM     62  C   UNL     1       5.244   2.312  19.131  1.00  0.00     0.037 A 
BRANCH  49  63
ATOM     63  C   UNL     1       1.176   6.732  17.655  1.00  0.00     0.057 A 
ATOM     64  C   UNL     1      -0.136   6.888  18.125  1.00  0.00     0.134 A 
ATOM     65  C   UNL     1       1.936   7.893  17.468  1.00  0.00     0.134 A 
ATOM     66  F   UNL     1      -0.924   5.818  18.310  1.00  0.00    -0.206 F 
ATOM     67  C   UNL     1      -0.682   8.151  18.362  1.00  0.00     0.040 A 
ATOM     68  C   UNL     1       1.410   9.159  17.731  1.00  0.00     0.040 A 
ATOM     69  F   UNL     1       3.200   7.817  17.026  1.00  0.00    -0.206 F 
ATOM     70  C   UNL     1       0.094   9.291  18.169  1.00  0.00     0.006 A 
ENDBRANCH  49  63
BRANCH  50  71
ATOM     71  C   UNL     1       4.823  -2.244  15.169  1.00  0.00     0.057 A 
ATOM     72  C   UNL     1       4.592  -3.354  15.991  1.00  0.00     0.134 A 
ATOM     73  C   UNL     1       5.578  -2.446  14.009  1.00  0.00     0.134 A 
ATOM     74  F   UNL     1       3.888  -3.219  17.124  1.00  0.00    -0.206 F 
ATOM     75  C   UNL     1       5.108  -4.613  15.682  1.00  0.00     0.040 A 
ATOM     76  C   UNL     1       6.081  -3.705  13.675  1.00  0.00     0.040 A 
ATOM     77  F   UNL     1       5.825  -1.426  13.175  1.00  0.00    -0.206 F 
ATOM     78  C   UNL     1       5.852  -4.792  14.517  1.00  0.00     0.006 A 
ENDBRANCH  50  71
BRANCH  62  79
ATOM     79  C   UNL     1       6.204   2.269  20.282  1.00  0.00     0.057 A 
ATOM     80  C   UNL     1       7.580   2.447  20.102  1.00  0.00     0.134 A 
ATOM     81  C   UNL     1       5.737   2.085  21.590  1.00  0.00     0.134 A 
ATOM     82  F   UNL     1       8.089   2.614  18.872  1.00  0.00    -0.206 F 
ATOM     83  C   UNL     1       8.464   2.422  21.182  1.00  0.00     0.040 A 
ATOM     84  C   UNL     1       6.608   2.084  22.680  1.00  0.00     0.040 A 
ATOM     85  F   UNL     1       4.428   1.917  21.830  1.00  0.00    -0.206 F 
ATOM     86  C   UNL     1       7.977   2.248  22.476  1.00  0.00     0.006 A 
ENDBRANCH  62  79
ENDBRANCH  36  37
ENDBRANCH  28  31
ENDBRANCH  26  27
ENDBRANCH  25  26
ENDBRANCH   1  25
TORSDOF 13
