REMARK SMILES O=C(NCCCNC(=O)c1cccn1CC(=O)N1CCS(=O)CC1)c1ccc(-c2c3nc(c(-c4c(F)cccc4F)c4ccc([nH]4)c(-c4c(F)cccc4F)c4nc(c(-c5c(F)cccc5F)c5ccc2[nH]5)C=C4)C=C3)cc1
REMARK SMILES IDX 5 1 4 2 3 3 1 4 2 5 25 7 26 8 78 9 27 10 77 11 28 12 29 13
REMARK SMILES IDX 30 14 71 15 31 16 76 17 70 18 72 19 32 20 75 21 69 22 68 23
REMARK SMILES IDX 33 25 59 26 42 27 58 28 43 29 46 30 57 31 73 32 44 33 45 34
REMARK SMILES IDX 56 36 74 37 47 38 34 39 35 40 40 41 36 42 37 43 39 44 41 45
REMARK SMILES IDX 38 46 60 47 61 48 66 49 62 50 63 51 65 52 67 53 64 54 48 55
REMARK SMILES IDX 49 56 54 57 50 58 51 59 53 60 55 61 52 62 6 63 7 64 8 65
REMARK SMILES IDX 9 67 10 68 11 69 14 70 12 71 13 72 15 73 16 74 17 75 18 76
REMARK SMILES IDX 19 77 24 78 20 79 23 80 21 81 22 82
REMARK H PARENT 3 6 72 24 46 35 7 66
REMARK Flexibility Score: inf
ROOT
ATOM      1  C   UNL     1       4.630  -0.847   1.942  1.00  0.00     0.042 C 
ENDROOT
BRANCH   1   2
ATOM      2  C   UNL     1       4.304  -1.158   0.484  1.00  0.00     0.118 C 
BRANCH   2   3
ATOM      3  N   UNL     1       2.925  -0.975   0.087  1.00  0.00    -0.352 N 
ATOM      4  O   UNL     1       1.041   0.036  -0.565  1.00  0.00    -0.269 OA
ATOM      5  C   UNL     1       2.141   0.144  -0.026  1.00  0.00     0.251 C 
ATOM      6  H   UNL     1       2.462  -1.812  -0.146  1.00  0.00     0.163 HD
BRANCH   5   7
ATOM      7  C   UNL     1       2.526   1.450   0.561  1.00  0.00     0.039 A 
ATOM      8  C   UNL     1       3.823   1.969   0.529  1.00  0.00     0.014 A 
ATOM      9  C   UNL     1       1.496   2.193   1.161  1.00  0.00     0.014 A 
ATOM     10  C   UNL     1       4.106   3.175   1.165  1.00  0.00     0.010 A 
ATOM     11  C   UNL     1       1.765   3.418   1.767  1.00  0.00     0.010 A 
ATOM     12  C   UNL     1       3.074   3.910   1.763  1.00  0.00    -0.014 A 
BRANCH  12  13
ATOM     13  C   UNL     1       3.361   5.321   2.115  1.00  0.00     0.031 A 
ATOM     14  C   UNL     1       3.344   6.218   0.850  1.00  0.00     0.074 A 
ATOM     15  C   UNL     1       3.640   5.599   3.426  1.00  0.00     0.049 A 
ATOM     16  N   UNL     1       3.938   7.347   0.614  1.00  0.00    -0.248 NA
ATOM     17  C   UNL     1       2.598   5.756  -0.359  1.00  0.00     0.031 C 
ATOM     18  C   UNL     1       3.562   4.617   4.529  1.00  0.00     0.029 A 
ATOM     19  N   UNL     1       4.045   6.734   4.107  1.00  0.00    -0.354 N 
ATOM     20  C   UNL     1       3.483   7.820  -0.641  1.00  0.00     0.074 A 
ATOM     21  C   UNL     1       2.753   6.748  -1.238  1.00  0.00     0.031 C 
ATOM     22  C   UNL     1       3.982   5.160   5.694  1.00  0.00     0.029 A 
ATOM     23  C   UNL     1       4.360   6.545   5.484  1.00  0.00     0.049 A 
ATOM     24  H   UNL     1       4.112   7.613   3.670  1.00  0.00     0.167 HD
ATOM     25  C   UNL     1       3.626   9.116  -1.050  1.00  0.00     0.037 A 
ATOM     26  C   UNL     1       4.918   7.426   6.379  1.00  0.00     0.037 A 
ATOM     27  C   UNL     1       4.349   9.850  -0.074  1.00  0.00     0.049 A 
ATOM     28  C   UNL     1       4.949   8.711   5.674  1.00  0.00     0.074 A 
ATOM     29  C   UNL     1       5.671   9.852   0.278  1.00  0.00     0.029 A 
ATOM     30  N   UNL     1       3.611  10.459   0.909  1.00  0.00    -0.354 N 
ATOM     31  N   UNL     1       3.906   9.454   5.457  1.00  0.00    -0.248 NA
ATOM     32  C   UNL     1       6.221   9.182   5.115  1.00  0.00     0.031 C 
ATOM     33  C   UNL     1       5.630  10.034   1.673  1.00  0.00     0.029 A 
ATOM     34  C   UNL     1       4.326  10.354   2.072  1.00  0.00     0.049 A 
ATOM     35  H   UNL     1       2.732  10.889   0.799  1.00  0.00     0.167 HD
ATOM     36  C   UNL     1       4.347  10.273   4.448  1.00  0.00     0.074 A 
ATOM     37  C   UNL     1       5.790  10.299   4.535  1.00  0.00     0.031 C 
ATOM     38  C   UNL     1       3.602  10.388   3.320  1.00  0.00     0.037 A 
BRANCH  25  39
ATOM     39  C   UNL     1       2.986   9.920  -2.148  1.00  0.00     0.057 A 
ATOM     40  C   UNL     1       3.596  11.143  -2.522  1.00  0.00     0.134 A 
ATOM     41  C   UNL     1       1.660   9.754  -2.555  1.00  0.00     0.134 A 
ATOM     42  F   UNL     1       4.885  11.390  -2.233  1.00  0.00    -0.206 F 
ATOM     43  C   UNL     1       2.888  12.188  -3.119  1.00  0.00     0.040 A 
ATOM     44  C   UNL     1       0.953  10.780  -3.199  1.00  0.00     0.040 A 
ATOM     45  F   UNL     1       0.976   8.641  -2.261  1.00  0.00    -0.206 F 
ATOM     46  C   UNL     1       1.551  12.016  -3.438  1.00  0.00     0.006 A 
ENDBRANCH  25  39
BRANCH  26  47
ATOM     47  C   UNL     1       5.519   7.443   7.773  1.00  0.00     0.057 A 
ATOM     48  C   UNL     1       5.526   6.389   8.689  1.00  0.00     0.134 A 
ATOM     49  C   UNL     1       6.233   8.592   8.233  1.00  0.00     0.134 A 
ATOM     50  F   UNL     1       4.807   5.281   8.481  1.00  0.00    -0.206 F 
ATOM     51  C   UNL     1       6.271   6.431   9.890  1.00  0.00     0.040 A 
ATOM     52  C   UNL     1       7.015   8.630   9.393  1.00  0.00     0.040 A 
ATOM     53  F   UNL     1       6.213   9.757   7.572  1.00  0.00    -0.206 F 
ATOM     54  C   UNL     1       7.053   7.533  10.223  1.00  0.00     0.006 A 
ENDBRANCH  26  47
BRANCH  38  55
ATOM     55  C   UNL     1       2.122  10.113   3.520  1.00  0.00     0.057 A 
ATOM     56  C   UNL     1       1.373  10.914   4.393  1.00  0.00     0.134 A 
ATOM     57  C   UNL     1       1.440   9.009   2.985  1.00  0.00     0.134 A 
ATOM     58  F   UNL     1       1.927  12.002   4.948  1.00  0.00    -0.206 F 
ATOM     59  C   UNL     1       0.044  10.619   4.729  1.00  0.00     0.040 A 
ATOM     60  C   UNL     1       0.110   8.703   3.302  1.00  0.00     0.040 A 
ATOM     61  F   UNL     1       2.044   8.179   2.139  1.00  0.00    -0.206 F 
ATOM     62  C   UNL     1      -0.593   9.507   4.187  1.00  0.00     0.006 A 
ENDBRANCH  38  55
ENDBRANCH  12  13
ENDBRANCH   5   7
ENDBRANCH   2   3
ENDBRANCH   1   2
BRANCH   1  63
ATOM     63  C   UNL     1       4.246  -1.912   2.966  1.00  0.00     0.118 C 
BRANCH  63  64
ATOM     64  N   UNL     1       4.914  -3.178   2.726  1.00  0.00    -0.351 N 
ATOM     65  C   UNL     1       5.801  -3.901   3.480  1.00  0.00     0.267 C 
ATOM     66  H   UNL     1       4.689  -3.593   1.863  1.00  0.00     0.163 HD
ATOM     67  O   UNL     1       6.320  -4.870   2.929  1.00  0.00    -0.268 OA
BRANCH  65  68
ATOM     68  C   UNL     1       6.111  -3.515   4.843  1.00  0.00     0.107 A 
ATOM     69  C   UNL     1       5.251  -3.099   5.852  1.00  0.00     0.033 A 
ATOM     70  N   UNL     1       7.368  -3.615   5.431  1.00  0.00    -0.334 N 
ATOM     71  C   UNL     1       5.989  -2.952   7.048  1.00  0.00     0.020 A 
ATOM     72  C   UNL     1       7.287  -3.303   6.768  1.00  0.00     0.087 A 
BRANCH  70  73
ATOM     73  C   UNL     1       8.591  -4.058   4.776  1.00  0.00     0.222 C 
BRANCH  73  74
ATOM     74  C   UNL     1       9.809  -3.145   4.821  1.00  0.00     0.242 C 
ATOM     75  O   UNL     1      10.902  -3.634   5.130  1.00  0.00    -0.273 OA
ATOM     76  N   UNL     1       9.743  -1.876   4.263  1.00  0.00    -0.339 N 
ATOM     77  C   UNL     1      10.913  -1.338   3.562  1.00  0.00     0.133 C 
ATOM     78  C   UNL     1       8.649  -0.922   4.410  1.00  0.00     0.133 C 
ATOM     79  C   UNL     1      10.559  -1.003   2.114  1.00  0.00     0.126 C 
ATOM     80  C   UNL     1       8.066  -0.540   3.067  1.00  0.00     0.126 C 
ATOM     81  S   UNL     1       9.280   0.289   2.001  1.00  0.00     0.025 S 
ATOM     82  O   UNL     1       9.773   1.507   2.723  1.00  0.00    -0.259 OA
ENDBRANCH  73  74
ENDBRANCH  70  73
ENDBRANCH  65  68
ENDBRANCH  63  64
ENDBRANCH   1  63
TORSDOF 12
