REMARK SMILES O=C1N[C@H](C(=O)N[C@H]2C=C[C@@H](C(=O)NCCCNC(=O)c3ccc(-c4c5nc(c(-c6c(F)cccc6F)c6ccc([nH]6)c(-c6c(F)cccc6F)c6nc(c(-c7c(F)cccc7F)c7ccc4[nH]7)C=C6)C=C5)cc3)C2)CS1
REMARK SMILES IDX 16 1 15 2 14 3 12 4 13 5 11 7 8 8 9 9 75 10 10 11 7 12 5 13
REMARK SMILES IDX 6 14 4 16 1 17 2 18 3 19 77 20 76 22 17 23 18 24 19 25 20 27
REMARK SMILES IDX 21 28 22 29 74 30 23 31 73 32 24 33 25 34 26 35 67 36 27 37
REMARK SMILES IDX 72 38 66 39 68 40 28 41 71 42 65 43 64 44 29 46 55 47 38 48
REMARK SMILES IDX 54 49 39 50 42 51 53 52 69 53 40 54 41 55 52 57 70 58 43 59
REMARK SMILES IDX 30 60 31 61 36 62 32 63 33 64 35 65 37 66 34 67 56 68 57 69
REMARK SMILES IDX 62 70 58 71 59 72 61 73 63 74 60 75 44 76 45 77 50 78 46 79
REMARK SMILES IDX 47 80 49 81 51 82 48 83
REMARK H PARENT 14 6 7 15 3 21 18 26 68 45 42 56
REMARK Flexibility Score: inf
ROOT
ATOM      1  C   UNL     1      -4.741  -0.330   2.291  1.00  0.00     0.042 C 
ENDROOT
BRANCH   1   2
ATOM      2  C   UNL     1      -4.036  -0.631   3.607  1.00  0.00     0.117 C 
BRANCH   2   3
ATOM      3  N   UNL     1      -3.341  -1.904   3.598  1.00  0.00    -0.356 N 
ATOM      4  C   UNL     1      -2.029  -2.216   3.775  1.00  0.00     0.227 C 
ATOM      5  O   UNL     1      -1.747  -3.418   3.825  1.00  0.00    -0.274 OA
ATOM      6  H   UNL     1      -3.922  -2.681   3.433  1.00  0.00     0.163 HD
BRANCH   4   7
ATOM      7  C   UNL     1      -0.913  -1.168   3.840  1.00  0.00     0.103 C 
ATOM      8  C   UNL     1      -0.676   1.069   2.809  1.00  0.00     0.106 C 
ATOM      9  C   UNL     1      -0.909   1.135   4.287  1.00  0.00    -0.006 C 
ATOM     10  C   UNL     1      -0.719  -0.435   2.510  1.00  0.00     0.047 C 
ATOM     11  C   UNL     1      -1.061  -0.072   4.843  1.00  0.00    -0.016 C 
BRANCH   8  12
ATOM     12  N   UNL     1      -1.736   1.820   2.161  1.00  0.00    -0.348 N 
ATOM     13  C   UNL     1      -1.961   2.125   0.853  1.00  0.00     0.243 C 
ATOM     14  O   UNL     1      -3.010   2.727   0.598  1.00  0.00    -0.273 OA
ATOM     15  H   UNL     1      -2.417   2.172   2.779  1.00  0.00     0.164 HD
BRANCH  13  16
ATOM     16  C   UNL     1      -1.088   1.602  -0.300  1.00  0.00     0.182 C 
ATOM     17  O   UNL     1       2.065  -0.025  -0.406  1.00  0.00    -0.262 OA
ATOM     18  C   UNL     1       0.891   0.263  -0.530  1.00  0.00     0.279 C 
ATOM     19  N   UNL     1       0.299   1.365   0.007  1.00  0.00    -0.334 N 
ATOM     20  S   UNL     1      -0.283  -0.683  -1.405  1.00  0.00    -0.062 SA
ATOM     21  H   UNL     1       0.804   1.980   0.587  1.00  0.00     0.165 HD
ATOM     22  C   UNL     1      -1.692   0.330  -0.880  1.00  0.00     0.115 C 
ENDBRANCH  13  16
ENDBRANCH   8  12
ENDBRANCH   4   7
ENDBRANCH   2   3
ENDBRANCH   1   2
BRANCH   1  23
ATOM     23  C   UNL     1      -5.893  -1.274   1.962  1.00  0.00     0.118 C 
BRANCH  23  24
ATOM     24  N   UNL     1      -6.982  -1.192   2.926  1.00  0.00    -0.352 N 
ATOM     25  C   UNL     1      -8.281  -0.776   2.775  1.00  0.00     0.251 C 
ATOM     26  H   UNL     1      -6.747  -1.483   3.837  1.00  0.00     0.163 HD
ATOM     27  O   UNL     1      -8.979  -0.603   3.770  1.00  0.00    -0.269 OA
BRANCH  25  28
ATOM     28  C   UNL     1      -8.846  -0.516   1.432  1.00  0.00     0.039 A 
ATOM     29  C   UNL     1      -9.682   0.591   1.256  1.00  0.00     0.014 A 
ATOM     30  C   UNL     1      -8.593  -1.373   0.358  1.00  0.00     0.014 A 
ATOM     31  C   UNL     1     -10.201   0.879  -0.009  1.00  0.00     0.010 A 
ATOM     32  C   UNL     1      -9.047  -1.043  -0.917  1.00  0.00     0.010 A 
ATOM     33  C   UNL     1      -9.854   0.087  -1.115  1.00  0.00    -0.014 A 
BRANCH  33  34
ATOM     34  C   UNL     1     -10.313   0.426  -2.486  1.00  0.00     0.031 A 
ATOM     35  C   UNL     1     -11.209  -0.515  -3.243  1.00  0.00     0.074 A 
ATOM     36  C   UNL     1      -9.860   1.547  -3.081  1.00  0.00     0.049 A 
ATOM     37  N   UNL     1     -11.630  -0.443  -4.481  1.00  0.00    -0.248 NA
ATOM     38  C   UNL     1     -11.674  -1.709  -2.520  1.00  0.00     0.031 C 
ATOM     39  C   UNL     1      -8.957   2.524  -2.470  1.00  0.00     0.029 A 
ATOM     40  N   UNL     1     -10.086   2.047  -4.340  1.00  0.00    -0.354 N 
ATOM     41  C   UNL     1     -12.392  -1.585  -4.689  1.00  0.00     0.074 A 
ATOM     42  C   UNL     1     -12.337  -2.358  -3.467  1.00  0.00     0.031 C 
ATOM     43  C   UNL     1      -8.720   3.513  -3.347  1.00  0.00     0.029 A 
ATOM     44  C   UNL     1      -9.418   3.220  -4.595  1.00  0.00     0.049 A 
ATOM     45  H   UNL     1     -10.672   1.606  -4.997  1.00  0.00     0.167 HD
ATOM     46  C   UNL     1     -13.090  -1.948  -5.792  1.00  0.00     0.037 A 
ATOM     47  C   UNL     1      -9.360   3.967  -5.714  1.00  0.00     0.037 A 
ATOM     48  C   UNL     1     -13.162  -1.167  -6.999  1.00  0.00     0.049 A 
ATOM     49  C   UNL     1     -10.127   3.532  -6.931  1.00  0.00     0.074 A 
ATOM     50  C   UNL     1     -13.891  -1.421  -8.148  1.00  0.00     0.029 A 
ATOM     51  N   UNL     1     -12.479   0.020  -7.214  1.00  0.00    -0.354 N 
ATOM     52  N   UNL     1     -10.891   2.479  -7.094  1.00  0.00    -0.248 NA
ATOM     53  C   UNL     1     -10.023   4.388  -8.121  1.00  0.00     0.031 C 
ATOM     54  C   UNL     1     -13.614  -0.412  -9.075  1.00  0.00     0.029 A 
ATOM     55  C   UNL     1     -12.749   0.497  -8.486  1.00  0.00     0.049 A 
ATOM     56  H   UNL     1     -11.888   0.459  -6.559  1.00  0.00     0.167 HD
ATOM     57  C   UNL     1     -11.380   2.561  -8.391  1.00  0.00     0.074 A 
ATOM     58  C   UNL     1     -10.836   3.773  -8.968  1.00  0.00     0.031 C 
ATOM     59  C   UNL     1     -12.206   1.708  -9.045  1.00  0.00     0.037 A 
BRANCH  46  60
ATOM     60  C   UNL     1     -13.836  -3.250  -5.742  1.00  0.00     0.057 A 
ATOM     61  C   UNL     1     -14.981  -3.416  -4.951  1.00  0.00     0.134 A 
ATOM     62  C   UNL     1     -13.429  -4.338  -6.524  1.00  0.00     0.134 A 
ATOM     63  F   UNL     1     -15.418  -2.416  -4.171  1.00  0.00    -0.206 F 
ATOM     64  C   UNL     1     -15.677  -4.625  -4.918  1.00  0.00     0.040 A 
ATOM     65  C   UNL     1     -14.133  -5.544  -6.520  1.00  0.00     0.040 A 
ATOM     66  F   UNL     1     -12.346  -4.246  -7.310  1.00  0.00    -0.206 F 
ATOM     67  C   UNL     1     -15.257  -5.691  -5.710  1.00  0.00     0.006 A 
ENDBRANCH  46  60
BRANCH  47  68
ATOM     68  C   UNL     1      -8.555   5.215  -5.732  1.00  0.00     0.057 A 
ATOM     69  C   UNL     1      -9.173   6.469  -5.786  1.00  0.00     0.134 A 
ATOM     70  C   UNL     1      -7.156   5.185  -5.703  1.00  0.00     0.134 A 
ATOM     71  F   UNL     1     -10.511   6.561  -5.836  1.00  0.00    -0.206 F 
ATOM     72  C   UNL     1      -8.430   7.649  -5.829  1.00  0.00     0.040 A 
ATOM     73  C   UNL     1      -6.400   6.359  -5.720  1.00  0.00     0.040 A 
ATOM     74  F   UNL     1      -6.503   4.015  -5.645  1.00  0.00    -0.206 F 
ATOM     75  C   UNL     1      -7.038   7.596  -5.791  1.00  0.00     0.006 A 
ENDBRANCH  47  68
BRANCH  59  76
ATOM     76  C   UNL     1     -12.599   2.071 -10.447  1.00  0.00     0.057 A 
ATOM     77  C   UNL     1     -11.701   1.965 -11.517  1.00  0.00     0.134 A 
ATOM     78  C   UNL     1     -13.905   2.486 -10.736  1.00  0.00     0.134 A 
ATOM     79  F   UNL     1     -10.432   1.587 -11.304  1.00  0.00    -0.206 F 
ATOM     80  C   UNL     1     -12.084   2.277 -12.822  1.00  0.00     0.040 A 
ATOM     81  C   UNL     1     -14.307   2.775 -12.040  1.00  0.00     0.040 A 
ATOM     82  F   UNL     1     -14.816   2.600  -9.758  1.00  0.00    -0.206 F 
ATOM     83  C   UNL     1     -13.393   2.675 -13.088  1.00  0.00     0.006 A 
ENDBRANCH  59  76
ENDBRANCH  33  34
ENDBRANCH  25  28
ENDBRANCH  23  24
ENDBRANCH   1  23
TORSDOF 12
