REMARK SMILES CC1(C)Oc2ccc(NC(=O)[C@H]3CC=CC[C@@H]3C(=O)NCCCNC(=O)c3ccc(-c4c5nc(c(-c6c(F)cccc6F)c6ccc([nH]6)c(-c6c(F)cccc6F)c6nc(c(-c7c(F)cccc7F)c7ccc4[nH]7)C=C6)C=C5)cc3)cc2NC1=O
REMARK SMILES IDX 22 1 21 2 20 3 18 4 19 5 17 7 12 8 13 9 14 10 16 11 15 12
REMARK SMILES IDX 10 13 9 14 11 16 8 17 1 18 2 19 3 20 4 21 84 22 5 23 83 24
REMARK SMILES IDX 85 25 6 26 82 27 7 29 81 30 23 31 24 32 25 33 26 35 27 36
REMARK SMILES IDX 28 37 80 38 29 39 79 40 30 41 31 42 32 43 73 44 33 45 78 46
REMARK SMILES IDX 72 47 74 48 34 49 77 50 71 51 70 52 35 54 61 55 44 56 60 57
REMARK SMILES IDX 45 58 48 59 59 60 75 61 46 62 47 63 58 65 76 66 49 67 36 68
REMARK SMILES IDX 37 69 42 70 38 71 39 72 41 73 43 74 40 75 62 76 63 77 68 78
REMARK SMILES IDX 64 79 65 80 67 81 69 82 66 83 50 84 51 85 56 86 52 87 53 88
REMARK SMILES IDX 55 89 57 90 54 91
REMARK H PARENT 20 6 9 15 83 28 24 34 74 53 48 64
REMARK Flexibility Score: inf
ROOT
ATOM      1  C   UNL     1      -5.592   7.653   9.626  1.00  0.00     0.042 C 
ENDROOT
BRANCH   1   2
ATOM      2  C   UNL     1      -4.086   7.555   9.436  1.00  0.00     0.117 C 
BRANCH   2   3
ATOM      3  N   UNL     1      -3.679   6.237   8.992  1.00  0.00    -0.356 N 
ATOM      4  C   UNL     1      -2.871   5.851   7.975  1.00  0.00     0.224 C 
ATOM      5  O   UNL     1      -2.788   4.636   7.782  1.00  0.00    -0.275 OA
ATOM      6  H   UNL     1      -4.054   5.495   9.519  1.00  0.00     0.163 HD
BRANCH   4   7
ATOM      7  C   UNL     1      -2.158   6.882   7.097  1.00  0.00     0.095 C 
ATOM      8  C   UNL     1      -1.454   6.126   5.940  1.00  0.00     0.095 C 
ATOM      9  C   UNL     1      -0.188   5.377   6.415  1.00  0.00     0.041 C 
ATOM     10  C   UNL     1       0.560   6.019   7.543  1.00  0.00    -0.030 C 
ATOM     11  C   UNL     1      -1.181   7.760   7.897  1.00  0.00     0.041 C 
ATOM     12  C   UNL     1       0.129   7.103   8.194  1.00  0.00    -0.030 C 
BRANCH   8  13
ATOM     13  C   UNL     1      -1.166   7.010   4.737  1.00  0.00     0.228 C 
ATOM     14  N   UNL     1      -0.709   6.500   3.551  1.00  0.00    -0.326 N 
ATOM     15  H   UNL     1      -0.467   7.202   2.906  1.00  0.00     0.169 HD
ATOM     16  O   UNL     1      -1.327   8.234   4.790  1.00  0.00    -0.274 OA
BRANCH  14  17
ATOM     17  C   UNL     1      -0.503   5.200   3.041  1.00  0.00     0.043 A 
ATOM     18  C   UNL     1       1.333   0.085  -0.247  1.00  0.00     0.067 C 
ATOM     19  C   UNL     1       0.610   1.413  -0.002  1.00  0.00     0.182 C 
ATOM     20  C   UNL     1      -0.715   1.417  -0.782  1.00  0.00     0.067 C 
ATOM     21  O   UNL     1       0.297   1.443   1.394  1.00  0.00    -0.476 OA
ATOM     22  C   UNL     1       1.491   2.578  -0.515  1.00  0.00     0.268 C 
ATOM     23  C   UNL     1       0.046   2.695   1.880  1.00  0.00     0.144 A 
ATOM     24  N   UNL     1       1.302   3.774   0.131  1.00  0.00    -0.319 N 
ATOM     25  O   UNL     1       2.237   2.502  -1.489  1.00  0.00    -0.270 OA
ATOM     26  C   UNL     1      -0.710   2.772   3.038  1.00  0.00     0.051 A 
ATOM     27  C   UNL     1       0.527   3.861   1.288  1.00  0.00     0.086 A 
ATOM     28  H   UNL     1       1.724   4.587  -0.229  1.00  0.00     0.170 HD
ATOM     29  C   UNL     1      -1.001   4.019   3.598  1.00  0.00     0.030 A 
ATOM     30  C   UNL     1       0.259   5.106   1.864  1.00  0.00     0.056 A 
ENDBRANCH  14  17
ENDBRANCH   8  13
ENDBRANCH   4   7
ENDBRANCH   2   3
ENDBRANCH   1   2
BRANCH   1  31
ATOM     31  C   UNL     1      -6.187   6.570  10.517  1.00  0.00     0.118 C 
BRANCH  31  32
ATOM     32  N   UNL     1      -5.724   6.634  11.898  1.00  0.00    -0.352 N 
ATOM     33  C   UNL     1      -6.378   7.056  13.032  1.00  0.00     0.251 C 
ATOM     34  H   UNL     1      -4.799   6.328  12.042  1.00  0.00     0.163 HD
ATOM     35  O   UNL     1      -5.770   7.175  14.092  1.00  0.00    -0.269 OA
BRANCH  33  36
ATOM     36  C   UNL     1      -7.808   7.417  12.957  1.00  0.00     0.039 A 
ATOM     37  C   UNL     1      -8.712   6.587  12.296  1.00  0.00     0.014 A 
ATOM     38  C   UNL     1      -8.236   8.629  13.504  1.00  0.00     0.014 A 
ATOM     39  C   UNL     1      -9.976   7.066  11.982  1.00  0.00     0.010 A 
ATOM     40  C   UNL     1      -9.546   9.060  13.284  1.00  0.00     0.010 A 
ATOM     41  C   UNL     1     -10.407   8.312  12.465  1.00  0.00    -0.014 A 
BRANCH  41  42
ATOM     42  C   UNL     1     -11.747   8.825  12.080  1.00  0.00     0.031 A 
ATOM     43  C   UNL     1     -11.882  10.095  11.283  1.00  0.00     0.074 A 
ATOM     44  C   UNL     1     -12.844   8.112  12.400  1.00  0.00     0.049 A 
ATOM     45  N   UNL     1     -12.968  10.722  10.904  1.00  0.00    -0.248 NA
ATOM     46  C   UNL     1     -10.635  10.752  10.857  1.00  0.00     0.031 C 
ATOM     47  C   UNL     1     -12.845   6.847  13.138  1.00  0.00     0.029 A 
ATOM     48  N   UNL     1     -14.168   8.337  12.125  1.00  0.00    -0.354 N 
ATOM     49  C   UNL     1     -12.538  11.857  10.229  1.00  0.00     0.074 A 
ATOM     50  C   UNL     1     -11.091  11.845  10.262  1.00  0.00     0.031 C 
ATOM     51  C   UNL     1     -14.099   6.380  13.207  1.00  0.00     0.029 A 
ATOM     52  C   UNL     1     -14.999   7.349  12.594  1.00  0.00     0.049 A 
ATOM     53  H   UNL     1     -14.492   9.129  11.638  1.00  0.00     0.167 HD
ATOM     54  C   UNL     1     -13.281  12.818   9.628  1.00  0.00     0.037 A 
ATOM     55  C   UNL     1     -16.339   7.250  12.564  1.00  0.00     0.037 A 
ATOM     56  C   UNL     1     -14.720  12.810   9.566  1.00  0.00     0.049 A 
ATOM     57  C   UNL     1     -17.140   8.362  11.958  1.00  0.00     0.074 A 
ATOM     58  C   UNL     1     -15.564  13.721   8.955  1.00  0.00     0.029 A 
ATOM     59  N   UNL     1     -15.527  11.835  10.133  1.00  0.00    -0.354 N 
ATOM     60  N   UNL     1     -16.721   9.443  11.348  1.00  0.00    -0.248 NA
ATOM     61  C   UNL     1     -18.601   8.254  12.064  1.00  0.00     0.031 C 
ATOM     62  C   UNL     1     -16.884  13.316   9.184  1.00  0.00     0.029 A 
ATOM     63  C   UNL     1     -16.860  12.136   9.909  1.00  0.00     0.049 A 
ATOM     64  H   UNL     1     -15.200  11.046  10.622  1.00  0.00     0.167 HD
ATOM     65  C   UNL     1     -17.864  10.148  10.999  1.00  0.00     0.074 A 
ATOM     66  C   UNL     1     -18.995   9.357  11.443  1.00  0.00     0.031 C 
ATOM     67  C   UNL     1     -17.969  11.346  10.376  1.00  0.00     0.037 A 
BRANCH  54  68
ATOM     68  C   UNL     1     -12.550  13.973   9.009  1.00  0.00     0.057 A 
ATOM     69  C   UNL     1     -12.573  15.236   9.614  1.00  0.00     0.134 A 
ATOM     70  C   UNL     1     -11.848  13.846   7.804  1.00  0.00     0.134 A 
ATOM     71  F   UNL     1     -13.231  15.426  10.768  1.00  0.00    -0.206 F 
ATOM     72  C   UNL     1     -11.924  16.332   9.043  1.00  0.00     0.040 A 
ATOM     73  C   UNL     1     -11.177  14.930   7.233  1.00  0.00     0.040 A 
ATOM     74  F   UNL     1     -11.775  12.660   7.181  1.00  0.00    -0.206 F 
ATOM     75  C   UNL     1     -11.219  16.179   7.851  1.00  0.00     0.006 A 
ENDBRANCH  54  68
BRANCH  55  76
ATOM     76  C   UNL     1     -17.005   6.069  13.165  1.00  0.00     0.057 A 
ATOM     77  C   UNL     1     -17.012   5.863  14.550  1.00  0.00     0.134 A 
ATOM     78  C   UNL     1     -17.640   5.114  12.365  1.00  0.00     0.134 A 
ATOM     79  F   UNL     1     -16.417   6.744  15.369  1.00  0.00    -0.206 F 
ATOM     80  C   UNL     1     -17.610   4.739  15.118  1.00  0.00     0.040 A 
ATOM     81  C   UNL     1     -18.262   3.996  12.921  1.00  0.00     0.040 A 
ATOM     82  F   UNL     1     -17.682   5.269  11.034  1.00  0.00    -0.206 F 
ATOM     83  C   UNL     1     -18.242   3.803  14.302  1.00  0.00     0.006 A 
ENDBRANCH  55  76
BRANCH  67  84
ATOM     84  C   UNL     1     -19.355  11.865  10.146  1.00  0.00     0.057 A 
ATOM     85  C   UNL     1     -19.936  11.823   8.874  1.00  0.00     0.134 A 
ATOM     86  C   UNL     1     -20.109  12.414  11.190  1.00  0.00     0.134 A 
ATOM     87  F   UNL     1     -19.262  11.311   7.833  1.00  0.00    -0.206 F 
ATOM     88  C   UNL     1     -21.223  12.312   8.647  1.00  0.00     0.040 A 
ATOM     89  C   UNL     1     -21.405  12.888  10.979  1.00  0.00     0.040 A 
ATOM     90  F   UNL     1     -19.612  12.463  12.435  1.00  0.00    -0.206 F 
ATOM     91  C   UNL     1     -21.963  12.841   9.703  1.00  0.00     0.006 A 
ENDBRANCH  67  84
ENDBRANCH  41  42
ENDBRANCH  33  36
ENDBRANCH  31  32
ENDBRANCH   1  31
TORSDOF 12
