REMARK SMILES C[C@]12CC/C(=N\OCC(=O)NCCCNC(=O)c3ccc(-c4c5nc(c(-c6c(F)cccc6F)c6ccc([nH]6)c(-c6c(F)cccc6F)c6nc(c(-c7c(F)cccc7F)c7ccc4[nH]7)C=C6)C=C5)cc3)C=C1CC[C@@H]1[C@@H]2CC[C@]2(C)[C@H]1CC[C@]2(C)O
REMARK SMILES IDX 12 1 11 2 9 3 10 4 8 6 7 7 6 8 86 9 85 10 84 11 80 12 83 13
REMARK SMILES IDX 82 14 79 15 81 16 76 17 78 18 75 19 77 20 74 21 2 22 73 23
REMARK SMILES IDX 3 24 1 25 72 26 4 27 5 28 87 29 13 31 14 32 15 33 16 34
REMARK SMILES IDX 17 36 18 37 19 38 71 39 20 40 70 41 21 42 22 43 23 44 64 45
REMARK SMILES IDX 24 46 69 47 63 48 65 49 25 50 68 51 62 52 61 53 26 55 52 56
REMARK SMILES IDX 35 57 51 58 36 59 39 60 50 61 66 62 37 63 38 64 49 66 67 67
REMARK SMILES IDX 40 68 27 69 28 70 33 71 29 72 30 73 32 74 34 75 31 76 53 77
REMARK SMILES IDX 54 78 59 79 55 80 56 81 58 82 60 83 57 84 41 85 42 86 47 87
REMARK SMILES IDX 43 88 44 89 46 90 48 91 45 92
REMARK H PARENT 11 5 87 30 15 35 65 54 39 65
REMARK Flexibility Score: inf
ROOT
ATOM      1  C   UNL     1       1.928  -7.679   7.253  1.00  0.00     0.117 C 
ENDROOT
BRANCH   1   2
ATOM      2  N   UNL     1       0.877  -7.597   8.249  1.00  0.00    -0.353 N 
ATOM      3  C   UNL     1      -0.461  -7.848   8.116  1.00  0.00     0.260 C 
ATOM      4  O   UNL     1      -1.169  -7.754   9.122  1.00  0.00    -0.271 OA
ATOM      5  H   UNL     1       1.168  -7.321   9.149  1.00  0.00     0.163 HD
BRANCH   3   6
ATOM      6  C   UNL     1      -1.023  -8.323   6.777  1.00  0.00     0.363 C 
BRANCH   6   7
ATOM      7  O   UNL     1      -0.770  -7.475   5.674  1.00  0.00    -0.385 OA
BRANCH   7   8
ATOM      8  N   UNL     1      -1.324  -6.210   5.915  1.00  0.00    -0.091 NA
ATOM      9  C   UNL     1      -0.338   0.200  -1.403  1.00  0.00     0.042 C 
ATOM     10  C   UNL     1      -0.155   0.595   0.050  1.00  0.00     0.068 C 
ATOM     11  C   UNL     1      -0.121   2.056   0.592  1.00  0.00     0.036 C 
ATOM     12  C   UNL     1       1.246   0.120   0.646  1.00  0.00    -0.001 C 
ATOM     13  C   UNL     1       0.339   1.845   2.071  1.00  0.00     0.007 C 
ATOM     14  C   UNL     1       0.971   0.429   2.150  1.00  0.00     0.001 C 
ATOM     15  C   UNL     1       1.957  -1.242   0.620  1.00  0.00     0.010 C 
ATOM     16  C   UNL     1       2.305   0.985  -0.142  1.00  0.00     0.015 C 
ATOM     17  C   UNL     1       0.050  -0.749   2.729  1.00  0.00    -0.003 C 
ATOM     18  C   UNL     1       1.302  -2.416   1.258  1.00  0.00     0.005 C 
ATOM     19  C   UNL     1      -0.634  -0.540   4.084  1.00  0.00     0.008 C 
ATOM     20  C   UNL     1       0.688  -2.155   2.634  1.00  0.00     0.002 C 
ATOM     21  C   UNL     1      -1.714  -1.625   4.277  1.00  0.00     0.032 C 
ATOM     22  C   UNL     1      -0.312  -3.338   2.952  1.00  0.00    -0.008 C 
ATOM     23  C   UNL     1      -1.159  -3.030   4.178  1.00  0.00    -0.062 C 
ATOM     24  C   UNL     1       0.565  -4.596   3.188  1.00  0.00     0.018 C 
ATOM     25  C   UNL     1      -1.308  -3.639   1.790  1.00  0.00     0.016 C 
ATOM     26  C   UNL     1      -1.476  -3.967   5.088  1.00  0.00     0.027 C 
ATOM     27  C   UNL     1      -0.188  -5.773   3.761  1.00  0.00     0.061 C 
ATOM     28  C   UNL     1      -1.001  -5.372   4.974  1.00  0.00     0.080 C 
BRANCH  10  29
ATOM     29  O   UNL     1      -1.401   0.148   0.603  1.00  0.00    -0.390 OA
ATOM     30  H   UNL     1      -2.136   0.543   0.108  1.00  0.00     0.211 HD
ENDBRANCH  10  29
ENDBRANCH   7   8
ENDBRANCH   6   7
ENDBRANCH   3   6
ENDBRANCH   1   2
BRANCH   1  31
ATOM     31  C   UNL     1       2.485  -6.310   6.871  1.00  0.00     0.042 C 
BRANCH  31  32
ATOM     32  C   UNL     1       3.118  -5.535   8.025  1.00  0.00     0.118 C 
BRANCH  32  33
ATOM     33  N   UNL     1       4.293  -6.192   8.586  1.00  0.00    -0.352 N 
ATOM     34  C   UNL     1       5.573  -5.729   8.748  1.00  0.00     0.251 C 
ATOM     35  H   UNL     1       4.143  -7.114   8.898  1.00  0.00     0.163 HD
ATOM     36  O   UNL     1       6.460  -6.506   9.119  1.00  0.00    -0.269 OA
BRANCH  34  37
ATOM     37  C   UNL     1       5.916  -4.322   8.457  1.00  0.00     0.039 A 
ATOM     38  C   UNL     1       7.090  -4.044   7.750  1.00  0.00     0.014 A 
ATOM     39  C   UNL     1       5.098  -3.273   8.884  1.00  0.00     0.014 A 
ATOM     40  C   UNL     1       7.399  -2.727   7.400  1.00  0.00     0.010 A 
ATOM     41  C   UNL     1       5.367  -1.970   8.470  1.00  0.00     0.010 A 
ATOM     42  C   UNL     1       6.515  -1.682   7.714  1.00  0.00    -0.014 A 
BRANCH  42  43
ATOM     43  C   UNL     1       6.753  -0.289   7.246  1.00  0.00     0.031 A 
ATOM     44  C   UNL     1       6.940   0.825   8.236  1.00  0.00     0.074 A 
ATOM     45  C   UNL     1       6.741  -0.012   5.927  1.00  0.00     0.049 A 
ATOM     46  N   UNL     1       7.035   2.113   8.020  1.00  0.00    -0.248 NA
ATOM     47  C   UNL     1       7.016   0.445   9.654  1.00  0.00     0.031 C 
ATOM     48  C   UNL     1       6.588  -1.002   4.863  1.00  0.00     0.029 A 
ATOM     49  N   UNL     1       6.862   1.182   5.256  1.00  0.00    -0.354 N 
ATOM     50  C   UNL     1       7.160   2.697   9.273  1.00  0.00     0.074 A 
ATOM     51  C   UNL     1       7.090   1.628  10.246  1.00  0.00     0.031 C 
ATOM     52  C   UNL     1       6.681  -0.385   3.676  1.00  0.00     0.029 A 
ATOM     53  C   UNL     1       6.801   1.056   3.888  1.00  0.00     0.049 A 
ATOM     54  H   UNL     1       6.982   2.046   5.712  1.00  0.00     0.167 HD
ATOM     55  C   UNL     1       7.333   4.004   9.583  1.00  0.00     0.037 A 
ATOM     56  C   UNL     1       6.805   1.992   2.915  1.00  0.00     0.037 A 
ATOM     57  C   UNL     1       7.436   5.063   8.614  1.00  0.00     0.049 A 
ATOM     58  C   UNL     1       6.865   3.447   3.303  1.00  0.00     0.074 A 
ATOM     59  C   UNL     1       7.689   6.406   8.834  1.00  0.00     0.029 A 
ATOM     60  N   UNL     1       7.282   4.905   7.246  1.00  0.00    -0.354 N 
ATOM     61  N   UNL     1       7.034   3.981   4.488  1.00  0.00    -0.248 NA
ATOM     62  C   UNL     1       6.716   4.433   2.221  1.00  0.00     0.031 C 
ATOM     63  C   UNL     1       7.624   7.071   7.606  1.00  0.00     0.029 A 
ATOM     64  C   UNL     1       7.394   6.133   6.614  1.00  0.00     0.049 A 
ATOM     65  H   UNL     1       7.116   4.048   6.790  1.00  0.00     0.167 HD
ATOM     66  C   UNL     1       7.083   5.355   4.285  1.00  0.00     0.074 A 
ATOM     67  C   UNL     1       6.913   5.575   2.865  1.00  0.00     0.031 C 
ATOM     68  C   UNL     1       7.267   6.343   5.194  1.00  0.00     0.037 A 
BRANCH  55  69
ATOM     69  C   UNL     1       7.415   4.372  11.035  1.00  0.00     0.057 A 
ATOM     70  C   UNL     1       8.525   4.045  11.824  1.00  0.00     0.134 A 
ATOM     71  C   UNL     1       6.393   5.120  11.634  1.00  0.00     0.134 A 
ATOM     72  F   UNL     1       9.533   3.321  11.313  1.00  0.00    -0.206 F 
ATOM     73  C   UNL     1       8.607   4.434  13.162  1.00  0.00     0.040 A 
ATOM     74  C   UNL     1       6.478   5.539  12.962  1.00  0.00     0.040 A 
ATOM     75  F   UNL     1       5.305   5.473  10.932  1.00  0.00    -0.206 F 
ATOM     76  C   UNL     1       7.586   5.191  13.731  1.00  0.00     0.006 A 
ENDBRANCH  55  69
BRANCH  56  77
ATOM     77  C   UNL     1       6.735   1.589   1.481  1.00  0.00     0.057 A 
ATOM     78  C   UNL     1       7.727   1.949   0.561  1.00  0.00     0.134 A 
ATOM     79  C   UNL     1       5.670   0.831   0.988  1.00  0.00     0.134 A 
ATOM     80  F   UNL     1       8.782   2.676   0.955  1.00  0.00    -0.206 F 
ATOM     81  C   UNL     1       7.642   1.604  -0.792  1.00  0.00     0.040 A 
ATOM     82  C   UNL     1       5.618   0.409  -0.341  1.00  0.00     0.040 A 
ATOM     83  F   UNL     1       4.670   0.465   1.803  1.00  0.00    -0.206 F 
ATOM     84  C   UNL     1       6.585   0.824  -1.246  1.00  0.00     0.006 A 
ENDBRANCH  56  77
BRANCH  68  85
ATOM     85  C   UNL     1       7.396   7.748   4.679  1.00  0.00     0.057 A 
ATOM     86  C   UNL     1       6.305   8.466   4.175  1.00  0.00     0.134 A 
ATOM     87  C   UNL     1       8.633   8.406   4.733  1.00  0.00     0.134 A 
ATOM     88  F   UNL     1       5.097   7.891   4.080  1.00  0.00    -0.206 F 
ATOM     89  C   UNL     1       6.444   9.781   3.725  1.00  0.00     0.040 A 
ATOM     90  C   UNL     1       8.777   9.729   4.315  1.00  0.00     0.040 A 
ATOM     91  F   UNL     1       9.718   7.780   5.213  1.00  0.00    -0.206 F 
ATOM     92  C   UNL     1       7.681  10.419   3.803  1.00  0.00     0.006 A 
ENDBRANCH  68  85
ENDBRANCH  42  43
ENDBRANCH  34  37
ENDBRANCH  32  33
ENDBRANCH  31  32
ENDBRANCH   1  31
TORSDOF 13
