REMARK SMILES CC(C)(C)c1cc(Nc2ccccc2C(=O)NCCCNC(=O)c2ccc(-c3c4nc(c(-c5c(F)cccc5F)c5ccc([nH]5)c(-c5c(F)cccc5F)c5nc(c(-c6c(F)cccc6F)c6ccc3[nH]6)C=C5)C=C4)cc2)cc2c1OCC2(C)C
REMARK SMILES IDX 18 1 17 2 15 3 16 4 14 6 9 7 10 8 11 9 13 10 12 11 8 12 7 14
REMARK SMILES IDX 5 15 6 16 80 17 79 18 81 19 78 20 83 21 82 22 84 23 85 24
REMARK SMILES IDX 2 25 1 26 3 27 4 28 19 29 20 30 21 31 22 32 23 34 24 35
REMARK SMILES IDX 25 36 77 37 26 38 76 39 27 40 28 41 29 42 70 43 30 44 75 45
REMARK SMILES IDX 69 46 71 47 31 48 74 49 68 50 67 51 32 53 58 54 41 55 57 56
REMARK SMILES IDX 42 57 45 58 56 59 72 60 43 61 44 62 55 64 73 65 46 66 33 67
REMARK SMILES IDX 34 68 39 69 35 70 36 71 38 72 40 73 37 74 59 75 60 76 65 77
REMARK SMILES IDX 61 78 62 79 64 80 66 81 63 82 47 83 48 84 53 85 49 86 50 87
REMARK SMILES IDX 52 88 54 89 51 90
REMARK H PARENT 17 5 8 13 21 33 71 52 45 63
REMARK Flexibility Score: inf
ROOT
ATOM      1  C   UNL     1      -0.218   5.033   1.034  1.00  0.00     0.118 C 
ENDROOT
BRANCH   1   2
ATOM      2  N   UNL     1       0.463   6.298   1.183  1.00  0.00    -0.352 N 
ATOM      3  C   UNL     1       0.938   7.295   0.379  1.00  0.00     0.253 C 
ATOM      4  O   UNL     1       1.528   8.170   1.033  1.00  0.00    -0.269 OA
ATOM      5  H   UNL     1       0.631   6.499   2.132  1.00  0.00     0.163 HD
BRANCH   3   6
ATOM      6  C   UNL     1       0.815   7.503  -1.112  1.00  0.00     0.063 A 
ATOM      7  C   UNL     1       0.302   6.682  -2.134  1.00  0.00     0.051 A 
ATOM      8  C   UNL     1       0.204   7.194  -3.458  1.00  0.00     0.027 A 
ATOM      9  C   UNL     1       0.730   8.429  -3.819  1.00  0.00     0.002 A 
ATOM     10  C   UNL     1       1.353   8.754  -1.526  1.00  0.00     0.016 A 
ATOM     11  C   UNL     1       1.334   9.203  -2.850  1.00  0.00     0.001 A 
BRANCH   7  12
ATOM     12  N   UNL     1      -0.131   5.353  -1.973  1.00  0.00    -0.355 N 
ATOM     13  H   UNL     1      -0.946   5.209  -1.441  1.00  0.00     0.167 HD
BRANCH  12  14
ATOM     14  C   UNL     1       0.502   4.207  -2.506  1.00  0.00     0.039 A 
ATOM     15  C   UNL     1       0.666   1.729  -2.560  1.00  0.00     0.002 A 
ATOM     16  C   UNL     1      -0.005   2.925  -2.203  1.00  0.00     0.034 A 
ATOM     17  C   UNL     1       1.840   1.893  -3.293  1.00  0.00     0.127 A 
ATOM     18  C   UNL     1       2.345   3.144  -3.612  1.00  0.00     0.006 A 
ATOM     19  O   UNL     1       2.630   0.878  -3.760  1.00  0.00    -0.492 OA
ATOM     20  C   UNL     1       1.710   4.298  -3.196  1.00  0.00     0.034 A 
ATOM     21  C   UNL     1       3.587   3.029  -4.426  1.00  0.00     0.028 C 
ATOM     22  C   UNL     1       3.786   1.504  -4.362  1.00  0.00     0.240 C 
ATOM     23  C   UNL     1       3.330   3.513  -5.858  1.00  0.00     0.020 C 
ATOM     24  C   UNL     1       4.769   3.781  -3.810  1.00  0.00     0.020 C 
BRANCH  15  25
ATOM     25  C   UNL     1       0.194   0.372  -2.016  1.00  0.00    -0.009 C 
ATOM     26  C   UNL     1       0.877   0.181  -0.652  1.00  0.00     0.016 C 
ATOM     27  C   UNL     1       0.556  -0.837  -2.908  1.00  0.00     0.016 C 
ATOM     28  C   UNL     1      -1.335   0.301  -1.790  1.00  0.00     0.016 C 
ENDBRANCH  15  25
ENDBRANCH  12  14
ENDBRANCH   7  12
ENDBRANCH   3   6
ENDBRANCH   1   2
BRANCH   1  29
ATOM     29  C   UNL     1       0.763   3.866   1.099  1.00  0.00     0.042 C 
BRANCH  29  30
ATOM     30  C   UNL     1       0.941   3.295   2.505  1.00  0.00     0.118 C 
BRANCH  30  31
ATOM     31  N   UNL     1      -0.254   2.602   2.993  1.00  0.00    -0.352 N 
ATOM     32  C   UNL     1      -0.591   1.278   3.147  1.00  0.00     0.251 C 
ATOM     33  H   UNL     1      -0.970   3.217   3.271  1.00  0.00     0.163 HD
ATOM     34  O   UNL     1      -1.762   1.010   3.420  1.00  0.00    -0.269 OA
BRANCH  32  35
ATOM     35  C   UNL     1       0.375   0.165   2.968  1.00  0.00     0.039 A 
ATOM     36  C   UNL     1       1.732   0.302   3.240  1.00  0.00     0.014 A 
ATOM     37  C   UNL     1      -0.102  -1.087   2.546  1.00  0.00     0.014 A 
ATOM     38  C   UNL     1       2.623  -0.709   2.887  1.00  0.00     0.010 A 
ATOM     39  C   UNL     1       0.784  -2.149   2.302  1.00  0.00     0.010 A 
ATOM     40  C   UNL     1       2.165  -1.950   2.410  1.00  0.00    -0.014 A 
BRANCH  40  41
ATOM     41  C   UNL     1       3.166  -3.006   2.094  1.00  0.00     0.031 A 
ATOM     42  C   UNL     1       3.380  -3.506   0.690  1.00  0.00     0.074 A 
ATOM     43  C   UNL     1       3.975  -3.441   3.080  1.00  0.00     0.049 A 
ATOM     44  N   UNL     1       4.365  -4.224   0.207  1.00  0.00    -0.248 NA
ATOM     45  C   UNL     1       2.371  -3.144  -0.311  1.00  0.00     0.031 C 
ATOM     46  C   UNL     1       3.876  -3.046   4.487  1.00  0.00     0.029 A 
ATOM     47  N   UNL     1       5.061  -4.277   3.044  1.00  0.00    -0.354 N 
ATOM     48  C   UNL     1       4.121  -4.341  -1.157  1.00  0.00     0.074 A 
ATOM     49  C   UNL     1       2.873  -3.663  -1.421  1.00  0.00     0.031 C 
ATOM     50  C   UNL     1       4.894  -3.590   5.168  1.00  0.00     0.029 A 
ATOM     51  C   UNL     1       5.681  -4.418   4.261  1.00  0.00     0.049 A 
ATOM     52  H   UNL     1       5.367  -4.732   2.226  1.00  0.00     0.167 HD
ATOM     53  C   UNL     1       4.861  -4.960  -2.107  1.00  0.00     0.037 A 
ATOM     54  C   UNL     1       6.757  -5.144   4.614  1.00  0.00     0.037 A 
ATOM     55  C   UNL     1       6.040  -5.738  -1.836  1.00  0.00     0.049 A 
ATOM     56  C   UNL     1       7.472  -5.946   3.568  1.00  0.00     0.074 A 
ATOM     57  C   UNL     1       6.840  -6.438  -2.722  1.00  0.00     0.029 A 
ATOM     58  N   UNL     1       6.559  -5.956  -0.570  1.00  0.00    -0.354 N 
ATOM     59  N   UNL     1       7.269  -5.985   2.273  1.00  0.00    -0.248 NA
ATOM     60  C   UNL     1       8.557  -6.818   4.037  1.00  0.00     0.031 C 
ATOM     61  C   UNL     1       7.805  -7.132  -1.983  1.00  0.00     0.029 A 
ATOM     62  C   UNL     1       7.636  -6.823  -0.643  1.00  0.00     0.049 A 
ATOM     63  H   UNL     1       6.213  -5.554   0.260  1.00  0.00     0.167 HD
ATOM     64  C   UNL     1       8.203  -6.880   1.771  1.00  0.00     0.074 A 
ATOM     65  C   UNL     1       8.989  -7.341   2.898  1.00  0.00     0.031 C 
ATOM     66  C   UNL     1       8.391  -7.288   0.492  1.00  0.00     0.037 A 
BRANCH  53  67
ATOM     67  C   UNL     1       4.381  -4.855  -3.526  1.00  0.00     0.057 A 
ATOM     68  C   UNL     1       3.780  -5.945  -4.166  1.00  0.00     0.134 A 
ATOM     69  C   UNL     1       4.531  -3.672  -4.263  1.00  0.00     0.134 A 
ATOM     70  F   UNL     1       3.604  -7.104  -3.516  1.00  0.00    -0.206 F 
ATOM     71  C   UNL     1       3.346  -5.864  -5.491  1.00  0.00     0.040 A 
ATOM     72  C   UNL     1       4.085  -3.574  -5.583  1.00  0.00     0.040 A 
ATOM     73  F   UNL     1       5.090  -2.588  -3.704  1.00  0.00    -0.206 F 
ATOM     74  C   UNL     1       3.495  -4.674  -6.202  1.00  0.00     0.006 A 
ENDBRANCH  53  67
BRANCH  54  75
ATOM     75  C   UNL     1       7.195  -5.169   6.031  1.00  0.00     0.057 A 
ATOM     76  C   UNL     1       6.405  -5.770   7.020  1.00  0.00     0.134 A 
ATOM     77  C   UNL     1       8.404  -4.593   6.431  1.00  0.00     0.134 A 
ATOM     78  F   UNL     1       5.233  -6.339   6.698  1.00  0.00    -0.206 F 
ATOM     79  C   UNL     1       6.792  -5.780   8.359  1.00  0.00     0.040 A 
ATOM     80  C   UNL     1       8.817  -4.619   7.764  1.00  0.00     0.040 A 
ATOM     81  F   UNL     1       9.212  -4.021   5.526  1.00  0.00    -0.206 F 
ATOM     82  C   UNL     1       8.006  -5.207   8.733  1.00  0.00     0.006 A 
ENDBRANCH  54  75
BRANCH  66  83
ATOM     83  C   UNL     1       9.486  -8.284   0.256  1.00  0.00     0.057 A 
ATOM     84  C   UNL     1      10.677  -7.903  -0.372  1.00  0.00     0.134 A 
ATOM     85  C   UNL     1       9.357  -9.622   0.649  1.00  0.00     0.134 A 
ATOM     86  F   UNL     1      10.860  -6.638  -0.778  1.00  0.00    -0.206 F 
ATOM     87  C   UNL     1      11.705  -8.819  -0.599  1.00  0.00     0.040 A 
ATOM     88  C   UNL     1      10.387 -10.542   0.450  1.00  0.00     0.040 A 
ATOM     89  F   UNL     1       8.245 -10.045   1.270  1.00  0.00    -0.206 F 
ATOM     90  C   UNL     1      11.564 -10.141  -0.180  1.00  0.00     0.006 A 
ENDBRANCH  66  83
ENDBRANCH  40  41
ENDBRANCH  32  35
ENDBRANCH  30  31
ENDBRANCH  29  30
ENDBRANCH   1  29
TORSDOF 13
