REMARK SMILES COc1cc(C(=O)N[C@H](C(=O)NCCCNC(=O)c2ccc(-c3c4nc(c(-c5c(F)cccc5F)c5ccc([nH]5)c(-c5c(F)cccc5F)c5nc(c(-c6c(F)cccc6F)c6ccc3[nH]6)C=C5)C=C4)cc2)C2=C(C)N=N[C@H]2C)ccc1C
REMARK SMILES IDX 13 1 12 2 10 3 11 4 9 6 8 7 6 8 7 9 5 11 3 12 4 13 82 14
REMARK SMILES IDX 81 15 83 16 80 17 2 18 1 19 73 20 74 21 78 22 75 23 76 24
REMARK SMILES IDX 77 25 79 26 14 27 15 28 16 29 17 30 18 32 19 33 20 34 72 35
REMARK SMILES IDX 21 36 71 37 22 38 23 39 24 40 65 41 25 42 70 43 64 44 66 45
REMARK SMILES IDX 26 46 69 47 63 48 62 49 27 51 53 52 36 53 52 54 37 55 40 56
REMARK SMILES IDX 51 57 67 58 38 59 39 60 50 62 68 63 41 64 28 65 29 66 34 67
REMARK SMILES IDX 30 68 31 69 33 70 35 71 32 72 54 73 55 74 60 75 56 76 57 77
REMARK SMILES IDX 59 78 61 79 58 80 42 81 43 82 48 83 44 84 45 85 47 86 49 87
REMARK SMILES IDX 46 88
REMARK H PARENT 12 5 8 10 16 31 66 50 40 61
REMARK Flexibility Score: inf
ROOT
ATOM      1  C   UNL     1       7.858   1.866   1.019  1.00  0.00     0.117 C 
ENDROOT
BRANCH   1   2
ATOM      2  N   UNL     1       7.178   2.176   2.263  1.00  0.00    -0.354 N 
ATOM      3  C   UNL     1       5.979   1.772   2.767  1.00  0.00     0.247 C 
ATOM      4  O   UNL     1       5.811   1.959   3.979  1.00  0.00    -0.272 OA
ATOM      5  H   UNL     1       7.674   2.791   2.851  1.00  0.00     0.163 HD
BRANCH   3   6
ATOM      6  C   UNL     1       4.906   0.997   1.944  1.00  0.00     0.202 C 
BRANCH   6   7
ATOM      7  N   UNL     1       4.709   1.534   0.601  1.00  0.00    -0.337 N 
ATOM      8  C   UNL     1       4.165   2.745   0.234  1.00  0.00     0.252 C 
ATOM      9  O   UNL     1       3.970   2.980  -0.955  1.00  0.00    -0.269 OA
ATOM     10  H   UNL     1       5.004   0.955  -0.139  1.00  0.00     0.165 HD
BRANCH   8  11
ATOM     11  C   UNL     1       4.000   3.828   1.231  1.00  0.00     0.043 A 
ATOM     12  C   UNL     1       3.436   4.628   3.434  1.00  0.00     0.122 A 
ATOM     13  C   UNL     1       3.311   3.664   2.431  1.00  0.00     0.060 A 
ATOM     14  C   UNL     1       4.143   5.815   3.203  1.00  0.00    -0.009 A 
ATOM     15  C   UNL     1       4.698   6.030   1.935  1.00  0.00     0.008 A 
ATOM     16  C   UNL     1       4.417   6.794   4.308  1.00  0.00     0.048 C 
ATOM     17  C   UNL     1       4.639   5.039   0.957  1.00  0.00     0.014 A 
BRANCH  12  18
ATOM     18  O   UNL     1       2.808   4.451   4.639  1.00  0.00    -0.496 OA
ATOM     19  C   UNL     1       3.384   3.376   5.383  1.00  0.00     0.278 C 
ENDBRANCH  12  18
ENDBRANCH   8  11
ENDBRANCH   6   7
BRANCH   6  20
ATOM     20  C   UNL     1       5.081  -0.492   1.915  1.00  0.00     0.011 C 
ATOM     21  C   UNL     1       5.628  -1.336   2.803  1.00  0.00     0.064 C 
ATOM     22  C   UNL     1       4.460  -1.388   0.886  1.00  0.00     0.156 C 
ATOM     23  C   UNL     1       6.252  -1.049   4.126  1.00  0.00     0.069 C 
ATOM     24  N   UNL     1       5.483  -2.652   2.438  1.00  0.00    -0.160 NA
ATOM     25  N   UNL     1       4.828  -2.743   1.367  1.00  0.00    -0.181 NA
ATOM     26  C   UNL     1       2.940  -1.304   0.802  1.00  0.00     0.040 C 
ENDBRANCH   6  20
ENDBRANCH   3   6
ENDBRANCH   1   2
BRANCH   1  27
ATOM     27  C   UNL     1       7.831   2.989  -0.017  1.00  0.00     0.042 C 
BRANCH  27  28
ATOM     28  C   UNL     1       8.308   4.359   0.465  1.00  0.00     0.118 C 
BRANCH  28  29
ATOM     29  N   UNL     1       9.690   4.689   0.144  1.00  0.00    -0.352 N 
ATOM     30  C   UNL     1      10.427   5.828   0.446  1.00  0.00     0.251 C 
ATOM     31  H   UNL     1      10.177   4.000  -0.363  1.00  0.00     0.163 HD
ATOM     32  O   UNL     1      11.574   5.921   0.048  1.00  0.00    -0.269 OA
BRANCH  30  33
ATOM     33  C   UNL     1       9.875   6.870   1.359  1.00  0.00     0.039 A 
ATOM     34  C   UNL     1      10.740   7.428   2.312  1.00  0.00     0.014 A 
ATOM     35  C   UNL     1       8.524   7.191   1.397  1.00  0.00     0.014 A 
ATOM     36  C   UNL     1      10.215   8.066   3.439  1.00  0.00     0.010 A 
ATOM     37  C   UNL     1       7.998   7.766   2.539  1.00  0.00     0.010 A 
ATOM     38  C   UNL     1       8.833   8.121   3.597  1.00  0.00    -0.014 A 
BRANCH  38  39
ATOM     39  C   UNL     1       8.177   8.349   4.879  1.00  0.00     0.031 A 
ATOM     40  C   UNL     1       7.534   9.630   5.218  1.00  0.00     0.074 A 
ATOM     41  C   UNL     1       8.071   7.321   5.752  1.00  0.00     0.049 A 
ATOM     42  N   UNL     1       7.449  10.081   6.426  1.00  0.00    -0.248 NA
ATOM     43  C   UNL     1       6.931  10.510   4.224  1.00  0.00     0.031 C 
ATOM     44  C   UNL     1       7.236   7.259   6.949  1.00  0.00     0.029 A 
ATOM     45  N   UNL     1       8.854   6.161   5.815  1.00  0.00    -0.354 N 
ATOM     46  C   UNL     1       6.565  11.130   6.411  1.00  0.00     0.074 A 
ATOM     47  C   UNL     1       6.332  11.412   5.011  1.00  0.00     0.031 C 
ATOM     48  C   UNL     1       7.720   6.312   7.767  1.00  0.00     0.029 A 
ATOM     49  C   UNL     1       8.959   5.832   7.183  1.00  0.00     0.049 A 
ATOM     50  H   UNL     1       9.250   5.673   5.058  1.00  0.00     0.167 HD
ATOM     51  C   UNL     1       5.995  11.560   7.573  1.00  0.00     0.037 A 
ATOM     52  C   UNL     1      10.162   5.793   7.823  1.00  0.00     0.037 A 
ATOM     53  C   UNL     1       6.388  10.735   8.709  1.00  0.00     0.049 A 
ATOM     54  C   UNL     1      10.258   6.718   9.009  1.00  0.00     0.074 A 
ATOM     55  C   UNL     1       5.757   9.677   9.344  1.00  0.00     0.029 A 
ATOM     56  N   UNL     1       7.699  10.743   9.168  1.00  0.00    -0.354 N 
ATOM     57  N   UNL     1       9.473   7.742   9.193  1.00  0.00    -0.248 NA
ATOM     58  C   UNL     1      11.251   6.582  10.070  1.00  0.00     0.031 C 
ATOM     59  C   UNL     1       6.692   9.046  10.193  1.00  0.00     0.029 A 
ATOM     60  C   UNL     1       7.894   9.721  10.076  1.00  0.00     0.049 A 
ATOM     61  H   UNL     1       8.390  11.385   8.885  1.00  0.00     0.167 HD
ATOM     62  C   UNL     1       9.834   8.402  10.342  1.00  0.00     0.074 A 
ATOM     63  C   UNL     1      10.941   7.624  10.863  1.00  0.00     0.031 C 
ATOM     64  C   UNL     1       9.175   9.531  10.742  1.00  0.00     0.037 A 
BRANCH  51  65
ATOM     65  C   UNL     1       4.843  12.532   7.607  1.00  0.00     0.057 A 
ATOM     66  C   UNL     1       3.797  12.409   8.543  1.00  0.00     0.134 A 
ATOM     67  C   UNL     1       4.708  13.608   6.715  1.00  0.00     0.134 A 
ATOM     68  F   UNL     1       3.826  11.501   9.525  1.00  0.00    -0.206 F 
ATOM     69  C   UNL     1       2.652  13.215   8.513  1.00  0.00     0.040 A 
ATOM     70  C   UNL     1       3.549  14.395   6.645  1.00  0.00     0.040 A 
ATOM     71  F   UNL     1       5.708  13.954   5.891  1.00  0.00    -0.206 F 
ATOM     72  C   UNL     1       2.507  14.188   7.538  1.00  0.00     0.006 A 
ENDBRANCH  51  65
BRANCH  52  73
ATOM     73  C   UNL     1      11.287   5.433   6.924  1.00  0.00     0.057 A 
ATOM     74  C   UNL     1      11.323   4.133   6.389  1.00  0.00     0.134 A 
ATOM     75  C   UNL     1      12.044   6.413   6.277  1.00  0.00     0.134 A 
ATOM     76  F   UNL     1      10.613   3.148   6.962  1.00  0.00    -0.206 F 
ATOM     77  C   UNL     1      11.986   3.847   5.193  1.00  0.00     0.040 A 
ATOM     78  C   UNL     1      12.722   6.134   5.085  1.00  0.00     0.040 A 
ATOM     79  F   UNL     1      12.039   7.680   6.715  1.00  0.00    -0.206 F 
ATOM     80  C   UNL     1      12.658   4.861   4.518  1.00  0.00     0.006 A 
ENDBRANCH  52  73
BRANCH  64  81
ATOM     81  C   UNL     1       9.563  10.503  11.840  1.00  0.00     0.057 A 
ATOM     82  C   UNL     1      10.848  10.634  12.384  1.00  0.00     0.134 A 
ATOM     83  C   UNL     1       8.631  11.467  12.304  1.00  0.00     0.134 A 
ATOM     84  F   UNL     1      11.869   9.874  11.975  1.00  0.00    -0.206 F 
ATOM     85  C   UNL     1      11.168  11.606  13.346  1.00  0.00     0.040 A 
ATOM     86  C   UNL     1       8.953  12.473  13.221  1.00  0.00     0.040 A 
ATOM     87  F   UNL     1       7.362  11.499  11.871  1.00  0.00    -0.206 F 
ATOM     88  C   UNL     1      10.225  12.538  13.758  1.00  0.00     0.006 A 
ENDBRANCH  64  81
ENDBRANCH  38  39
ENDBRANCH  30  33
ENDBRANCH  28  29
ENDBRANCH  27  28
ENDBRANCH   1  27
TORSDOF 14
