REMARK SMILES O=C(NCCCNC(=O)[C@@H](CCCCl)P(=O)(c1ccccc1)c1ccccc1)c1ccc(-c2c3nc(c(-c4c(F)cccc4F)c4ccc([nH]4)c(-c4c(F)cccc4F)c4nc(c(-c5c(F)cccc5F)c5ccc2[nH]5)C=C4)C=C3)cc1
REMARK SMILES IDX 5 1 4 2 3 3 1 4 2 5 29 7 30 8 82 9 31 10 81 11 32 12 33 13
REMARK SMILES IDX 34 14 75 15 35 16 80 17 74 18 76 19 36 20 79 21 73 22 72 23
REMARK SMILES IDX 37 25 63 26 46 27 62 28 47 29 50 30 61 31 77 32 48 33 49 34
REMARK SMILES IDX 60 36 78 37 51 38 38 39 39 40 44 41 40 42 41 43 43 44 45 45
REMARK SMILES IDX 42 46 64 47 65 48 70 49 66 50 67 51 69 52 71 53 68 54 52 55
REMARK SMILES IDX 53 56 58 57 54 58 55 59 57 60 59 61 56 62 6 63 7 64 8 65
REMARK SMILES IDX 9 67 10 68 11 69 12 70 13 71 14 72 15 73 16 74 17 75 18 76
REMARK SMILES IDX 22 77 19 78 21 79 20 80 23 81 24 82 28 83 25 84 27 85 26 86
REMARK H PARENT 3 6 76 24 50 35 7 66
REMARK Flexibility Score: inf
ROOT
ATOM      1  C   UNL     1       4.142  -2.280   0.545  1.00  0.00     0.042 C 
ENDROOT
BRANCH   1   2
ATOM      2  C   UNL     1       3.829  -1.514  -0.712  1.00  0.00     0.118 C 
BRANCH   2   3
ATOM      3  N   UNL     1       2.461  -1.041  -0.725  1.00  0.00    -0.352 N 
ATOM      4  O   UNL     1       0.734   0.260  -0.130  1.00  0.00    -0.269 OA
ATOM      5  C   UNL     1       1.942   0.172  -0.338  1.00  0.00     0.251 C 
ATOM      6  H   UNL     1       1.800  -1.688  -1.062  1.00  0.00     0.163 HD
BRANCH   5   7
ATOM      7  C   UNL     1       2.809   1.364  -0.161  1.00  0.00     0.039 A 
ATOM      8  C   UNL     1       3.938   1.567  -0.954  1.00  0.00     0.014 A 
ATOM      9  C   UNL     1       2.438   2.351   0.761  1.00  0.00     0.014 A 
ATOM     10  C   UNL     1       4.776   2.650  -0.725  1.00  0.00     0.010 A 
ATOM     11  C   UNL     1       3.200   3.519   0.885  1.00  0.00     0.010 A 
ATOM     12  C   UNL     1       4.382   3.674   0.147  1.00  0.00    -0.014 A 
BRANCH  12  13
ATOM     13  C   UNL     1       5.153   4.943   0.152  1.00  0.00     0.031 A 
ATOM     14  C   UNL     1       5.813   5.456   1.397  1.00  0.00     0.074 A 
ATOM     15  C   UNL     1       5.257   5.629  -1.005  1.00  0.00     0.049 A 
ATOM     16  N   UNL     1       6.513   6.549   1.564  1.00  0.00    -0.248 NA
ATOM     17  C   UNL     1       5.662   4.647   2.615  1.00  0.00     0.031 C 
ATOM     18  C   UNL     1       4.644   5.233  -2.279  1.00  0.00     0.029 A 
ATOM     19  N   UNL     1       5.923   6.788  -1.311  1.00  0.00    -0.354 N 
ATOM     20  C   UNL     1       6.872   6.571   2.905  1.00  0.00     0.074 A 
ATOM     21  C   UNL     1       6.283   5.397   3.515  1.00  0.00     0.031 C 
ATOM     22  C   UNL     1       5.008   6.098  -3.234  1.00  0.00     0.029 A 
ATOM     23  C   UNL     1       5.800   7.159  -2.628  1.00  0.00     0.049 A 
ATOM     24  H   UNL     1       6.439   7.304  -0.650  1.00  0.00     0.167 HD
ATOM     25  C   UNL     1       7.627   7.485   3.561  1.00  0.00     0.037 A 
ATOM     26  C   UNL     1       6.245   8.250  -3.277  1.00  0.00     0.037 A 
ATOM     27  C   UNL     1       8.201   8.653   2.940  1.00  0.00     0.049 A 
ATOM     28  C   UNL     1       7.028   9.273  -2.510  1.00  0.00     0.074 A 
ATOM     29  C   UNL     1       9.005   9.625   3.510  1.00  0.00     0.029 A 
ATOM     30  N   UNL     1       8.019   9.018   1.612  1.00  0.00    -0.354 N 
ATOM     31  N   UNL     1       7.394   9.259  -1.252  1.00  0.00    -0.248 NA
ATOM     32  C   UNL     1       7.457  10.465  -3.252  1.00  0.00     0.031 C 
ATOM     33  C   UNL     1       9.251  10.610   2.549  1.00  0.00     0.029 A 
ATOM     34  C   UNL     1       8.666  10.217   1.356  1.00  0.00     0.049 A 
ATOM     35  H   UNL     1       7.506   8.500   0.950  1.00  0.00     0.167 HD
ATOM     36  C   UNL     1       8.117  10.427  -1.055  1.00  0.00     0.074 A 
ATOM     37  C   UNL     1       8.156  11.112  -2.331  1.00  0.00     0.031 C 
ATOM     38  C   UNL     1       8.695  10.889   0.081  1.00  0.00     0.037 A 
BRANCH  25  39
ATOM     39  C   UNL     1       7.850   7.276   5.033  1.00  0.00     0.057 A 
ATOM     40  C   UNL     1       8.630   6.222   5.529  1.00  0.00     0.134 A 
ATOM     41  C   UNL     1       7.303   8.165   5.969  1.00  0.00     0.134 A 
ATOM     42  F   UNL     1       9.176   5.327   4.691  1.00  0.00    -0.206 F 
ATOM     43  C   UNL     1       8.831   6.041   6.899  1.00  0.00     0.040 A 
ATOM     44  C   UNL     1       7.524   8.013   7.339  1.00  0.00     0.040 A 
ATOM     45  F   UNL     1       6.554   9.202   5.567  1.00  0.00    -0.206 F 
ATOM     46  C   UNL     1       8.282   6.944   7.808  1.00  0.00     0.006 A 
ENDBRANCH  25  39
BRANCH  26  47
ATOM     47  C   UNL     1       5.938   8.433  -4.719  1.00  0.00     0.057 A 
ATOM     48  C   UNL     1       6.951   8.412  -5.684  1.00  0.00     0.134 A 
ATOM     49  C   UNL     1       4.625   8.631  -5.167  1.00  0.00     0.134 A 
ATOM     50  F   UNL     1       8.229   8.239  -5.318  1.00  0.00    -0.206 F 
ATOM     51  C   UNL     1       6.673   8.603  -7.039  1.00  0.00     0.040 A 
ATOM     52  C   UNL     1       4.329   8.789  -6.521  1.00  0.00     0.040 A 
ATOM     53  F   UNL     1       3.606   8.649  -4.295  1.00  0.00    -0.206 F 
ATOM     54  C   UNL     1       5.357   8.786  -7.460  1.00  0.00     0.006 A 
ENDBRANCH  26  47
BRANCH  38  55
ATOM     55  C   UNL     1       9.456  12.181  -0.019  1.00  0.00     0.057 A 
ATOM     56  C   UNL     1       8.815  13.409  -0.228  1.00  0.00     0.134 A 
ATOM     57  C   UNL     1      10.850  12.196   0.119  1.00  0.00     0.134 A 
ATOM     58  F   UNL     1       7.484  13.464  -0.386  1.00  0.00    -0.206 F 
ATOM     59  C   UNL     1       9.536  14.601  -0.326  1.00  0.00     0.040 A 
ATOM     60  C   UNL     1      11.578  13.385   0.060  1.00  0.00     0.040 A 
ATOM     61  F   UNL     1      11.527  11.057   0.329  1.00  0.00    -0.206 F 
ATOM     62  C   UNL     1      10.921  14.591  -0.173  1.00  0.00     0.006 A 
ENDBRANCH  38  55
ENDBRANCH  12  13
ENDBRANCH   5   7
ENDBRANCH   2   3
ENDBRANCH   1   2
BRANCH   1  63
ATOM     63  C   UNL     1       3.605  -3.710   0.614  1.00  0.00     0.117 C 
BRANCH  63  64
ATOM     64  N   UNL     1       4.415  -4.708  -0.061  1.00  0.00    -0.355 N 
ATOM     65  C   UNL     1       5.129  -5.788   0.373  1.00  0.00     0.231 C 
ATOM     66  H   UNL     1       4.459  -4.579  -1.036  1.00  0.00     0.163 HD
ATOM     67  O   UNL     1       5.290  -6.657  -0.496  1.00  0.00    -0.274 OA
BRANCH  65  68
ATOM     68  C   UNL     1       5.876  -5.909   1.695  1.00  0.00     0.148 C 
BRANCH  68  69
ATOM     69  C   UNL     1       6.816  -4.752   1.978  1.00  0.00     0.023 C 
BRANCH  69  70
ATOM     70  C   UNL     1       6.186  -3.575   2.745  1.00  0.00     0.017 C 
BRANCH  70  71
ATOM     71  C   UNL     1       5.167  -3.696   4.150  1.00  0.00     0.109 C 
ATOM     72  Cl  UNL     1       5.834  -4.200   6.544  1.00  0.00    -0.127 Cl
ENDBRANCH  70  71
ENDBRANCH  69  70
ENDBRANCH  68  69
BRANCH  68  73
ATOM     73  P   UNL     1       5.349  -6.797   3.192  1.00  0.00     0.155 P 
ATOM     74  O   UNL     1       6.179  -8.059   3.323  1.00  0.00    -0.313 OA
BRANCH  73  75
ATOM     75  C   UNL     1       5.735  -5.625   4.755  1.00  0.00     0.017 A 
ATOM     76  C   UNL     1       4.126  -5.165   5.428  1.00  0.00     0.012 A 
ATOM     77  C   UNL     1       7.065  -4.372   4.718  1.00  0.00     0.012 A 
ATOM     78  C   UNL     1       3.768  -3.479   5.843  1.00  0.00     0.001 A 
ATOM     79  C   UNL     1       6.677  -2.642   5.166  1.00  0.00     0.001 A 
ATOM     80  C   UNL     1       5.028  -2.215   5.736  1.00  0.00     0.000 A 
ENDBRANCH  73  75
BRANCH  73  81
ATOM     81  C   UNL     1       3.539  -7.147   3.235  1.00  0.00     0.017 A 
ATOM     82  C   UNL     1       2.517  -6.176   3.240  1.00  0.00     0.012 A 
ATOM     83  C   UNL     1       3.169  -8.450   3.596  1.00  0.00     0.012 A 
ATOM     84  C   UNL     1       1.260  -6.438   3.806  1.00  0.00     0.001 A 
ATOM     85  C   UNL     1       1.898  -8.727   4.115  1.00  0.00     0.001 A 
ATOM     86  C   UNL     1       0.964  -7.708   4.276  1.00  0.00     0.000 A 
ENDBRANCH  73  81
ENDBRANCH  68  73
ENDBRANCH  65  68
ENDBRANCH  63  64
ENDBRANCH   1  63
TORSDOF 16
