REMARK SMILES CC(=O)N1[C@@H](c2c(F)cccc2Cl)SC[C@H]1C(=O)NCCCNC(=O)c1ccc(-c2c3nc(c(-c4c(F)cccc4F)c4ccc([nH]4)c(-c4c(F)cccc4F)c4nc(c(-c5c(F)cccc5F)c5ccc2[nH]5)C=C4)C=C3)cc1
REMARK SMILES IDX 21 1 20 2 19 3 17 4 18 5 16 7 4 8 5 9 14 10 15 11 2 12 1 13
REMARK SMILES IDX 3 14 6 15 7 16 12 17 8 18 9 19 11 20 13 21 10 22 22 23 23 24
REMARK SMILES IDX 24 25 25 27 26 28 27 29 79 30 28 31 78 32 29 33 30 34 31 35
REMARK SMILES IDX 72 36 32 37 77 38 71 39 73 40 33 41 76 42 70 43 69 44 34 46
REMARK SMILES IDX 60 47 43 48 59 49 44 50 47 51 58 52 74 53 45 54 46 55 57 57
REMARK SMILES IDX 75 58 48 59 35 60 36 61 41 62 37 63 38 64 40 65 42 66 39 67
REMARK SMILES IDX 61 68 62 69 67 70 63 71 64 72 66 73 68 74 65 75 49 76 50 77
REMARK SMILES IDX 55 78 51 79 52 80 54 81 56 82 53 83
REMARK H PARENT 19 6 23 26 73 45 47 56
REMARK Flexibility Score: inf
ROOT
ATOM      1  C   UNL     1       1.818  -5.344  -0.226  1.00  0.00     0.042 C 
ENDROOT
BRANCH   1   2
ATOM      2  C   UNL     1       1.100  -5.461  -1.561  1.00  0.00     0.117 C 
BRANCH   2   3
ATOM      3  N   UNL     1      -0.281  -5.062  -1.509  1.00  0.00    -0.354 N 
ATOM      4  C   UNL     1      -0.859  -3.897  -1.909  1.00  0.00     0.243 C 
ATOM      5  O   UNL     1      -2.084  -3.926  -2.081  1.00  0.00    -0.273 OA
ATOM      6  H   UNL     1      -0.898  -5.729  -1.128  1.00  0.00     0.163 HD
BRANCH   4   7
ATOM      7  C   UNL     1      -0.052  -2.649  -2.342  1.00  0.00     0.185 C 
ATOM      8  N   UNL     1       1.122  -2.218  -1.556  1.00  0.00    -0.314 N 
ATOM      9  C   UNL     1       2.289  -1.778  -2.346  1.00  0.00     0.179 C 
ATOM     10  S   UNL     1       1.635  -1.518  -4.029  1.00  0.00    -0.129 SA
ATOM     11  C   UNL     1       0.305  -2.734  -3.820  1.00  0.00     0.107 C 
BRANCH   8  12
ATOM     12  C   UNL     1       0.765  -1.695  -0.318  1.00  0.00     0.221 C 
ATOM     13  C   UNL     1       1.122  -0.258  -0.024  1.00  0.00     0.114 C 
ATOM     14  O   UNL     1       0.011  -2.308   0.438  1.00  0.00    -0.275 OA
ENDBRANCH   8  12
BRANCH   9  15
ATOM     15  C   UNL     1       3.494  -2.720  -2.226  1.00  0.00     0.039 A 
ATOM     16  C   UNL     1       3.710  -3.809  -3.094  1.00  0.00     0.130 A 
ATOM     17  C   UNL     1       4.430  -2.607  -1.174  1.00  0.00     0.050 A 
ATOM     18  F   UNL     1       2.911  -4.033  -4.144  1.00  0.00    -0.207 F 
ATOM     19  C   UNL     1       4.706  -4.769  -2.885  1.00  0.00     0.040 A 
ATOM     20  C   UNL     1       5.431  -3.572  -0.956  1.00  0.00     0.021 A 
ATOM     21  Cl  UNL     1       4.465  -1.283  -0.071  1.00  0.00    -0.084 Cl
ATOM     22  C   UNL     1       5.558  -4.665  -1.800  1.00  0.00     0.005 A 
ENDBRANCH   9  15
ENDBRANCH   4   7
ENDBRANCH   2   3
ENDBRANCH   1   2
BRANCH   1  23
ATOM     23  C   UNL     1       2.309  -6.673   0.334  1.00  0.00     0.118 C 
BRANCH  23  24
ATOM     24  N   UNL     1       3.180  -7.420  -0.571  1.00  0.00    -0.352 N 
ATOM     25  C   UNL     1       4.436  -7.952  -0.421  1.00  0.00     0.251 C 
ATOM     26  H   UNL     1       2.790  -7.570  -1.462  1.00  0.00     0.163 HD
ATOM     27  O   UNL     1       4.977  -8.460  -1.404  1.00  0.00    -0.269 OA
BRANCH  25  28
ATOM     28  C   UNL     1       5.176  -7.895   0.862  1.00  0.00     0.039 A 
ATOM     29  C   UNL     1       6.576  -7.830   0.824  1.00  0.00     0.014 A 
ATOM     30  C   UNL     1       4.533  -7.938   2.097  1.00  0.00     0.014 A 
ATOM     31  C   UNL     1       7.311  -7.729   2.009  1.00  0.00     0.010 A 
ATOM     32  C   UNL     1       5.253  -7.721   3.268  1.00  0.00     0.010 A 
ATOM     33  C   UNL     1       6.652  -7.630   3.241  1.00  0.00    -0.014 A 
BRANCH  33  34
ATOM     34  C   UNL     1       7.387  -7.475   4.523  1.00  0.00     0.031 A 
ATOM     35  C   UNL     1       7.219  -8.504   5.609  1.00  0.00     0.074 A 
ATOM     36  C   UNL     1       8.117  -6.366   4.754  1.00  0.00     0.049 A 
ATOM     37  N   UNL     1       7.633  -8.478   6.850  1.00  0.00    -0.248 NA
ATOM     38  C   UNL     1       6.440  -9.705   5.263  1.00  0.00     0.031 C 
ATOM     39  C   UNL     1       8.318  -5.269   3.806  1.00  0.00     0.029 A 
ATOM     40  N   UNL     1       8.805  -5.968   5.873  1.00  0.00    -0.354 N 
ATOM     41  C   UNL     1       7.131  -9.632   7.440  1.00  0.00     0.074 A 
ATOM     42  C   UNL     1       6.338 -10.309   6.437  1.00  0.00     0.031 C 
ATOM     43  C   UNL     1       9.085  -4.327   4.379  1.00  0.00     0.029 A 
ATOM     44  C   UNL     1       9.392  -4.732   5.747  1.00  0.00     0.049 A 
ATOM     45  H   UNL     1       8.872  -6.516   6.688  1.00  0.00     0.167 HD
ATOM     46  C   UNL     1       7.330 -10.099   8.695  1.00  0.00     0.037 A 
ATOM     47  C   UNL     1      10.083  -3.998   6.640  1.00  0.00     0.037 A 
ATOM     48  C   UNL     1       8.158  -9.447   9.674  1.00  0.00     0.049 A 
ATOM     49  C   UNL     1      10.314  -4.547   8.021  1.00  0.00     0.074 A 
ATOM     50  C   UNL     1       8.497  -9.880  10.943  1.00  0.00     0.029 A 
ATOM     51  N   UNL     1       8.779  -8.220   9.490  1.00  0.00    -0.354 N 
ATOM     52  N   UNL     1       9.894  -5.674   8.543  1.00  0.00    -0.248 NA
ATOM     53  C   UNL     1      11.121  -3.726   8.934  1.00  0.00     0.031 C 
ATOM     54  C   UNL     1       9.284  -8.892  11.546  1.00  0.00     0.029 A 
ATOM     55  C   UNL     1       9.480  -7.869  10.631  1.00  0.00     0.049 A 
ATOM     56  H   UNL     1       8.728  -7.679   8.669  1.00  0.00     0.167 HD
ATOM     57  C   UNL     1      10.406  -5.710   9.834  1.00  0.00     0.074 A 
ATOM     58  C   UNL     1      11.180  -4.499  10.010  1.00  0.00     0.031 C 
ATOM     59  C   UNL     1      10.250  -6.661  10.788  1.00  0.00     0.037 A 
BRANCH  46  60
ATOM     60  C   UNL     1       6.636 -11.376   9.078  1.00  0.00     0.057 A 
ATOM     61  C   UNL     1       6.984 -12.611   8.514  1.00  0.00     0.134 A 
ATOM     62  C   UNL     1       5.614 -11.372  10.036  1.00  0.00     0.134 A 
ATOM     63  F   UNL     1       7.945 -12.686   7.581  1.00  0.00    -0.206 F 
ATOM     64  C   UNL     1       6.316 -13.787   8.860  1.00  0.00     0.040 A 
ATOM     65  C   UNL     1       4.961 -12.547  10.414  1.00  0.00     0.040 A 
ATOM     66  F   UNL     1       5.234 -10.227  10.623  1.00  0.00    -0.206 F 
ATOM     67  C   UNL     1       5.305 -13.758   9.818  1.00  0.00     0.006 A 
ENDBRANCH  46  60
BRANCH  47  68
ATOM     68  C   UNL     1      10.619  -2.670   6.249  1.00  0.00     0.057 A 
ATOM     69  C   UNL     1      11.993  -2.468   6.076  1.00  0.00     0.134 A 
ATOM     70  C   UNL     1       9.775  -1.574   6.031  1.00  0.00     0.134 A 
ATOM     71  F   UNL     1      12.854  -3.474   6.287  1.00  0.00    -0.206 F 
ATOM     72  C   UNL     1      12.511  -1.222   5.717  1.00  0.00     0.040 A 
ATOM     73  C   UNL     1      10.276  -0.330   5.646  1.00  0.00     0.040 A 
ATOM     74  F   UNL     1       8.447  -1.704   6.170  1.00  0.00    -0.206 F 
ATOM     75  C   UNL     1      11.649  -0.149   5.495  1.00  0.00     0.006 A 
ENDBRANCH  47  68
BRANCH  59  76
ATOM     76  C   UNL     1      10.957  -6.448  12.095  1.00  0.00     0.057 A 
ATOM     77  C   UNL     1      10.538  -5.480  13.016  1.00  0.00     0.134 A 
ATOM     78  C   UNL     1      12.046  -7.253  12.453  1.00  0.00     0.134 A 
ATOM     79  F   UNL     1       9.510  -4.668  12.729  1.00  0.00    -0.206 F 
ATOM     80  C   UNL     1      11.192  -5.305  14.237  1.00  0.00     0.040 A 
ATOM     81  C   UNL     1      12.689  -7.107  13.682  1.00  0.00     0.040 A 
ATOM     82  F   UNL     1      12.492  -8.206  11.620  1.00  0.00    -0.206 F 
ATOM     83  C   UNL     1      12.266  -6.126  14.576  1.00  0.00     0.006 A 
ENDBRANCH  59  76
ENDBRANCH  33  34
ENDBRANCH  25  28
ENDBRANCH  23  24
ENDBRANCH   1  23
TORSDOF 12
