REMARK SMILES CN1C(=O)C[C@H](C(=O)NCCCNC(=O)c2ccc(-c3c4nc(c(-c5c(F)cccc5F)c5ccc([nH]5)c(-c5c(F)cccc5F)c5nc(c(-c6c(F)cccc6F)c6ccc3[nH]6)C=C5)C=C4)cc2)C12CC[NH+](Cc1ccc(Cl)c(F)c1)CC2
REMARK SMILES IDX 11 1 10 2 9 3 7 4 8 5 6 7 1 8 2 9 3 10 70 11 4 12 5 13 71 14
REMARK SMILES IDX 84 15 72 16 83 17 73 18 74 20 75 21 76 22 82 23 77 24 80 25
REMARK SMILES IDX 78 26 81 27 79 28 12 29 13 30 14 31 15 33 16 34 17 35 69 36
REMARK SMILES IDX 18 37 68 38 19 39 20 40 21 41 62 42 22 43 67 44 61 45 63 46
REMARK SMILES IDX 23 47 66 48 60 49 59 50 24 52 50 53 33 54 49 55 34 56 37 57
REMARK SMILES IDX 48 58 64 59 35 60 36 61 47 63 65 64 38 65 25 66 26 67 31 68
REMARK SMILES IDX 27 69 28 70 30 71 32 72 29 73 51 74 52 75 57 76 53 77 54 78
REMARK SMILES IDX 56 79 58 80 55 81 39 82 40 83 45 84 41 85 42 86 44 87 46 88
REMARK SMILES IDX 43 89
REMARK H PARENT 9 6 73 19 13 32 63 51 37 62
REMARK Flexibility Score: inf
ROOT
ATOM      1  C   UNL     1      -4.112   6.011   2.583  1.00  0.00     0.042 C 
ENDROOT
BRANCH   1   2
ATOM      2  C   UNL     1      -3.443   5.391   1.369  1.00  0.00     0.117 C 
BRANCH   2   3
ATOM      3  N   UNL     1      -2.020   5.643   1.327  1.00  0.00    -0.356 N 
ATOM      4  C   UNL     1      -1.020   4.807   0.947  1.00  0.00     0.226 C 
ATOM      5  O   UNL     1      -0.033   5.353   0.460  1.00  0.00    -0.275 OA
ATOM      6  H   UNL     1      -1.738   6.542   1.613  1.00  0.00     0.163 HD
BRANCH   4   7
ATOM      7  C   UNL     1      -1.221   3.299   1.036  1.00  0.00     0.114 C 
ATOM      8  C   UNL     1       0.597   0.088   0.157  1.00  0.00     0.147 C 
ATOM      9  N   UNL     1      -0.204   1.297   0.268  1.00  0.00    -0.339 N 
ATOM     10  C   UNL     1      -1.231   1.545  -0.619  1.00  0.00     0.223 C 
ATOM     11  C   UNL     1       0.028   2.376   1.265  1.00  0.00     0.065 C 
ATOM     12  O   UNL     1      -1.619   0.817  -1.515  1.00  0.00    -0.275 OA
ATOM     13  C   UNL     1      -1.798   2.893  -0.328  1.00  0.00     0.116 C 
ATOM     14  C   UNL     1       0.046   1.742   2.686  1.00  0.00     0.091 C 
ATOM     15  C   UNL     1       1.383   3.062   1.025  1.00  0.00     0.091 C 
ATOM     16  C   UNL     1       0.586   2.640   3.797  1.00  0.00     0.265 C 
ATOM     17  C   UNL     1       1.842   3.961   2.190  1.00  0.00     0.265 C 
ATOM     18  N   UNL     1       1.843   3.303   3.490  1.00  0.00    -0.331 N 
ATOM     19  H   UNL     1       1.859   4.059   4.175  1.00  0.00     0.348 HD
BRANCH  18  20
ATOM     20  C   UNL     1       3.097   2.670   3.907  1.00  0.00     0.299 C 
BRANCH  20  21
ATOM     21  C   UNL     1       3.631   1.573   3.011  1.00  0.00     0.009 A 
ATOM     22  C   UNL     1       3.352   0.226   3.280  1.00  0.00     0.011 A 
ATOM     23  C   UNL     1       4.348   1.894   1.845  1.00  0.00     0.050 A 
ATOM     24  C   UNL     1       3.687  -0.766   2.353  1.00  0.00     0.024 A 
ATOM     25  C   UNL     1       4.638   0.909   0.906  1.00  0.00     0.142 A 
ATOM     26  C   UNL     1       4.296  -0.417   1.147  1.00  0.00     0.076 A 
ATOM     27  F   UNL     1       5.182   1.278  -0.264  1.00  0.00    -0.205 F 
ATOM     28  Cl  UNL     1       4.558  -1.624  -0.050  1.00  0.00    -0.081 Cl
ENDBRANCH  20  21
ENDBRANCH  18  20
ENDBRANCH   4   7
ENDBRANCH   2   3
ENDBRANCH   1   2
BRANCH   1  29
ATOM     29  C   UNL     1      -3.725   7.458   2.863  1.00  0.00     0.118 C 
BRANCH  29  30
ATOM     30  N   UNL     1      -3.959   8.352   1.738  1.00  0.00    -0.352 N 
ATOM     31  C   UNL     1      -4.697   9.507   1.663  1.00  0.00     0.251 C 
ATOM     32  H   UNL     1      -3.518   8.085   0.898  1.00  0.00     0.163 HD
ATOM     33  O   UNL     1      -4.875  10.044   0.573  1.00  0.00    -0.269 OA
BRANCH  31  34
ATOM     34  C   UNL     1      -5.314  10.082   2.876  1.00  0.00     0.039 A 
ATOM     35  C   UNL     1      -6.624  10.559   2.792  1.00  0.00     0.014 A 
ATOM     36  C   UNL     1      -4.622  10.150   4.089  1.00  0.00     0.014 A 
ATOM     37  C   UNL     1      -7.262  11.030   3.940  1.00  0.00     0.010 A 
ATOM     38  C   UNL     1      -5.292  10.529   5.250  1.00  0.00     0.010 A 
ATOM     39  C   UNL     1      -6.619  10.974   5.189  1.00  0.00    -0.014 A 
BRANCH  39  40
ATOM     40  C   UNL     1      -7.350  11.352   6.425  1.00  0.00     0.031 A 
ATOM     41  C   UNL     1      -6.896  12.509   7.271  1.00  0.00     0.074 A 
ATOM     42  C   UNL     1      -8.425  10.628   6.798  1.00  0.00     0.049 A 
ATOM     43  N   UNL     1      -7.447  13.008   8.349  1.00  0.00    -0.248 NA
ATOM     44  C   UNL     1      -5.649  13.181   6.872  1.00  0.00     0.031 C 
ATOM     45  C   UNL     1      -8.924   9.439   6.103  1.00  0.00     0.029 A 
ATOM     46  N   UNL     1      -9.297  10.790   7.844  1.00  0.00    -0.354 N 
ATOM     47  C   UNL     1      -6.619  14.047   8.753  1.00  0.00     0.074 A 
ATOM     48  C   UNL     1      -5.493  14.065   7.846  1.00  0.00     0.031 C 
ATOM     49  C   UNL     1     -10.042   9.011   6.710  1.00  0.00     0.029 A 
ATOM     50  C   UNL     1     -10.317   9.869   7.858  1.00  0.00     0.049 A 
ATOM     51  H   UNL     1      -9.202  11.499   8.521  1.00  0.00     0.167 HD
ATOM     52  C   UNL     1      -6.794  14.925   9.770  1.00  0.00     0.037 A 
ATOM     53  C   UNL     1     -11.361   9.733   8.696  1.00  0.00     0.037 A 
ATOM     54  C   UNL     1      -7.920  14.909  10.669  1.00  0.00     0.049 A 
ATOM     55  C   UNL     1     -11.531  10.720   9.817  1.00  0.00     0.074 A 
ATOM     56  C   UNL     1      -8.218  15.790  11.694  1.00  0.00     0.029 A 
ATOM     57  N   UNL     1      -8.929  13.958  10.656  1.00  0.00    -0.354 N 
ATOM     58  N   UNL     1     -10.787  11.753  10.132  1.00  0.00    -0.248 NA
ATOM     59  C   UNL     1     -12.695  10.528  10.692  1.00  0.00     0.031 C 
ATOM     60  C   UNL     1      -9.375  15.338  12.338  1.00  0.00     0.029 A 
ATOM     61  C   UNL     1      -9.834  14.212  11.675  1.00  0.00     0.049 A 
ATOM     62  H   UNL     1      -8.994  13.211  10.017  1.00  0.00     0.167 HD
ATOM     63  C   UNL     1     -11.403  12.345  11.226  1.00  0.00     0.074 A 
ATOM     64  C   UNL     1     -12.598  11.574  11.499  1.00  0.00     0.031 C 
ATOM     65  C   UNL     1     -11.013  13.428  11.945  1.00  0.00     0.037 A 
BRANCH  52  66
ATOM     66  C   UNL     1      -5.741  15.981   9.964  1.00  0.00     0.057 A 
ATOM     67  C   UNL     1      -5.556  17.020   9.042  1.00  0.00     0.134 A 
ATOM     68  C   UNL     1      -4.928  15.982  11.105  1.00  0.00     0.134 A 
ATOM     69  F   UNL     1      -6.292  17.075   7.921  1.00  0.00    -0.206 F 
ATOM     70  C   UNL     1      -4.583  18.004   9.233  1.00  0.00     0.040 A 
ATOM     71  C   UNL     1      -3.974  16.977  11.322  1.00  0.00     0.040 A 
ATOM     72  F   UNL     1      -5.054  15.021  12.033  1.00  0.00    -0.206 F 
ATOM     73  C   UNL     1      -3.794  17.988  10.381  1.00  0.00     0.006 A 
ENDBRANCH  52  66
BRANCH  53  74
ATOM     74  C   UNL     1     -12.344   8.638   8.492  1.00  0.00     0.057 A 
ATOM     75  C   UNL     1     -13.661   8.908   8.103  1.00  0.00     0.134 A 
ATOM     76  C   UNL     1     -11.995   7.297   8.694  1.00  0.00     0.134 A 
ATOM     77  F   UNL     1     -14.063  10.173   7.910  1.00  0.00    -0.206 F 
ATOM     78  C   UNL     1     -14.602   7.888   7.947  1.00  0.00     0.040 A 
ATOM     79  C   UNL     1     -12.917   6.265   8.512  1.00  0.00     0.040 A 
ATOM     80  F   UNL     1     -10.746   6.970   9.058  1.00  0.00    -0.206 F 
ATOM     81  C   UNL     1     -14.228   6.561   8.148  1.00  0.00     0.006 A 
ENDBRANCH  53  74
BRANCH  65  82
ATOM     82  C   UNL     1     -11.904  13.845  13.081  1.00  0.00     0.057 A 
ATOM     83  C   UNL     1     -12.048  13.064  14.237  1.00  0.00     0.134 A 
ATOM     84  C   UNL     1     -12.631  15.041  13.018  1.00  0.00     0.134 A 
ATOM     85  F   UNL     1     -11.390  11.901  14.358  1.00  0.00    -0.206 F 
ATOM     86  C   UNL     1     -12.916  13.435  15.265  1.00  0.00     0.040 A 
ATOM     87  C   UNL     1     -13.475  15.439  14.056  1.00  0.00     0.040 A 
ATOM     88  F   UNL     1     -12.532  15.844  11.948  1.00  0.00    -0.206 F 
ATOM     89  C   UNL     1     -13.630  14.628  15.178  1.00  0.00     0.006 A 
ENDBRANCH  65  82
ENDBRANCH  39  40
ENDBRANCH  31  34
ENDBRANCH  29  30
ENDBRANCH   1  29
TORSDOF 12
