REMARK SMILES O=C(NCCCNC(=O)c1ccc(-c2c3nc(c(-c4c(F)cccc4F)c4ccc([nH]4)c(-c4c(F)cccc4F)c4nc(c(-c5c(F)cccc5F)c5ccc2[nH]5)C=C4)C=C3)cc1)C1=Cc2cc(OC(F)(F)F)ccc2O[C@@H]1C(F)(F)F
REMARK SMILES IDX 5 1 4 2 3 3 1 4 2 5 64 7 65 8 78 9 66 10 77 11 67 12 76 13
REMARK SMILES IDX 68 14 75 15 74 16 79 17 80 18 81 19 82 20 69 21 70 22 71 23
REMARK SMILES IDX 72 24 73 25 6 26 7 27 8 28 9 30 10 31 11 32 63 33 12 34
REMARK SMILES IDX 62 35 13 36 14 37 15 38 56 39 16 40 61 41 55 42 57 43 17 44
REMARK SMILES IDX 60 45 54 46 53 47 18 49 44 50 27 51 43 52 28 53 31 54 42 55
REMARK SMILES IDX 58 56 29 57 30 58 41 60 59 61 32 62 19 63 20 64 25 65 21 66
REMARK SMILES IDX 22 67 24 68 26 69 23 70 45 71 46 72 51 73 47 74 48 75 50 76
REMARK SMILES IDX 52 77 49 78 33 79 34 80 39 81 35 82 36 83 38 84 40 85 37 86
REMARK H PARENT 3 6 7 29 57 48 31 59
REMARK Flexibility Score: inf
ROOT
ATOM      1  C   UNL     1       4.003   0.625  -2.892  1.00  0.00     0.042 C 
ENDROOT
BRANCH   1   2
ATOM      2  C   UNL     1       3.335   0.853  -1.540  1.00  0.00     0.118 C 
BRANCH   2   3
ATOM      3  N   UNL     1       2.389  -0.206  -1.175  1.00  0.00    -0.352 N 
ATOM      4  O   UNL     1       1.293  -1.633   0.204  1.00  0.00    -0.270 OA
ATOM      5  C   UNL     1       2.277  -0.943  -0.019  1.00  0.00     0.251 C 
ATOM      6  H   UNL     1       1.725  -0.424  -1.869  1.00  0.00     0.163 HD
BRANCH   5   7
ATOM      7  C   UNL     1       3.363  -0.817   0.969  1.00  0.00     0.067 C 
ATOM      8  C   UNL     1       4.555  -1.334   0.645  1.00  0.00     0.025 C 
ATOM      9  C   UNL     1       3.183   0.191   2.061  1.00  0.00     0.314 C 
ATOM     10  C   UNL     1       5.647  -0.369   0.828  1.00  0.00     0.021 A 
ATOM     11  O   UNL     1       4.224   1.198   2.068  1.00  0.00    -0.475 OA
ATOM     12  C   UNL     1       6.789  -0.535   0.036  1.00  0.00     0.058 A 
ATOM     13  C   UNL     1       5.390   0.882   1.415  1.00  0.00     0.128 A 
ATOM     14  C   UNL     1       7.601   0.561  -0.267  1.00  0.00     0.130 A 
ATOM     15  C   UNL     1       6.245   1.955   1.173  1.00  0.00     0.051 A 
ATOM     16  C   UNL     1       7.335   1.803   0.311  1.00  0.00     0.050 A 
BRANCH   9  17
ATOM     17  C   UNL     1       3.086  -0.499   3.432  1.00  0.00     0.429 C 
ATOM     18  F   UNL     1       2.793   0.396   4.407  1.00  0.00    -0.167 F 
ATOM     19  F   UNL     1       2.109  -1.436   3.457  1.00  0.00    -0.167 F 
ATOM     20  F   UNL     1       4.240  -1.111   3.784  1.00  0.00    -0.167 F 
ENDBRANCH   9  17
BRANCH  14  21
ATOM     21  O   UNL     1       8.613   0.307  -1.149  1.00  0.00    -0.406 OA
BRANCH  21  22
ATOM     22  C   UNL     1       8.868   1.327  -2.107  1.00  0.00     0.573 C 
ATOM     23  F   UNL     1       7.731   1.724  -2.717  1.00  0.00    -0.132 F 
ATOM     24  F   UNL     1       9.478   2.387  -1.538  1.00  0.00    -0.132 F 
ATOM     25  F   UNL     1       9.694   0.828  -3.054  1.00  0.00    -0.132 F 
ENDBRANCH  21  22
ENDBRANCH  14  21
ENDBRANCH   5   7
ENDBRANCH   2   3
ENDBRANCH   1   2
BRANCH   1  26
ATOM     26  C   UNL     1       3.801   1.794  -3.853  1.00  0.00     0.118 C 
BRANCH  26  27
ATOM     27  N   UNL     1       4.503   3.014  -3.466  1.00  0.00    -0.352 N 
ATOM     28  C   UNL     1       5.504   3.734  -4.093  1.00  0.00     0.251 C 
ATOM     29  H   UNL     1       4.213   3.392  -2.605  1.00  0.00     0.163 HD
ATOM     30  O   UNL     1       6.007   4.688  -3.526  1.00  0.00    -0.269 OA
BRANCH  28  31
ATOM     31  C   UNL     1       6.004   3.325  -5.430  1.00  0.00     0.039 A 
ATOM     32  C   UNL     1       7.380   3.362  -5.679  1.00  0.00     0.014 A 
ATOM     33  C   UNL     1       5.137   2.877  -6.423  1.00  0.00     0.014 A 
ATOM     34  C   UNL     1       7.889   2.815  -6.862  1.00  0.00     0.010 A 
ATOM     35  C   UNL     1       5.648   2.229  -7.541  1.00  0.00     0.010 A 
ATOM     36  C   UNL     1       7.032   2.168  -7.765  1.00  0.00    -0.014 A 
BRANCH  36  37
ATOM     37  C   UNL     1       7.533   1.393  -8.933  1.00  0.00     0.031 A 
ATOM     38  C   UNL     1       7.037   1.722 -10.316  1.00  0.00     0.074 A 
ATOM     39  C   UNL     1       8.323   0.317  -8.741  1.00  0.00     0.049 A 
ATOM     40  N   UNL     1       7.149   1.033 -11.423  1.00  0.00    -0.248 NA
ATOM     41  C   UNL     1       6.273   2.972 -10.462  1.00  0.00     0.031 C 
ATOM     42  C   UNL     1       8.846  -0.141  -7.451  1.00  0.00     0.029 A 
ATOM     43  N   UNL     1       8.807  -0.608  -9.635  1.00  0.00    -0.354 N 
ATOM     44  C   UNL     1       6.439   1.744 -12.382  1.00  0.00     0.074 A 
ATOM     45  C   UNL     1       5.859   2.891 -11.717  1.00  0.00     0.031 C 
ATOM     46  C   UNL     1       9.593  -1.240  -7.640  1.00  0.00     0.029 A 
ATOM     47  C   UNL     1       9.556  -1.603  -9.052  1.00  0.00     0.049 A 
ATOM     48  H   UNL     1       8.633  -0.562 -10.603  1.00  0.00     0.167 HD
ATOM     49  C   UNL     1       6.303   1.481 -13.703  1.00  0.00     0.037 A 
ATOM     50  C   UNL     1      10.127  -2.697  -9.589  1.00  0.00     0.037 A 
ATOM     51  C   UNL     1       6.927   0.373 -14.375  1.00  0.00     0.049 A 
ATOM     52  C   UNL     1       9.955  -2.970 -11.057  1.00  0.00     0.074 A 
ATOM     53  C   UNL     1       6.904   0.058 -15.722  1.00  0.00     0.029 A 
ATOM     54  N   UNL     1       7.701  -0.592 -13.750  1.00  0.00    -0.354 N 
ATOM     55  N   UNL     1       9.307  -2.271 -11.957  1.00  0.00    -0.248 NA
ATOM     56  C   UNL     1      10.584  -4.190 -11.583  1.00  0.00     0.031 C 
ATOM     57  C   UNL     1       7.645  -1.113 -15.909  1.00  0.00     0.029 A 
ATOM     58  C   UNL     1       8.152  -1.509 -14.682  1.00  0.00     0.049 A 
ATOM     59  H   UNL     1       7.899  -0.620 -12.786  1.00  0.00     0.167 HD
ATOM     60  C   UNL     1       9.469  -2.952 -13.156  1.00  0.00     0.074 A 
ATOM     61  C   UNL     1      10.287  -4.112 -12.873  1.00  0.00     0.031 C 
ATOM     62  C   UNL     1       8.979  -2.648 -14.381  1.00  0.00     0.037 A 
BRANCH  49  63
ATOM     63  C   UNL     1       5.464   2.424 -14.514  1.00  0.00     0.057 A 
ATOM     64  C   UNL     1       5.904   3.719 -14.819  1.00  0.00     0.134 A 
ATOM     65  C   UNL     1       4.223   2.025 -15.024  1.00  0.00     0.134 A 
ATOM     66  F   UNL     1       7.078   4.166 -14.350  1.00  0.00    -0.206 F 
ATOM     67  C   UNL     1       5.128   4.592 -15.582  1.00  0.00     0.040 A 
ATOM     68  C   UNL     1       3.449   2.881 -15.809  1.00  0.00     0.040 A 
ATOM     69  F   UNL     1       3.745   0.797 -14.773  1.00  0.00    -0.206 F 
ATOM     70  C   UNL     1       3.898   4.171 -16.085  1.00  0.00     0.006 A 
ENDBRANCH  49  63
BRANCH  50  71
ATOM     71  C   UNL     1      10.919  -3.625  -8.742  1.00  0.00     0.057 A 
ATOM     72  C   UNL     1      12.309  -3.713  -8.885  1.00  0.00     0.134 A 
ATOM     73  C   UNL     1      10.313  -4.464  -7.799  1.00  0.00     0.134 A 
ATOM     74  F   UNL     1      12.943  -2.951  -9.788  1.00  0.00    -0.206 F 
ATOM     75  C   UNL     1      13.066  -4.616  -8.138  1.00  0.00     0.040 A 
ATOM     76  C   UNL     1      11.061  -5.356  -7.028  1.00  0.00     0.040 A 
ATOM     77  F   UNL     1       8.986  -4.425  -7.611  1.00  0.00    -0.206 F 
ATOM     78  C   UNL     1      12.441  -5.440  -7.203  1.00  0.00     0.006 A 
ENDBRANCH  50  71
BRANCH  62  79
ATOM     79  C   UNL     1       9.340  -3.563 -15.511  1.00  0.00     0.057 A 
ATOM     80  C   UNL     1       8.729  -4.812 -15.666  1.00  0.00     0.134 A 
ATOM     81  C   UNL     1      10.267  -3.166 -16.482  1.00  0.00     0.134 A 
ATOM     82  F   UNL     1       7.843  -5.253 -14.759  1.00  0.00    -0.206 F 
ATOM     83  C   UNL     1       9.035  -5.642 -16.745  1.00  0.00     0.040 A 
ATOM     84  C   UNL     1      10.566  -3.977 -17.577  1.00  0.00     0.040 A 
ATOM     85  F   UNL     1      10.882  -1.977 -16.391  1.00  0.00    -0.206 F 
ATOM     86  C   UNL     1       9.950  -5.220 -17.709  1.00  0.00     0.006 A 
ENDBRANCH  62  79
ENDBRANCH  36  37
ENDBRANCH  28  31
ENDBRANCH  26  27
ENDBRANCH   1  26
TORSDOF 13
