REMARK SMILES Cc1nc(-c2ccc(S(=O)(=O)N3CC[NH2+][C@H](C(=O)NCCCNC(=O)c4ccc(-c5c6nc(c(-c7c(F)cccc7F)c7ccc([nH]7)c(-c7c(F)cccc7F)c7nc(c(-c8c(F)cccc8F)c8ccc5[nH]8)C=C7)C=C6)cc4)C3)s2)cs1
REMARK SMILES IDX 20 1 19 2 17 3 18 4 16 6 12 7 13 8 80 9 14 10 15 11 9 14
REMARK SMILES IDX 10 15 11 16 8 17 5 18 6 19 81 20 7 21 4 22 1 23 2 24 3 25
REMARK SMILES IDX 83 26 82 27 21 28 22 29 23 30 24 31 25 33 26 34 27 35 79 36
REMARK SMILES IDX 28 37 78 38 29 39 30 40 31 41 72 42 32 43 77 44 71 45 73 46
REMARK SMILES IDX 33 47 76 48 70 49 69 50 34 52 60 53 43 54 59 55 44 56 47 57
REMARK SMILES IDX 58 58 74 59 45 60 46 61 57 63 75 64 48 65 35 66 36 67 41 68
REMARK SMILES IDX 37 69 38 70 40 71 42 72 39 73 61 74 62 75 67 76 63 77 64 78
REMARK SMILES IDX 66 79 68 80 65 81 49 82 50 83 55 84 51 85 52 86 54 87 56 88
REMARK SMILES IDX 53 89
REMARK H PARENT 19 5 15 12 15 13 23 32 73 51 47 62
REMARK Flexibility Score: inf
ROOT
ATOM      1  C   UNL     1       7.338  -4.561  -3.203  1.00  0.00     0.118 C 
ENDROOT
BRANCH   1   2
ATOM      2  N   UNL     1       6.192  -4.895  -4.026  1.00  0.00    -0.351 N 
ATOM      3  C   UNL     1       5.155  -5.743  -3.782  1.00  0.00     0.279 C 
ATOM      4  O   UNL     1       4.630  -6.260  -4.775  1.00  0.00    -0.268 OA
ATOM      5  H   UNL     1       6.158  -4.438  -4.897  1.00  0.00     0.163 HD
BRANCH   3   6
ATOM      6  C   UNL     1       4.568  -5.947  -2.360  1.00  0.00     0.287 C 
ATOM      7  N   UNL     1       4.795  -6.527   0.015  1.00  0.00    -0.185 NA
ATOM      8  C   UNL     1       3.743  -7.558  -0.003  1.00  0.00     0.164 C 
ATOM      9  C   UNL     1       5.512  -6.463  -1.282  1.00  0.00     0.178 C 
ATOM     10  C   UNL     1       2.849  -7.460  -1.254  1.00  0.00     0.278 C 
ATOM     11  N   UNL     1       3.356  -6.821  -2.480  1.00  0.00    -0.334 N 
ATOM     12  H   UNL     1       2.603  -6.246  -2.859  1.00  0.00     0.347 HD
ATOM     13  H   UNL     1       3.656  -7.597  -3.070  1.00  0.00     0.347 HD
BRANCH   7  14
ATOM     14  S   UNL     1       4.610  -5.122   0.946  1.00  0.00     0.253 S 
ATOM     15  O   UNL     1       5.833  -4.357   0.781  1.00  0.00    -0.206 OA
ATOM     16  O   UNL     1       4.146  -5.535   2.250  1.00  0.00    -0.206 OA
BRANCH  14  17
ATOM     17  C   UNL     1       3.317  -4.029   0.355  1.00  0.00     0.135 A 
ATOM     18  C   UNL     1       1.840  -2.035   0.266  1.00  0.00     0.055 A 
ATOM     19  C   UNL     1       1.444  -3.015  -0.611  1.00  0.00     0.023 A 
ATOM     20  S   UNL     1       3.269  -2.462   1.090  1.00  0.00    -0.121 S 
ATOM     21  C   UNL     1       2.298  -4.141  -0.570  1.00  0.00     0.034 A 
BRANCH  18  22
ATOM     22  C   UNL     1       1.020  -0.797   0.431  1.00  0.00     0.091 A 
ATOM     23  C   UNL     1      -2.327   0.583   0.030  1.00  0.00     0.079 C 
ATOM     24  C   UNL     1      -0.884   0.326   0.281  1.00  0.00     0.090 A 
ATOM     25  N   UNL     1      -0.285  -0.797  -0.039  1.00  0.00    -0.241 NA
ATOM     26  S   UNL     1       0.120   1.500   1.031  1.00  0.00    -0.127 S 
ATOM     27  C   UNL     1       1.423   0.375   1.030  1.00  0.00     0.096 A 
ENDBRANCH  18  22
ENDBRANCH  14  17
ENDBRANCH   7  14
ENDBRANCH   3   6
ENDBRANCH   1   2
BRANCH   1  28
ATOM     28  C   UNL     1       8.355  -5.707  -3.244  1.00  0.00     0.042 C 
BRANCH  28  29
ATOM     29  C   UNL     1       9.017  -5.861  -4.614  1.00  0.00     0.118 C 
BRANCH  29  30
ATOM     30  N   UNL     1       9.978  -4.801  -4.870  1.00  0.00    -0.352 N 
ATOM     31  C   UNL     1      11.263  -4.894  -5.341  1.00  0.00     0.251 C 
ATOM     32  H   UNL     1       9.663  -3.889  -4.679  1.00  0.00     0.163 HD
ATOM     33  O   UNL     1      12.000  -3.913  -5.300  1.00  0.00    -0.269 OA
BRANCH  31  34
ATOM     34  C   UNL     1      11.769  -6.172  -5.886  1.00  0.00     0.039 A 
ATOM     35  C   UNL     1      13.056  -6.587  -5.532  1.00  0.00     0.014 A 
ATOM     36  C   UNL     1      11.005  -6.932  -6.776  1.00  0.00     0.014 A 
ATOM     37  C   UNL     1      13.565  -7.782  -6.043  1.00  0.00     0.010 A 
ATOM     38  C   UNL     1      11.492  -8.152  -7.242  1.00  0.00     0.010 A 
ATOM     39  C   UNL     1      12.780  -8.583  -6.888  1.00  0.00    -0.014 A 
BRANCH  39  40
ATOM     40  C   UNL     1      13.299  -9.866  -7.422  1.00  0.00     0.031 A 
ATOM     41  C   UNL     1      13.563 -10.023  -8.894  1.00  0.00     0.074 A 
ATOM     42  C   UNL     1      13.482 -10.907  -6.588  1.00  0.00     0.049 A 
ATOM     43  N   UNL     1      13.968 -11.078  -9.554  1.00  0.00    -0.248 NA
ATOM     44  C   UNL     1      13.315  -8.844  -9.738  1.00  0.00     0.031 C 
ATOM     45  C   UNL     1      13.225 -10.892  -5.147  1.00  0.00     0.029 A 
ATOM     46  N   UNL     1      13.921 -12.183  -6.834  1.00  0.00    -0.354 N 
ATOM     47  C   UNL     1      13.999 -10.699 -10.890  1.00  0.00     0.074 A 
ATOM     48  C   UNL     1      13.536  -9.329 -10.951  1.00  0.00     0.031 C 
ATOM     49  C   UNL     1      13.535 -12.092  -4.633  1.00  0.00     0.029 A 
ATOM     50  C   UNL     1      13.982 -12.970  -5.711  1.00  0.00     0.049 A 
ATOM     51  H   UNL     1      14.168 -12.504  -7.731  1.00  0.00     0.167 HD
ATOM     52  C   UNL     1      14.395 -11.421 -11.965  1.00  0.00     0.037 A 
ATOM     53  C   UNL     1      14.356 -14.255  -5.567  1.00  0.00     0.037 A 
ATOM     54  C   UNL     1      14.892 -12.770 -11.896  1.00  0.00     0.049 A 
ATOM     55  C   UNL     1      14.799 -15.031  -6.774  1.00  0.00     0.074 A 
ATOM     56  C   UNL     1      15.394 -13.558 -12.916  1.00  0.00     0.029 A 
ATOM     57  N   UNL     1      14.947 -13.530 -10.738  1.00  0.00    -0.354 N 
ATOM     58  N   UNL     1      14.891 -14.639  -8.021  1.00  0.00    -0.248 NA
ATOM     59  C   UNL     1      15.194 -16.430  -6.553  1.00  0.00     0.031 C 
ATOM     60  C   UNL     1      15.719 -14.810 -12.382  1.00  0.00     0.029 A 
ATOM     61  C   UNL     1      15.454 -14.788 -11.022  1.00  0.00     0.049 A 
ATOM     62  H   UNL     1      14.668 -13.222  -9.846  1.00  0.00     0.167 HD
ATOM     63  C   UNL     1      15.379 -15.729  -8.728  1.00  0.00     0.074 A 
ATOM     64  C   UNL     1      15.573 -16.797  -7.769  1.00  0.00     0.031 C 
ATOM     65  C   UNL     1      15.645 -15.836 -10.053  1.00  0.00     0.037 A 
BRANCH  52  66
ATOM     66  C   UNL     1      14.302 -10.763 -13.311  1.00  0.00     0.057 A 
ATOM     67  C   UNL     1      15.168  -9.729 -13.691  1.00  0.00     0.134 A 
ATOM     68  C   UNL     1      13.349 -11.183 -14.247  1.00  0.00     0.134 A 
ATOM     69  F   UNL     1      16.096  -9.271 -12.837  1.00  0.00    -0.206 F 
ATOM     70  C   UNL     1      15.070  -9.117 -14.943  1.00  0.00     0.040 A 
ATOM     71  C   UNL     1      13.258 -10.597 -15.510  1.00  0.00     0.040 A 
ATOM     72  F   UNL     1      12.493 -12.172 -13.950  1.00  0.00    -0.206 F 
ATOM     73  C   UNL     1      14.116  -9.555 -15.858  1.00  0.00     0.006 A 
ENDBRANCH  52  66
BRANCH  53  74
ATOM     74  C   UNL     1      14.366 -14.877  -4.221  1.00  0.00     0.057 A 
ATOM     75  C   UNL     1      15.573 -15.158  -3.571  1.00  0.00     0.134 A 
ATOM     76  C   UNL     1      13.180 -15.203  -3.552  1.00  0.00     0.134 A 
ATOM     77  F   UNL     1      16.741 -14.884  -4.170  1.00  0.00    -0.206 F 
ATOM     78  C   UNL     1      15.602 -15.753  -2.309  1.00  0.00     0.040 A 
ATOM     79  C   UNL     1      13.194 -15.779  -2.281  1.00  0.00     0.040 A 
ATOM     80  F   UNL     1      11.991 -14.952  -4.120  1.00  0.00    -0.206 F 
ATOM     81  C   UNL     1      14.409 -16.061  -1.659  1.00  0.00     0.006 A 
ENDBRANCH  53  74
BRANCH  65  82
ATOM     82  C   UNL     1      16.204 -17.142 -10.533  1.00  0.00     0.057 A 
ATOM     83  C   UNL     1      15.407 -18.287 -10.649  1.00  0.00     0.134 A 
ATOM     84  C   UNL     1      17.549 -17.246 -10.912  1.00  0.00     0.134 A 
ATOM     85  F   UNL     1      14.115 -18.256 -10.288  1.00  0.00    -0.206 F 
ATOM     86  C   UNL     1      15.932 -19.496 -11.107  1.00  0.00     0.040 A 
ATOM     87  C   UNL     1      18.080 -18.443 -11.392  1.00  0.00     0.040 A 
ATOM     88  F   UNL     1      18.363 -16.183 -10.829  1.00  0.00    -0.206 F 
ATOM     89  C   UNL     1      17.272 -19.574 -11.486  1.00  0.00     0.006 A 
ENDBRANCH  65  82
ENDBRANCH  39  40
ENDBRANCH  31  34
ENDBRANCH  29  30
ENDBRANCH  28  29
ENDBRANCH   1  28
TORSDOF 13
