REMARK SMILES N#Cc1ccc(C(=O)N2CCC[C@H]2C(=O)NCCCNC(=O)c2ccc(-c3c4nc(c(-c5c(F)cccc5F)c5ccc([nH]5)c(-c5c(F)cccc5F)c5nc(c(-c6c(F)cccc6F)c6ccc3[nH]6)C=C5)C=C4)cc2)cc1
REMARK SMILES IDX 17 1 16 2 14 3 15 4 13 6 9 7 10 8 11 9 12 10 7 11 8 12 6 13
REMARK SMILES IDX 3 14 4 15 78 16 5 17 77 18 2 19 1 20 18 21 19 22 20 23 21 24
REMARK SMILES IDX 22 26 23 27 24 28 76 29 25 30 75 31 26 32 27 33 28 34 69 35
REMARK SMILES IDX 29 36 74 37 68 38 70 39 30 40 73 41 67 42 66 43 31 45 57 46
REMARK SMILES IDX 40 47 56 48 41 49 44 50 55 51 71 52 42 53 43 54 54 56 72 57
REMARK SMILES IDX 45 58 32 59 33 60 38 61 34 62 35 63 37 64 39 65 36 66 58 67
REMARK SMILES IDX 59 68 64 69 60 70 61 71 63 72 65 73 62 74 46 75 47 76 52 77
REMARK SMILES IDX 48 78 49 79 51 80 53 81 50 82
REMARK H PARENT 16 5 20 25 70 44 44 55
REMARK Flexibility Score: inf
ROOT
ATOM      1  C   UNL     1       6.115   1.351   2.086  1.00  0.00     0.117 C 
ENDROOT
BRANCH   1   2
ATOM      2  N   UNL     1       7.077   0.407   1.547  1.00  0.00    -0.354 N 
ATOM      3  C   UNL     1       6.854  -0.829   1.007  1.00  0.00     0.242 C 
ATOM      4  O   UNL     1       7.767  -1.331   0.346  1.00  0.00    -0.273 OA
ATOM      5  H   UNL     1       8.018   0.696   1.574  1.00  0.00     0.163 HD
BRANCH   3   6
ATOM      6  C   UNL     1       5.493  -1.535   1.214  1.00  0.00     0.174 C 
ATOM      7  N   UNL     1       4.524  -1.325   0.133  1.00  0.00    -0.327 N 
ATOM      8  C   UNL     1       4.536  -2.442  -0.784  1.00  0.00     0.121 C 
ATOM      9  C   UNL     1       4.749  -3.620   0.143  1.00  0.00     0.024 C 
ATOM     10  C   UNL     1       5.693  -3.072   1.218  1.00  0.00     0.037 C 
BRANCH   7  11
ATOM     11  C   UNL     1       3.840  -0.147  -0.057  1.00  0.00     0.254 C 
ATOM     12  O   UNL     1       4.403   0.943  -0.072  1.00  0.00    -0.269 OA
BRANCH  11  13
ATOM     13  C   UNL     1       2.343  -0.169  -0.102  1.00  0.00     0.040 A 
ATOM     14  C   UNL     1      -0.473  -0.030  -0.049  1.00  0.00     0.052 A 
ATOM     15  C   UNL     1       0.282   1.140  -0.140  1.00  0.00     0.020 A 
ATOM     16  C   UNL     1       0.176  -1.265   0.037  1.00  0.00     0.020 A 
ATOM     17  C   UNL     1       1.679   1.068  -0.171  1.00  0.00     0.015 A 
ATOM     18  C   UNL     1       1.575  -1.332   0.033  1.00  0.00     0.015 A 
BRANCH  14  19
ATOM     19  C   UNL     1      -1.907   0.035  -0.030  1.00  0.00     0.099 C 
ATOM     20  N   UNL     1      -3.064   0.080  -0.013  1.00  0.00    -0.192 NA
ENDBRANCH  14  19
ENDBRANCH  11  13
ENDBRANCH   7  11
ENDBRANCH   3   6
ENDBRANCH   1   2
BRANCH   1  21
ATOM     21  C   UNL     1       6.488   1.892   3.452  1.00  0.00     0.042 C 
BRANCH  21  22
ATOM     22  C   UNL     1       7.846   2.570   3.516  1.00  0.00     0.118 C 
BRANCH  22  23
ATOM     23  N   UNL     1       7.945   3.764   2.689  1.00  0.00    -0.352 N 
ATOM     24  C   UNL     1       8.307   5.046   3.027  1.00  0.00     0.251 C 
ATOM     25  H   UNL     1       7.718   3.633   1.740  1.00  0.00     0.163 HD
ATOM     26  O   UNL     1       8.213   5.946   2.197  1.00  0.00    -0.269 OA
BRANCH  24  27
ATOM     27  C   UNL     1       8.773   5.360   4.397  1.00  0.00     0.039 A 
ATOM     28  C   UNL     1       8.342   6.546   4.997  1.00  0.00     0.014 A 
ATOM     29  C   UNL     1       9.624   4.500   5.095  1.00  0.00     0.014 A 
ATOM     30  C   UNL     1       8.708   6.830   6.314  1.00  0.00     0.010 A 
ATOM     31  C   UNL     1       9.893   4.728   6.441  1.00  0.00     0.010 A 
ATOM     32  C   UNL     1       9.451   5.903   7.064  1.00  0.00    -0.014 A 
BRANCH  32  33
ATOM     33  C   UNL     1       9.771   6.155   8.493  1.00  0.00     0.031 A 
ATOM     34  C   UNL     1      11.200   6.254   8.953  1.00  0.00     0.074 A 
ATOM     35  C   UNL     1       8.771   6.257   9.391  1.00  0.00     0.049 A 
ATOM     36  N   UNL     1      11.669   6.485  10.155  1.00  0.00    -0.248 NA
ATOM     37  C   UNL     1      12.242   6.038   7.937  1.00  0.00     0.031 C 
ATOM     38  C   UNL     1       7.345   6.127   9.085  1.00  0.00     0.029 A 
ATOM     39  N   UNL     1       8.800   6.500  10.741  1.00  0.00    -0.354 N 
ATOM     40  C   UNL     1      13.052   6.432  10.038  1.00  0.00     0.074 A 
ATOM     41  C   UNL     1      13.345   6.074   8.668  1.00  0.00     0.031 C 
ATOM     42  C   UNL     1       6.635   6.346  10.203  1.00  0.00     0.029 A 
ATOM     43  C   UNL     1       7.553   6.582  11.312  1.00  0.00     0.049 A 
ATOM     44  H   UNL     1       9.635   6.604  11.252  1.00  0.00     0.167 HD
ATOM     45  C   UNL     1      13.995   6.684  10.978  1.00  0.00     0.037 A 
ATOM     46  C   UNL     1       7.188   6.825  12.585  1.00  0.00     0.037 A 
ATOM     47  C   UNL     1      13.698   7.039  12.341  1.00  0.00     0.049 A 
ATOM     48  C   UNL     1       8.251   7.067  13.621  1.00  0.00     0.074 A 
ATOM     49  C   UNL     1      14.578   7.371  13.357  1.00  0.00     0.029 A 
ATOM     50  N   UNL     1      12.423   7.088  12.887  1.00  0.00    -0.354 N 
ATOM     51  N   UNL     1       9.554   7.100  13.479  1.00  0.00    -0.248 NA
ATOM     52  C   UNL     1       7.790   7.310  14.995  1.00  0.00     0.031 C 
ATOM     53  C   UNL     1      13.842   7.544  14.533  1.00  0.00     0.029 A 
ATOM     54  C   UNL     1      12.496   7.403  14.235  1.00  0.00     0.049 A 
ATOM     55  H   UNL     1      11.589   6.924  12.389  1.00  0.00     0.167 HD
ATOM     56  C   UNL     1      10.067   7.402  14.735  1.00  0.00     0.074 A 
ATOM     57  C   UNL     1       8.932   7.553  15.622  1.00  0.00     0.031 C 
ATOM     58  C   UNL     1      11.361   7.548  15.114  1.00  0.00     0.037 A 
BRANCH  45  59
ATOM     59  C   UNL     1      15.436   6.558  10.559  1.00  0.00     0.057 A 
ATOM     60  C   UNL     1      16.017   7.413   9.611  1.00  0.00     0.134 A 
ATOM     61  C   UNL     1      16.255   5.564  11.111  1.00  0.00     0.134 A 
ATOM     62  F   UNL     1      15.292   8.385   9.036  1.00  0.00    -0.206 F 
ATOM     63  C   UNL     1      17.338   7.250   9.189  1.00  0.00     0.040 A 
ATOM     64  C   UNL     1      17.588   5.416  10.726  1.00  0.00     0.040 A 
ATOM     65  F   UNL     1      15.773   4.717  12.033  1.00  0.00    -0.206 F 
ATOM     66  C   UNL     1      18.129   6.251   9.750  1.00  0.00     0.006 A 
ENDBRANCH  45  59
BRANCH  46  67
ATOM     67  C   UNL     1       5.747   6.894  12.939  1.00  0.00     0.057 A 
ATOM     68  C   UNL     1       5.152   8.108  13.303  1.00  0.00     0.134 A 
ATOM     69  C   UNL     1       4.927   5.760  12.908  1.00  0.00     0.134 A 
ATOM     70  F   UNL     1       5.888   9.227  13.368  1.00  0.00    -0.206 F 
ATOM     71  C   UNL     1       3.800   8.190  13.636  1.00  0.00     0.040 A 
ATOM     72  C   UNL     1       3.567   5.832  13.210  1.00  0.00     0.040 A 
ATOM     73  F   UNL     1       5.433   4.567  12.559  1.00  0.00    -0.206 F 
ATOM     74  C   UNL     1       3.001   7.050  13.581  1.00  0.00     0.006 A 
ENDBRANCH  46  67
BRANCH  58  75
ATOM     75  C   UNL     1      11.624   7.929  16.544  1.00  0.00     0.057 A 
ATOM     76  C   UNL     1      11.383   7.052  17.610  1.00  0.00     0.134 A 
ATOM     77  C   UNL     1      12.165   9.185  16.855  1.00  0.00     0.134 A 
ATOM     78  F   UNL     1      10.856   5.838  17.386  1.00  0.00    -0.206 F 
ATOM     79  C   UNL     1      11.643   7.419  18.932  1.00  0.00     0.040 A 
ATOM     80  C   UNL     1      12.462   9.549  18.169  1.00  0.00     0.040 A 
ATOM     81  F   UNL     1      12.431  10.072  15.885  1.00  0.00    -0.206 F 
ATOM     82  C   UNL     1      12.192   8.668  19.213  1.00  0.00     0.006 A 
ENDBRANCH  58  75
ENDBRANCH  32  33
ENDBRANCH  24  27
ENDBRANCH  22  23
ENDBRANCH  21  22
ENDBRANCH   1  21
TORSDOF 13
