REMARK SMILES [NH3+]CCC1=c2cc([N+](=O)[O-])ccc2=N[C@H]1C(=O)NCCCNC(=O)c1ccc(-c2c3nc(c(-c4c(F)cccc4F)c4ccc([nH]4)c(-c4c(F)cccc4F)c4nc(c(-c5c(F)cccc5F)c5ccc2[nH]5)C=C4)C=C3)cc1
REMARK SMILES IDX 19 1 18 2 16 3 17 4 15 6 4 7 5 8 6 9 13 10 14 11 7 12 12 13
REMARK SMILES IDX 11 14 3 15 2 16 1 17 8 21 9 22 10 23 20 24 21 25 22 26 23 27
REMARK SMILES IDX 24 29 25 30 26 31 78 32 27 33 77 34 28 35 29 36 30 37 71 38
REMARK SMILES IDX 31 39 76 40 70 41 72 42 32 43 75 44 69 45 68 46 33 48 59 49
REMARK SMILES IDX 42 50 58 51 43 52 46 53 57 54 73 55 44 56 45 57 56 59 74 60
REMARK SMILES IDX 47 61 34 62 35 63 40 64 36 65 37 66 39 67 41 68 38 69 60 70
REMARK SMILES IDX 61 71 66 72 62 73 63 74 65 75 67 76 64 77 48 78 49 79 54 80
REMARK SMILES IDX 50 81 51 82 53 83 55 84 52 85
REMARK H PARENT 18 5 1 18 1 19 1 20 22 28 72 47 46 58
REMARK Flexibility Score: inf
ROOT
ATOM      1  C   UNL     1       0.927   2.105   2.368  1.00  0.00     0.117 C 
ENDROOT
BRANCH   1   2
ATOM      2  N   UNL     1       1.941   1.070   2.452  1.00  0.00    -0.354 N 
ATOM      3  C   UNL     1       1.800  -0.275   2.656  1.00  0.00     0.249 C 
ATOM      4  O   UNL     1       2.828  -0.935   2.830  1.00  0.00    -0.272 OA
ATOM      5  H   UNL     1       2.869   1.382   2.348  1.00  0.00     0.163 HD
BRANCH   3   6
ATOM      6  C   UNL     1       0.394  -0.908   2.599  1.00  0.00     0.222 C 
ATOM      7  C   UNL     1       0.428  -2.270   1.960  1.00  0.00    -0.021 C 
ATOM      8  C   UNL     1       0.015  -3.191   2.830  1.00  0.00     0.009 A 
ATOM      9  C   UNL     1      -0.148  -4.611   2.791  1.00  0.00     0.096 A 
ATOM     10  C   UNL     1      -0.271  -2.404   4.045  1.00  0.00     0.067 A 
ATOM     11  N   UNL     1      -0.093  -1.120   3.995  1.00  0.00    -0.267 NA
ATOM     12  C   UNL     1      -0.587  -5.233   3.902  1.00  0.00     0.270 A 
ATOM     13  C   UNL     1      -0.746  -3.163   5.223  1.00  0.00     0.035 A 
ATOM     14  C   UNL     1      -0.887  -4.498   5.128  1.00  0.00     0.088 A 
BRANCH   7  15
ATOM     15  C   UNL     1       0.914  -2.479   0.554  1.00  0.00     0.096 C 
BRANCH  15  16
ATOM     16  C   UNL     1       0.322  -1.541  -0.513  1.00  0.00     0.263 C 
BRANCH  16  17
ATOM     17  N   UNL     1       0.953  -0.225  -0.576  1.00  0.00    -0.357 N 
ATOM     18  H   UNL     1       0.506   0.333  -1.304  1.00  0.00     0.344 HD
ATOM     19  H   UNL     1       1.945  -0.333  -0.791  1.00  0.00     0.344 HD
ATOM     20  H   UNL     1       0.850   0.245   0.323  1.00  0.00     0.344 HD
ENDBRANCH  16  17
ENDBRANCH  15  16
ENDBRANCH   7  15
BRANCH  12  21
ATOM     21  N   UNL     1      -0.760  -6.691   3.842  1.00  0.00     0.062 N 
ATOM     22  O   UNL     1      -0.504  -7.273   2.778  1.00  0.00    -0.258 OA
ATOM     23  O   UNL     1      -1.164  -7.255   4.869  1.00  0.00    -0.258 OA
ENDBRANCH  12  21
ENDBRANCH   3   6
ENDBRANCH   1   2
BRANCH   1  24
ATOM     24  C   UNL     1       0.909   2.985   3.608  1.00  0.00     0.042 C 
BRANCH  24  25
ATOM     25  C   UNL     1       2.208   3.743   3.854  1.00  0.00     0.118 C 
BRANCH  25  26
ATOM     26  N   UNL     1       2.527   4.704   2.805  1.00  0.00    -0.352 N 
ATOM     27  C   UNL     1       2.823   6.045   2.895  1.00  0.00     0.251 C 
ATOM     28  H   UNL     1       2.533   4.337   1.891  1.00  0.00     0.163 HD
ATOM     29  O   UNL     1       2.944   6.714   1.873  1.00  0.00    -0.269 OA
BRANCH  27  30
ATOM     30  C   UNL     1       2.953   6.691   4.219  1.00  0.00     0.039 A 
ATOM     31  C   UNL     1       3.637   6.062   5.259  1.00  0.00     0.014 A 
ATOM     32  C   UNL     1       2.360   7.940   4.427  1.00  0.00     0.014 A 
ATOM     33  C   UNL     1       3.558   6.581   6.546  1.00  0.00     0.010 A 
ATOM     34  C   UNL     1       2.367   8.510   5.704  1.00  0.00     0.010 A 
ATOM     35  C   UNL     1       2.913   7.805   6.787  1.00  0.00    -0.014 A 
BRANCH  35  36
ATOM     36  C   UNL     1       2.808   8.305   8.184  1.00  0.00     0.031 A 
ATOM     37  C   UNL     1       1.468   8.433   8.860  1.00  0.00     0.074 A 
ATOM     38  C   UNL     1       3.934   8.564   8.875  1.00  0.00     0.049 A 
ATOM     39  N   UNL     1       1.195   8.765  10.098  1.00  0.00    -0.248 NA
ATOM     40  C   UNL     1       0.278   8.159   8.040  1.00  0.00     0.031 C 
ATOM     41  C   UNL     1       5.293   8.467   8.339  1.00  0.00     0.029 A 
ATOM     42  N   UNL     1       4.117   8.917  10.187  1.00  0.00    -0.354 N 
ATOM     43  C   UNL     1      -0.191   8.754  10.200  1.00  0.00     0.074 A 
ATOM     44  C   UNL     1      -0.705   8.421   8.889  1.00  0.00     0.031 C 
ATOM     45  C   UNL     1       6.171   8.677   9.331  1.00  0.00     0.029 A 
ATOM     46  C   UNL     1       5.439   8.980  10.555  1.00  0.00     0.049 A 
ATOM     47  H   UNL     1       3.375   9.108  10.804  1.00  0.00     0.167 HD
ATOM     48  C   UNL     1      -0.967   8.985  11.288  1.00  0.00     0.037 A 
ATOM     49  C   UNL     1       5.999   9.247  11.748  1.00  0.00     0.037 A 
ATOM     50  C   UNL     1      -0.460   9.305  12.598  1.00  0.00     0.049 A 
ATOM     51  C   UNL     1       5.116   9.553  12.922  1.00  0.00     0.074 A 
ATOM     52  C   UNL     1      -1.164   9.534  13.768  1.00  0.00     0.029 A 
ATOM     53  N   UNL     1       0.885   9.446  12.909  1.00  0.00    -0.354 N 
ATOM     54  N   UNL     1       3.809   9.522  13.007  1.00  0.00    -0.248 NA
ATOM     55  C   UNL     1       5.794   9.945  14.165  1.00  0.00     0.031 C 
ATOM     56  C   UNL     1      -0.247   9.852  14.778  1.00  0.00     0.029 A 
ATOM     57  C   UNL     1       1.030   9.782  14.246  1.00  0.00     0.049 A 
ATOM     58  H   UNL     1       1.627   9.325  12.274  1.00  0.00     0.167 HD
ATOM     59  C   UNL     1       3.507   9.874  14.315  1.00  0.00     0.074 A 
ATOM     60  C   UNL     1       4.769  10.091  14.992  1.00  0.00     0.031 C 
ATOM     61  C   UNL     1       2.292  10.007  14.903  1.00  0.00     0.037 A 
BRANCH  48  62
ATOM     62  C   UNL     1      -2.455   8.918  11.091  1.00  0.00     0.057 A 
ATOM     63  C   UNL     1      -3.232  10.084  11.115  1.00  0.00     0.134 A 
ATOM     64  C   UNL     1      -3.120   7.704  10.871  1.00  0.00     0.134 A 
ATOM     65  F   UNL     1      -2.660  11.279  11.326  1.00  0.00    -0.206 F 
ATOM     66  C   UNL     1      -4.613  10.045  10.917  1.00  0.00     0.040 A 
ATOM     67  C   UNL     1      -4.498   7.656  10.647  1.00  0.00     0.040 A 
ATOM     68  F   UNL     1      -2.434   6.552  10.821  1.00  0.00    -0.206 F 
ATOM     69  C   UNL     1      -5.249   8.830  10.672  1.00  0.00     0.006 A 
ENDBRANCH  48  62
BRANCH  49  70
ATOM     70  C   UNL     1       7.474   9.219  11.900  1.00  0.00     0.057 A 
ATOM     71  C   UNL     1       8.291  10.192  11.315  1.00  0.00     0.134 A 
ATOM     72  C   UNL     1       8.098   8.213  12.648  1.00  0.00     0.134 A 
ATOM     73  F   UNL     1       7.752  11.179  10.584  1.00  0.00    -0.206 F 
ATOM     74  C   UNL     1       9.678  10.162  11.458  1.00  0.00     0.040 A 
ATOM     75  C   UNL     1       9.482   8.184  12.820  1.00  0.00     0.040 A 
ATOM     76  F   UNL     1       7.364   7.265  13.249  1.00  0.00    -0.206 F 
ATOM     77  C   UNL     1      10.277   9.159  12.219  1.00  0.00     0.006 A 
ENDBRANCH  49  70
BRANCH  61  78
ATOM     78  C   UNL     1       2.288  10.387  16.354  1.00  0.00     0.057 A 
ATOM     79  C   UNL     1       1.958   9.448  17.339  1.00  0.00     0.134 A 
ATOM     80  C   UNL     1       2.631  11.678  16.779  1.00  0.00     0.134 A 
ATOM     81  F   UNL     1       1.616   8.196  16.999  1.00  0.00    -0.206 F 
ATOM     82  C   UNL     1       1.978   9.776  18.695  1.00  0.00     0.040 A 
ATOM     83  C   UNL     1       2.680  12.011  18.134  1.00  0.00     0.040 A 
ATOM     84  F   UNL     1       2.977  12.618  15.886  1.00  0.00    -0.206 F 
ATOM     85  C   UNL     1       2.350  11.058  19.096  1.00  0.00     0.006 A 
ENDBRANCH  61  78
ENDBRANCH  35  36
ENDBRANCH  27  30
ENDBRANCH  25  26
ENDBRANCH  24  25
ENDBRANCH   1  24
TORSDOF 14
