REMARK SMILES O=C(NCCCNC(=O)c1ccc(N2C(=O)/C(=C\C3=Cc4ccccc4OC3)SC2=S)cc1)c1ccc(-c2c3nc(c(-c4c(F)cccc4F)c4ccc([nH]4)c(-c4c(F)cccc4F)c4nc(c(-c5c(F)cccc5F)c5ccc2[nH]5)C=C4)C=C3)cc1
REMARK SMILES IDX 5 1 4 2 3 3 1 4 2 5 34 7 35 8 87 9 36 10 86 11 37 12 38 13
REMARK SMILES IDX 39 14 80 15 40 16 85 17 79 18 81 19 41 20 84 21 78 22 77 23
REMARK SMILES IDX 42 25 68 26 51 27 67 28 52 29 55 30 66 31 82 32 53 33 54 34
REMARK SMILES IDX 65 36 83 37 56 38 43 39 44 40 49 41 45 42 46 43 48 44 50 45
REMARK SMILES IDX 47 46 69 47 70 48 75 49 71 50 72 51 74 52 76 53 73 54 57 55
REMARK SMILES IDX 58 56 63 57 59 58 60 59 62 60 64 61 61 62 6 63 7 64 8 65
REMARK SMILES IDX 9 67 10 68 11 69 33 70 12 71 32 72 13 73 14 74 15 75 30 76
REMARK SMILES IDX 16 77 17 78 29 79 31 80 18 81 19 82 20 83 28 84 21 85 27 86
REMARK SMILES IDX 22 87 26 88 23 89 25 90 24 91
REMARK H PARENT 3 6 81 24 55 35 7 66
REMARK Flexibility Score: inf
ROOT
ATOM      1  C   UNL     1       4.958  -2.629   0.525  1.00  0.00     0.042 C 
ENDROOT
BRANCH   1   2
ATOM      2  C   UNL     1       4.610  -1.402  -0.310  1.00  0.00     0.118 C 
BRANCH   2   3
ATOM      3  N   UNL     1       3.182  -1.125  -0.373  1.00  0.00    -0.352 N 
ATOM      4  O   UNL     1       1.236  -0.056  -0.023  1.00  0.00    -0.269 OA
ATOM      5  C   UNL     1       2.463  -0.019   0.017  1.00  0.00     0.251 C 
ATOM      6  H   UNL     1       2.640  -1.851  -0.759  1.00  0.00     0.163 HD
BRANCH   5   7
ATOM      7  C   UNL     1       3.139   1.201   0.519  1.00  0.00     0.039 A 
ATOM      8  C   UNL     1       4.296   1.701  -0.080  1.00  0.00     0.014 A 
ATOM      9  C   UNL     1       2.577   1.882   1.606  1.00  0.00     0.014 A 
ATOM     10  C   UNL     1       4.979   2.766   0.504  1.00  0.00     0.010 A 
ATOM     11  C   UNL     1       3.218   3.005   2.140  1.00  0.00     0.010 A 
ATOM     12  C   UNL     1       4.452   3.428   1.625  1.00  0.00    -0.014 A 
BRANCH  12  13
ATOM     13  C   UNL     1       5.202   4.559   2.231  1.00  0.00     0.031 A 
ATOM     14  C   UNL     1       5.765   4.459   3.624  1.00  0.00     0.074 A 
ATOM     15  C   UNL     1       5.413   5.675   1.506  1.00  0.00     0.049 A 
ATOM     16  N   UNL     1       6.489   5.327   4.287  1.00  0.00    -0.248 NA
ATOM     17  C   UNL     1       5.471   3.229   4.375  1.00  0.00     0.031 C 
ATOM     18  C   UNL     1       4.911   5.906   0.150  1.00  0.00     0.029 A 
ATOM     19  N   UNL     1       6.122   6.813   1.797  1.00  0.00    -0.354 N 
ATOM     20  C   UNL     1       6.716   4.761   5.535  1.00  0.00     0.074 A 
ATOM     21  C   UNL     1       6.031   3.486   5.548  1.00  0.00     0.031 C 
ATOM     22  C   UNL     1       5.371   7.086  -0.292  1.00  0.00     0.029 A 
ATOM     23  C   UNL     1       6.159   7.715   0.762  1.00  0.00     0.049 A 
ATOM     24  H   UNL     1       6.562   6.968   2.664  1.00  0.00     0.167 HD
ATOM     25  C   UNL     1       7.436   5.253   6.573  1.00  0.00     0.037 A 
ATOM     26  C   UNL     1       6.761   8.915   0.669  1.00  0.00     0.037 A 
ATOM     27  C   UNL     1       8.141   6.509   6.554  1.00  0.00     0.049 A 
ATOM     28  C   UNL     1       7.550   9.438   1.834  1.00  0.00     0.074 A 
ATOM     29  C   UNL     1       8.938   7.066   7.540  1.00  0.00     0.029 A 
ATOM     30  N   UNL     1       8.132   7.405   5.496  1.00  0.00    -0.354 N 
ATOM     31  N   UNL     1       7.791   8.871   2.990  1.00  0.00    -0.248 NA
ATOM     32  C   UNL     1       8.151  10.771   1.678  1.00  0.00     0.031 C 
ATOM     33  C   UNL     1       9.380   8.317   7.093  1.00  0.00     0.029 A 
ATOM     34  C   UNL     1       8.892   8.519   5.813  1.00  0.00     0.049 A 
ATOM     35  H   UNL     1       7.655   7.269   4.645  1.00  0.00     0.167 HD
ATOM     36  C   UNL     1       8.589   9.764   3.692  1.00  0.00     0.074 A 
ATOM     37  C   UNL     1       8.801  10.906   2.826  1.00  0.00     0.031 C 
ATOM     38  C   UNL     1       9.101   9.647   4.941  1.00  0.00     0.037 A 
BRANCH  25  39
ATOM     39  C   UNL     1       7.484   4.434   7.830  1.00  0.00     0.057 A 
ATOM     40  C   UNL     1       8.228   3.250   7.917  1.00  0.00     0.134 A 
ATOM     41  C   UNL     1       6.801   4.853   8.979  1.00  0.00     0.134 A 
ATOM     42  F   UNL     1       8.895   2.787   6.849  1.00  0.00    -0.206 F 
ATOM     43  C   UNL     1       8.271   2.499   9.094  1.00  0.00     0.040 A 
ATOM     44  C   UNL     1       6.855   4.123  10.168  1.00  0.00     0.040 A 
ATOM     45  F   UNL     1       6.076   5.982   8.967  1.00  0.00    -0.206 F 
ATOM     46  C   UNL     1       7.587   2.939  10.226  1.00  0.00     0.006 A 
ENDBRANCH  25  39
BRANCH  26  47
ATOM     47  C   UNL     1       6.660   9.691  -0.590  1.00  0.00     0.057 A 
ATOM     48  C   UNL     1       7.764   9.835  -1.437  1.00  0.00     0.134 A 
ATOM     49  C   UNL     1       5.458  10.290  -0.984  1.00  0.00     0.134 A 
ATOM     50  F   UNL     1       8.946   9.298  -1.102  1.00  0.00    -0.206 F 
ATOM     51  C   UNL     1       7.680  10.556  -2.629  1.00  0.00     0.040 A 
ATOM     52  C   UNL     1       5.353  10.994  -2.184  1.00  0.00     0.040 A 
ATOM     53  F   UNL     1       4.364  10.182  -0.217  1.00  0.00    -0.206 F 
ATOM     54  C   UNL     1       6.469  11.131  -3.009  1.00  0.00     0.006 A 
ENDBRANCH  26  47
BRANCH  38  55
ATOM     55  C   UNL     1       9.969  10.767   5.430  1.00  0.00     0.057 A 
ATOM     56  C   UNL     1       9.435  12.003   5.813  1.00  0.00     0.134 A 
ATOM     57  C   UNL     1      11.355  10.598   5.537  1.00  0.00     0.134 A 
ATOM     58  F   UNL     1       8.117  12.233   5.720  1.00  0.00    -0.206 F 
ATOM     59  C   UNL     1      10.252  13.041   6.265  1.00  0.00     0.040 A 
ATOM     60  C   UNL     1      12.180  11.620   6.008  1.00  0.00     0.040 A 
ATOM     61  F   UNL     1      11.929   9.435   5.192  1.00  0.00    -0.206 F 
ATOM     62  C   UNL     1      11.629  12.848   6.368  1.00  0.00     0.006 A 
ENDBRANCH  38  55
ENDBRANCH  12  13
ENDBRANCH   5   7
ENDBRANCH   2   3
ENDBRANCH   1   2
BRANCH   1  63
ATOM     63  C   UNL     1       4.440  -3.960  -0.011  1.00  0.00     0.118 C 
BRANCH  63  64
ATOM     64  N   UNL     1       4.946  -4.270  -1.338  1.00  0.00    -0.352 N 
ATOM     65  C   UNL     1       5.654  -5.346  -1.809  1.00  0.00     0.251 C 
ATOM     66  H   UNL     1       4.744  -3.588  -2.019  1.00  0.00     0.163 HD
ATOM     67  O   UNL     1       6.105  -5.301  -2.952  1.00  0.00    -0.269 OA
BRANCH  65  68
ATOM     68  C   UNL     1       5.909  -6.547  -0.979  1.00  0.00     0.039 A 
ATOM     69  C   UNL     1       7.155  -7.167  -1.078  1.00  0.00     0.016 A 
ATOM     70  C   UNL     1       4.935  -7.120  -0.164  1.00  0.00     0.016 A 
ATOM     71  C   UNL     1       7.444  -8.312  -0.322  1.00  0.00     0.027 A 
ATOM     72  C   UNL     1       5.237  -8.253   0.608  1.00  0.00     0.027 A 
ATOM     73  C   UNL     1       6.495  -8.878   0.543  1.00  0.00     0.051 A 
BRANCH  73  74
ATOM     74  N   UNL     1       6.817  -9.988   1.401  1.00  0.00    -0.261 N 
ATOM     75  C   UNL     1       8.104 -10.131   1.921  1.00  0.00     0.270 C 
ATOM     76  C   UNL     1       5.950 -11.017   1.754  1.00  0.00     0.152 C 
ATOM     77  O   UNL     1       9.163  -9.768   1.433  1.00  0.00    -0.268 OA
ATOM     78  C   UNL     1       8.045 -10.981   3.143  1.00  0.00     0.081 C 
ATOM     79  S   UNL     1       6.719 -12.068   2.959  1.00  0.00    -0.054 SA
ATOM     80  S   UNL     1       4.435 -11.418   1.164  1.00  0.00    -0.051 S 
ATOM     81  C   UNL     1       8.688 -10.850   4.315  1.00  0.00     0.028 C 
BRANCH  81  82
ATOM     82  C   UNL     1       9.505  -9.738   4.817  1.00  0.00    -0.009 C 
ATOM     83  C   UNL     1      10.179  -8.872   4.033  1.00  0.00     0.019 C 
ATOM     84  C   UNL     1       8.835  -9.052   6.003  1.00  0.00     0.265 C 
ATOM     85  C   UNL     1       9.322  -7.697   3.691  1.00  0.00     0.017 A 
ATOM     86  O   UNL     1       7.792  -8.166   5.541  1.00  0.00    -0.488 OA
ATOM     87  C   UNL     1       9.622  -6.919   2.570  1.00  0.00     0.012 A 
ATOM     88  C   UNL     1       8.147  -7.441   4.423  1.00  0.00     0.127 A 
ATOM     89  C   UNL     1       8.724  -5.938   2.146  1.00  0.00     0.001 A 
ATOM     90  C   UNL     1       7.246  -6.472   3.988  1.00  0.00     0.047 A 
ATOM     91  C   UNL     1       7.532  -5.728   2.843  1.00  0.00     0.004 A 
ENDBRANCH  81  82
ENDBRANCH  73  74
ENDBRANCH  65  68
ENDBRANCH  63  64
ENDBRANCH   1  63
TORSDOF 12
