REMARK SMILES Cc1c(CCC(=O)N2CCC[C@H]2C(=O)NCCCNC(=O)c2ccc(-c3c4nc(c(-c5c(F)cccc5F)c5ccc([nH]5)c(-c5c(F)cccc5F)c5nc(c(-c6c(F)cccc6F)c6ccc3[nH]6)C=C5)C=C4)cc2)c(=O)oc2cc3oc4c(c3cc12)CCCC4
REMARK SMILES IDX 16 1 15 2 13 3 14 4 12 6 8 7 9 8 10 9 11 10 6 11 7 12 5 13
REMARK SMILES IDX 4 14 3 15 1 16 2 17 87 18 76 19 79 20 86 21 77 22 78 23
REMARK SMILES IDX 80 24 85 25 81 26 84 27 82 28 83 29 88 30 91 31 89 32 90 33
REMARK SMILES IDX 17 34 18 35 19 36 20 37 21 39 22 40 23 41 75 42 24 43 74 44
REMARK SMILES IDX 25 45 26 46 27 47 68 48 28 49 73 50 67 51 69 52 29 53 72 54
REMARK SMILES IDX 66 55 65 56 30 58 56 59 39 60 55 61 40 62 43 63 54 64 70 65
REMARK SMILES IDX 41 66 42 67 53 69 71 70 44 71 31 72 32 73 37 74 33 75 34 76
REMARK SMILES IDX 36 77 38 78 35 79 57 80 58 81 63 82 59 83 60 84 62 85 64 86
REMARK SMILES IDX 61 87 45 88 46 89 51 90 47 91 48 92 50 93 52 94 49 95
REMARK H PARENT 15 5 19 38 69 57 43 68
REMARK Flexibility Score: inf
ROOT
ATOM      1  C   UNL     1       0.925  -0.171  -2.081  1.00  0.00     0.117 C 
ENDROOT
BRANCH   1   2
ATOM      2  N   UNL     1       2.316  -0.334  -2.410  1.00  0.00    -0.354 N 
ATOM      3  C   UNL     1       3.430  -0.065  -1.689  1.00  0.00     0.242 C 
ATOM      4  O   UNL     1       4.490  -0.174  -2.328  1.00  0.00    -0.273 OA
ATOM      5  H   UNL     1       2.486  -0.703  -3.307  1.00  0.00     0.163 HD
BRANCH   3   6
ATOM      6  C   UNL     1       3.515   0.108  -0.143  1.00  0.00     0.174 C 
ATOM      7  N   UNL     1       2.548   0.546   0.888  1.00  0.00    -0.331 N 
ATOM      8  C   UNL     1       2.844  -0.115   2.158  1.00  0.00     0.120 C 
ATOM      9  C   UNL     1       3.923  -1.144   1.884  1.00  0.00     0.024 C 
ATOM     10  C   UNL     1       3.919  -1.288   0.377  1.00  0.00     0.037 C 
BRANCH   7  11
ATOM     11  C   UNL     1       1.863   1.748   0.792  1.00  0.00     0.223 C 
ATOM     12  O   UNL     1       1.762   2.329  -0.291  1.00  0.00    -0.275 OA
BRANCH  11  13
ATOM     13  C   UNL     1       1.234   2.373   2.057  1.00  0.00     0.105 C 
BRANCH  13  14
ATOM     14  C   UNL     1      -0.252   2.081   2.350  1.00  0.00     0.053 C 
BRANCH  14  15
ATOM     15  C   UNL     1      -0.506   0.623   2.622  1.00  0.00     0.042 A 
ATOM     16  C   UNL     1      -1.452   0.180   0.330  1.00  0.00     0.046 C 
ATOM     17  C   UNL     1      -0.871  -0.225   1.650  1.00  0.00    -0.030 A 
ATOM     18  C   UNL     1      -0.442  -1.598   1.870  1.00  0.00     0.022 A 
ATOM     19  C   UNL     1      -0.326   0.103   4.014  1.00  0.00     0.339 A 
ATOM     20  C   UNL     1      -0.457  -2.130   3.153  1.00  0.00     0.142 A 
ATOM     21  C   UNL     1       0.176  -2.314   0.853  1.00  0.00     0.024 A 
ATOM     22  O   UNL     1       0.003   0.843   4.934  1.00  0.00    -0.246 OA
ATOM     23  O   UNL     1      -0.638  -1.246   4.233  1.00  0.00    -0.422 OA
ATOM     24  C   UNL     1      -0.206  -3.487   3.412  1.00  0.00     0.095 A 
ATOM     25  C   UNL     1       0.566  -3.627   1.093  1.00  0.00     0.025 A 
ATOM     26  C   UNL     1       0.217  -4.218   2.302  1.00  0.00     0.138 A 
ATOM     27  C   UNL     1       1.131  -4.628   0.287  1.00  0.00     0.001 A 
ATOM     28  O   UNL     1       0.255  -5.583   2.148  1.00  0.00    -0.461 OA
ATOM     29  C   UNL     1       0.634  -5.779   0.853  1.00  0.00     0.108 A 
ATOM     30  C   UNL     1       1.538  -4.598  -1.137  1.00  0.00     0.040 C 
ATOM     31  C   UNL     1       0.021  -6.841   0.007  1.00  0.00     0.076 C 
ATOM     32  C   UNL     1       0.401  -5.175  -1.996  1.00  0.00     0.005 C 
ATOM     33  C   UNL     1      -0.594  -6.094  -1.223  1.00  0.00     0.008 C 
ENDBRANCH  14  15
ENDBRANCH  13  14
ENDBRANCH  11  13
ENDBRANCH   7  11
ENDBRANCH   3   6
ENDBRANCH   1   2
BRANCH   1  34
ATOM     34  C   UNL     1       0.299   1.018  -2.807  1.00  0.00     0.042 C 
BRANCH  34  35
ATOM     35  C   UNL     1      -0.063   0.711  -4.258  1.00  0.00     0.118 C 
BRANCH  35  36
ATOM     36  N   UNL     1      -1.379   0.113  -4.429  1.00  0.00    -0.352 N 
ATOM     37  C   UNL     1      -2.648   0.604  -4.218  1.00  0.00     0.251 C 
ATOM     38  H   UNL     1      -1.357  -0.816  -4.756  1.00  0.00     0.163 HD
ATOM     39  O   UNL     1      -3.603  -0.136  -4.404  1.00  0.00    -0.269 OA
BRANCH  37  40
ATOM     40  C   UNL     1      -2.883   1.983  -3.719  1.00  0.00     0.039 A 
ATOM     41  C   UNL     1      -2.172   3.088  -4.190  1.00  0.00     0.014 A 
ATOM     42  C   UNL     1      -3.911   2.172  -2.785  1.00  0.00     0.014 A 
ATOM     43  C   UNL     1      -2.425   4.361  -3.682  1.00  0.00     0.010 A 
ATOM     44  C   UNL     1      -4.192   3.451  -2.301  1.00  0.00     0.010 A 
ATOM     45  C   UNL     1      -3.444   4.550  -2.748  1.00  0.00    -0.014 A 
BRANCH  45  46
ATOM     46  C   UNL     1      -3.783   5.935  -2.379  1.00  0.00     0.031 A 
ATOM     47  C   UNL     1      -5.150   6.355  -2.781  1.00  0.00     0.074 A 
ATOM     48  C   UNL     1      -3.286   6.542  -1.280  1.00  0.00     0.049 A 
ATOM     49  N   UNL     1      -6.165   6.015  -2.049  1.00  0.00    -0.248 NA
ATOM     50  C   UNL     1      -5.519   6.936  -4.066  1.00  0.00     0.031 C 
ATOM     51  C   UNL     1      -2.693   5.833  -0.140  1.00  0.00     0.029 A 
ATOM     52  N   UNL     1      -3.405   7.846  -0.850  1.00  0.00    -0.354 N 
ATOM     53  C   UNL     1      -7.309   6.263  -2.775  1.00  0.00     0.074 A 
ATOM     54  C   UNL     1      -6.862   6.862  -4.014  1.00  0.00     0.031 C 
ATOM     55  C   UNL     1      -2.658   6.670   0.916  1.00  0.00     0.029 A 
ATOM     56  C   UNL     1      -3.061   8.001   0.484  1.00  0.00     0.049 A 
ATOM     57  H   UNL     1      -3.700   8.586  -1.427  1.00  0.00     0.167 HD
ATOM     58  C   UNL     1      -8.536   5.957  -2.276  1.00  0.00     0.037 A 
ATOM     59  C   UNL     1      -3.445   9.008   1.308  1.00  0.00     0.037 A 
ATOM     60  C   UNL     1      -8.604   5.413  -0.933  1.00  0.00     0.049 A 
ATOM     61  C   UNL     1      -4.871   8.637   1.617  1.00  0.00     0.074 A 
ATOM     62  C   UNL     1      -9.385   4.537  -0.206  1.00  0.00     0.029 A 
ATOM     63  N   UNL     1      -7.655   5.850  -0.051  1.00  0.00    -0.354 N 
ATOM     64  N   UNL     1      -5.254   7.721   2.471  1.00  0.00    -0.248 NA
ATOM     65  C   UNL     1      -5.941   9.132   0.735  1.00  0.00     0.031 C 
ATOM     66  C   UNL     1      -8.954   4.608   1.165  1.00  0.00     0.029 A 
ATOM     67  C   UNL     1      -7.954   5.561   1.249  1.00  0.00     0.049 A 
ATOM     68  H   UNL     1      -6.838   6.325  -0.326  1.00  0.00     0.167 HD
ATOM     69  C   UNL     1      -6.524   7.352   2.046  1.00  0.00     0.074 A 
ATOM     70  C   UNL     1      -6.954   8.348   1.086  1.00  0.00     0.031 C 
ATOM     71  C   UNL     1      -7.069   6.118   2.241  1.00  0.00     0.037 A 
BRANCH  58  72
ATOM     72  C   UNL     1      -9.785   6.383  -2.939  1.00  0.00     0.057 A 
ATOM     73  C   UNL     1     -10.433   7.527  -2.450  1.00  0.00     0.134 A 
ATOM     74  C   UNL     1     -10.434   5.635  -3.920  1.00  0.00     0.134 A 
ATOM     75  F   UNL     1      -9.847   8.287  -1.511  1.00  0.00    -0.206 F 
ATOM     76  C   UNL     1     -11.700   7.898  -2.896  1.00  0.00     0.040 A 
ATOM     77  C   UNL     1     -11.704   6.000  -4.380  1.00  0.00     0.040 A 
ATOM     78  F   UNL     1      -9.868   4.528  -4.420  1.00  0.00    -0.206 F 
ATOM     79  C   UNL     1     -12.344   7.127  -3.859  1.00  0.00     0.006 A 
ENDBRANCH  58  72
BRANCH  59  80
ATOM     80  C   UNL     1      -2.991  10.380   0.920  1.00  0.00     0.057 A 
ATOM     81  C   UNL     1      -1.634  10.572   0.580  1.00  0.00     0.134 A 
ATOM     82  C   UNL     1      -3.780  11.536   0.907  1.00  0.00     0.134 A 
ATOM     83  F   UNL     1      -0.755   9.563   0.690  1.00  0.00    -0.206 F 
ATOM     84  C   UNL     1      -1.132  11.798   0.131  1.00  0.00     0.040 A 
ATOM     85  C   UNL     1      -3.299  12.764   0.434  1.00  0.00     0.040 A 
ATOM     86  F   UNL     1      -5.040  11.526   1.357  1.00  0.00    -0.206 F 
ATOM     87  C   UNL     1      -1.977  12.894   0.025  1.00  0.00     0.006 A 
ENDBRANCH  59  80
BRANCH  71  88
ATOM     88  C   UNL     1      -6.561   5.320   3.376  1.00  0.00     0.057 A 
ATOM     89  C   UNL     1      -6.737   5.784   4.685  1.00  0.00     0.134 A 
ATOM     90  C   UNL     1      -5.952   4.074   3.202  1.00  0.00     0.134 A 
ATOM     91  F   UNL     1      -7.349   6.957   4.916  1.00  0.00    -0.206 F 
ATOM     92  C   UNL     1      -6.321   5.038   5.785  1.00  0.00     0.040 A 
ATOM     93  C   UNL     1      -5.540   3.312   4.297  1.00  0.00     0.040 A 
ATOM     94  F   UNL     1      -5.745   3.573   1.974  1.00  0.00    -0.206 F 
ATOM     95  C   UNL     1      -5.725   3.794   5.592  1.00  0.00     0.006 A 
ENDBRANCH  71  88
ENDBRANCH  45  46
ENDBRANCH  37  40
ENDBRANCH  35  36
ENDBRANCH  34  35
ENDBRANCH   1  34
TORSDOF 14
