REMARK SMILES CC[C@@H](O)CC[C@H]([NH3+])C(=O)NCCCNC(=O)c1ccc(-c2c3nc(c(-c4c(F)cccc4F)c4ccc([nH]4)c(-c4c(F)cccc4F)c4nc(c(-c5c(F)cccc5F)c5ccc2[nH]5)C=C4)C=C3)cc1
REMARK SMILES IDX 12 1 11 2 9 3 10 4 7 6 6 7 5 8 3 9 2 10 1 11 4 12 8 14 13 18
REMARK SMILES IDX 14 19 15 20 16 21 17 23 18 24 19 25 71 26 20 27 70 28 21 29
REMARK SMILES IDX 22 30 23 31 64 32 24 33 69 34 63 35 65 36 25 37 68 38 62 39
REMARK SMILES IDX 61 40 26 42 52 43 35 44 51 45 36 46 39 47 50 48 66 49 37 50
REMARK SMILES IDX 38 51 49 53 67 54 40 55 27 56 28 57 33 58 29 59 30 60 32 61
REMARK SMILES IDX 34 62 31 63 53 64 54 65 59 66 55 67 56 68 58 69 60 70 57 71
REMARK SMILES IDX 41 72 42 73 47 74 43 75 44 76 46 77 48 78 45 79
REMARK H PARENT 11 5 4 13 8 15 8 16 8 17 15 22 65 41 39 52
REMARK Flexibility Score: inf
ROOT
ATOM      1  C   UNL     1       2.339  -6.673  -2.056  1.00  0.00     0.118 C 
ENDROOT
BRANCH   1   2
ATOM      2  N   UNL     1       2.946  -5.414  -2.405  1.00  0.00    -0.351 N 
ATOM      3  C   UNL     1       3.069  -4.291  -1.637  1.00  0.00     0.278 C 
ATOM      4  O   UNL     1       3.773  -3.376  -2.073  1.00  0.00    -0.268 OA
ATOM      5  H   UNL     1       3.320  -5.356  -3.313  1.00  0.00     0.163 HD
BRANCH   3   6
ATOM      6  C   UNL     1       2.296  -4.130  -0.296  1.00  0.00     0.271 C 
BRANCH   6   7
ATOM      7  C   UNL     1       2.773  -5.067   0.842  1.00  0.00     0.078 C 
BRANCH   7   8
ATOM      8  C   UNL     1       1.699  -5.639   1.792  1.00  0.00     0.038 C 
BRANCH   8   9
ATOM      9  C   UNL     1       0.888  -6.841   1.273  1.00  0.00     0.114 C 
BRANCH   9  10
ATOM     10  C   UNL     1       1.711  -8.141   1.239  1.00  0.00     0.028 C 
ATOM     11  C   UNL     1       1.013  -9.270   0.488  1.00  0.00     0.006 C 
ENDBRANCH   9  10
BRANCH   9  12
ATOM     12  O   UNL     1      -0.217  -7.027   2.162  1.00  0.00    -0.393 OA
ATOM     13  H   UNL     1       0.113  -7.212   3.055  1.00  0.00     0.210 HD
ENDBRANCH   9  12
ENDBRANCH   8   9
ENDBRANCH   7   8
ENDBRANCH   6   7
BRANCH   6  14
ATOM     14  N   UNL     1       0.848  -4.154  -0.582  1.00  0.00    -0.347 N 
ATOM     15  H   UNL     1       0.596  -5.055  -0.988  1.00  0.00     0.345 HD
ATOM     16  H   UNL     1       0.619  -3.409  -1.240  1.00  0.00     0.345 HD
ATOM     17  H   UNL     1       0.328  -4.014   0.285  1.00  0.00     0.345 HD
ENDBRANCH   6  14
ENDBRANCH   3   6
ENDBRANCH   1   2
BRANCH   1  18
ATOM     18  C   UNL     1       0.987  -6.930  -2.701  1.00  0.00     0.042 C 
BRANCH  18  19
ATOM     19  C   UNL     1       1.015  -8.031  -3.753  1.00  0.00     0.118 C 
BRANCH  19  20
ATOM     20  N   UNL     1       1.576  -9.296  -3.276  1.00  0.00    -0.352 N 
ATOM     21  C   UNL     1       1.102 -10.582  -3.330  1.00  0.00     0.251 C 
ATOM     22  H   UNL     1       2.453  -9.208  -2.838  1.00  0.00     0.163 HD
ATOM     23  O   UNL     1       1.718 -11.471  -2.742  1.00  0.00    -0.269 OA
BRANCH  21  24
ATOM     24  C   UNL     1      -0.141 -10.910  -4.055  1.00  0.00     0.039 A 
ATOM     25  C   UNL     1      -0.979 -11.911  -3.551  1.00  0.00     0.014 A 
ATOM     26  C   UNL     1      -0.482 -10.250  -5.235  1.00  0.00     0.014 A 
ATOM     27  C   UNL     1      -2.191 -12.188  -4.187  1.00  0.00     0.010 A 
ATOM     28  C   UNL     1      -1.736 -10.442  -5.797  1.00  0.00     0.010 A 
ATOM     29  C   UNL     1      -2.601 -11.421  -5.288  1.00  0.00    -0.014 A 
BRANCH  29  30
ATOM     30  C   UNL     1      -3.914 -11.619  -5.948  1.00  0.00     0.031 A 
ATOM     31  C   UNL     1      -3.966 -11.965  -7.412  1.00  0.00     0.074 A 
ATOM     32  C   UNL     1      -5.050 -11.382  -5.264  1.00  0.00     0.049 A 
ATOM     33  N   UNL     1      -4.997 -12.016  -8.216  1.00  0.00    -0.248 NA
ATOM     34  C   UNL     1      -2.679 -12.249  -8.071  1.00  0.00     0.031 C 
ATOM     35  C   UNL     1      -5.128 -10.990  -3.855  1.00  0.00     0.029 A 
ATOM     36  N   UNL     1      -6.360 -11.413  -5.670  1.00  0.00    -0.354 N 
ATOM     37  C   UNL     1      -4.480 -12.307  -9.473  1.00  0.00     0.074 A 
ATOM     38  C   UNL     1      -3.041 -12.359  -9.339  1.00  0.00     0.031 C 
ATOM     39  C   UNL     1      -6.416 -10.839  -3.510  1.00  0.00     0.029 A 
ATOM     40  C   UNL     1      -7.252 -11.072  -4.682  1.00  0.00     0.049 A 
ATOM     41  H   UNL     1      -6.635 -11.657  -6.584  1.00  0.00     0.167 HD
ATOM     42  C   UNL     1      -5.146 -12.538 -10.628  1.00  0.00     0.037 A 
ATOM     43  C   UNL     1      -8.591 -10.947  -4.723  1.00  0.00     0.037 A 
ATOM     44  C   UNL     1      -6.580 -12.522 -10.743  1.00  0.00     0.049 A 
ATOM     45  C   UNL     1      -9.308 -11.209  -6.020  1.00  0.00     0.074 A 
ATOM     46  C   UNL     1      -7.359 -12.804 -11.851  1.00  0.00     0.029 A 
ATOM     47  N   UNL     1      -7.450 -12.211  -9.709  1.00  0.00    -0.354 N 
ATOM     48  N   UNL     1      -8.812 -11.542  -7.187  1.00  0.00    -0.248 NA
ATOM     49  C   UNL     1     -10.771 -11.082  -6.004  1.00  0.00     0.031 C 
ATOM     50  C   UNL     1      -8.699 -12.620 -11.500  1.00  0.00     0.029 A 
ATOM     51  C   UNL     1      -8.758 -12.277 -10.158  1.00  0.00     0.049 A 
ATOM     52  H   UNL     1      -7.178 -11.978  -8.792  1.00  0.00     0.167 HD
ATOM     53  C   UNL     1      -9.902 -11.698  -8.033  1.00  0.00     0.074 A 
ATOM     54  C   UNL     1     -11.085 -11.437  -7.241  1.00  0.00     0.031 C 
ATOM     55  C   UNL     1      -9.923 -12.028  -9.348  1.00  0.00     0.037 A 
BRANCH  42  56
ATOM     56  C   UNL     1      -4.332 -12.841 -11.854  1.00  0.00     0.057 A 
ATOM     57  C   UNL     1      -3.610 -14.035 -11.986  1.00  0.00     0.134 A 
ATOM     58  C   UNL     1      -4.298 -11.945 -12.931  1.00  0.00     0.134 A 
ATOM     59  F   UNL     1      -3.588 -14.930 -10.987  1.00  0.00    -0.206 F 
ATOM     60  C   UNL     1      -2.863 -14.315 -13.132  1.00  0.00     0.040 A 
ATOM     61  C   UNL     1      -3.580 -12.229 -14.094  1.00  0.00     0.040 A 
ATOM     62  F   UNL     1      -4.970 -10.786 -12.875  1.00  0.00    -0.206 F 
ATOM     63  C   UNL     1      -2.854 -13.414 -14.194  1.00  0.00     0.006 A 
ENDBRANCH  42  56
BRANCH  43  64
ATOM     64  C   UNL     1      -9.348 -10.575  -3.500  1.00  0.00     0.057 A 
ATOM     65  C   UNL     1     -10.198 -11.494  -2.873  1.00  0.00     0.134 A 
ATOM     66  C   UNL     1      -9.257  -9.296  -2.938  1.00  0.00     0.134 A 
ATOM     67  F   UNL     1     -10.340 -12.731  -3.372  1.00  0.00    -0.206 F 
ATOM     68  C   UNL     1     -10.951 -11.148  -1.750  1.00  0.00     0.040 A 
ATOM     69  C   UNL     1      -9.982  -8.945  -1.798  1.00  0.00     0.040 A 
ATOM     70  F   UNL     1      -8.453  -8.372  -3.483  1.00  0.00    -0.206 F 
ATOM     71  C   UNL     1     -10.841  -9.869  -1.207  1.00  0.00     0.006 A 
ENDBRANCH  43  64
BRANCH  55  72
ATOM     72  C   UNL     1     -11.268 -12.172  -9.998  1.00  0.00     0.057 A 
ATOM     73  C   UNL     1     -12.081 -11.066 -10.274  1.00  0.00     0.134 A 
ATOM     74  C   UNL     1     -11.734 -13.434 -10.391  1.00  0.00     0.134 A 
ATOM     75  F   UNL     1     -11.698  -9.833  -9.912  1.00  0.00    -0.206 F 
ATOM     76  C   UNL     1     -13.323 -11.213 -10.895  1.00  0.00     0.040 A 
ATOM     77  C   UNL     1     -12.959 -13.589 -11.039  1.00  0.00     0.040 A 
ATOM     78  F   UNL     1     -10.998 -14.533 -10.166  1.00  0.00    -0.206 F 
ATOM     79  C   UNL     1     -13.760 -12.477 -11.286  1.00  0.00     0.006 A 
ENDBRANCH  55  72
ENDBRANCH  29  30
ENDBRANCH  21  24
ENDBRANCH  19  20
ENDBRANCH  18  19
ENDBRANCH   1  18
TORSDOF 16
