REMARK SMILES CC[C@@H](NC(=O)c1ccc(CNC(=O)[C@H]2CCCO2)cc1)C(=O)NCCCNC(=O)c1ccc(-c2c3nc(c(-c4c(F)cccc4F)c4ccc([nH]4)c(-c4c(F)cccc4F)c4nc(c(-c5c(F)cccc5F)c5ccc2[nH]5)C=C4)C=C3)cc1
REMARK SMILES IDX 22 1 23 2 24 3 3 5 2 6 1 7 4 8 5 9 6 11 7 12 8 13 21 14 9 15
REMARK SMILES IDX 20 16 10 17 11 18 12 19 13 20 14 22 15 23 16 24 19 25 17 26
REMARK SMILES IDX 18 27 25 28 26 29 27 30 28 31 29 32 30 34 31 35 32 36 84 37
REMARK SMILES IDX 33 38 83 39 34 40 35 41 36 42 77 43 37 44 82 45 76 46 78 47
REMARK SMILES IDX 38 48 81 49 75 50 74 51 39 53 65 54 48 55 64 56 49 57 52 58
REMARK SMILES IDX 63 59 79 60 50 61 51 62 62 64 80 65 53 66 40 67 41 68 46 69
REMARK SMILES IDX 42 70 43 71 45 72 47 73 44 74 66 75 67 76 72 77 68 78 69 79
REMARK SMILES IDX 71 80 73 81 70 82 54 83 55 84 60 85 56 86 57 87 59 88 61 89
REMARK SMILES IDX 58 90
REMARK H PARENT 24 4 4 10 12 21 28 33 78 52 52 63
REMARK Flexibility Score: inf
ROOT
ATOM      1  C   UNL     1      -2.877 -14.470  -0.362  1.00  0.00     0.242 C 
ATOM      2  O   UNL     1      -2.806 -15.005  -1.474  1.00  0.00    -0.273 OA
ATOM      3  N   UNL     1      -2.333 -13.231  -0.228  1.00  0.00    -0.354 N 
ATOM      4  H   UNL     1      -1.994 -12.831  -1.061  1.00  0.00     0.163 HD
ENDROOT
BRANCH   1   5
ATOM      5  C   UNL     1      -3.409 -15.251   0.855  1.00  0.00     0.171 C 
BRANCH   5   6
ATOM      6  C   UNL     1      -2.153 -15.857   1.525  1.00  0.00     0.032 C 
ATOM      7  C   UNL     1      -2.418 -16.763   2.714  1.00  0.00     0.006 C 
ENDBRANCH   5   6
BRANCH   5   8
ATOM      8  N   UNL     1      -4.247 -14.493   1.799  1.00  0.00    -0.340 N 
ATOM      9  C   UNL     1      -5.387 -13.747   1.576  1.00  0.00     0.251 C 
ATOM     10  H   UNL     1      -3.947 -14.523   2.736  1.00  0.00     0.164 HD
ATOM     11  O   UNL     1      -6.124 -13.475   2.519  1.00  0.00    -0.269 OA
BRANCH   9  12
ATOM     12  C   UNL     1      -5.621 -13.105   0.264  1.00  0.00     0.039 A 
ATOM     13  C   UNL     1      -5.563 -11.706   0.219  1.00  0.00     0.014 A 
ATOM     14  C   UNL     1      -5.772 -13.832  -0.914  1.00  0.00     0.014 A 
ATOM     15  C   UNL     1      -5.488 -11.045  -1.010  1.00  0.00     0.006 A 
ATOM     16  C   UNL     1      -5.700 -13.168  -2.144  1.00  0.00     0.006 A 
ATOM     17  C   UNL     1      -5.511 -11.775  -2.207  1.00  0.00    -0.029 A 
BRANCH  17  18
ATOM     18  C   UNL     1      -5.226 -11.105  -3.531  1.00  0.00     0.151 C 
BRANCH  18  19
ATOM     19  N   UNL     1      -6.045  -9.934  -3.745  1.00  0.00    -0.350 N 
ATOM     20  C   UNL     1      -5.684  -8.640  -3.992  1.00  0.00     0.249 C 
ATOM     21  H   UNL     1      -7.016 -10.094  -3.708  1.00  0.00     0.163 HD
ATOM     22  O   UNL     1      -6.586  -7.828  -4.211  1.00  0.00    -0.272 OA
BRANCH  20  23
ATOM     23  C   UNL     1      -4.192  -8.242  -4.014  1.00  0.00     0.207 C 
ATOM     24  C   UNL     1      -3.634  -8.313  -5.426  1.00  0.00     0.044 C 
ATOM     25  O   UNL     1      -3.991  -6.890  -3.584  1.00  0.00    -0.368 OA
ATOM     26  C   UNL     1      -3.914  -6.927  -5.957  1.00  0.00     0.032 C 
ATOM     27  C   UNL     1      -3.744  -6.062  -4.727  1.00  0.00     0.161 C 
ENDBRANCH  20  23
ENDBRANCH  18  19
ENDBRANCH  17  18
ENDBRANCH   9  12
ENDBRANCH   5   8
ENDBRANCH   1   5
BRANCH   3  28
ATOM     28  C   UNL     1      -2.176 -12.409   0.959  1.00  0.00     0.117 C 
BRANCH  28  29
ATOM     29  C   UNL     1      -0.900 -11.590   0.901  1.00  0.00     0.042 C 
BRANCH  29  30
ATOM     30  C   UNL     1      -0.890 -10.562  -0.223  1.00  0.00     0.118 C 
BRANCH  30  31
ATOM     31  N   UNL     1      -1.836  -9.473  -0.014  1.00  0.00    -0.352 N 
ATOM     32  C   UNL     1      -1.583  -8.123   0.077  1.00  0.00     0.251 C 
ATOM     33  H   UNL     1      -2.780  -9.737   0.073  1.00  0.00     0.163 HD
ATOM     34  O   UNL     1      -2.461  -7.342   0.426  1.00  0.00    -0.269 OA
BRANCH  32  35
ATOM     35  C   UNL     1      -0.214  -7.641  -0.193  1.00  0.00     0.039 A 
ATOM     36  C   UNL     1       0.442  -6.888   0.781  1.00  0.00     0.014 A 
ATOM     37  C   UNL     1       0.453  -8.046  -1.353  1.00  0.00     0.014 A 
ATOM     38  C   UNL     1       1.810  -6.642   0.649  1.00  0.00     0.010 A 
ATOM     39  C   UNL     1       1.829  -7.869  -1.442  1.00  0.00     0.010 A 
ATOM     40  C   UNL     1       2.524  -7.189  -0.429  1.00  0.00    -0.014 A 
BRANCH  40  41
ATOM     41  C   UNL     1       4.006  -7.121  -0.496  1.00  0.00     0.031 A 
ATOM     42  C   UNL     1       4.675  -6.417  -1.641  1.00  0.00     0.074 A 
ATOM     43  C   UNL     1       4.744  -7.798   0.408  1.00  0.00     0.049 A 
ATOM     44  N   UNL     1       5.943  -6.380  -1.958  1.00  0.00    -0.248 NA
ATOM     45  C   UNL     1       3.799  -5.689  -2.574  1.00  0.00     0.031 C 
ATOM     46  C   UNL     1       4.212  -8.575   1.530  1.00  0.00     0.029 A 
ATOM     47  N   UNL     1       6.103  -7.965   0.508  1.00  0.00    -0.354 N 
ATOM     48  C   UNL     1       6.014  -5.655  -3.140  1.00  0.00     0.074 A 
ATOM     49  C   UNL     1       4.660  -5.298  -3.503  1.00  0.00     0.031 C 
ATOM     50  C   UNL     1       5.231  -9.128   2.208  1.00  0.00     0.029 A 
ATOM     51  C   UNL     1       6.484  -8.780   1.548  1.00  0.00     0.049 A 
ATOM     52  H   UNL     1       6.745  -7.541  -0.107  1.00  0.00     0.167 HD
ATOM     53  C   UNL     1       7.112  -5.306  -3.849  1.00  0.00     0.037 A 
ATOM     54  C   UNL     1       7.704  -9.216   1.915  1.00  0.00     0.037 A 
ATOM     55  C   UNL     1       8.461  -5.606  -3.452  1.00  0.00     0.049 A 
ATOM     56  C   UNL     1       8.907  -8.795   1.118  1.00  0.00     0.074 A 
ATOM     57  C   UNL     1       9.643  -5.179  -4.033  1.00  0.00     0.029 A 
ATOM     58  N   UNL     1       8.807  -6.408  -2.377  1.00  0.00    -0.354 N 
ATOM     59  N   UNL     1       8.965  -8.031   0.055  1.00  0.00    -0.248 NA
ATOM     60  C   UNL     1      10.212  -9.303   1.566  1.00  0.00     0.031 C 
ATOM     61  C   UNL     1      10.706  -5.755  -3.330  1.00  0.00     0.029 A 
ATOM     62  C   UNL     1      10.185  -6.517  -2.297  1.00  0.00     0.049 A 
ATOM     63  H   UNL     1       8.169  -6.837  -1.762  1.00  0.00     0.167 HD
ATOM     64  C   UNL     1      10.309  -7.955  -0.284  1.00  0.00     0.074 A 
ATOM     65  C   UNL     1      11.035  -8.737   0.695  1.00  0.00     0.031 C 
ATOM     66  C   UNL     1      10.889  -7.299  -1.317  1.00  0.00     0.037 A 
BRANCH  53  67
ATOM     67  C   UNL     1       6.909  -4.543  -5.121  1.00  0.00     0.057 A 
ATOM     68  C   UNL     1       6.559  -3.187  -5.119  1.00  0.00     0.134 A 
ATOM     69  C   UNL     1       7.130  -5.155  -6.360  1.00  0.00     0.134 A 
ATOM     70  F   UNL     1       6.323  -2.548  -3.963  1.00  0.00    -0.206 F 
ATOM     71  C   UNL     1       6.425  -2.469  -6.308  1.00  0.00     0.040 A 
ATOM     72  C   UNL     1       7.019  -4.443  -7.555  1.00  0.00     0.040 A 
ATOM     73  F   UNL     1       7.471  -6.451  -6.429  1.00  0.00    -0.206 F 
ATOM     74  C   UNL     1       6.665  -3.095  -7.530  1.00  0.00     0.006 A 
ENDBRANCH  53  67
BRANCH  54  75
ATOM     75  C   UNL     1       7.859 -10.111   3.088  1.00  0.00     0.057 A 
ATOM     76  C   UNL     1       8.444  -9.652   4.274  1.00  0.00     0.134 A 
ATOM     77  C   UNL     1       7.454 -11.450   3.044  1.00  0.00     0.134 A 
ATOM     78  F   UNL     1       8.871  -8.384   4.367  1.00  0.00    -0.206 F 
ATOM     79  C   UNL     1       8.641 -10.496   5.367  1.00  0.00     0.040 A 
ATOM     80  C   UNL     1       7.626 -12.301   4.137  1.00  0.00     0.040 A 
ATOM     81  F   UNL     1       6.883 -11.950   1.938  1.00  0.00    -0.206 F 
ATOM     82  C   UNL     1       8.229 -11.826   5.301  1.00  0.00     0.006 A 
ENDBRANCH  54  75
BRANCH  66  83
ATOM     83  C   UNL     1      12.379  -7.393  -1.437  1.00  0.00     0.057 A 
ATOM     84  C   UNL     1      13.000  -8.546  -1.929  1.00  0.00     0.134 A 
ATOM     85  C   UNL     1      13.194  -6.304  -1.105  1.00  0.00     0.134 A 
ATOM     86  F   UNL     1      12.272  -9.627  -2.250  1.00  0.00    -0.206 F 
ATOM     87  C   UNL     1      14.385  -8.618  -2.079  1.00  0.00     0.040 A 
ATOM     88  C   UNL     1      14.579  -6.357  -1.269  1.00  0.00     0.040 A 
ATOM     89  F   UNL     1      12.657  -5.169  -0.634  1.00  0.00    -0.206 F 
ATOM     90  C   UNL     1      15.178  -7.518  -1.755  1.00  0.00     0.006 A 
ENDBRANCH  66  83
ENDBRANCH  40  41
ENDBRANCH  32  35
ENDBRANCH  30  31
ENDBRANCH  29  30
ENDBRANCH  28  29
ENDBRANCH   3  28
TORSDOF 16
