REMARK SMILES CC(C)[C@@H](C(=O)NCCCNC(=O)c1ccc(-c2c3nc(c(-c4c(F)cccc4F)c4ccc([nH]4)c(-c4c(F)cccc4F)c4nc(c(-c5c(F)cccc5F)c5ccc2[nH]5)C=C4)C=C3)cc1)N1C(=O)/C(=C\c2ccc([N+](=O)[O-])cc2)SC1=S
REMARK SMILES IDX 8 1 7 2 5 3 6 4 4 6 2 7 1 8 3 9 68 10 69 11 83 12 70 13
REMARK SMILES IDX 71 14 82 15 84 16 72 17 73 18 74 19 81 20 75 21 80 22 76 23
REMARK SMILES IDX 77 24 78 25 79 26 9 27 10 28 11 29 12 30 13 32 14 33 15 34
REMARK SMILES IDX 67 35 16 36 66 37 17 38 18 39 19 40 60 41 20 42 65 43 59 44
REMARK SMILES IDX 61 45 21 46 64 47 58 48 57 49 22 51 48 52 31 53 47 54 32 55
REMARK SMILES IDX 35 56 46 57 62 58 33 59 34 60 45 62 63 63 36 64 23 65 24 66
REMARK SMILES IDX 29 67 25 68 26 69 28 70 30 71 27 72 49 73 50 74 55 75 51 76
REMARK SMILES IDX 52 77 54 78 56 79 53 80 37 81 38 82 43 83 39 84 40 85 42 86
REMARK SMILES IDX 44 87 41 88
REMARK H PARENT 7 5 11 31 61 50 35 61
REMARK Flexibility Score: inf
ROOT
ATOM      1  C   UNL     1      -0.824  -1.297   0.650  1.00  0.00     0.117 C 
ENDROOT
BRANCH   1   2
ATOM      2  N   UNL     1      -0.958  -0.214   1.617  1.00  0.00    -0.354 N 
ATOM      3  C   UNL     1      -0.837   1.142   1.510  1.00  0.00     0.243 C 
ATOM      4  O   UNL     1      -1.022   1.783   2.549  1.00  0.00    -0.273 OA
ATOM      5  H   UNL     1      -1.180  -0.521   2.526  1.00  0.00     0.163 HD
BRANCH   3   6
ATOM      6  C   UNL     1      -0.539   1.847   0.161  1.00  0.00     0.184 C 
BRANCH   6   7
ATOM      7  C   UNL     1       0.943   1.939  -0.300  1.00  0.00     0.015 C 
ATOM      8  C   UNL     1       1.751   0.652  -0.214  1.00  0.00     0.010 C 
ATOM      9  C   UNL     1       1.030   2.477  -1.734  1.00  0.00     0.010 C 
ENDBRANCH   6   7
BRANCH   6  10
ATOM     10  N   UNL     1      -1.230   3.180   0.234  1.00  0.00    -0.280 N 
ATOM     11  C   UNL     1      -2.586   3.207  -0.086  1.00  0.00     0.266 C 
ATOM     12  C   UNL     1      -0.738   4.367   0.752  1.00  0.00     0.149 C 
ATOM     13  O   UNL     1      -3.242   2.252  -0.468  1.00  0.00    -0.268 OA
ATOM     14  C   UNL     1      -3.145   4.578   0.120  1.00  0.00     0.081 C 
ATOM     15  S   UNL     1      -1.852   5.680   0.366  1.00  0.00    -0.054 SA
ATOM     16  S   UNL     1       0.639   4.710   1.630  1.00  0.00    -0.052 S 
ATOM     17  C   UNL     1      -4.422   4.966   0.238  1.00  0.00     0.029 C 
BRANCH  17  18
ATOM     18  C   UNL     1      -5.582   4.083   0.333  1.00  0.00    -0.024 A 
ATOM     19  C   UNL     1      -6.609   4.160  -0.613  1.00  0.00     0.015 A 
ATOM     20  C   UNL     1      -5.710   3.222   1.433  1.00  0.00     0.015 A 
ATOM     21  C   UNL     1      -7.746   3.359  -0.480  1.00  0.00     0.086 A 
ATOM     22  C   UNL     1      -6.842   2.420   1.575  1.00  0.00     0.086 A 
ATOM     23  C   UNL     1      -7.856   2.487   0.613  1.00  0.00     0.269 A 
BRANCH  23  24
ATOM     24  N   UNL     1      -9.045   1.639   0.754  1.00  0.00     0.062 N 
ATOM     25  O   UNL     1      -9.937   1.750  -0.100  1.00  0.00    -0.258 OA
ATOM     26  O   UNL     1      -9.090   0.864   1.720  1.00  0.00    -0.258 OA
ENDBRANCH  23  24
ENDBRANCH  17  18
ENDBRANCH   6  10
ENDBRANCH   3   6
ENDBRANCH   1   2
BRANCH   1  27
ATOM     27  C   UNL     1       0.363  -2.206   0.986  1.00  0.00     0.042 C 
BRANCH  27  28
ATOM     28  C   UNL     1       0.178  -3.046   2.247  1.00  0.00     0.118 C 
BRANCH  28  29
ATOM     29  N   UNL     1      -0.370  -4.359   1.957  1.00  0.00    -0.352 N 
ATOM     30  C   UNL     1       0.201  -5.604   2.072  1.00  0.00     0.251 C 
ATOM     31  H   UNL     1      -1.298  -4.357   1.625  1.00  0.00     0.163 HD
ATOM     32  O   UNL     1      -0.368  -6.569   1.566  1.00  0.00    -0.269 OA
BRANCH  30  33
ATOM     33  C   UNL     1       1.493  -5.809   2.776  1.00  0.00     0.039 A 
ATOM     34  C   UNL     1       2.387  -6.758   2.267  1.00  0.00     0.014 A 
ATOM     35  C   UNL     1       1.810  -5.137   3.959  1.00  0.00     0.014 A 
ATOM     36  C   UNL     1       3.606  -6.996   2.912  1.00  0.00     0.010 A 
ATOM     37  C   UNL     1       3.061  -5.315   4.556  1.00  0.00     0.010 A 
ATOM     38  C   UNL     1       3.967  -6.258   4.049  1.00  0.00    -0.014 A 
BRANCH  38  39
ATOM     39  C   UNL     1       5.275  -6.477   4.727  1.00  0.00     0.031 A 
ATOM     40  C   UNL     1       5.325  -6.985   6.144  1.00  0.00     0.074 A 
ATOM     41  C   UNL     1       6.422  -6.171   4.091  1.00  0.00     0.049 A 
ATOM     42  N   UNL     1       6.364  -7.188   6.916  1.00  0.00    -0.248 NA
ATOM     43  C   UNL     1       4.035  -7.277   6.789  1.00  0.00     0.031 C 
ATOM     44  C   UNL     1       6.518  -5.626   2.736  1.00  0.00     0.029 A 
ATOM     45  N   UNL     1       7.729  -6.265   4.504  1.00  0.00    -0.354 N 
ATOM     46  C   UNL     1       5.853  -7.609   8.138  1.00  0.00     0.074 A 
ATOM     47  C   UNL     1       4.411  -7.585   8.021  1.00  0.00     0.031 C 
ATOM     48  C   UNL     1       7.813  -5.455   2.422  1.00  0.00     0.029 A 
ATOM     49  C   UNL     1       8.636  -5.844   3.563  1.00  0.00     0.049 A 
ATOM     50  H   UNL     1       7.990  -6.603   5.391  1.00  0.00     0.167 HD
ATOM     51  C   UNL     1       6.521  -8.003   9.250  1.00  0.00     0.037 A 
ATOM     52  C   UNL     1       9.980  -5.772   3.612  1.00  0.00     0.037 A 
ATOM     53  C   UNL     1       7.956  -8.059   9.359  1.00  0.00     0.049 A 
ATOM     54  C   UNL     1      10.702  -6.221   4.852  1.00  0.00     0.074 A 
ATOM     55  C   UNL     1       8.723  -8.514  10.417  1.00  0.00     0.029 A 
ATOM     56  N   UNL     1       8.839  -7.640   8.375  1.00  0.00    -0.354 N 
ATOM     57  N   UNL     1      10.207  -6.687   5.973  1.00  0.00    -0.248 NA
ATOM     58  C   UNL     1      12.169  -6.142   4.831  1.00  0.00     0.031 C 
ATOM     59  C   UNL     1      10.072  -8.329  10.091  1.00  0.00     0.029 A 
ATOM     60  C   UNL     1      10.145  -7.804   8.812  1.00  0.00     0.049 A 
ATOM     61  H   UNL     1       8.578  -7.280   7.497  1.00  0.00     0.167 HD
ATOM     62  C   UNL     1      11.299  -6.977   6.780  1.00  0.00     0.074 A 
ATOM     63  C   UNL     1      12.484  -6.648   6.015  1.00  0.00     0.031 C 
ATOM     64  C   UNL     1      11.317  -7.472   8.042  1.00  0.00     0.037 A 
BRANCH  51  65
ATOM     65  C   UNL     1       5.700  -8.403  10.443  1.00  0.00     0.057 A 
ATOM     66  C   UNL     1       4.936  -9.579  10.457  1.00  0.00     0.134 A 
ATOM     67  C   UNL     1       5.688  -7.614  11.600  1.00  0.00     0.134 A 
ATOM     68  F   UNL     1       4.895 -10.375   9.378  1.00  0.00    -0.206 F 
ATOM     69  C   UNL     1       4.164  -9.936  11.563  1.00  0.00     0.040 A 
ATOM     70  C   UNL     1       4.942  -7.976  12.723  1.00  0.00     0.040 A 
ATOM     71  F   UNL     1       6.403  -6.481  11.659  1.00  0.00    -0.206 F 
ATOM     72  C   UNL     1       4.170  -9.135  12.703  1.00  0.00     0.006 A 
ENDBRANCH  51  65
BRANCH  52  73
ATOM     73  C   UNL     1      10.734  -5.275   2.434  1.00  0.00     0.057 A 
ATOM     74  C   UNL     1      11.493  -6.145   1.643  1.00  0.00     0.134 A 
ATOM     75  C   UNL     1      10.705  -3.925   2.063  1.00  0.00     0.134 A 
ATOM     76  F   UNL     1      11.575  -7.446   1.960  1.00  0.00    -0.206 F 
ATOM     77  C   UNL     1      12.205  -5.691   0.532  1.00  0.00     0.040 A 
ATOM     78  C   UNL     1      11.393  -3.461   0.941  1.00  0.00     0.040 A 
ATOM     79  F   UNL     1       9.990  -3.042   2.777  1.00  0.00    -0.206 F 
ATOM     80  C   UNL     1      12.150  -4.345   0.175  1.00  0.00     0.006 A 
ENDBRANCH  52  73
BRANCH  64  81
ATOM     81  C   UNL     1      12.660  -7.714   8.667  1.00  0.00     0.057 A 
ATOM     82  C   UNL     1      13.476  -6.660   9.097  1.00  0.00     0.134 A 
ATOM     83  C   UNL     1      13.126  -9.018   8.874  1.00  0.00     0.134 A 
ATOM     84  F   UNL     1      13.094  -5.386   8.916  1.00  0.00    -0.206 F 
ATOM     85  C   UNL     1      14.717  -6.894   9.692  1.00  0.00     0.040 A 
ATOM     86  C   UNL     1      14.354  -9.266   9.490  1.00  0.00     0.040 A 
ATOM     87  F   UNL     1      12.391 -10.073   8.492  1.00  0.00    -0.206 F 
ATOM     88  C   UNL     1      15.155  -8.201   9.896  1.00  0.00     0.006 A 
ENDBRANCH  64  81
ENDBRANCH  38  39
ENDBRANCH  30  33
ENDBRANCH  28  29
ENDBRANCH  27  28
ENDBRANCH   1  27
TORSDOF 14
