REMARK SMILES CC[C@](C)(Nc1cccc(Cl)c1C(N)=O)C(=O)NCCCNC(=O)c1ccc(-c2c3nc(c(-c4c(F)cccc4F)c4ccc([nH]4)c(-c4c(F)cccc4F)c4nc(c(-c5c(F)cccc5F)c5ccc2[nH]5)C=C4)C=C3)cc1
REMARK SMILES IDX 19 1 18 2 16 3 17 4 3 6 4 7 2 8 1 9 5 10 6 12 7 13 12 14
REMARK SMILES IDX 8 15 10 16 9 17 11 18 13 19 14 20 15 21 20 24 21 25 22 26
REMARK SMILES IDX 23 27 24 29 25 30 26 31 78 32 27 33 77 34 28 35 29 36 30 37
REMARK SMILES IDX 71 38 31 39 76 40 70 41 72 42 32 43 75 44 69 45 68 46 33 48
REMARK SMILES IDX 59 49 42 50 58 51 43 52 46 53 57 54 73 55 44 56 45 57 56 59
REMARK SMILES IDX 74 60 47 61 34 62 35 63 40 64 36 65 37 66 39 67 41 68 38 69
REMARK SMILES IDX 60 70 61 71 66 72 62 73 63 74 65 75 67 76 64 77 48 78 49 79
REMARK SMILES IDX 54 80 50 81 51 82 53 83 55 84 52 85
REMARK H PARENT 18 5 5 11 14 22 14 23 22 28 72 47 46 58
REMARK Flexibility Score: inf
ROOT
ATOM      1  C   UNL     1       2.500   4.731  -1.681  1.00  0.00     0.117 C 
ENDROOT
BRANCH   1   2
ATOM      2  N   UNL     1       3.131   3.559  -1.101  1.00  0.00    -0.354 N 
ATOM      3  C   UNL     1       2.663   2.565  -0.290  1.00  0.00     0.245 C 
ATOM      4  O   UNL     1       3.488   1.695   0.017  1.00  0.00    -0.272 OA
ATOM      5  H   UNL     1       4.082   3.462  -1.339  1.00  0.00     0.163 HD
BRANCH   3   6
ATOM      6  C   UNL     1       1.200   2.519   0.237  1.00  0.00     0.113 C 
ATOM      7  C   UNL     1       1.000   1.225   1.065  1.00  0.00     0.045 C 
BRANCH   6   8
ATOM      8  C   UNL     1       0.193   2.439  -0.956  1.00  0.00     0.035 C 
ATOM      9  C   UNL     1       0.659   1.579  -2.135  1.00  0.00     0.007 C 
ENDBRANCH   6   8
BRANCH   6  10
ATOM     10  N   UNL     1       0.826   3.661   1.131  1.00  0.00    -0.371 N 
ATOM     11  H   UNL     1      -0.074   4.027   0.973  1.00  0.00     0.161 HD
BRANCH  10  12
ATOM     12  C   UNL     1       1.539   4.297   2.155  1.00  0.00     0.049 A 
ATOM     13  C   UNL     1       2.936   4.435   2.099  1.00  0.00     0.026 A 
ATOM     14  C   UNL     1       0.893   4.887   3.288  1.00  0.00     0.081 A 
ATOM     15  C   UNL     1       3.650   5.284   2.946  1.00  0.00     0.004 A 
ATOM     16  C   UNL     1       1.627   5.736   4.157  1.00  0.00     0.055 A 
ATOM     17  C   UNL     1       2.989   5.964   3.949  1.00  0.00     0.021 A 
ATOM     18  Cl  UNL     1       0.975   6.542   5.547  1.00  0.00    -0.083 Cl
BRANCH  14  19
ATOM     19  C   UNL     1      -0.540   4.573   3.628  1.00  0.00     0.252 C 
ATOM     20  N   UNL     1      -1.038   3.379   3.175  1.00  0.00    -0.365 N 
ATOM     21  O   UNL     1      -1.266   5.284   4.298  1.00  0.00    -0.269 OA
ATOM     22  H   UNL     1      -0.472   2.785   2.631  1.00  0.00     0.159 HD
ATOM     23  H   UNL     1      -1.961   3.116   3.393  1.00  0.00     0.159 HD
ENDBRANCH  14  19
ENDBRANCH  10  12
ENDBRANCH   6  10
ENDBRANCH   3   6
ENDBRANCH   1   2
BRANCH   1  24
ATOM     24  C   UNL     1       2.792   6.037  -0.953  1.00  0.00     0.042 C 
BRANCH  24  25
ATOM     25  C   UNL     1       4.269   6.302  -0.695  1.00  0.00     0.118 C 
BRANCH  25  26
ATOM     26  N   UNL     1       4.995   6.566  -1.924  1.00  0.00    -0.352 N 
ATOM     27  C   UNL     1       5.644   7.702  -2.332  1.00  0.00     0.251 C 
ATOM     28  H   UNL     1       5.027   5.815  -2.560  1.00  0.00     0.163 HD
ATOM     29  O   UNL     1       5.989   7.806  -3.506  1.00  0.00    -0.269 OA
BRANCH  27  30
ATOM     30  C   UNL     1       5.933   8.801  -1.381  1.00  0.00     0.039 A 
ATOM     31  C   UNL     1       5.855  10.116  -1.848  1.00  0.00     0.014 A 
ATOM     32  C   UNL     1       6.359   8.555  -0.072  1.00  0.00     0.014 A 
ATOM     33  C   UNL     1       6.198  11.175  -1.006  1.00  0.00     0.010 A 
ATOM     34  C   UNL     1       6.618   9.617   0.794  1.00  0.00     0.010 A 
ATOM     35  C   UNL     1       6.579  10.938   0.325  1.00  0.00    -0.014 A 
BRANCH  35  36
ATOM     36  C   UNL     1       7.002  12.068   1.194  1.00  0.00     0.031 A 
ATOM     37  C   UNL     1       8.424  12.158   1.686  1.00  0.00     0.074 A 
ATOM     38  C   UNL     1       6.117  13.026   1.527  1.00  0.00     0.049 A 
ATOM     39  N   UNL     1       8.996  13.099   2.395  1.00  0.00    -0.248 NA
ATOM     40  C   UNL     1       9.317  11.035   1.356  1.00  0.00     0.031 C 
ATOM     41  C   UNL     1       4.702  13.036   1.153  1.00  0.00     0.029 A 
ATOM     42  N   UNL     1       6.280  14.185   2.244  1.00  0.00    -0.354 N 
ATOM     43  C   UNL     1      10.307  12.681   2.595  1.00  0.00     0.074 A 
ATOM     44  C   UNL     1      10.428  11.372   1.992  1.00  0.00     0.031 C 
ATOM     45  C   UNL     1       4.136  14.165   1.609  1.00  0.00     0.029 A 
ATOM     46  C   UNL     1       5.138  14.944   2.331  1.00  0.00     0.049 A 
ATOM     47  H   UNL     1       7.134  14.448   2.657  1.00  0.00     0.167 HD
ATOM     48  C   UNL     1      11.327  13.337   3.198  1.00  0.00     0.037 A 
ATOM     49  C   UNL     1       4.924  16.136   2.920  1.00  0.00     0.037 A 
ATOM     50  C   UNL     1      11.212  14.646   3.786  1.00  0.00     0.049 A 
ATOM     51  C   UNL     1       6.072  16.842   3.589  1.00  0.00     0.074 A 
ATOM     52  C   UNL     1      12.196  15.413   4.385  1.00  0.00     0.029 A 
ATOM     53  N   UNL     1      10.037  15.380   3.854  1.00  0.00    -0.354 N 
ATOM     54  N   UNL     1       7.322  16.466   3.706  1.00  0.00    -0.248 NA
ATOM     55  C   UNL     1       5.780  18.150   4.192  1.00  0.00     0.031 C 
ATOM     56  C   UNL     1      11.607  16.588   4.862  1.00  0.00     0.029 A 
ATOM     57  C   UNL     1      10.269  16.583   4.502  1.00  0.00     0.049 A 
ATOM     58  H   UNL     1       9.168  15.090   3.495  1.00  0.00     0.167 HD
ATOM     59  C   UNL     1       7.973  17.506   4.359  1.00  0.00     0.074 A 
ATOM     60  C   UNL     1       6.981  18.533   4.599  1.00  0.00     0.031 C 
ATOM     61  C   UNL     1       9.276  17.604   4.724  1.00  0.00     0.037 A 
BRANCH  48  62
ATOM     62  C   UNL     1      12.661  12.645   3.251  1.00  0.00     0.057 A 
ATOM     63  C   UNL     1      13.429  12.426   2.098  1.00  0.00     0.134 A 
ATOM     64  C   UNL     1      13.199  12.218   4.472  1.00  0.00     0.134 A 
ATOM     65  F   UNL     1      12.970  12.799   0.894  1.00  0.00    -0.206 F 
ATOM     66  C   UNL     1      14.667  11.782   2.155  1.00  0.00     0.040 A 
ATOM     67  C   UNL     1      14.449  11.601   4.545  1.00  0.00     0.040 A 
ATOM     68  F   UNL     1      12.522  12.401   5.615  1.00  0.00    -0.206 F 
ATOM     69  C   UNL     1      15.183  11.374   3.382  1.00  0.00     0.006 A 
ENDBRANCH  48  62
BRANCH  49  70
ATOM     70  C   UNL     1       3.575  16.758   2.875  1.00  0.00     0.057 A 
ATOM     71  C   UNL     1       3.337  17.924   2.138  1.00  0.00     0.134 A 
ATOM     72  C   UNL     1       2.499  16.214   3.585  1.00  0.00     0.134 A 
ATOM     73  F   UNL     1       4.332  18.504   1.450  1.00  0.00    -0.206 F 
ATOM     74  C   UNL     1       2.085  18.542   2.130  1.00  0.00     0.040 A 
ATOM     75  C   UNL     1       1.234  16.804   3.562  1.00  0.00     0.040 A 
ATOM     76  F   UNL     1       2.659  15.093   4.304  1.00  0.00    -0.206 F 
ATOM     77  C   UNL     1       1.028  17.979   2.842  1.00  0.00     0.006 A 
ENDBRANCH  49  70
BRANCH  61  78
ATOM     78  C   UNL     1       9.715  18.889   5.368  1.00  0.00     0.057 A 
ATOM     79  C   UNL     1       9.300  19.263   6.653  1.00  0.00     0.134 A 
ATOM     80  C   UNL     1      10.581  19.759   4.693  1.00  0.00     0.134 A 
ATOM     81  F   UNL     1       8.463  18.481   7.353  1.00  0.00    -0.206 F 
ATOM     82  C   UNL     1       9.697  20.473   7.225  1.00  0.00     0.040 A 
ATOM     83  C   UNL     1      11.012  20.955   5.268  1.00  0.00     0.040 A 
ATOM     84  F   UNL     1      11.029  19.457   3.464  1.00  0.00    -0.206 F 
ATOM     85  C   UNL     1      10.560  21.321   6.533  1.00  0.00     0.006 A 
ENDBRANCH  61  78
ENDBRANCH  35  36
ENDBRANCH  27  30
ENDBRANCH  25  26
ENDBRANCH  24  25
ENDBRANCH   1  24
TORSDOF 14
