REMARK SMILES O=C(NCCCNC(=O)c1ccc(NC(=O)c2ccc([N+](=O)[O-])cc2Cl)cc1Cl)c1ccc(-c2c3nc(c(-c4c(F)cccc4F)c4ccc([nH]4)c(-c4c(F)cccc4F)c4nc(c(-c5c(F)cccc5F)c5ccc2[nH]5)C=C4)C=C3)cc1
REMARK SMILES IDX 5 1 4 2 3 3 1 4 2 5 30 7 31 8 83 9 32 10 82 11 33 12 34 13
REMARK SMILES IDX 35 14 76 15 36 16 81 17 75 18 77 19 37 20 80 21 74 22 73 23
REMARK SMILES IDX 38 25 64 26 47 27 63 28 48 29 51 30 62 31 78 32 49 33 50 34
REMARK SMILES IDX 61 36 79 37 52 38 39 39 40 40 45 41 41 42 42 43 44 44 46 45
REMARK SMILES IDX 43 46 65 47 66 48 71 49 67 50 68 51 70 52 72 53 69 54 53 55
REMARK SMILES IDX 54 56 59 57 55 58 56 59 58 60 60 61 57 62 6 63 7 64 8 65
REMARK SMILES IDX 9 67 10 68 11 69 28 70 12 71 27 72 29 73 13 74 14 75 15 76
REMARK SMILES IDX 16 78 17 79 18 80 25 81 19 82 24 83 26 84 20 85 21 86 22 87
REMARK SMILES IDX 23 88
REMARK H PARENT 3 6 77 24 51 35 7 66 14 77
REMARK Flexibility Score: inf
ROOT
ATOM      1  C   UNL     1       4.951  -2.510  -0.380  1.00  0.00     0.042 C 
ENDROOT
BRANCH   1   2
ATOM      2  C   UNL     1       4.540  -1.153  -0.935  1.00  0.00     0.118 C 
BRANCH   2   3
ATOM      3  N   UNL     1       3.109  -0.892  -0.856  1.00  0.00    -0.352 N 
ATOM      4  O   UNL     1       1.157  -0.054  -0.115  1.00  0.00    -0.269 OA
ATOM      5  C   UNL     1       2.386  -0.010  -0.088  1.00  0.00     0.251 C 
ATOM      6  H   UNL     1       2.562  -1.446  -1.459  1.00  0.00     0.163 HD
BRANCH   5   7
ATOM      7  C   UNL     1       3.059   0.959   0.805  1.00  0.00     0.039 A 
ATOM      8  C   UNL     1       4.208   1.639   0.406  1.00  0.00     0.014 A 
ATOM      9  C   UNL     1       2.519   1.203   2.073  1.00  0.00     0.014 A 
ATOM     10  C   UNL     1       4.929   2.382   1.333  1.00  0.00     0.010 A 
ATOM     11  C   UNL     1       3.186   2.045   2.970  1.00  0.00     0.010 A 
ATOM     12  C   UNL     1       4.431   2.595   2.629  1.00  0.00    -0.014 A 
BRANCH  12  13
ATOM     13  C   UNL     1       5.231   3.400   3.590  1.00  0.00     0.031 A 
ATOM     14  C   UNL     1       5.760   2.792   4.864  1.00  0.00     0.074 A 
ATOM     15  C   UNL     1       5.538   4.675   3.279  1.00  0.00     0.049 A 
ATOM     16  N   UNL     1       6.530   3.332   5.777  1.00  0.00    -0.248 NA
ATOM     17  C   UNL     1       5.369   1.406   5.160  1.00  0.00     0.031 C 
ATOM     18  C   UNL     1       5.075   5.385   2.085  1.00  0.00     0.029 A 
ATOM     19  N   UNL     1       6.337   5.588   3.919  1.00  0.00    -0.354 N 
ATOM     20  C   UNL     1       6.689   2.367   6.764  1.00  0.00     0.074 A 
ATOM     21  C   UNL     1       5.918   1.214   6.351  1.00  0.00     0.031 C 
ATOM     22  C   UNL     1       5.653   6.594   2.041  1.00  0.00     0.029 A 
ATOM     23  C   UNL     1       6.477   6.769   3.231  1.00  0.00     0.049 A 
ATOM     24  H   UNL     1       6.768   5.414   4.786  1.00  0.00     0.167 HD
ATOM     25  C   UNL     1       7.416   2.432   7.905  1.00  0.00     0.037 A 
ATOM     26  C   UNL     1       7.188   7.873   3.523  1.00  0.00     0.037 A 
ATOM     27  C   UNL     1       8.213   3.565   8.299  1.00  0.00     0.049 A 
ATOM     28  C   UNL     1       7.997   7.911   4.786  1.00  0.00     0.074 A 
ATOM     29  C   UNL     1       9.018   3.707   9.417  1.00  0.00     0.029 A 
ATOM     30  N   UNL     1       8.309   4.750   7.586  1.00  0.00    -0.354 N 
ATOM     31  N   UNL     1       8.159   6.978   5.691  1.00  0.00    -0.248 NA
ATOM     32  C   UNL     1       8.720   9.159   5.068  1.00  0.00     0.031 C 
ATOM     33  C   UNL     1       9.573   4.992   9.398  1.00  0.00     0.029 A 
ATOM     34  C   UNL     1       9.147   5.634   8.247  1.00  0.00     0.049 A 
ATOM     35  H   UNL     1       7.850   4.936   6.735  1.00  0.00     0.167 HD
ATOM     36  C   UNL     1       9.017   7.516   6.640  1.00  0.00     0.074 A 
ATOM     37  C   UNL     1       9.354   8.852   6.190  1.00  0.00     0.031 C 
ATOM     38  C   UNL     1       9.480   6.956   7.784  1.00  0.00     0.037 A 
BRANCH  25  39
ATOM     39  C   UNL     1       7.374   1.245   8.824  1.00  0.00     0.057 A 
ATOM     40  C   UNL     1       8.032   0.046   8.522  1.00  0.00     0.134 A 
ATOM     41  C   UNL     1       6.699   1.319  10.050  1.00  0.00     0.134 A 
ATOM     42  F   UNL     1       8.686  -0.095   7.359  1.00  0.00    -0.206 F 
ATOM     43  C   UNL     1       8.004  -1.043   9.396  1.00  0.00     0.040 A 
ATOM     44  C   UNL     1       6.683   0.246  10.942  1.00  0.00     0.040 A 
ATOM     45  F   UNL     1       6.054   2.441  10.405  1.00  0.00    -0.206 F 
ATOM     46  C   UNL     1       7.333  -0.942  10.613  1.00  0.00     0.006 A 
ENDBRANCH  25  39
BRANCH  26  47
ATOM     47  C   UNL     1       7.178   9.026   2.589  1.00  0.00     0.057 A 
ATOM     48  C   UNL     1       8.312   9.360   1.841  1.00  0.00     0.134 A 
ATOM     49  C   UNL     1       6.033   9.812   2.415  1.00  0.00     0.134 A 
ATOM     50  F   UNL     1       9.444   8.653   1.979  1.00  0.00    -0.206 F 
ATOM     51  C   UNL     1       8.313  10.443   0.962  1.00  0.00     0.040 A 
ATOM     52  C   UNL     1       6.011  10.882   1.520  1.00  0.00     0.040 A 
ATOM     53  F   UNL     1       4.912   9.537   3.097  1.00  0.00    -0.206 F 
ATOM     54  C   UNL     1       7.157  11.204   0.795  1.00  0.00     0.006 A 
ENDBRANCH  26  47
BRANCH  38  55
ATOM     55  C   UNL     1      10.429   7.775   8.605  1.00  0.00     0.057 A 
ATOM     56  C   UNL     1       9.996   8.873   9.359  1.00  0.00     0.134 A 
ATOM     57  C   UNL     1      11.791   7.452   8.652  1.00  0.00     0.134 A 
ATOM     58  F   UNL     1       8.706   9.242   9.343  1.00  0.00    -0.206 F 
ATOM     59  C   UNL     1      10.889   9.638  10.110  1.00  0.00     0.040 A 
ATOM     60  C   UNL     1      12.689   8.195   9.418  1.00  0.00     0.040 A 
ATOM     61  F   UNL     1      12.268   6.408   7.957  1.00  0.00    -0.206 F 
ATOM     62  C   UNL     1      12.240   9.296  10.145  1.00  0.00     0.006 A 
ENDBRANCH  38  55
ENDBRANCH  12  13
ENDBRANCH   5   7
ENDBRANCH   2   3
ENDBRANCH   1   2
BRANCH   1  63
ATOM     63  C   UNL     1       4.331  -3.712  -1.078  1.00  0.00     0.118 C 
BRANCH  63  64
ATOM     64  N   UNL     1       4.520  -3.713  -2.520  1.00  0.00    -0.352 N 
ATOM     65  C   UNL     1       5.023  -4.676  -3.354  1.00  0.00     0.252 C 
ATOM     66  H   UNL     1       4.239  -2.884  -2.971  1.00  0.00     0.163 HD
ATOM     67  O   UNL     1       5.115  -4.445  -4.558  1.00  0.00    -0.269 OA
BRANCH  65  68
ATOM     68  C   UNL     1       5.567  -5.941  -2.828  1.00  0.00     0.058 A 
ATOM     69  C   UNL     1       6.872  -6.251  -3.216  1.00  0.00     0.017 A 
ATOM     70  C   UNL     1       4.864  -6.851  -2.037  1.00  0.00     0.055 A 
ATOM     71  C   UNL     1       7.503  -7.396  -2.726  1.00  0.00     0.027 A 
ATOM     72  C   UNL     1       5.532  -7.958  -1.490  1.00  0.00     0.047 A 
ATOM     73  Cl  UNL     1       3.169  -6.716  -1.735  1.00  0.00    -0.083 Cl
ATOM     74  C   UNL     1       6.878  -8.211  -1.786  1.00  0.00     0.043 A 
BRANCH  74  75
ATOM     75  N   UNL     1       7.492  -9.283  -1.103  1.00  0.00    -0.322 N 
ATOM     76  C   UNL     1       8.803  -9.697  -0.983  1.00  0.00     0.257 C 
ATOM     77  H   UNL     1       6.856  -9.851  -0.612  1.00  0.00     0.170 HD
ATOM     78  O   UNL     1       9.078 -10.723  -0.366  1.00  0.00    -0.269 OA
BRANCH  76  79
ATOM     79  C   UNL     1       9.904  -8.954  -1.608  1.00  0.00     0.059 A 
ATOM     80  C   UNL     1      10.481  -9.525  -2.752  1.00  0.00     0.022 A 
ATOM     81  C   UNL     1      10.309  -7.691  -1.156  1.00  0.00     0.060 A 
ATOM     82  C   UNL     1      11.383  -8.784  -3.515  1.00  0.00     0.086 A 
ATOM     83  C   UNL     1      11.207  -6.941  -1.922  1.00  0.00     0.107 A 
ATOM     84  Cl  UNL     1       9.677  -6.979   0.284  1.00  0.00    -0.083 Cl
ATOM     85  C   UNL     1      11.713  -7.481  -3.115  1.00  0.00     0.270 A 
BRANCH  85  86
ATOM     86  N   UNL     1      12.547  -6.647  -3.989  1.00  0.00     0.062 N 
ATOM     87  O   UNL     1      13.123  -7.202  -4.933  1.00  0.00    -0.258 OA
ATOM     88  O   UNL     1      12.596  -5.434  -3.743  1.00  0.00    -0.258 OA
ENDBRANCH  85  86
ENDBRANCH  76  79
ENDBRANCH  74  75
ENDBRANCH  65  68
ENDBRANCH  63  64
ENDBRANCH   1  63
TORSDOF 13
