REMARK SMILES CCc1ccsc1CNC(=O)N[C@@H](CCO)C(=O)NCCCNC(=O)c1ccc(-c2c3nc(c(-c4c(F)cccc4F)c4ccc([nH]4)c(-c4c(F)cccc4F)c4nc(c(-c5c(F)cccc5F)c5ccc2[nH]5)C=C4)C=C3)cc1
REMARK SMILES IDX 20 1 19 2 17 3 18 4 13 6 12 7 9 8 10 9 11 11 8 13 7 14 3 15
REMARK SMILES IDX 4 16 5 17 6 18 2 19 1 20 14 21 15 22 16 23 21 25 22 26 23 27
REMARK SMILES IDX 24 28 25 30 26 31 27 32 79 33 28 34 78 35 29 36 30 37 31 38
REMARK SMILES IDX 72 39 32 40 77 41 71 42 73 43 33 44 76 45 70 46 69 47 34 49
REMARK SMILES IDX 60 50 43 51 59 52 44 53 47 54 58 55 74 56 45 57 46 58 57 60
REMARK SMILES IDX 75 61 48 62 35 63 36 64 41 65 37 66 38 67 40 68 42 69 39 70
REMARK SMILES IDX 61 71 62 72 67 73 63 74 64 75 66 76 68 77 65 78 49 79 50 80
REMARK SMILES IDX 55 81 51 82 52 83 54 84 56 85 53 86
REMARK H PARENT 19 5 9 10 12 12 16 24 23 29 73 48 47 59
REMARK Flexibility Score: inf
ROOT
ATOM      1  C   UNL     1      -3.627   8.664   1.056  1.00  0.00     0.117 C 
ENDROOT
BRANCH   1   2
ATOM      2  N   UNL     1      -3.201   7.821  -0.047  1.00  0.00    -0.354 N 
ATOM      3  C   UNL     1      -2.676   6.572  -0.124  1.00  0.00     0.242 C 
ATOM      4  O   UNL     1      -2.655   6.082  -1.259  1.00  0.00    -0.273 OA
ATOM      5  H   UNL     1      -3.319   8.246  -0.927  1.00  0.00     0.163 HD
BRANCH   3   6
ATOM      6  C   UNL     1      -2.341   5.699   1.098  1.00  0.00     0.175 C 
BRANCH   6   7
ATOM      7  N   UNL     1      -1.577   6.360   2.153  1.00  0.00    -0.326 N 
ATOM      8  N   UNL     1       0.450   5.159   2.345  1.00  0.00    -0.333 N 
ATOM      9  C   UNL     1      -0.311   6.231   2.567  1.00  0.00     0.315 C 
ATOM     10  H   UNL     1       1.398   5.311   2.562  1.00  0.00     0.165 HD
ATOM     11  O   UNL     1       0.167   7.165   3.214  1.00  0.00    -0.249 OA
ATOM     12  H   UNL     1      -2.093   7.031   2.656  1.00  0.00     0.166 HD
BRANCH   8  13
ATOM     13  C   UNL     1       0.193   3.822   1.857  1.00  0.00     0.165 C 
BRANCH  13  14
ATOM     14  C   UNL     1       0.820   3.569   0.506  1.00  0.00     0.027 A 
ATOM     15  C   UNL     1       1.038   2.327  -0.092  1.00  0.00    -0.033 A 
ATOM     16  C   UNL     1       1.676   2.480  -1.371  1.00  0.00     0.016 A 
ATOM     17  C   UNL     1       1.900   3.793  -1.706  1.00  0.00     0.065 A 
ATOM     18  S   UNL     1       1.343   4.858  -0.505  1.00  0.00    -0.147 S 
BRANCH  15  19
ATOM     19  C   UNL     1       0.638   1.013   0.536  1.00  0.00     0.033 C 
ATOM     20  C   UNL     1       1.104  -0.235  -0.197  1.00  0.00     0.009 C 
ENDBRANCH  15  19
ENDBRANCH  13  14
ENDBRANCH   8  13
ENDBRANCH   6   7
BRANCH   6  21
ATOM     21  C   UNL     1      -3.550   4.917   1.643  1.00  0.00     0.063 C 
BRANCH  21  22
ATOM     22  C   UNL     1      -4.776   5.715   2.076  1.00  0.00     0.158 C 
BRANCH  22  23
ATOM     23  O   UNL     1      -5.599   6.096   0.984  1.00  0.00    -0.396 OA
ATOM     24  H   UNL     1      -5.096   6.669   0.385  1.00  0.00     0.210 HD
ENDBRANCH  22  23
ENDBRANCH  21  22
ENDBRANCH   6  21
ENDBRANCH   3   6
ENDBRANCH   1   2
BRANCH   1  25
ATOM     25  C   UNL     1      -3.004  10.047   1.006  1.00  0.00     0.042 C 
BRANCH  25  26
ATOM     26  C   UNL     1      -3.315  10.810  -0.274  1.00  0.00     0.118 C 
BRANCH  26  27
ATOM     27  N   UNL     1      -4.745  10.979  -0.510  1.00  0.00    -0.352 N 
ATOM     28  C   UNL     1      -5.517  12.116  -0.503  1.00  0.00     0.251 C 
ATOM     29  H   UNL     1      -5.235  10.148  -0.704  1.00  0.00     0.163 HD
ATOM     30  O   UNL     1      -6.740  12.032  -0.556  1.00  0.00    -0.269 OA
BRANCH  28  31
ATOM     31  C   UNL     1      -4.871  13.438  -0.401  1.00  0.00     0.039 A 
ATOM     32  C   UNL     1      -5.396  14.390   0.475  1.00  0.00     0.014 A 
ATOM     33  C   UNL     1      -3.728  13.722  -1.149  1.00  0.00     0.014 A 
ATOM     34  C   UNL     1      -4.716  15.594   0.668  1.00  0.00     0.010 A 
ATOM     35  C   UNL     1      -2.995  14.866  -0.872  1.00  0.00     0.010 A 
ATOM     36  C   UNL     1      -3.483  15.819   0.034  1.00  0.00    -0.014 A 
BRANCH  36  37
ATOM     37  C   UNL     1      -2.688  17.047   0.280  1.00  0.00     0.031 A 
ATOM     38  C   UNL     1      -2.352  17.958  -0.870  1.00  0.00     0.074 A 
ATOM     39  C   UNL     1      -2.193  17.293   1.509  1.00  0.00     0.049 A 
ATOM     40  N   UNL     1      -1.560  18.999  -0.898  1.00  0.00    -0.248 NA
ATOM     41  C   UNL     1      -2.952  17.627  -2.174  1.00  0.00     0.031 C 
ATOM     42  C   UNL     1      -2.394  16.453   2.692  1.00  0.00     0.029 A 
ATOM     43  N   UNL     1      -1.403  18.319   1.963  1.00  0.00    -0.354 N 
ATOM     44  C   UNL     1      -1.544  19.423  -2.221  1.00  0.00     0.074 A 
ATOM     45  C   UNL     1      -2.354  18.494  -2.976  1.00  0.00     0.031 C 
ATOM     46  C   UNL     1      -1.767  17.011   3.740  1.00  0.00     0.029 A 
ATOM     47  C   UNL     1      -1.087  18.223   3.297  1.00  0.00     0.049 A 
ATOM     48  H   UNL     1      -1.091  19.054   1.387  1.00  0.00     0.167 HD
ATOM     49  C   UNL     1      -0.935  20.507  -2.755  1.00  0.00     0.037 A 
ATOM     50  C   UNL     1      -0.329  19.021   4.072  1.00  0.00     0.037 A 
ATOM     51  C   UNL     1      -0.174  21.459  -1.991  1.00  0.00     0.049 A 
ATOM     52  C   UNL     1       0.308  20.239   3.462  1.00  0.00     0.074 A 
ATOM     53  C   UNL     1       0.428  22.627  -2.422  1.00  0.00     0.029 A 
ATOM     54  N   UNL     1       0.076  21.355  -0.631  1.00  0.00    -0.354 N 
ATOM     55  N   UNL     1       0.266  20.660   2.221  1.00  0.00    -0.248 NA
ATOM     56  C   UNL     1       1.092  21.097   4.362  1.00  0.00     0.031 C 
ATOM     57  C   UNL     1       1.067  23.217  -1.327  1.00  0.00     0.029 A 
ATOM     58  C   UNL     1       0.829  22.436  -0.207  1.00  0.00     0.049 A 
ATOM     59  H   UNL     1      -0.236  20.622  -0.053  1.00  0.00     0.167 HD
ATOM     60  C   UNL     1       0.992  21.843   2.197  1.00  0.00     0.074 A 
ATOM     61  C   UNL     1       1.451  22.081   3.550  1.00  0.00     0.031 C 
ATOM     62  C   UNL     1       1.259  22.660   1.149  1.00  0.00     0.037 A 
BRANCH  49  63
ATOM     63  C   UNL     1      -1.089  20.731  -4.230  1.00  0.00     0.057 A 
ATOM     64  C   UNL     1      -2.314  21.117  -4.792  1.00  0.00     0.134 A 
ATOM     65  C   UNL     1       0.001  20.584  -5.096  1.00  0.00     0.134 A 
ATOM     66  F   UNL     1      -3.401  21.259  -4.020  1.00  0.00    -0.206 F 
ATOM     67  C   UNL     1      -2.455  21.323  -6.165  1.00  0.00     0.040 A 
ATOM     68  C   UNL     1      -0.121  20.814  -6.468  1.00  0.00     0.040 A 
ATOM     69  F   UNL     1       1.203  20.221  -4.624  1.00  0.00    -0.206 F 
ATOM     70  C   UNL     1      -1.353  21.178  -7.006  1.00  0.00     0.006 A 
ENDBRANCH  49  63
BRANCH  50  71
ATOM     71  C   UNL     1      -0.151  18.714   5.513  1.00  0.00     0.057 A 
ATOM     72  C   UNL     1      -0.745  19.513   6.498  1.00  0.00     0.134 A 
ATOM     73  C   UNL     1       0.625  17.632   5.943  1.00  0.00     0.134 A 
ATOM     74  F   UNL     1      -1.486  20.575   6.148  1.00  0.00    -0.206 F 
ATOM     75  C   UNL     1      -0.555  19.262   7.857  1.00  0.00     0.040 A 
ATOM     76  C   UNL     1       0.804  17.354   7.300  1.00  0.00     0.040 A 
ATOM     77  F   UNL     1       1.213  16.823   5.050  1.00  0.00    -0.206 F 
ATOM     78  C   UNL     1       0.220  18.177   8.261  1.00  0.00     0.006 A 
ENDBRANCH  50  71
BRANCH  62  79
ATOM     79  C   UNL     1       2.046  23.903   1.432  1.00  0.00     0.057 A 
ATOM     80  C   UNL     1       3.421  23.863   1.692  1.00  0.00     0.134 A 
ATOM     81  C   UNL     1       1.427  25.159   1.399  1.00  0.00     0.134 A 
ATOM     82  F   UNL     1       4.069  22.689   1.748  1.00  0.00    -0.206 F 
ATOM     83  C   UNL     1       4.151  25.028   1.929  1.00  0.00     0.040 A 
ATOM     84  C   UNL     1       2.150  26.333   1.611  1.00  0.00     0.040 A 
ATOM     85  F   UNL     1       0.114  25.265   1.147  1.00  0.00    -0.206 F 
ATOM     86  C   UNL     1       3.516  26.268   1.882  1.00  0.00     0.006 A 
ENDBRANCH  62  79
ENDBRANCH  36  37
ENDBRANCH  28  31
ENDBRANCH  26  27
ENDBRANCH  25  26
ENDBRANCH   1  25
TORSDOF 17
