REMARK SMILES CCO[C@H](CCn1nnc2c(cnn2C)c1=O)C(=O)NCCCNC(=O)c1ccc(-c2c3nc(c(-c4c(F)cccc4F)c4ccc([nH]4)c(-c4c(F)cccc4F)c4nc(c(-c5c(F)cccc5F)c5ccc2[nH]5)C=C4)C=C3)cc1
REMARK SMILES IDX 21 1 20 2 18 3 19 4 4 6 3 7 2 8 1 9 5 10 6 11 7 12 8 13
REMARK SMILES IDX 16 14 9 15 11 16 17 17 10 18 12 19 14 20 13 21 15 22 22 23
REMARK SMILES IDX 23 24 24 25 25 26 26 28 27 29 28 30 80 31 29 32 79 33 30 34
REMARK SMILES IDX 31 35 32 36 73 37 33 38 78 39 72 40 74 41 34 42 77 43 71 44
REMARK SMILES IDX 70 45 35 47 61 48 44 49 60 50 45 51 48 52 59 53 75 54 46 55
REMARK SMILES IDX 47 56 58 58 76 59 49 60 36 61 37 62 42 63 38 64 39 65 41 66
REMARK SMILES IDX 43 67 40 68 62 69 63 70 68 71 64 72 65 73 67 74 69 75 66 76
REMARK SMILES IDX 50 77 51 78 56 79 52 80 53 81 55 82 57 83 54 84
REMARK H PARENT 20 5 24 27 74 46 48 57
REMARK Flexibility Score: inf
ROOT
ATOM      1  C   UNL     1       1.575  -1.895   0.037  1.00  0.00     0.117 C 
ENDROOT
BRANCH   1   2
ATOM      2  N   UNL     1       2.484  -0.801  -0.213  1.00  0.00    -0.354 N 
ATOM      3  C   UNL     1       3.174  -0.070   0.715  1.00  0.00     0.249 C 
ATOM      4  O   UNL     1       4.322   0.274   0.412  1.00  0.00    -0.272 OA
ATOM      5  H   UNL     1       2.622  -0.554  -1.156  1.00  0.00     0.163 HD
BRANCH   3   6
ATOM      6  C   UNL     1       2.581   0.302   2.100  1.00  0.00     0.208 C 
BRANCH   6   7
ATOM      7  O   UNL     1       2.849  -0.529   3.231  1.00  0.00    -0.369 OA
BRANCH   7   8
ATOM      8  C   UNL     1       3.036  -1.931   3.106  1.00  0.00     0.158 C 
ATOM      9  C   UNL     1       4.269  -2.399   2.345  1.00  0.00     0.035 C 
ENDBRANCH   7   8
ENDBRANCH   6   7
BRANCH   6  10
ATOM     10  C   UNL     1       1.101   0.773   2.084  1.00  0.00     0.066 C 
BRANCH  10  11
ATOM     11  C   UNL     1       0.822   2.177   1.484  1.00  0.00     0.153 C 
BRANCH  11  12
ATOM     12  N   UNL     1       1.262   2.372   0.113  1.00  0.00    -0.210 N 
ATOM     13  N   UNL     1       2.641   2.520  -0.056  1.00  0.00    -0.062 NA
ATOM     14  C   UNL     1       0.349   2.436  -0.945  1.00  0.00     0.280 A 
ATOM     15  N   UNL     1       3.173   2.310  -1.181  1.00  0.00    -0.111 NA
ATOM     16  C   UNL     1       0.997   2.364  -2.207  1.00  0.00     0.108 A 
ATOM     17  O   UNL     1      -0.875   2.427  -0.840  1.00  0.00    -0.267 OA
ATOM     18  C   UNL     1       2.347   2.171  -2.223  1.00  0.00     0.187 A 
ATOM     19  C   UNL     1       0.627   2.404  -3.538  1.00  0.00     0.151 A 
ATOM     20  N   UNL     1       2.622   1.684  -3.464  1.00  0.00    -0.249 N 
ATOM     21  N   UNL     1       1.613   1.953  -4.318  1.00  0.00    -0.179 NA
ATOM     22  C   UNL     1       3.603   0.686  -3.824  1.00  0.00     0.176 C 
ENDBRANCH  11  12
ENDBRANCH  10  11
ENDBRANCH   6  10
ENDBRANCH   3   6
ENDBRANCH   1   2
BRANCH   1  23
ATOM     23  C   UNL     1       0.229  -1.802  -0.636  1.00  0.00     0.042 C 
BRANCH  23  24
ATOM     24  C   UNL     1       0.229  -1.760  -2.148  1.00  0.00     0.118 C 
BRANCH  24  25
ATOM     25  N   UNL     1       0.625  -2.974  -2.847  1.00  0.00    -0.352 N 
ATOM     26  C   UNL     1       0.687  -3.215  -4.215  1.00  0.00     0.251 C 
ATOM     27  H   UNL     1       0.885  -3.729  -2.271  1.00  0.00     0.163 HD
ATOM     28  O   UNL     1       1.068  -4.315  -4.609  1.00  0.00    -0.269 OA
BRANCH  26  29
ATOM     29  C   UNL     1       0.398  -2.138  -5.204  1.00  0.00     0.039 A 
ATOM     30  C   UNL     1       1.064  -2.089  -6.440  1.00  0.00     0.014 A 
ATOM     31  C   UNL     1      -0.482  -1.119  -4.906  1.00  0.00     0.014 A 
ATOM     32  C   UNL     1       1.034  -0.918  -7.226  1.00  0.00     0.010 A 
ATOM     33  C   UNL     1      -0.440   0.053  -5.625  1.00  0.00     0.010 A 
ATOM     34  C   UNL     1       0.367   0.210  -6.754  1.00  0.00    -0.014 A 
BRANCH  34  35
ATOM     35  C   UNL     1       0.285   1.518  -7.433  1.00  0.00     0.031 A 
ATOM     36  C   UNL     1      -1.111   1.918  -7.753  1.00  0.00     0.074 A 
ATOM     37  C   UNL     1       1.225   2.485  -7.548  1.00  0.00     0.049 A 
ATOM     38  N   UNL     1      -1.793   1.558  -8.792  1.00  0.00    -0.248 NA
ATOM     39  C   UNL     1      -1.920   2.603  -6.725  1.00  0.00     0.031 C 
ATOM     40  C   UNL     1       2.577   2.536  -6.999  1.00  0.00     0.029 A 
ATOM     41  N   UNL     1       1.099   3.718  -8.139  1.00  0.00    -0.354 N 
ATOM     42  C   UNL     1      -3.022   2.181  -8.634  1.00  0.00     0.074 A 
ATOM     43  C   UNL     1      -3.147   2.464  -7.233  1.00  0.00     0.031 C 
ATOM     44  C   UNL     1       3.067   3.799  -7.090  1.00  0.00     0.029 A 
ATOM     45  C   UNL     1       2.158   4.590  -7.902  1.00  0.00     0.049 A 
ATOM     46  H   UNL     1       0.321   3.966  -8.688  1.00  0.00     0.167 HD
ATOM     47  C   UNL     1      -3.643   2.800  -9.675  1.00  0.00     0.037 A 
ATOM     48  C   UNL     1       2.299   5.846  -8.395  1.00  0.00     0.037 A 
ATOM     49  C   UNL     1      -2.886   2.624 -10.891  1.00  0.00     0.049 A 
ATOM     50  C   UNL     1       1.515   5.905  -9.648  1.00  0.00     0.074 A 
ATOM     51  C   UNL     1      -2.635   1.614 -11.792  1.00  0.00     0.029 A 
ATOM     52  N   UNL     1      -1.913   3.574 -11.065  1.00  0.00    -0.354 N 
ATOM     53  N   UNL     1       1.827   5.234 -10.721  1.00  0.00    -0.248 NA
ATOM     54  C   UNL     1       0.197   6.532  -9.662  1.00  0.00     0.031 C 
ATOM     55  C   UNL     1      -1.391   1.930 -12.418  1.00  0.00     0.029 A 
ATOM     56  C   UNL     1      -0.921   3.132 -11.901  1.00  0.00     0.049 A 
ATOM     57  H   UNL     1      -1.926   4.463 -10.643  1.00  0.00     0.167 HD
ATOM     58  C   UNL     1       0.612   4.974 -11.310  1.00  0.00     0.074 A 
ATOM     59  C   UNL     1      -0.307   5.958 -10.757  1.00  0.00     0.031 C 
ATOM     60  C   UNL     1       0.377   3.770 -11.902  1.00  0.00     0.037 A 
BRANCH  47  61
ATOM     61  C   UNL     1      -4.640   3.931  -9.565  1.00  0.00     0.057 A 
ATOM     62  C   UNL     1      -5.417   4.247 -10.692  1.00  0.00     0.134 A 
ATOM     63  C   UNL     1      -4.721   4.860  -8.507  1.00  0.00     0.134 A 
ATOM     64  F   UNL     1      -5.399   3.461 -11.779  1.00  0.00    -0.206 F 
ATOM     65  C   UNL     1      -6.194   5.409 -10.770  1.00  0.00     0.040 A 
ATOM     66  C   UNL     1      -5.543   5.990  -8.548  1.00  0.00     0.040 A 
ATOM     67  F   UNL     1      -3.939   4.792  -7.423  1.00  0.00    -0.206 F 
ATOM     68  C   UNL     1      -6.266   6.281  -9.692  1.00  0.00     0.006 A 
ENDBRANCH  47  61
BRANCH  48  69
ATOM     69  C   UNL     1       3.024   7.050  -7.936  1.00  0.00     0.057 A 
ATOM     70  C   UNL     1       3.397   8.054  -8.848  1.00  0.00     0.134 A 
ATOM     71  C   UNL     1       3.047   7.404  -6.581  1.00  0.00     0.134 A 
ATOM     72  F   UNL     1       3.397   7.814 -10.167  1.00  0.00    -0.206 F 
ATOM     73  C   UNL     1       3.700   9.358  -8.442  1.00  0.00     0.040 A 
ATOM     74  C   UNL     1       3.355   8.705  -6.161  1.00  0.00     0.040 A 
ATOM     75  F   UNL     1       2.670   6.527  -5.638  1.00  0.00    -0.206 F 
ATOM     76  C   UNL     1       3.656   9.693  -7.094  1.00  0.00     0.006 A 
ENDBRANCH  48  69
BRANCH  60  77
ATOM     77  C   UNL     1       1.567   3.011 -12.408  1.00  0.00     0.057 A 
ATOM     78  C   UNL     1       2.569   2.454 -11.601  1.00  0.00     0.134 A 
ATOM     79  C   UNL     1       1.682   2.806 -13.787  1.00  0.00     0.134 A 
ATOM     80  F   UNL     1       2.518   2.544 -10.268  1.00  0.00    -0.206 F 
ATOM     81  C   UNL     1       3.652   1.756 -12.145  1.00  0.00     0.040 A 
ATOM     82  C   UNL     1       2.741   2.084 -14.341  1.00  0.00     0.040 A 
ATOM     83  F   UNL     1       0.748   3.289 -14.621  1.00  0.00    -0.206 F 
ATOM     84  C   UNL     1       3.737   1.564 -13.520  1.00  0.00     0.006 A 
ENDBRANCH  60  77
ENDBRANCH  34  35
ENDBRANCH  26  29
ENDBRANCH  24  25
ENDBRANCH  23  24
ENDBRANCH   1  23
TORSDOF 15
