REMARK SMILES CC[C@H](C(=O)NCCCNC(=O)c1ccc(-c2c3nc(c(-c4c(F)cccc4F)c4ccc([nH]4)c(-c4c(F)cccc4F)c4nc(c(-c5c(F)cccc5F)c5ccc2[nH]5)C=C4)C=C3)cc1)[N@H+](C)Cc1cncn1C(C)C
REMARK SMILES IDX 7 1 6 2 4 3 5 4 3 6 2 7 1 8 67 9 68 10 69 12 70 13 71 14
REMARK SMILES IDX 74 15 72 16 73 17 75 18 76 19 77 20 8 21 9 22 10 23 11 24
REMARK SMILES IDX 12 26 13 27 14 28 66 29 15 30 65 31 16 32 17 33 18 34 59 35
REMARK SMILES IDX 19 36 64 37 58 38 60 39 20 40 63 41 57 42 56 43 21 45 47 46
REMARK SMILES IDX 30 47 46 48 31 49 34 50 45 51 61 52 32 53 33 54 44 56 62 57
REMARK SMILES IDX 35 58 22 59 23 60 28 61 24 62 25 63 27 64 29 65 26 66 48 67
REMARK SMILES IDX 49 68 54 69 50 70 51 71 53 72 55 73 52 74 36 75 37 76 42 77
REMARK SMILES IDX 38 78 39 79 41 80 43 81 40 82
REMARK H PARENT 6 5 67 11 10 25 60 44 34 55
REMARK Flexibility Score: inf
ROOT
ATOM      1  C   UNL     1       2.192   0.621  -0.239  1.00  0.00     0.118 C 
ENDROOT
BRANCH   1   2
ATOM      2  N   UNL     1       1.611  -0.590   0.315  1.00  0.00    -0.351 N 
ATOM      3  C   UNL     1       0.784  -0.674   1.411  1.00  0.00     0.278 C 
ATOM      4  O   UNL     1       0.265  -1.759   1.672  1.00  0.00    -0.268 OA
ATOM      5  H   UNL     1       1.831  -1.435  -0.140  1.00  0.00     0.163 HD
BRANCH   3   6
ATOM      6  C   UNL     1       0.567   0.617   2.230  1.00  0.00     0.273 C 
BRANCH   6   7
ATOM      7  C   UNL     1      -0.272   1.635   1.413  1.00  0.00     0.072 C 
ATOM      8  C   UNL     1      -1.458   1.075   0.643  1.00  0.00     0.011 C 
ENDBRANCH   6   7
BRANCH   6   9
ATOM      9  N   UNL     1       0.210   0.388   3.646  1.00  0.00    -0.322 N 
ATOM     10  C   UNL     1       1.021  -0.592   4.357  1.00  0.00     0.333 C 
ATOM     11  H   UNL     1       0.494   1.306   3.989  1.00  0.00     0.348 HD
BRANCH   9  12
ATOM     12  C   UNL     1      -1.184   0.372   4.041  1.00  0.00     0.319 C 
BRANCH  12  13
ATOM     13  C   UNL     1      -1.759   1.751   4.131  1.00  0.00     0.093 A 
ATOM     14  C   UNL     1      -3.044   2.157   3.819  1.00  0.00     0.140 A 
ATOM     15  N   UNL     1      -1.110   2.922   4.493  1.00  0.00    -0.327 N 
ATOM     16  N   UNL     1      -3.183   3.512   3.920  1.00  0.00    -0.245 NA
ATOM     17  C   UNL     1      -2.007   3.946   4.306  1.00  0.00     0.200 A 
BRANCH  15  18
ATOM     18  C   UNL     1       0.274   3.126   4.921  1.00  0.00     0.082 C 
ATOM     19  C   UNL     1       1.100   3.938   3.913  1.00  0.00     0.031 C 
ATOM     20  C   UNL     1       0.351   3.750   6.312  1.00  0.00     0.031 C 
ENDBRANCH  15  18
ENDBRANCH  12  13
ENDBRANCH   9  12
ENDBRANCH   6   9
ENDBRANCH   3   6
ENDBRANCH   1   2
BRANCH   1  21
ATOM     21  C   UNL     1       3.406   0.376  -1.101  1.00  0.00     0.042 C 
BRANCH  21  22
ATOM     22  C   UNL     1       3.057  -0.300  -2.412  1.00  0.00     0.118 C 
BRANCH  22  23
ATOM     23  N   UNL     1       2.321   0.563  -3.333  1.00  0.00    -0.352 N 
ATOM     24  C   UNL     1       2.691   1.060  -4.563  1.00  0.00     0.251 C 
ATOM     25  H   UNL     1       1.423   0.830  -3.028  1.00  0.00     0.163 HD
ATOM     26  O   UNL     1       1.986   1.881  -5.141  1.00  0.00    -0.269 OA
BRANCH  24  27
ATOM     27  C   UNL     1       3.972   0.630  -5.158  1.00  0.00     0.039 A 
ATOM     28  C   UNL     1       4.838   1.588  -5.687  1.00  0.00     0.014 A 
ATOM     29  C   UNL     1       4.348  -0.712  -5.112  1.00  0.00     0.014 A 
ATOM     30  C   UNL     1       6.129   1.210  -6.063  1.00  0.00     0.010 A 
ATOM     31  C   UNL     1       5.669  -1.057  -5.353  1.00  0.00     0.010 A 
ATOM     32  C   UNL     1       6.574  -0.102  -5.838  1.00  0.00    -0.014 A 
BRANCH  32  33
ATOM     33  C   UNL     1       7.973  -0.518  -6.112  1.00  0.00     0.031 A 
ATOM     34  C   UNL     1       8.239  -1.649  -7.069  1.00  0.00     0.074 A 
ATOM     35  C   UNL     1       8.991   0.048  -5.434  1.00  0.00     0.049 A 
ATOM     36  N   UNL     1       9.367  -2.250  -7.348  1.00  0.00    -0.248 NA
ATOM     37  C   UNL     1       7.072  -2.211  -7.771  1.00  0.00     0.031 C 
ATOM     38  C   UNL     1       8.862   1.107  -4.429  1.00  0.00     0.029 A 
ATOM     39  N   UNL     1      10.341  -0.199  -5.479  1.00  0.00    -0.354 N 
ATOM     40  C   UNL     1       9.038  -3.275  -8.226  1.00  0.00     0.074 A 
ATOM     41  C   UNL     1       7.602  -3.259  -8.382  1.00  0.00     0.031 C 
ATOM     42  C   UNL     1      10.083   1.439  -3.979  1.00  0.00     0.029 A 
ATOM     43  C   UNL     1      11.076   0.591  -4.629  1.00  0.00     0.049 A 
ATOM     44  H   UNL     1      10.744  -0.879  -6.065  1.00  0.00     0.167 HD
ATOM     45  C   UNL     1       9.861  -4.132  -8.873  1.00  0.00     0.037 A 
ATOM     46  C   UNL     1      12.402   0.623  -4.397  1.00  0.00     0.037 A 
ATOM     47  C   UNL     1      11.294  -4.109  -8.760  1.00  0.00     0.049 A 
ATOM     48  C   UNL     1      13.300  -0.320  -5.149  1.00  0.00     0.074 A 
ATOM     49  C   UNL     1      12.224  -4.880  -9.434  1.00  0.00     0.029 A 
ATOM     50  N   UNL     1      12.004  -3.263  -7.922  1.00  0.00    -0.354 N 
ATOM     51  N   UNL     1      12.982  -1.237  -6.031  1.00  0.00    -0.248 NA
ATOM     52  C   UNL     1      14.741  -0.221  -4.879  1.00  0.00     0.031 C 
ATOM     53  C   UNL     1      13.496  -4.526  -8.976  1.00  0.00     0.029 A 
ATOM     54  C   UNL     1      13.361  -3.504  -8.049  1.00  0.00     0.049 A 
ATOM     55  H   UNL     1      11.602  -2.591  -7.325  1.00  0.00     0.167 HD
ATOM     56  C   UNL     1      14.181  -1.804  -6.440  1.00  0.00     0.074 A 
ATOM     57  C   UNL     1      15.235  -1.119  -5.720  1.00  0.00     0.031 C 
ATOM     58  C   UNL     1      14.393  -2.802  -7.332  1.00  0.00     0.037 A 
BRANCH  45  59
ATOM     59  C   UNL     1       9.227  -5.151  -9.774  1.00  0.00     0.057 A 
ATOM     60  C   UNL     1       8.605  -4.790 -10.977  1.00  0.00     0.134 A 
ATOM     61  C   UNL     1       9.253  -6.512  -9.444  1.00  0.00     0.134 A 
ATOM     62  F   UNL     1       8.531  -3.502 -11.344  1.00  0.00    -0.206 F 
ATOM     63  C   UNL     1       8.006  -5.741 -11.804  1.00  0.00     0.040 A 
ATOM     64  C   UNL     1       8.684  -7.476 -10.278  1.00  0.00     0.040 A 
ATOM     65  F   UNL     1       9.835  -6.927  -8.308  1.00  0.00    -0.206 F 
ATOM     66  C   UNL     1       8.051  -7.090 -11.458  1.00  0.00     0.006 A 
ENDBRANCH  45  59
BRANCH  46  67
ATOM     67  C   UNL     1      12.968   1.602  -3.434  1.00  0.00     0.057 A 
ATOM     68  C   UNL     1      13.732   2.688  -3.878  1.00  0.00     0.134 A 
ATOM     69  C   UNL     1      12.770   1.475  -2.054  1.00  0.00     0.134 A 
ATOM     70  F   UNL     1      13.971   2.854  -5.187  1.00  0.00    -0.206 F 
ATOM     71  C   UNL     1      14.295   3.601  -2.985  1.00  0.00     0.040 A 
ATOM     72  C   UNL     1      13.308   2.394  -1.151  1.00  0.00     0.040 A 
ATOM     73  F   UNL     1      12.041   0.461  -1.565  1.00  0.00    -0.206 F 
ATOM     74  C   UNL     1      14.079   3.457  -1.616  1.00  0.00     0.006 A 
ENDBRANCH  46  67
BRANCH  58  75
ATOM     75  C   UNL     1      15.816  -3.188  -7.607  1.00  0.00     0.057 A 
ATOM     76  C   UNL     1      16.577  -3.910  -6.681  1.00  0.00     0.134 A 
ATOM     77  C   UNL     1      16.412  -2.875  -8.836  1.00  0.00     0.134 A 
ATOM     78  F   UNL     1      16.067  -4.228  -5.482  1.00  0.00    -0.206 F 
ATOM     79  C   UNL     1      17.890  -4.292  -6.960  1.00  0.00     0.040 A 
ATOM     80  C   UNL     1      17.714  -3.274  -9.136  1.00  0.00     0.040 A 
ATOM     81  F   UNL     1      15.731  -2.193  -9.770  1.00  0.00    -0.206 F 
ATOM     82  C   UNL     1      18.458  -3.981  -8.194  1.00  0.00     0.006 A 
ENDBRANCH  58  75
ENDBRANCH  32  33
ENDBRANCH  24  27
ENDBRANCH  22  23
ENDBRANCH  21  22
ENDBRANCH   1  21
TORSDOF 15
