REMARK SMILES O=C(NCCCNC(=O)c1cnccc1C(=O)N1CCC(Cc2ccccc2)CC1)c1ccc(-c2c3nc(c(-c4c(F)cccc4F)c4ccc([nH]4)c(-c4c(F)cccc4F)c4nc(c(-c5c(F)cccc5F)c5ccc2[nH]5)C=C4)C=C3)cc1
REMARK SMILES IDX 5 1 4 2 3 3 1 4 2 5 31 7 32 8 84 9 33 10 83 11 34 12 35 13
REMARK SMILES IDX 36 14 77 15 37 16 82 17 76 18 78 19 38 20 81 21 75 22 74 23
REMARK SMILES IDX 39 25 65 26 48 27 64 28 49 29 52 30 63 31 79 32 50 33 51 34
REMARK SMILES IDX 62 36 80 37 53 38 40 39 41 40 46 41 42 42 43 43 45 44 47 45
REMARK SMILES IDX 44 46 66 47 67 48 72 49 68 50 69 51 71 52 73 53 70 54 54 55
REMARK SMILES IDX 55 56 60 57 56 58 57 59 59 60 61 61 58 62 6 63 7 64 8 65
REMARK SMILES IDX 9 67 10 68 11 69 15 70 12 71 14 72 13 73 16 74 17 75 18 76
REMARK SMILES IDX 19 77 30 78 20 79 29 80 21 81 22 82 23 83 24 84 28 85 25 86
REMARK SMILES IDX 27 87 26 88
REMARK H PARENT 3 6 78 24 52 35 7 66
REMARK Flexibility Score: inf
ROOT
ATOM      1  C   UNL     1       5.539  -1.904  -0.778  1.00  0.00     0.042 C 
ENDROOT
BRANCH   1   2
ATOM      2  C   UNL     1       4.772  -0.596  -0.959  1.00  0.00     0.118 C 
BRANCH   2   3
ATOM      3  N   UNL     1       3.327  -0.689  -0.789  1.00  0.00    -0.352 N 
ATOM      4  O   UNL     1       1.264  -0.324   0.038  1.00  0.00    -0.269 OA
ATOM      5  C   UNL     1       2.472  -0.121   0.123  1.00  0.00     0.251 C 
ATOM      6  H   UNL     1       2.882  -1.266  -1.451  1.00  0.00     0.163 HD
BRANCH   5   7
ATOM      7  C   UNL     1       3.008   0.642   1.266  1.00  0.00     0.039 A 
ATOM      8  C   UNL     1       4.036   1.563   1.102  1.00  0.00     0.014 A 
ATOM      9  C   UNL     1       2.527   0.345   2.544  1.00  0.00     0.014 A 
ATOM     10  C   UNL     1       4.766   1.962   2.211  1.00  0.00     0.010 A 
ATOM     11  C   UNL     1       3.175   0.866   3.664  1.00  0.00     0.010 A 
ATOM     12  C   UNL     1       4.351   1.611   3.506  1.00  0.00    -0.014 A 
BRANCH  12  13
ATOM     13  C   UNL     1       5.177   2.025   4.668  1.00  0.00     0.031 A 
ATOM     14  C   UNL     1       5.796   1.002   5.585  1.00  0.00     0.074 A 
ATOM     15  C   UNL     1       5.423   3.336   4.851  1.00  0.00     0.049 A 
ATOM     16  N   UNL     1       6.562   1.192   6.631  1.00  0.00    -0.248 NA
ATOM     17  C   UNL     1       5.511  -0.415   5.306  1.00  0.00     0.031 C 
ATOM     18  C   UNL     1       4.878   4.418   4.026  1.00  0.00     0.029 A 
ATOM     19  N   UNL     1       6.225   3.981   5.754  1.00  0.00    -0.354 N 
ATOM     20  C   UNL     1       6.807  -0.070   7.159  1.00  0.00     0.074 A 
ATOM     21  C   UNL     1       6.104  -1.020   6.326  1.00  0.00     0.031 C 
ATOM     22  C   UNL     1       5.428   5.579   4.404  1.00  0.00     0.029 A 
ATOM     23  C   UNL     1       6.300   5.336   5.546  1.00  0.00     0.049 A 
ATOM     24  H   UNL     1       6.700   3.519   6.482  1.00  0.00     0.167 HD
ATOM     25  C   UNL     1       7.552  -0.404   8.240  1.00  0.00     0.037 A 
ATOM     26  C   UNL     1       6.990   6.283   6.205  1.00  0.00     0.037 A 
ATOM     27  C   UNL     1       8.293   0.541   9.034  1.00  0.00     0.049 A 
ATOM     28  C   UNL     1       7.826   5.883   7.382  1.00  0.00     0.074 A 
ATOM     29  C   UNL     1       9.112   0.300  10.124  1.00  0.00     0.029 A 
ATOM     30  N   UNL     1       8.313   1.910   8.814  1.00  0.00    -0.354 N 
ATOM     31  N   UNL     1       8.042   4.686   7.870  1.00  0.00    -0.248 NA
ATOM     32  C   UNL     1       8.498   6.966   8.110  1.00  0.00     0.031 C 
ATOM     33  C   UNL     1       9.604   1.528  10.582  1.00  0.00     0.029 A 
ATOM     34  C   UNL     1       9.119   2.529   9.756  1.00  0.00     0.049 A 
ATOM     35  H   UNL     1       7.827   2.374   8.094  1.00  0.00     0.167 HD
ATOM     36  C   UNL     1       8.878   4.869   8.961  1.00  0.00     0.074 A 
ATOM     37  C   UNL     1       9.149   6.291   9.046  1.00  0.00     0.031 C 
ATOM     38  C   UNL     1       9.370   3.945   9.821  1.00  0.00     0.037 A 
BRANCH  25  39
ATOM     39  C   UNL     1       7.584  -1.849   8.645  1.00  0.00     0.057 A 
ATOM     40  C   UNL     1       8.310  -2.809   7.928  1.00  0.00     0.134 A 
ATOM     41  C   UNL     1       6.902  -2.279   9.791  1.00  0.00     0.134 A 
ATOM     42  F   UNL     1       8.973  -2.467   6.814  1.00  0.00    -0.206 F 
ATOM     43  C   UNL     1       8.342  -4.147   8.327  1.00  0.00     0.040 A 
ATOM     44  C   UNL     1       6.943  -3.610  10.211  1.00  0.00     0.040 A 
ATOM     45  F   UNL     1       6.191  -1.410  10.525  1.00  0.00    -0.206 F 
ATOM     46  C   UNL     1       7.662  -4.549   9.476  1.00  0.00     0.006 A 
ENDBRANCH  25  39
BRANCH  26  47
ATOM     47  C   UNL     1       6.915   7.693   5.754  1.00  0.00     0.057 A 
ATOM     48  C   UNL     1       8.008   8.309   5.136  1.00  0.00     0.134 A 
ATOM     49  C   UNL     1       5.741   8.443   5.892  1.00  0.00     0.134 A 
ATOM     50  F   UNL     1       9.164   7.644   4.989  1.00  0.00    -0.206 F 
ATOM     51  C   UNL     1       7.939   9.624   4.674  1.00  0.00     0.040 A 
ATOM     52  C   UNL     1       5.649   9.749   5.413  1.00  0.00     0.040 A 
ATOM     53  F   UNL     1       4.656   7.902   6.466  1.00  0.00    -0.206 F 
ATOM     54  C   UNL     1       6.753  10.345   4.805  1.00  0.00     0.006 A 
ENDBRANCH  26  47
BRANCH  38  55
ATOM     55  C   UNL     1      10.260   4.453  10.913  1.00  0.00     0.057 A 
ATOM     56  C   UNL     1       9.741   5.127  12.026  1.00  0.00     0.134 A 
ATOM     57  C   UNL     1      11.645   4.259  10.854  1.00  0.00     0.134 A 
ATOM     58  F   UNL     1       8.424   5.356  12.129  1.00  0.00    -0.206 F 
ATOM     59  C   UNL     1      10.575   5.612  13.034  1.00  0.00     0.040 A 
ATOM     60  C   UNL     1      12.486   4.722  11.865  1.00  0.00     0.040 A 
ATOM     61  F   UNL     1      12.199   3.618   9.814  1.00  0.00    -0.206 F 
ATOM     62  C   UNL     1      11.952   5.406  12.956  1.00  0.00     0.006 A 
ENDBRANCH  38  55
ENDBRANCH  12  13
ENDBRANCH   5   7
ENDBRANCH   2   3
ENDBRANCH   1   2
BRANCH   1  63
ATOM     63  C   UNL     1       5.521  -2.830  -1.986  1.00  0.00     0.118 C 
BRANCH  63  64
ATOM     64  N   UNL     1       5.961  -2.175  -3.208  1.00  0.00    -0.352 N 
ATOM     65  C   UNL     1       6.199  -2.701  -4.446  1.00  0.00     0.253 C 
ATOM     66  H   UNL     1       6.110  -1.204  -3.131  1.00  0.00     0.163 HD
ATOM     67  O   UNL     1       6.595  -1.971  -5.351  1.00  0.00    -0.269 OA
BRANCH  65  68
ATOM     68  C   UNL     1       6.095  -4.137  -4.698  1.00  0.00     0.070 A 
ATOM     69  C   UNL     1       7.294  -4.761  -5.023  1.00  0.00     0.125 A 
ATOM     70  C   UNL     1       4.945  -4.922  -4.620  1.00  0.00     0.055 A 
ATOM     71  N   UNL     1       7.431  -6.097  -5.194  1.00  0.00    -0.264 NA
ATOM     72  C   UNL     1       5.072  -6.310  -4.767  1.00  0.00     0.035 A 
ATOM     73  C   UNL     1       6.319  -6.843  -5.043  1.00  0.00     0.112 A 
BRANCH  70  74
ATOM     74  C   UNL     1       3.635  -4.425  -4.149  1.00  0.00     0.254 C 
ATOM     75  O   UNL     1       3.160  -5.031  -3.187  1.00  0.00    -0.269 OA
ATOM     76  N   UNL     1       3.041  -3.280  -4.677  1.00  0.00    -0.339 N 
ATOM     77  C   UNL     1       2.347  -2.434  -3.716  1.00  0.00     0.120 C 
ATOM     78  C   UNL     1       3.307  -2.709  -5.999  1.00  0.00     0.120 C 
ATOM     79  C   UNL     1       1.188  -1.633  -4.272  1.00  0.00     0.025 C 
ATOM     80  C   UNL     1       2.116  -1.906  -6.548  1.00  0.00     0.025 C 
ATOM     81  C   UNL     1       1.643  -0.866  -5.516  1.00  0.00    -0.003 C 
BRANCH  81  82
ATOM     82  C   UNL     1       0.528   0.047  -6.056  1.00  0.00     0.039 C 
BRANCH  82  83
ATOM     83  C   UNL     1       0.264   1.240  -5.158  1.00  0.00    -0.048 A 
ATOM     84  C   UNL     1      -0.924   1.334  -4.419  1.00  0.00     0.004 A 
ATOM     85  C   UNL     1       1.213   2.267  -5.037  1.00  0.00     0.004 A 
ATOM     86  C   UNL     1      -1.155   2.426  -3.579  1.00  0.00     0.000 A 
ATOM     87  C   UNL     1       0.981   3.358  -4.196  1.00  0.00     0.000 A 
ATOM     88  C   UNL     1      -0.203   3.438  -3.467  1.00  0.00     0.000 A 
ENDBRANCH  82  83
ENDBRANCH  81  82
ENDBRANCH  70  74
ENDBRANCH  65  68
ENDBRANCH  63  64
ENDBRANCH   1  63
TORSDOF 13
