REMARK SMILES CC[C@@H]([NH3+])C(=O)N1CC[C@H](C(=O)NCCCNC(=O)c2ccc(-c3c4nc(c(-c5c(F)cccc5F)c5ccc([nH]5)c(-c5c(F)cccc5F)c5nc(c(-c6c(F)cccc6F)c6ccc3[nH]6)C=C5)C=C4)cc2)[C@@H]1C
REMARK SMILES IDX 14 1 13 2 11 3 12 4 10 6 7 7 8 8 74 9 9 10 75 11 5 12 6 13
REMARK SMILES IDX 3 14 2 15 1 16 4 17 15 21 16 22 17 23 18 24 19 26 20 27
REMARK SMILES IDX 21 28 73 29 22 30 72 31 23 32 24 33 25 34 66 35 26 36 71 37
REMARK SMILES IDX 65 38 67 39 27 40 70 41 64 42 63 43 28 45 54 46 37 47 53 48
REMARK SMILES IDX 38 49 41 50 52 51 68 52 39 53 40 54 51 56 69 57 42 58 29 59
REMARK SMILES IDX 30 60 35 61 31 62 32 63 34 64 36 65 33 66 55 67 56 68 61 69
REMARK SMILES IDX 57 70 58 71 60 72 62 73 59 74 43 75 44 76 49 77 45 78 46 79
REMARK SMILES IDX 48 80 50 81 47 82
REMARK H PARENT 13 5 4 18 4 19 4 20 17 25 67 44 41 55
REMARK Flexibility Score: inf
ROOT
ATOM      1  C   UNL     1      -6.258  -3.090   0.895  1.00  0.00     0.117 C 
ENDROOT
BRANCH   1   2
ATOM      2  N   UNL     1      -5.404  -4.256   0.754  1.00  0.00    -0.356 N 
ATOM      3  C   UNL     1      -4.124  -4.486   1.155  1.00  0.00     0.225 C 
ATOM      4  O   UNL     1      -3.671  -5.616   0.968  1.00  0.00    -0.275 OA
ATOM      5  H   UNL     1      -5.824  -5.013   0.286  1.00  0.00     0.163 HD
BRANCH   3   6
ATOM      6  C   UNL     1      -3.319  -3.393   1.845  1.00  0.00     0.102 C 
ATOM      7  N   UNL     1      -0.930  -3.459   2.034  1.00  0.00    -0.334 N 
ATOM      8  C   UNL     1      -1.466  -4.416   2.983  1.00  0.00     0.121 C 
ATOM      9  C   UNL     1      -1.995  -2.978   1.153  1.00  0.00     0.094 C 
ATOM     10  C   UNL     1      -2.877  -3.904   3.223  1.00  0.00     0.037 C 
ATOM     11  C   UNL     1      -1.827  -3.522  -0.268  1.00  0.00     0.032 C 
BRANCH   7  12
ATOM     12  C   UNL     1       0.392  -3.080   2.124  1.00  0.00     0.280 C 
ATOM     13  O   UNL     1       1.206  -3.796   2.724  1.00  0.00    -0.268 OA
BRANCH  12  14
ATOM     14  C   UNL     1       0.849  -1.651   1.702  1.00  0.00     0.270 C 
BRANCH  14  15
ATOM     15  C   UNL     1       0.625  -1.205   0.257  1.00  0.00     0.072 C 
ATOM     16  C   UNL     1       1.298   0.123  -0.078  1.00  0.00     0.011 C 
ENDBRANCH  14  15
BRANCH  14  17
ATOM     17  N   UNL     1       0.282  -0.686   2.676  1.00  0.00    -0.347 N 
ATOM     18  H   UNL     1      -0.736  -0.696   2.610  1.00  0.00     0.345 HD
ATOM     19  H   UNL     1       0.627   0.250   2.467  1.00  0.00     0.345 HD
ATOM     20  H   UNL     1       0.564  -0.950   3.620  1.00  0.00     0.345 HD
ENDBRANCH  14  17
ENDBRANCH  12  14
ENDBRANCH   7  12
ENDBRANCH   3   6
ENDBRANCH   1   2
BRANCH   1  21
ATOM     21  C   UNL     1      -6.505  -2.394  -0.437  1.00  0.00     0.042 C 
BRANCH  21  22
ATOM     22  C   UNL     1      -7.230  -3.258  -1.467  1.00  0.00     0.118 C 
BRANCH  22  23
ATOM     23  N   UNL     1      -8.565  -3.659  -1.038  1.00  0.00    -0.352 N 
ATOM     24  C   UNL     1      -9.782  -3.465  -1.645  1.00  0.00     0.251 C 
ATOM     25  H   UNL     1      -8.599  -4.145  -0.183  1.00  0.00     0.163 HD
ATOM     26  O   UNL     1     -10.817  -3.747  -1.048  1.00  0.00    -0.269 OA
BRANCH  24  27
ATOM     27  C   UNL     1      -9.850  -2.895  -3.006  1.00  0.00     0.039 A 
ATOM     28  C   UNL     1     -10.781  -1.886  -3.275  1.00  0.00     0.014 A 
ATOM     29  C   UNL     1      -9.001  -3.354  -4.014  1.00  0.00     0.014 A 
ATOM     30  C   UNL     1     -10.803  -1.281  -4.534  1.00  0.00     0.010 A 
ATOM     31  C   UNL     1      -8.972  -2.700  -5.241  1.00  0.00     0.010 A 
ATOM     32  C   UNL     1      -9.870  -1.655  -5.513  1.00  0.00    -0.014 A 
BRANCH  32  33
ATOM     33  C   UNL     1      -9.806  -0.989  -6.839  1.00  0.00     0.031 A 
ATOM     34  C   UNL     1     -10.055  -1.791  -8.085  1.00  0.00     0.074 A 
ATOM     35  C   UNL     1      -9.421   0.299  -6.929  1.00  0.00     0.049 A 
ATOM     36  N   UNL     1      -9.871  -1.458  -9.336  1.00  0.00    -0.248 NA
ATOM     37  C   UNL     1     -10.547  -3.166  -7.895  1.00  0.00     0.031 C 
ATOM     38  C   UNL     1      -9.127   1.179  -5.797  1.00  0.00     0.029 A 
ATOM     39  N   UNL     1      -9.183   1.085  -8.030  1.00  0.00    -0.354 N 
ATOM     40  C   UNL     1     -10.194  -2.587 -10.078  1.00  0.00     0.074 A 
ATOM     41  C   UNL     1     -10.545  -3.627  -9.136  1.00  0.00     0.031 C 
ATOM     42  C   UNL     1      -8.754   2.382  -6.261  1.00  0.00     0.029 A 
ATOM     43  C   UNL     1      -8.733   2.345  -7.720  1.00  0.00     0.049 A 
ATOM     44  H   UNL     1      -9.322   0.774  -8.954  1.00  0.00     0.167 HD
ATOM     45  C   UNL     1     -10.213  -2.737 -11.424  1.00  0.00     0.037 A 
ATOM     46  C   UNL     1      -8.325   3.349  -8.520  1.00  0.00     0.037 A 
ATOM     47  C   UNL     1      -9.893  -1.690 -12.356  1.00  0.00     0.049 A 
ATOM     48  C   UNL     1      -8.335   3.152 -10.012  1.00  0.00     0.074 A 
ATOM     49  C   UNL     1      -9.935  -1.726 -13.739  1.00  0.00     0.029 A 
ATOM     50  N   UNL     1      -9.473  -0.417 -12.000  1.00  0.00    -0.354 N 
ATOM     51  N   UNL     1      -8.687   2.095 -10.703  1.00  0.00    -0.248 NA
ATOM     52  C   UNL     1      -7.891   4.285 -10.837  1.00  0.00     0.031 C 
ATOM     53  C   UNL     1      -9.496  -0.490 -14.221  1.00  0.00     0.029 A 
ATOM     54  C   UNL     1      -9.234   0.335 -13.138  1.00  0.00     0.049 A 
ATOM     55  H   UNL     1      -9.361  -0.096 -11.076  1.00  0.00     0.167 HD
ATOM     56  C   UNL     1      -8.548   2.448 -12.039  1.00  0.00     0.074 A 
ATOM     57  C   UNL     1      -8.076   3.817 -12.063  1.00  0.00     0.031 C 
ATOM     58  C   UNL     1      -8.794   1.706 -13.145  1.00  0.00     0.037 A 
BRANCH  45  59
ATOM     59  C   UNL     1     -10.590  -4.084 -11.967  1.00  0.00     0.057 A 
ATOM     60  C   UNL     1     -11.896  -4.582 -11.873  1.00  0.00     0.134 A 
ATOM     61  C   UNL     1      -9.642  -4.880 -12.623  1.00  0.00     0.134 A 
ATOM     62  F   UNL     1     -12.850  -3.875 -11.247  1.00  0.00    -0.206 F 
ATOM     63  C   UNL     1     -12.240  -5.834 -12.387  1.00  0.00     0.040 A 
ATOM     64  C   UNL     1      -9.980  -6.120 -13.167  1.00  0.00     0.040 A 
ATOM     65  F   UNL     1      -8.374  -4.461 -12.755  1.00  0.00    -0.206 F 
ATOM     66  C   UNL     1     -11.281  -6.603 -13.043  1.00  0.00     0.006 A 
ENDBRANCH  45  59
BRANCH  46  67
ATOM     67  C   UNL     1      -7.878   4.637  -7.931  1.00  0.00     0.057 A 
ATOM     68  C   UNL     1      -8.643   5.800  -8.080  1.00  0.00     0.134 A 
ATOM     69  C   UNL     1      -6.680   4.742  -7.215  1.00  0.00     0.134 A 
ATOM     70  F   UNL     1      -9.792   5.768  -8.770  1.00  0.00    -0.206 F 
ATOM     71  C   UNL     1      -8.223   7.025  -7.557  1.00  0.00     0.040 A 
ATOM     72  C   UNL     1      -6.260   5.955  -6.665  1.00  0.00     0.040 A 
ATOM     73  F   UNL     1      -5.905   3.663  -7.029  1.00  0.00    -0.206 F 
ATOM     74  C   UNL     1      -7.029   7.103  -6.843  1.00  0.00     0.006 A 
ENDBRANCH  46  67
BRANCH  58  75
ATOM     75  C   UNL     1      -8.626   2.367 -14.481  1.00  0.00     0.057 A 
ATOM     76  C   UNL     1      -7.365   2.629 -15.028  1.00  0.00     0.134 A 
ATOM     77  C   UNL     1      -9.749   2.666 -15.266  1.00  0.00     0.134 A 
ATOM     78  F   UNL     1      -6.252   2.377 -14.322  1.00  0.00    -0.206 F 
ATOM     79  C   UNL     1      -7.226   3.170 -16.307  1.00  0.00     0.040 A 
ATOM     80  C   UNL     1      -9.621   3.183 -16.555  1.00  0.00     0.040 A 
ATOM     81  F   UNL     1     -10.986   2.431 -14.802  1.00  0.00    -0.206 F 
ATOM     82  C   UNL     1      -8.356   3.437 -17.079  1.00  0.00     0.006 A 
ENDBRANCH  58  75
ENDBRANCH  32  33
ENDBRANCH  24  27
ENDBRANCH  22  23
ENDBRANCH  21  22
ENDBRANCH   1  21
TORSDOF 14
