REMARK SMILES C[C@@H](CS(=O)(=O)[C@@H]1CCC[C@H](S(C)(=O)=O)C1)C(=O)NCCCNC(=O)c1ccc(-c2c3nc(c(-c4c(F)cccc4F)c4ccc([nH]4)c(-c4c(F)cccc4F)c4nc(c(-c5c(F)cccc5F)c5ccc2[nH]5)C=C4)C=C3)cc1
REMARK SMILES IDX 20 1 19 2 17 3 18 4 2 6 1 7 3 8 4 9 5 10 6 11 7 12 8 13
REMARK SMILES IDX 16 14 9 15 11 16 10 17 12 18 13 19 14 20 15 21 21 22 22 23
REMARK SMILES IDX 23 24 24 25 25 27 26 28 27 29 79 30 28 31 78 32 29 33 30 34
REMARK SMILES IDX 31 35 72 36 32 37 77 38 71 39 73 40 33 41 76 42 70 43 69 44
REMARK SMILES IDX 34 46 60 47 43 48 59 49 44 50 47 51 58 52 74 53 45 54 46 55
REMARK SMILES IDX 57 57 75 58 48 59 35 60 36 61 41 62 37 63 38 64 40 65 42 66
REMARK SMILES IDX 39 67 61 68 62 69 67 70 63 71 64 72 66 73 68 74 65 75 49 76
REMARK SMILES IDX 50 77 55 78 51 79 52 80 54 81 56 82 53 83
REMARK H PARENT 19 5 23 26 73 45 47 56
REMARK Flexibility Score: inf
ROOT
ATOM      1  C   UNL     1      -1.847  -0.711   1.756  1.00  0.00     0.117 C 
ENDROOT
BRANCH   1   2
ATOM      2  N   UNL     1      -1.921  -1.189   0.406  1.00  0.00    -0.356 N 
ATOM      3  C   UNL     1      -0.957  -1.703  -0.391  1.00  0.00     0.223 C 
ATOM      4  O   UNL     1      -1.356  -2.162  -1.470  1.00  0.00    -0.275 OA
ATOM      5  H   UNL     1      -2.814  -1.134  -0.005  1.00  0.00     0.163 HD
BRANCH   3   6
ATOM      6  C   UNL     1       0.563  -1.672  -0.119  1.00  0.00     0.090 C 
ATOM      7  C   UNL     1       1.261  -0.465  -0.740  1.00  0.00     0.019 C 
BRANCH   6   8
ATOM      8  C   UNL     1       1.247  -2.294   1.096  1.00  0.00     0.150 C 
BRANCH   8   9
ATOM      9  S   UNL     1       1.425  -1.653   2.752  1.00  0.00     0.153 S 
ATOM     10  O   UNL     1       0.165  -1.873   3.440  1.00  0.00    -0.229 OA
ATOM     11  O   UNL     1       2.595  -2.352   3.268  1.00  0.00    -0.229 OA
BRANCH   9  12
ATOM     12  C   UNL     1       1.865   0.124   2.917  1.00  0.00     0.110 C 
ATOM     13  C   UNL     1       1.802   0.463   4.428  1.00  0.00     0.020 C 
ATOM     14  C   UNL     1       0.976   1.134   2.212  1.00  0.00     0.039 C 
ATOM     15  C   UNL     1       2.173   1.913   4.733  1.00  0.00     0.003 C 
ATOM     16  C   UNL     1       1.398   2.595   2.425  1.00  0.00     0.109 C 
ATOM     17  C   UNL     1       1.364   2.922   3.918  1.00  0.00     0.020 C 
BRANCH  16  18
ATOM     18  S   UNL     1       0.286   3.666   1.472  1.00  0.00     0.150 S 
ATOM     19  C   UNL     1       0.931   5.310   1.661  1.00  0.00     0.158 C 
ATOM     20  O   UNL     1       0.449   3.303   0.073  1.00  0.00    -0.229 OA
ATOM     21  O   UNL     1      -1.024   3.626   2.085  1.00  0.00    -0.229 OA
ENDBRANCH  16  18
ENDBRANCH   9  12
ENDBRANCH   8   9
ENDBRANCH   6   8
ENDBRANCH   3   6
ENDBRANCH   1   2
BRANCH   1  22
ATOM     22  C   UNL     1      -2.487   0.646   1.992  1.00  0.00     0.042 C 
BRANCH  22  23
ATOM     23  C   UNL     1      -3.952   0.568   2.364  1.00  0.00     0.118 C 
BRANCH  23  24
ATOM     24  N   UNL     1      -4.140   0.121   3.745  1.00  0.00    -0.352 N 
ATOM     25  C   UNL     1      -4.268   0.797   4.938  1.00  0.00     0.251 C 
ATOM     26  H   UNL     1      -4.183  -0.857   3.840  1.00  0.00     0.163 HD
ATOM     27  O   UNL     1      -4.178   0.159   5.986  1.00  0.00    -0.269 OA
BRANCH  25  28
ATOM     28  C   UNL     1      -4.487   2.264   5.009  1.00  0.00     0.039 A 
ATOM     29  C   UNL     1      -4.058   2.968   6.144  1.00  0.00     0.014 A 
ATOM     30  C   UNL     1      -5.167   2.956   4.013  1.00  0.00     0.014 A 
ATOM     31  C   UNL     1      -4.254   4.353   6.234  1.00  0.00     0.010 A 
ATOM     32  C   UNL     1      -5.224   4.345   4.031  1.00  0.00     0.010 A 
ATOM     33  C   UNL     1      -4.799   5.063   5.154  1.00  0.00    -0.014 A 
BRANCH  33  34
ATOM     34  C   UNL     1      -4.988   6.539   5.176  1.00  0.00     0.031 A 
ATOM     35  C   UNL     1      -6.359   7.126   4.939  1.00  0.00     0.074 A 
ATOM     36  C   UNL     1      -3.923   7.354   5.311  1.00  0.00     0.049 A 
ATOM     37  N   UNL     1      -6.711   8.377   4.777  1.00  0.00    -0.248 NA
ATOM     38  C   UNL     1      -7.479   6.175   4.824  1.00  0.00     0.031 C 
ATOM     39  C   UNL     1      -2.537   6.918   5.491  1.00  0.00     0.029 A 
ATOM     40  N   UNL     1      -3.839   8.725   5.304  1.00  0.00    -0.354 N 
ATOM     41  C   UNL     1      -8.075   8.354   4.506  1.00  0.00     0.074 A 
ATOM     42  C   UNL     1      -8.474   6.967   4.457  1.00  0.00     0.031 C 
ATOM     43  C   UNL     1      -1.748   7.997   5.613  1.00  0.00     0.029 A 
ATOM     44  C   UNL     1      -2.560   9.200   5.464  1.00  0.00     0.049 A 
ATOM     45  H   UNL     1      -4.622   9.311   5.194  1.00  0.00     0.167 HD
ATOM     46  C   UNL     1      -8.928   9.394   4.344  1.00  0.00     0.037 A 
ATOM     47  C   UNL     1      -2.092  10.463   5.478  1.00  0.00     0.037 A 
ATOM     48  C   UNL     1      -8.536  10.775   4.439  1.00  0.00     0.049 A 
ATOM     49  C   UNL     1      -3.059  11.603   5.304  1.00  0.00     0.074 A 
ATOM     50  C   UNL     1      -9.331  11.904   4.362  1.00  0.00     0.029 A 
ATOM     51  N   UNL     1      -7.235  11.212   4.638  1.00  0.00    -0.354 N 
ATOM     52  N   UNL     1      -4.356  11.567   5.113  1.00  0.00    -0.248 NA
ATOM     53  C   UNL     1      -2.498  12.960   5.353  1.00  0.00     0.031 C 
ATOM     54  C   UNL     1      -8.503  13.027   4.463  1.00  0.00     0.029 A 
ATOM     55  C   UNL     1      -7.202  12.595   4.665  1.00  0.00     0.049 A 
ATOM     56  H   UNL     1      -6.451  10.625   4.744  1.00  0.00     0.167 HD
ATOM     57  C   UNL     1      -4.770  12.892   5.056  1.00  0.00     0.074 A 
ATOM     58  C   UNL     1      -3.588  13.707   5.242  1.00  0.00     0.031 C 
ATOM     59  C   UNL     1      -6.017  13.389   4.868  1.00  0.00     0.037 A 
BRANCH  46  60
ATOM     60  C   UNL     1     -10.370   9.077   4.057  1.00  0.00     0.057 A 
ATOM     61  C   UNL     1     -11.202   8.476   5.011  1.00  0.00     0.134 A 
ATOM     62  C   UNL     1     -10.942   9.404   2.821  1.00  0.00     0.134 A 
ATOM     63  F   UNL     1     -10.718   8.127   6.213  1.00  0.00    -0.206 F 
ATOM     64  C   UNL     1     -12.539   8.180   4.736  1.00  0.00     0.040 A 
ATOM     65  C   UNL     1     -12.286   9.144   2.545  1.00  0.00     0.040 A 
ATOM     66  F   UNL     1     -10.208   9.989   1.862  1.00  0.00    -0.206 F 
ATOM     67  C   UNL     1     -13.086   8.522   3.501  1.00  0.00     0.006 A 
ENDBRANCH  46  60
BRANCH  47  68
ATOM     68  C   UNL     1      -0.644  10.719   5.691  1.00  0.00     0.057 A 
ATOM     69  C   UNL     1      -0.186  11.320   6.870  1.00  0.00     0.134 A 
ATOM     70  C   UNL     1       0.315  10.379   4.730  1.00  0.00     0.134 A 
ATOM     71  F   UNL     1      -1.056  11.683   7.825  1.00  0.00    -0.206 F 
ATOM     72  C   UNL     1       1.167  11.597   7.075  1.00  0.00     0.040 A 
ATOM     73  C   UNL     1       1.674  10.625   4.932  1.00  0.00     0.040 A 
ATOM     74  F   UNL     1      -0.053   9.784   3.585  1.00  0.00    -0.206 F 
ATOM     75  C   UNL     1       2.102  11.245   6.104  1.00  0.00     0.006 A 
ENDBRANCH  47  68
BRANCH  59  76
ATOM     76  C   UNL     1      -6.179  14.881   4.907  1.00  0.00     0.057 A 
ATOM     77  C   UNL     1      -5.712  15.708   3.878  1.00  0.00     0.134 A 
ATOM     78  C   UNL     1      -6.862  15.491   5.968  1.00  0.00     0.134 A 
ATOM     79  F   UNL     1      -5.040  15.188   2.840  1.00  0.00    -0.206 F 
ATOM     80  C   UNL     1      -5.900  17.090   3.913  1.00  0.00     0.040 A 
ATOM     81  C   UNL     1      -7.082  16.868   5.999  1.00  0.00     0.040 A 
ATOM     82  F   UNL     1      -7.344  14.755   6.981  1.00  0.00    -0.206 F 
ATOM     83  C   UNL     1      -6.595  17.673   4.972  1.00  0.00     0.006 A 
ENDBRANCH  59  76
ENDBRANCH  33  34
ENDBRANCH  25  28
ENDBRANCH  23  24
ENDBRANCH  22  23
ENDBRANCH   1  22
TORSDOF 14
