REMARK SMILES Cc1nc([C@]2(C)CCCO2)nc(C)c1C(=O)NCCCNC(=O)c1ccc(-c2c3nc(c(-c4c(F)cccc4F)c4ccc([nH]4)c(-c4c(F)cccc4F)c4nc(c(-c5c(F)cccc5F)c5ccc2[nH]5)C=C4)C=C3)cc1
REMARK SMILES IDX 19 1 18 2 17 3 15 4 16 5 14 7 1 8 2 9 3 10 4 11 12 12 11 13
REMARK SMILES IDX 13 14 5 15 7 16 10 17 6 18 8 19 9 20 20 21 21 22 22 23 23 25
REMARK SMILES IDX 24 26 25 27 77 28 26 29 76 30 27 31 28 32 29 33 70 34 30 35
REMARK SMILES IDX 75 36 69 37 71 38 31 39 74 40 68 41 67 42 32 44 58 45 41 46
REMARK SMILES IDX 57 47 42 48 45 49 56 50 72 51 43 52 44 53 55 55 73 56 46 57
REMARK SMILES IDX 33 58 34 59 39 60 35 61 36 62 38 63 40 64 37 65 59 66 60 67
REMARK SMILES IDX 65 68 61 69 62 70 64 71 66 72 63 73 47 74 48 75 53 76 49 77
REMARK SMILES IDX 50 78 52 79 54 80 51 81
REMARK H PARENT 17 6 21 24 71 43 45 54
REMARK Flexibility Score: inf
ROOT
ATOM      1  C   UNL     1      -5.864  -6.316   2.918  1.00  0.00     0.042 C 
ENDROOT
BRANCH   1   2
ATOM      2  C   UNL     1      -6.224  -5.211   1.923  1.00  0.00     0.118 C 
BRANCH   2   3
ATOM      3  N   UNL     1      -5.940  -3.922   2.506  1.00  0.00    -0.352 N 
ATOM      4  C   UNL     1      -4.880  -3.060   2.527  1.00  0.00     0.254 C 
ATOM      5  O   UNL     1      -5.039  -2.140   3.336  1.00  0.00    -0.269 OA
ATOM      6  H   UNL     1      -6.704  -3.575   3.020  1.00  0.00     0.163 HD
BRANCH   4   7
ATOM      7  C   UNL     1      -3.636  -3.086   1.688  1.00  0.00     0.082 A 
ATOM      8  C   UNL     1      -3.183  -5.629   1.415  1.00  0.00     0.068 C 
ATOM      9  C   UNL     1      -2.926  -4.180   1.203  1.00  0.00     0.054 A 
ATOM     10  N   UNL     1      -1.768  -4.050   0.510  1.00  0.00    -0.234 NA
ATOM     11  C   UNL     1      -1.203  -2.849   0.367  1.00  0.00     0.160 A 
ATOM     12  C   UNL     1      -2.998  -1.852   1.430  1.00  0.00     0.054 A 
ATOM     13  N   UNL     1      -1.803  -1.732   0.782  1.00  0.00    -0.234 NA
ATOM     14  C   UNL     1      -3.526  -0.516   1.887  1.00  0.00     0.068 C 
BRANCH  11  15
ATOM     15  C   UNL     1       0.225  -2.817  -0.191  1.00  0.00     0.125 C 
ATOM     16  C   UNL     1       0.313  -3.433  -1.588  1.00  0.00     0.046 C 
ATOM     17  O   UNL     1       1.086  -3.668   0.616  1.00  0.00    -0.367 OA
ATOM     18  C   UNL     1       0.820  -1.410  -0.155  1.00  0.00     0.051 C 
ATOM     19  C   UNL     1       0.444  -4.918  -1.322  1.00  0.00     0.032 C 
ATOM     20  C   UNL     1       1.074  -4.991   0.057  1.00  0.00     0.161 C 
ENDBRANCH  11  15
ENDBRANCH   4   7
ENDBRANCH   2   3
ENDBRANCH   1   2
BRANCH   1  21
ATOM     21  C   UNL     1      -7.009  -6.700   3.841  1.00  0.00     0.118 C 
BRANCH  21  22
ATOM     22  N   UNL     1      -8.034  -7.447   3.130  1.00  0.00    -0.352 N 
ATOM     23  C   UNL     1      -8.469  -8.729   3.331  1.00  0.00     0.251 C 
ATOM     24  H   UNL     1      -8.479  -6.960   2.399  1.00  0.00     0.163 HD
ATOM     25  O   UNL     1      -9.145  -9.285   2.461  1.00  0.00    -0.269 OA
BRANCH  23  26
ATOM     26  C   UNL     1      -8.132  -9.451   4.574  1.00  0.00     0.039 A 
ATOM     27  C   UNL     1      -7.843 -10.818   4.510  1.00  0.00     0.014 A 
ATOM     28  C   UNL     1      -8.131  -8.793   5.808  1.00  0.00     0.014 A 
ATOM     29  C   UNL     1      -7.510 -11.511   5.675  1.00  0.00     0.010 A 
ATOM     30  C   UNL     1      -7.709  -9.461   6.950  1.00  0.00     0.010 A 
ATOM     31  C   UNL     1      -7.413 -10.831   6.899  1.00  0.00    -0.014 A 
BRANCH  31  32
ATOM     32  C   UNL     1      -7.031 -11.533   8.148  1.00  0.00     0.031 A 
ATOM     33  C   UNL     1      -8.000 -11.594   9.297  1.00  0.00     0.074 A 
ATOM     34  C   UNL     1      -5.792 -12.044   8.272  1.00  0.00     0.049 A 
ATOM     35  N   UNL     1      -7.823 -12.066  10.504  1.00  0.00    -0.248 NA
ATOM     36  C   UNL     1      -9.334 -11.015   9.070  1.00  0.00     0.031 C 
ATOM     37  C   UNL     1      -4.751 -12.001   7.243  1.00  0.00     0.029 A 
ATOM     38  N   UNL     1      -5.192 -12.689   9.323  1.00  0.00    -0.354 N 
ATOM     39  C   UNL     1      -9.011 -11.820  11.182  1.00  0.00     0.074 A 
ATOM     40  C   UNL     1      -9.880 -11.107  10.273  1.00  0.00     0.031 C 
ATOM     41  C   UNL     1      -3.648 -12.610   7.706  1.00  0.00     0.029 A 
ATOM     42  C   UNL     1      -3.889 -13.050   9.076  1.00  0.00     0.049 A 
ATOM     43  H   UNL     1      -5.651 -12.875  10.174  1.00  0.00     0.167 HD
ATOM     44  C   UNL     1      -9.354 -12.178  12.442  1.00  0.00     0.037 A 
ATOM     45  C   UNL     1      -2.989 -13.656   9.872  1.00  0.00     0.037 A 
ATOM     46  C   UNL     1      -8.494 -12.917  13.328  1.00  0.00     0.049 A 
ATOM     47  C   UNL     1      -3.396 -14.049  11.265  1.00  0.00     0.074 A 
ATOM     48  C   UNL     1      -8.767 -13.389  14.599  1.00  0.00     0.029 A 
ATOM     49  N   UNL     1      -7.192 -13.291  13.030  1.00  0.00    -0.354 N 
ATOM     50  N   UNL     1      -4.545 -13.870  11.871  1.00  0.00    -0.248 NA
ATOM     51  C   UNL     1      -2.385 -14.732  12.083  1.00  0.00     0.031 C 
ATOM     52  C   UNL     1      -7.613 -14.009  15.089  1.00  0.00     0.029 A 
ATOM     53  C   UNL     1      -6.640 -13.970  14.103  1.00  0.00     0.049 A 
ATOM     54  H   UNL     1      -6.729 -13.101  12.182  1.00  0.00     0.167 HD
ATOM     55  C   UNL     1      -4.405 -14.441  13.129  1.00  0.00     0.074 A 
ATOM     56  C   UNL     1      -3.064 -14.984  13.193  1.00  0.00     0.031 C 
ATOM     57  C   UNL     1      -5.305 -14.511  14.140  1.00  0.00     0.037 A 
BRANCH  44  58
ATOM     58  C   UNL     1     -10.717 -11.780  12.931  1.00  0.00     0.057 A 
ATOM     59  C   UNL     1     -11.886 -12.357  12.417  1.00  0.00     0.134 A 
ATOM     60  C   UNL     1     -10.862 -10.831  13.950  1.00  0.00     0.134 A 
ATOM     61  F   UNL     1     -11.820 -13.264  11.430  1.00  0.00    -0.206 F 
ATOM     62  C   UNL     1     -13.150 -11.984  12.877  1.00  0.00     0.040 A 
ATOM     63  C   UNL     1     -12.119 -10.470  14.440  1.00  0.00     0.040 A 
ATOM     64  F   UNL     1      -9.786 -10.242  14.492  1.00  0.00    -0.206 F 
ATOM     65  C   UNL     1     -13.268 -11.043  13.898  1.00  0.00     0.006 A 
ENDBRANCH  44  58
BRANCH  45  66
ATOM     66  C   UNL     1      -1.625 -13.948   9.364  1.00  0.00     0.057 A 
ATOM     67  C   UNL     1      -1.214 -15.261   9.111  1.00  0.00     0.134 A 
ATOM     68  C   UNL     1      -0.701 -12.925   9.116  1.00  0.00     0.134 A 
ATOM     69  F   UNL     1      -2.049 -16.285   9.342  1.00  0.00    -0.206 F 
ATOM     70  C   UNL     1       0.071 -15.551   8.650  1.00  0.00     0.040 A 
ATOM     71  C   UNL     1       0.579 -13.198   8.630  1.00  0.00     0.040 A 
ATOM     72  F   UNL     1      -1.036 -11.644   9.327  1.00  0.00    -0.206 F 
ATOM     73  C   UNL     1       0.971 -14.515   8.403  1.00  0.00     0.006 A 
ENDBRANCH  45  66
BRANCH  57  74
ATOM     74  C   UNL     1      -4.883 -15.230  15.387  1.00  0.00     0.057 A 
ATOM     75  C   UNL     1      -3.960 -14.678  16.284  1.00  0.00     0.134 A 
ATOM     76  C   UNL     1      -5.448 -16.469  15.718  1.00  0.00     0.134 A 
ATOM     77  F   UNL     1      -3.374 -13.501  16.018  1.00  0.00    -0.206 F 
ATOM     78  C   UNL     1      -3.600 -15.341  17.458  1.00  0.00     0.040 A 
ATOM     79  C   UNL     1      -5.117 -17.128  16.902  1.00  0.00     0.040 A 
ATOM     80  F   UNL     1      -6.345 -17.047  14.905  1.00  0.00    -0.206 F 
ATOM     81  C   UNL     1      -4.186 -16.566  17.773  1.00  0.00     0.006 A 
ENDBRANCH  57  74
ENDBRANCH  31  32
ENDBRANCH  23  26
ENDBRANCH  21  22
ENDBRANCH   1  21
TORSDOF 11
