REMARK SMILES N#C/C(=C\c1ccc(-c2cc(C(F)(F)F)ccc2Cl)o1)C(=O)NCCCNC(=O)c1ccc(-c2c3nc(c(-c4c(F)cccc4F)c4ccc([nH]4)c(-c4c(F)cccc4F)c4nc(c(-c5c(F)cccc5F)c5ccc2[nH]5)C=C4)C=C3)cc1
REMARK SMILES IDX 24 1 23 2 21 3 22 4 3 6 4 7 2 8 1 9 5 10 6 11 20 12 7 13
REMARK SMILES IDX 8 14 9 15 10 16 18 17 11 18 17 19 19 20 16 21 12 22 13 23
REMARK SMILES IDX 14 24 15 25 25 26 26 27 27 28 28 29 29 31 30 32 31 33 83 34
REMARK SMILES IDX 32 35 82 36 33 37 34 38 35 39 76 40 36 41 81 42 75 43 77 44
REMARK SMILES IDX 37 45 80 46 74 47 73 48 38 50 64 51 47 52 63 53 48 54 51 55
REMARK SMILES IDX 62 56 78 57 49 58 50 59 61 61 79 62 52 63 39 64 40 65 45 66
REMARK SMILES IDX 41 67 42 68 44 69 46 70 43 71 65 72 66 73 71 74 67 75 68 76
REMARK SMILES IDX 70 77 72 78 69 79 53 80 54 81 59 82 55 83 56 84 58 85 60 86
REMARK SMILES IDX 57 87
REMARK H PARENT 23 5 27 30 77 49 51 60
REMARK Flexibility Score: inf
ROOT
ATOM      1  C   UNL     1       6.807  -0.332   0.718  1.00  0.00     0.118 C 
ENDROOT
BRANCH   1   2
ATOM      2  N   UNL     1       5.760   0.456   1.343  1.00  0.00    -0.351 N 
ATOM      3  C   UNL     1       4.432   0.604   1.083  1.00  0.00     0.262 C 
ATOM      4  O   UNL     1       3.795   1.342   1.835  1.00  0.00    -0.268 OA
ATOM      5  H   UNL     1       6.073   0.991   2.107  1.00  0.00     0.163 HD
BRANCH   3   6
ATOM      6  C   UNL     1       3.739  -0.085  -0.032  1.00  0.00     0.120 C 
ATOM      7  C   UNL     1       4.285  -0.666  -1.132  1.00  0.00     0.072 C 
BRANCH   6   8
ATOM      8  C   UNL     1       2.219  -0.085  -0.032  1.00  0.00     0.105 C 
ATOM      9  N   UNL     1       0.958  -0.085  -0.032  1.00  0.00    -0.192 NA
ENDBRANCH   6   8
BRANCH   7  10
ATOM     10  C   UNL     1       3.517  -1.296  -2.178  1.00  0.00     0.129 A 
ATOM     11  C   UNL     1       2.451  -0.797  -2.925  1.00  0.00     0.051 A 
ATOM     12  O   UNL     1       3.773  -2.579  -2.649  1.00  0.00    -0.457 OA
ATOM     13  C   UNL     1       2.018  -1.803  -3.813  1.00  0.00     0.051 A 
ATOM     14  C   UNL     1       2.870  -2.867  -3.637  1.00  0.00     0.136 A 
BRANCH  14  15
ATOM     15  C   UNL     1       2.971  -4.157  -4.317  1.00  0.00     0.036 A 
ATOM     16  C   UNL     1       2.798  -5.353  -3.595  1.00  0.00     0.026 A 
ATOM     17  C   UNL     1       3.126  -4.241  -5.715  1.00  0.00     0.052 A 
ATOM     18  C   UNL     1       2.750  -6.604  -4.248  1.00  0.00     0.056 A 
ATOM     19  C   UNL     1       3.089  -5.478  -6.368  1.00  0.00     0.022 A 
ATOM     20  Cl  UNL     1       3.374  -2.844  -6.710  1.00  0.00    -0.084 Cl
ATOM     21  C   UNL     1       2.896  -6.651  -5.641  1.00  0.00     0.014 A 
BRANCH  18  22
ATOM     22  C   UNL     1       2.524  -7.877  -3.461  1.00  0.00     0.416 C 
ATOM     23  F   UNL     1       3.529  -8.129  -2.579  1.00  0.00    -0.166 F 
ATOM     24  F   UNL     1       1.377  -7.841  -2.729  1.00  0.00    -0.166 F 
ATOM     25  F   UNL     1       2.429  -8.988  -4.245  1.00  0.00    -0.166 F 
ENDBRANCH  18  22
ENDBRANCH  14  15
ENDBRANCH   7  10
ENDBRANCH   3   6
ENDBRANCH   1   2
BRANCH   1  26
ATOM     26  C   UNL     1       7.573   0.489  -0.319  1.00  0.00     0.042 C 
BRANCH  26  27
ATOM     27  C   UNL     1       8.616   1.399   0.320  1.00  0.00     0.118 C 
BRANCH  27  28
ATOM     28  N   UNL     1       9.690   0.628   0.937  1.00  0.00    -0.352 N 
ATOM     29  C   UNL     1      11.043   0.674   0.709  1.00  0.00     0.251 C 
ATOM     30  H   UNL     1       9.402  -0.021   1.619  1.00  0.00     0.163 HD
ATOM     31  O   UNL     1      11.770  -0.211   1.139  1.00  0.00    -0.269 OA
BRANCH  29  32
ATOM     32  C   UNL     1      11.610   1.798  -0.059  1.00  0.00     0.039 A 
ATOM     33  C   UNL     1      12.586   1.544  -1.026  1.00  0.00     0.014 A 
ATOM     34  C   UNL     1      11.177   3.101   0.189  1.00  0.00     0.014 A 
ATOM     35  C   UNL     1      13.089   2.599  -1.788  1.00  0.00     0.010 A 
ATOM     36  C   UNL     1      11.615   4.134  -0.624  1.00  0.00     0.010 A 
ATOM     37  C   UNL     1      12.583   3.895  -1.613  1.00  0.00    -0.014 A 
BRANCH  37  38
ATOM     38  C   UNL     1      13.055   5.045  -2.419  1.00  0.00     0.031 A 
ATOM     39  C   UNL     1      13.713   6.204  -1.727  1.00  0.00     0.074 A 
ATOM     40  C   UNL     1      12.775   5.102  -3.734  1.00  0.00     0.049 A 
ATOM     41  N   UNL     1      14.012   7.388  -2.194  1.00  0.00    -0.248 NA
ATOM     42  C   UNL     1      14.036   6.017  -0.303  1.00  0.00     0.031 C 
ATOM     43  C   UNL     1      12.111   4.052  -4.506  1.00  0.00     0.029 A 
ATOM     44  N   UNL     1      12.987   6.105  -4.646  1.00  0.00    -0.354 N 
ATOM     45  C   UNL     1      14.522   8.097  -1.114  1.00  0.00     0.074 A 
ATOM     46  C   UNL     1      14.443   7.229   0.040  1.00  0.00     0.031 C 
ATOM     47  C   UNL     1      11.969   4.465  -5.775  1.00  0.00     0.029 A 
ATOM     48  C   UNL     1      12.485   5.825  -5.893  1.00  0.00     0.049 A 
ATOM     49  H   UNL     1      13.454   6.944  -4.427  1.00  0.00     0.167 HD
ATOM     50  C   UNL     1      15.024   9.354  -1.092  1.00  0.00     0.037 A 
ATOM     51  C   UNL     1      12.423   6.591  -6.999  1.00  0.00     0.037 A 
ATOM     52  C   UNL     1      15.117  10.197  -2.254  1.00  0.00     0.049 A 
ATOM     53  C   UNL     1      12.981   7.987  -6.955  1.00  0.00     0.074 A 
ATOM     54  C   UNL     1      15.669  11.461  -2.360  1.00  0.00     0.029 A 
ATOM     55  N   UNL     1      14.640   9.859  -3.512  1.00  0.00    -0.354 N 
ATOM     56  N   UNL     1      13.514   8.631  -5.944  1.00  0.00    -0.248 NA
ATOM     57  C   UNL     1      12.935   8.761  -8.203  1.00  0.00     0.031 C 
ATOM     58  C   UNL     1      15.474  11.911  -3.669  1.00  0.00     0.029 A 
ATOM     59  C   UNL     1      14.862  10.901  -4.396  1.00  0.00     0.049 A 
ATOM     60  H   UNL     1      14.207   9.005  -3.743  1.00  0.00     0.167 HD
ATOM     61  C   UNL     1      13.900   9.869  -6.440  1.00  0.00     0.074 A 
ATOM     62  C   UNL     1      13.537   9.887  -7.843  1.00  0.00     0.031 C 
ATOM     63  C   UNL     1      14.509  10.893  -5.795  1.00  0.00     0.037 A 
BRANCH  50  64
ATOM     64  C   UNL     1      15.487   9.889   0.234  1.00  0.00     0.057 A 
ATOM     65  C   UNL     1      16.598   9.360   0.906  1.00  0.00     0.134 A 
ATOM     66  C   UNL     1      14.809  10.949   0.850  1.00  0.00     0.134 A 
ATOM     67  F   UNL     1      17.287   8.336   0.379  1.00  0.00    -0.206 F 
ATOM     68  C   UNL     1      16.988   9.832   2.160  1.00  0.00     0.040 A 
ATOM     69  C   UNL     1      15.211  11.454   2.087  1.00  0.00     0.040 A 
ATOM     70  F   UNL     1      13.742  11.511   0.261  1.00  0.00    -0.206 F 
ATOM     71  C   UNL     1      16.295  10.886   2.752  1.00  0.00     0.006 A 
ENDBRANCH  50  64
BRANCH  51  72
ATOM     72  C   UNL     1      11.825   6.039  -8.239  1.00  0.00     0.057 A 
ATOM     73  C   UNL     1      12.624   5.709  -9.339  1.00  0.00     0.134 A 
ATOM     74  C   UNL     1      10.450   5.794  -8.344  1.00  0.00     0.134 A 
ATOM     75  F   UNL     1      13.945   5.933  -9.304  1.00  0.00    -0.206 F 
ATOM     76  C   UNL     1      12.078   5.164 -10.503  1.00  0.00     0.040 A 
ATOM     77  C   UNL     1       9.893   5.227  -9.492  1.00  0.00     0.040 A 
ATOM     78  F   UNL     1       9.631   6.076  -7.319  1.00  0.00    -0.206 F 
ATOM     79  C   UNL     1      10.709   4.914 -10.578  1.00  0.00     0.006 A 
ENDBRANCH  51  72
BRANCH  63  80
ATOM     80  C   UNL     1      14.882  12.102  -6.601  1.00  0.00     0.057 A 
ATOM     81  C   UNL     1      13.929  13.026  -7.045  1.00  0.00     0.134 A 
ATOM     82  C   UNL     1      16.230  12.387  -6.860  1.00  0.00     0.134 A 
ATOM     83  F   UNL     1      12.621  12.807  -6.840  1.00  0.00    -0.206 F 
ATOM     84  C   UNL     1      14.303  14.187  -7.725  1.00  0.00     0.040 A 
ATOM     85  C   UNL     1      16.618  13.556  -7.513  1.00  0.00     0.040 A 
ATOM     86  F   UNL     1      17.193  11.546  -6.453  1.00  0.00    -0.206 F 
ATOM     87  C   UNL     1      15.652  14.460  -7.949  1.00  0.00     0.006 A 
ENDBRANCH  63  80
ENDBRANCH  37  38
ENDBRANCH  29  32
ENDBRANCH  27  28
ENDBRANCH  26  27
ENDBRANCH   1  26
TORSDOF 14
