REMARK SMILES O=C(Cc1ccn(-c2ccccc2F)c1)NCCCNC(=O)c1ccc(-c2c3nc(c(-c4c(F)cccc4F)c4ccc([nH]4)c(-c4c(F)cccc4F)c4nc(c(-c5c(F)cccc5F)c5ccc2[nH]5)C=C4)C=C3)cc1
REMARK SMILES IDX 18 1 17 2 16 3 1 4 2 5 3 7 4 8 5 9 15 10 6 11 7 12 8 13 9 14
REMARK SMILES IDX 13 15 10 16 12 17 14 18 11 19 19 20 20 21 21 22 22 24 23 25
REMARK SMILES IDX 24 26 76 27 25 28 75 29 26 30 27 31 28 32 69 33 29 34 74 35
REMARK SMILES IDX 68 36 70 37 30 38 73 39 67 40 66 41 31 43 57 44 40 45 56 46
REMARK SMILES IDX 41 47 44 48 55 49 71 50 42 51 43 52 54 54 72 55 45 56 32 57
REMARK SMILES IDX 33 58 38 59 34 60 35 61 37 62 39 63 36 64 58 65 59 66 64 67
REMARK SMILES IDX 60 68 61 69 63 70 65 71 62 72 46 73 47 74 52 75 48 76 49 77
REMARK SMILES IDX 51 78 53 79 50 80
REMARK H PARENT 16 6 20 23 70 42 44 53
REMARK Flexibility Score: inf
ROOT
ATOM      1  C   UNL     1       2.072   1.189   3.337  1.00  0.00     0.042 C 
ENDROOT
BRANCH   1   2
ATOM      2  C   UNL     1       1.849   1.573   1.874  1.00  0.00     0.117 C 
BRANCH   2   3
ATOM      3  N   UNL     1       2.576   0.726   0.943  1.00  0.00    -0.356 N 
ATOM      4  O   UNL     1       0.736  -0.319   0.061  1.00  0.00    -0.275 OA
ATOM      5  C   UNL     1       1.945  -0.104   0.037  1.00  0.00     0.224 C 
ATOM      6  H   UNL     1       3.560   0.745   0.959  1.00  0.00     0.163 HD
BRANCH   5   7
ATOM      7  C   UNL     1       2.872  -0.787  -0.961  1.00  0.00     0.137 C 
BRANCH   7   8
ATOM      8  C   UNL     1       3.696   0.146  -1.806  1.00  0.00    -0.021 A 
ATOM      9  C   UNL     1       3.685   1.569  -1.835  1.00  0.00     0.024 A 
ATOM     10  C   UNL     1       4.637  -0.239  -2.748  1.00  0.00     0.095 A 
ATOM     11  C   UNL     1       4.692   1.986  -2.675  1.00  0.00     0.091 A 
ATOM     12  N   UNL     1       5.249   0.879  -3.273  1.00  0.00    -0.321 N 
BRANCH  12  13
ATOM     13  C   UNL     1       6.279   0.902  -4.235  1.00  0.00     0.081 A 
ATOM     14  C   UNL     1       7.370   1.765  -4.065  1.00  0.00     0.030 A 
ATOM     15  C   UNL     1       6.204   0.087  -5.364  1.00  0.00     0.147 A 
ATOM     16  C   UNL     1       8.389   1.785  -5.020  1.00  0.00     0.002 A 
ATOM     17  C   UNL     1       7.196   0.146  -6.340  1.00  0.00     0.041 A 
ATOM     18  F   UNL     1       5.143  -0.705  -5.580  1.00  0.00    -0.205 F 
ATOM     19  C   UNL     1       8.295   0.987  -6.162  1.00  0.00     0.003 A 
ENDBRANCH  12  13
ENDBRANCH   7   8
ENDBRANCH   5   7
ENDBRANCH   2   3
ENDBRANCH   1   2
BRANCH   1  20
ATOM     20  C   UNL     1       3.524   1.349   3.761  1.00  0.00     0.118 C 
BRANCH  20  21
ATOM     21  N   UNL     1       3.931   2.737   3.901  1.00  0.00    -0.352 N 
ATOM     22  C   UNL     1       5.018   3.272   4.563  1.00  0.00     0.251 C 
ATOM     23  H   UNL     1       3.346   3.393   3.458  1.00  0.00     0.163 HD
ATOM     24  O   UNL     1       4.992   4.443   4.895  1.00  0.00    -0.269 OA
BRANCH  22  25
ATOM     25  C   UNL     1       6.252   2.476   4.794  1.00  0.00     0.039 A 
ATOM     26  C   UNL     1       7.175   2.926   5.752  1.00  0.00     0.014 A 
ATOM     27  C   UNL     1       6.590   1.408   3.961  1.00  0.00     0.014 A 
ATOM     28  C   UNL     1       8.432   2.330   5.836  1.00  0.00     0.010 A 
ATOM     29  C   UNL     1       7.821   0.800   4.046  1.00  0.00     0.010 A 
ATOM     30  C   UNL     1       8.746   1.280   4.964  1.00  0.00    -0.014 A 
BRANCH  30  31
ATOM     31  C   UNL     1       9.937   0.447   5.165  1.00  0.00     0.031 A 
ATOM     32  C   UNL     1       9.585  -0.577   6.335  1.00  0.00     0.074 A 
ATOM     33  C   UNL     1      10.980   0.707   4.288  1.00  0.00     0.049 A 
ATOM     34  N   UNL     1      10.359  -1.237   7.132  1.00  0.00    -0.248 NA
ATOM     35  C   UNL     1       8.154  -0.881   6.697  1.00  0.00     0.031 C 
ATOM     36  C   UNL     1      10.951   1.676   3.147  1.00  0.00     0.029 A 
ATOM     37  N   UNL     1      12.254   0.206   4.097  1.00  0.00    -0.354 N 
ATOM     38  C   UNL     1       9.583  -2.169   7.878  1.00  0.00     0.074 A 
ATOM     39  C   UNL     1       8.220  -1.820   7.649  1.00  0.00     0.031 C 
ATOM     40  C   UNL     1      12.160   1.788   2.534  1.00  0.00     0.029 A 
ATOM     41  C   UNL     1      13.109   0.902   3.171  1.00  0.00     0.049 A 
ATOM     42  H   UNL     1      12.565  -0.596   4.575  1.00  0.00     0.167 HD
ATOM     43  C   UNL     1      10.151  -3.249   8.505  1.00  0.00     0.037 A 
ATOM     44  C   UNL     1      14.479   0.778   3.018  1.00  0.00     0.037 A 
ATOM     45  C   UNL     1      11.560  -3.176   8.322  1.00  0.00     0.049 A 
ATOM     46  C   UNL     1      14.787  -0.362   3.884  1.00  0.00     0.074 A 
ATOM     47  C   UNL     1      12.477  -2.305   8.849  1.00  0.00     0.029 A 
ATOM     48  N   UNL     1      12.034  -3.703   7.146  1.00  0.00    -0.354 N 
ATOM     49  N   UNL     1      14.433  -1.588   3.641  1.00  0.00    -0.248 NA
ATOM     50  C   UNL     1      15.317  -0.062   5.214  1.00  0.00     0.031 C 
ATOM     51  C   UNL     1      13.127  -1.866   7.682  1.00  0.00     0.029 A 
ATOM     52  C   UNL     1      12.934  -2.796   6.654  1.00  0.00     0.049 A 
ATOM     53  H   UNL     1      11.778  -4.561   6.737  1.00  0.00     0.167 HD
ATOM     54  C   UNL     1      14.359  -2.113   4.905  1.00  0.00     0.074 A 
ATOM     55  C   UNL     1      15.156  -1.256   5.770  1.00  0.00     0.031 C 
ATOM     56  C   UNL     1      13.294  -2.872   5.269  1.00  0.00     0.037 A 
BRANCH  43  57
ATOM     57  C   UNL     1       9.655  -4.543   9.092  1.00  0.00     0.057 A 
ATOM     58  C   UNL     1       8.566  -5.258   8.594  1.00  0.00     0.134 A 
ATOM     59  C   UNL     1      10.550  -5.281   9.914  1.00  0.00     0.134 A 
ATOM     60  F   UNL     1       7.662  -4.672   7.797  1.00  0.00    -0.206 F 
ATOM     61  C   UNL     1       8.427  -6.639   8.821  1.00  0.00     0.040 A 
ATOM     62  C   UNL     1      10.451  -6.661  10.100  1.00  0.00     0.040 A 
ATOM     63  F   UNL     1      11.612  -4.691  10.487  1.00  0.00    -0.206 F 
ATOM     64  C   UNL     1       9.391  -7.350   9.537  1.00  0.00     0.006 A 
ENDBRANCH  43  57
BRANCH  44  65
ATOM     65  C   UNL     1      15.704   1.508   2.459  1.00  0.00     0.057 A 
ATOM     66  C   UNL     1      17.013   1.169   2.938  1.00  0.00     0.134 A 
ATOM     67  C   UNL     1      15.707   2.618   1.617  1.00  0.00     0.134 A 
ATOM     68  F   UNL     1      17.257   0.011   3.570  1.00  0.00    -0.206 F 
ATOM     69  C   UNL     1      18.143   1.990   2.824  1.00  0.00     0.040 A 
ATOM     70  C   UNL     1      16.864   3.419   1.424  1.00  0.00     0.040 A 
ATOM     71  F   UNL     1      14.603   2.968   0.945  1.00  0.00    -0.206 F 
ATOM     72  C   UNL     1      18.063   3.149   2.084  1.00  0.00     0.006 A 
ENDBRANCH  44  65
BRANCH  56  73
ATOM     73  C   UNL     1      12.465  -3.504   4.161  1.00  0.00     0.057 A 
ATOM     74  C   UNL     1      11.120  -3.206   3.867  1.00  0.00     0.134 A 
ATOM     75  C   UNL     1      13.055  -4.457   3.324  1.00  0.00     0.134 A 
ATOM     76  F   UNL     1      10.441  -2.308   4.578  1.00  0.00    -0.206 F 
ATOM     77  C   UNL     1      10.404  -3.822   2.825  1.00  0.00     0.040 A 
ATOM     78  C   UNL     1      12.354  -5.088   2.284  1.00  0.00     0.040 A 
ATOM     79  F   UNL     1      14.331  -4.821   3.520  1.00  0.00    -0.206 F 
ATOM     80  C   UNL     1      11.022  -4.777   2.032  1.00  0.00     0.006 A 
ENDBRANCH  56  73
ENDBRANCH  30  31
ENDBRANCH  22  25
ENDBRANCH  20  21
ENDBRANCH   1  20
TORSDOF 12
