REMARK SMILES COc1ccc(-c2nc3ccc(C)cc3[nH]2)c(C(=O)NCCCNC(=O)c2ccc(-c3c4nc(c(-c5c(F)cccc5F)c5ccc([nH]5)c(-c5c(F)cccc5F)c5nc(c(-c6c(F)cccc6F)c6ccc3[nH]6)C=C5)C=C4)cc2)c1OC
REMARK SMILES IDX 22 1 21 2 20 3 18 4 19 5 17 7 3 8 4 9 81 10 5 11 6 12 2 13
REMARK SMILES IDX 1 14 82 15 83 16 7 17 8 18 16 19 9 20 15 21 10 23 14 24
REMARK SMILES IDX 11 25 12 26 13 27 23 28 24 29 25 30 26 32 27 33 28 34 80 35
REMARK SMILES IDX 29 36 79 37 30 38 31 39 32 40 73 41 33 42 78 43 72 44 74 45
REMARK SMILES IDX 34 46 77 47 71 48 70 49 35 51 61 52 44 53 60 54 45 55 48 56
REMARK SMILES IDX 59 57 75 58 46 59 47 60 58 62 76 63 49 64 36 65 37 66 42 67
REMARK SMILES IDX 38 68 39 69 41 70 43 71 40 72 62 73 63 74 68 75 64 76 65 77
REMARK SMILES IDX 67 78 69 79 66 80 50 81 51 82 56 83 52 84 53 85 55 86 57 87
REMARK SMILES IDX 54 88
REMARK H PARENT 20 6 16 22 24 31 74 50 48 61
REMARK Flexibility Score: inf
ROOT
ATOM      1  C   UNL     1       5.901   1.708  -1.357  1.00  0.00     0.042 C 
ENDROOT
BRANCH   1   2
ATOM      2  C   UNL     1       4.770   2.075  -0.418  1.00  0.00     0.118 C 
BRANCH   2   3
ATOM      3  N   UNL     1       4.834   3.351   0.257  1.00  0.00    -0.352 N 
ATOM      4  C   UNL     1       3.774   3.999   0.873  1.00  0.00     0.255 C 
ATOM      5  O   UNL     1       3.984   4.750   1.822  1.00  0.00    -0.269 OA
ATOM      6  H   UNL     1       5.709   3.802   0.282  1.00  0.00     0.163 HD
BRANCH   4   7
ATOM      7  C   UNL     1       2.391   3.858   0.336  1.00  0.00     0.096 A 
ATOM      8  C   UNL     1       0.509   2.499  -0.363  1.00  0.00     0.161 A 
ATOM      9  C   UNL     1      -0.097   3.647  -0.893  1.00  0.00     0.051 A 
ATOM     10  C   UNL     1       1.730   2.602   0.320  1.00  0.00     0.174 A 
ATOM     11  C   UNL     1       0.506   4.903  -0.770  1.00  0.00     0.017 A 
ATOM     12  C   UNL     1       1.773   5.022  -0.189  1.00  0.00     0.034 A 
BRANCH   8  13
ATOM     13  O   UNL     1      -0.064   1.320  -0.760  1.00  0.00    -0.493 OA
ATOM     14  C   UNL     1      -0.689   0.563   0.267  1.00  0.00     0.278 C 
ENDBRANCH   8  13
BRANCH  10  15
ATOM     15  O   UNL     1       2.310   1.605   1.064  1.00  0.00    -0.492 OA
ATOM     16  C   UNL     1       2.325   0.277   0.556  1.00  0.00     0.278 C 
ENDBRANCH  10  15
BRANCH  12  17
ATOM     17  C   UNL     1       2.437   6.332  -0.180  1.00  0.00     0.139 A 
ATOM     18  N   UNL     1       3.622   6.610  -0.692  1.00  0.00    -0.228 NA
ATOM     19  N   UNL     1       1.913   7.451   0.434  1.00  0.00    -0.338 N 
ATOM     20  C   UNL     1       3.922   7.886  -0.276  1.00  0.00     0.089 A 
ATOM     21  C   UNL     1       2.860   8.446   0.420  1.00  0.00     0.066 A 
ATOM     22  H   UNL     1       1.010   7.524   0.819  1.00  0.00     0.168 HD
ATOM     23  C   UNL     1       5.100   8.628  -0.438  1.00  0.00     0.031 A 
ATOM     24  C   UNL     1       2.895   9.734   0.969  1.00  0.00     0.031 A 
ATOM     25  C   UNL     1       5.174   9.909   0.126  1.00  0.00     0.006 A 
ATOM     26  C   UNL     1       4.089  10.463   0.822  1.00  0.00    -0.049 A 
ATOM     27  C   UNL     1       4.229  11.833   1.426  1.00  0.00     0.044 C 
ENDBRANCH  12  17
ENDBRANCH   4   7
ENDBRANCH   2   3
ENDBRANCH   1   2
BRANCH   1  28
ATOM     28  C   UNL     1       7.284   1.706  -0.727  1.00  0.00     0.118 C 
BRANCH  28  29
ATOM     29  N   UNL     1       7.451   0.757   0.370  1.00  0.00    -0.352 N 
ATOM     30  C   UNL     1       8.046  -0.484   0.463  1.00  0.00     0.251 C 
ATOM     31  H   UNL     1       7.058   1.067   1.218  1.00  0.00     0.163 HD
ATOM     32  O   UNL     1       7.972  -1.103   1.514  1.00  0.00    -0.269 OA
BRANCH  30  33
ATOM     33  C   UNL     1       8.720  -1.112  -0.700  1.00  0.00     0.039 A 
ATOM     34  C   UNL     1       8.591  -2.495  -0.885  1.00  0.00     0.014 A 
ATOM     35  C   UNL     1       9.475  -0.375  -1.606  1.00  0.00     0.014 A 
ATOM     36  C   UNL     1       9.103  -3.101  -2.038  1.00  0.00     0.010 A 
ATOM     37  C   UNL     1       9.875  -0.950  -2.808  1.00  0.00     0.010 A 
ATOM     38  C   UNL     1       9.682  -2.318  -3.047  1.00  0.00    -0.014 A 
BRANCH  38  39
ATOM     39  C   UNL     1      10.072  -2.882  -4.368  1.00  0.00     0.031 A 
ATOM     40  C   UNL     1      11.486  -2.737  -4.865  1.00  0.00     0.074 A 
ATOM     41  C   UNL     1       9.130  -3.414  -5.172  1.00  0.00     0.049 A 
ATOM     42  N   UNL     1      11.977  -2.993  -6.051  1.00  0.00    -0.248 NA
ATOM     43  C   UNL     1      12.469  -2.194  -3.914  1.00  0.00     0.031 C 
ATOM     44  C   UNL     1       7.712  -3.567  -4.837  1.00  0.00     0.029 A 
ATOM     45  N   UNL     1       9.218  -3.904  -6.453  1.00  0.00    -0.354 N 
ATOM     46  C   UNL     1      13.312  -2.608  -5.997  1.00  0.00     0.074 A 
ATOM     47  C   UNL     1      13.540  -2.057  -4.680  1.00  0.00     0.031 C 
ATOM     48  C   UNL     1       7.071  -4.130  -5.873  1.00  0.00     0.029 A 
ATOM     49  C   UNL     1       8.016  -4.330  -6.965  1.00  0.00     0.049 A 
ATOM     50  H   UNL     1      10.064  -3.947  -6.956  1.00  0.00     0.167 HD
ATOM     51  C   UNL     1      14.266  -2.725  -6.951  1.00  0.00     0.037 A 
ATOM     52  C   UNL     1       7.702  -4.807  -8.185  1.00  0.00     0.037 A 
ATOM     53  C   UNL     1      14.048  -3.317  -8.244  1.00  0.00     0.049 A 
ATOM     54  C   UNL     1       8.779  -4.928  -9.226  1.00  0.00     0.074 A 
ATOM     55  C   UNL     1      14.970  -3.557  -9.248  1.00  0.00     0.029 A 
ATOM     56  N   UNL     1      12.822  -3.763  -8.711  1.00  0.00    -0.354 N 
ATOM     57  N   UNL     1      10.050  -4.620  -9.139  1.00  0.00    -0.248 NA
ATOM     58  C   UNL     1       8.378  -5.459 -10.537  1.00  0.00     0.031 C 
ATOM     59  C   UNL     1      14.293  -4.112 -10.339  1.00  0.00     0.029 A 
ATOM     60  C   UNL     1      12.958  -4.256  -9.998  1.00  0.00     0.049 A 
ATOM     61  H   UNL     1      11.979  -3.734  -8.203  1.00  0.00     0.167 HD
ATOM     62  C   UNL     1      10.604  -4.939 -10.371  1.00  0.00     0.074 A 
ATOM     63  C   UNL     1       9.535  -5.479 -11.185  1.00  0.00     0.031 C 
ATOM     64  C   UNL     1      11.885  -4.797 -10.792  1.00  0.00     0.037 A 
BRANCH  51  65
ATOM     65  C   UNL     1      15.638  -2.210  -6.626  1.00  0.00     0.057 A 
ATOM     66  C   UNL     1      16.466  -2.849  -5.693  1.00  0.00     0.134 A 
ATOM     67  C   UNL     1      16.151  -1.080  -7.276  1.00  0.00     0.134 A 
ATOM     68  F   UNL     1      16.032  -3.930  -5.027  1.00  0.00    -0.206 F 
ATOM     69  C   UNL     1      17.742  -2.367  -5.397  1.00  0.00     0.040 A 
ATOM     70  C   UNL     1      17.436  -0.605  -7.009  1.00  0.00     0.040 A 
ATOM     71  F   UNL     1      15.415  -0.424  -8.186  1.00  0.00    -0.206 F 
ATOM     72  C   UNL     1      18.233  -1.244  -6.061  1.00  0.00     0.006 A 
ENDBRANCH  51  65
BRANCH  52  73
ATOM     73  C   UNL     1       6.307  -5.216  -8.488  1.00  0.00     0.057 A 
ATOM     74  C   UNL     1       5.975  -6.566  -8.654  1.00  0.00     0.134 A 
ATOM     75  C   UNL     1       5.277  -4.278  -8.622  1.00  0.00     0.134 A 
ATOM     76  F   UNL     1       6.923  -7.510  -8.557  1.00  0.00    -0.206 F 
ATOM     77  C   UNL     1       4.674  -6.968  -8.959  1.00  0.00     0.040 A 
ATOM     78  C   UNL     1       3.966  -4.667  -8.903  1.00  0.00     0.040 A 
ATOM     79  F   UNL     1       5.528  -2.970  -8.468  1.00  0.00    -0.206 F 
ATOM     80  C   UNL     1       3.663  -6.016  -9.079  1.00  0.00     0.006 A 
ENDBRANCH  52  73
BRANCH  64  81
ATOM     81  C   UNL     1      12.208  -5.256 -12.182  1.00  0.00     0.057 A 
ATOM     82  C   UNL     1      11.812  -4.526 -13.309  1.00  0.00     0.134 A 
ATOM     83  C   UNL     1      12.973  -6.410 -12.392  1.00  0.00     0.134 A 
ATOM     84  F   UNL     1      11.065  -3.420 -13.175  1.00  0.00    -0.206 F 
ATOM     85  C   UNL     1      12.155  -4.936 -14.598  1.00  0.00     0.040 A 
ATOM     86  C   UNL     1      13.343  -6.816 -13.674  1.00  0.00     0.040 A 
ATOM     87  F   UNL     1      13.390  -7.149 -11.353  1.00  0.00    -0.206 F 
ATOM     88  C   UNL     1      12.930  -6.079 -14.783  1.00  0.00     0.006 A 
ENDBRANCH  64  81
ENDBRANCH  38  39
ENDBRANCH  30  33
ENDBRANCH  28  29
ENDBRANCH   1  28
TORSDOF 13
