REMARK SMILES O=C(CCc1cncc([C@@H]2CN(c3ccccc3)CCO2)n1)NCCCNC(=O)c1ccc(-c2c3nc(c(-c4c(F)cccc4F)c4ccc([nH]4)c(-c4c(F)cccc4F)c4nc(c(-c5c(F)cccc5F)c5ccc2[nH]5)C=C4)C=C3)cc1
REMARK SMILES IDX 24 1 23 2 1 3 2 4 3 6 4 7 5 8 6 9 22 10 7 11 9 12 8 13 10 14
REMARK SMILES IDX 11 15 21 16 12 17 20 18 19 19 13 20 14 21 18 22 15 23 17 24
REMARK SMILES IDX 16 25 25 26 26 27 27 28 28 29 29 31 30 32 31 33 83 34 32 35
REMARK SMILES IDX 82 36 33 37 34 38 35 39 76 40 36 41 81 42 75 43 77 44 37 45
REMARK SMILES IDX 80 46 74 47 73 48 38 50 64 51 47 52 63 53 48 54 51 55 62 56
REMARK SMILES IDX 78 57 49 58 50 59 61 61 79 62 52 63 39 64 40 65 45 66 41 67
REMARK SMILES IDX 42 68 44 69 46 70 43 71 65 72 66 73 71 74 67 75 68 76 70 77
REMARK SMILES IDX 72 78 69 79 53 80 54 81 59 82 55 83 56 84 58 85 60 86 57 87
REMARK H PARENT 23 5 27 30 77 49 51 60
REMARK Flexibility Score: inf
ROOT
ATOM      1  C   UNL     1       1.814   0.757  -2.723  1.00  0.00     0.117 C 
ENDROOT
BRANCH   1   2
ATOM      2  N   UNL     1       2.476   0.637  -1.429  1.00  0.00    -0.356 N 
ATOM      3  O   UNL     1       0.769  -0.477  -0.366  1.00  0.00    -0.275 OA
ATOM      4  C   UNL     1       1.923  -0.064  -0.376  1.00  0.00     0.220 C 
ATOM      5  H   UNL     1       3.349   1.073  -1.302  1.00  0.00     0.163 HD
BRANCH   4   6
ATOM      6  C   UNL     1       2.865  -0.340   0.787  1.00  0.00     0.106 C 
BRANCH   6   7
ATOM      7  C   UNL     1       3.890  -1.423   0.435  1.00  0.00     0.068 C 
BRANCH   7   8
ATOM      8  C   UNL     1       4.984  -0.937  -0.478  1.00  0.00     0.060 A 
ATOM      9  C   UNL     1       5.659  -1.806  -1.323  1.00  0.00     0.134 A 
ATOM     10  N   UNL     1       5.293   0.387  -0.437  1.00  0.00    -0.252 NA
ATOM     11  N   UNL     1       6.622  -1.388  -2.174  1.00  0.00    -0.261 NA
ATOM     12  C   UNL     1       6.287   0.817  -1.256  1.00  0.00     0.090 A 
ATOM     13  C   UNL     1       6.910  -0.065  -2.133  1.00  0.00     0.137 A 
BRANCH  12  14
ATOM     14  C   UNL     1       6.672   2.279  -1.212  1.00  0.00     0.188 C 
ATOM     15  C   UNL     1       7.011   2.780   0.203  1.00  0.00     0.155 C 
ATOM     16  O   UNL     1       5.674   3.069  -1.871  1.00  0.00    -0.368 OA
ATOM     17  N   UNL     1       6.906   4.244   0.264  1.00  0.00    -0.366 N 
ATOM     18  C   UNL     1       4.841   3.903  -1.064  1.00  0.00     0.182 C 
ATOM     19  C   UNL     1       5.551   4.743   0.005  1.00  0.00     0.145 C 
BRANCH  17  20
ATOM     20  C   UNL     1       7.954   5.103  -0.022  1.00  0.00     0.037 A 
ATOM     21  C   UNL     1       7.952   6.402   0.514  1.00  0.00     0.026 A 
ATOM     22  C   UNL     1       9.036   4.759  -0.842  1.00  0.00     0.026 A 
ATOM     23  C   UNL     1       8.966   7.320   0.233  1.00  0.00     0.002 A 
ATOM     24  C   UNL     1      10.049   5.678  -1.143  1.00  0.00     0.002 A 
ATOM     25  C   UNL     1      10.014   6.958  -0.602  1.00  0.00     0.000 A 
ENDBRANCH  17  20
ENDBRANCH  12  14
ENDBRANCH   7   8
ENDBRANCH   6   7
ENDBRANCH   4   6
ENDBRANCH   1   2
BRANCH   1  26
ATOM     26  C   UNL     1       1.865   2.157  -3.352  1.00  0.00     0.042 C 
BRANCH  26  27
ATOM     27  C   UNL     1       3.261   2.666  -3.711  1.00  0.00     0.118 C 
BRANCH  27  28
ATOM     28  N   UNL     1       3.858   2.173  -4.936  1.00  0.00    -0.352 N 
ATOM     29  C   UNL     1       4.903   2.737  -5.650  1.00  0.00     0.251 C 
ATOM     30  H   UNL     1       3.477   1.342  -5.303  1.00  0.00     0.163 HD
ATOM     31  O   UNL     1       5.488   2.081  -6.503  1.00  0.00    -0.269 OA
BRANCH  29  32
ATOM     32  C   UNL     1       5.300   4.154  -5.444  1.00  0.00     0.039 A 
ATOM     33  C   UNL     1       4.936   5.104  -6.394  1.00  0.00     0.014 A 
ATOM     34  C   UNL     1       6.126   4.548  -4.395  1.00  0.00     0.014 A 
ATOM     35  C   UNL     1       5.338   6.444  -6.240  1.00  0.00     0.010 A 
ATOM     36  C   UNL     1       6.424   5.905  -4.174  1.00  0.00     0.010 A 
ATOM     37  C   UNL     1       6.032   6.888  -5.094  1.00  0.00    -0.014 A 
BRANCH  37  38
ATOM     38  C   UNL     1       6.293   8.356  -4.867  1.00  0.00     0.031 A 
ATOM     39  C   UNL     1       7.673   8.910  -4.564  1.00  0.00     0.074 A 
ATOM     40  C   UNL     1       5.263   9.232  -4.898  1.00  0.00     0.049 A 
ATOM     41  N   UNL     1       8.037  10.158  -4.355  1.00  0.00    -0.248 NA
ATOM     42  C   UNL     1       8.781   7.952  -4.453  1.00  0.00     0.031 C 
ATOM     43  C   UNL     1       3.855   8.877  -5.088  1.00  0.00     0.029 A 
ATOM     44  N   UNL     1       5.235  10.605  -4.778  1.00  0.00    -0.354 N 
ATOM     45  C   UNL     1       9.398  10.126  -4.065  1.00  0.00     0.074 A 
ATOM     46  C   UNL     1       9.785   8.731  -4.075  1.00  0.00     0.031 C 
ATOM     47  C   UNL     1       3.116   9.995  -5.139  1.00  0.00     0.029 A 
ATOM     48  C   UNL     1       3.981  11.151  -4.926  1.00  0.00     0.049 A 
ATOM     49  H   UNL     1       6.039  11.145  -4.603  1.00  0.00     0.167 HD
ATOM     50  C   UNL     1      10.260  11.151  -3.838  1.00  0.00     0.037 A 
ATOM     51  C   UNL     1       3.553  12.429  -4.893  1.00  0.00     0.037 A 
ATOM     52  C   UNL     1       9.913  12.551  -3.867  1.00  0.00     0.049 A 
ATOM     53  C   UNL     1       4.528  13.550  -4.663  1.00  0.00     0.074 A 
ATOM     54  C   UNL     1      10.751  13.649  -3.738  1.00  0.00     0.029 A 
ATOM     55  N   UNL     1       8.632  13.052  -4.035  1.00  0.00    -0.354 N 
ATOM     56  N   UNL     1       5.823  13.495  -4.484  1.00  0.00    -0.248 NA
ATOM     57  C   UNL     1       3.977  14.914  -4.634  1.00  0.00     0.031 C 
ATOM     58  C   UNL     1       9.972  14.810  -3.778  1.00  0.00     0.029 A 
ATOM     59  C   UNL     1       8.655  14.439  -3.986  1.00  0.00     0.049 A 
ATOM     60  H   UNL     1       7.825  12.505  -4.168  1.00  0.00     0.167 HD
ATOM     61  C   UNL     1       6.244  14.813  -4.348  1.00  0.00     0.074 A 
ATOM     62  C   UNL     1       5.070  15.647  -4.483  1.00  0.00     0.031 C 
ATOM     63  C   UNL     1       7.496  15.281  -4.128  1.00  0.00     0.037 A 
BRANCH  50  64
ATOM     64  C   UNL     1      11.697  10.805  -3.551  1.00  0.00     0.057 A 
ATOM     65  C   UNL     1      12.544  10.288  -4.540  1.00  0.00     0.134 A 
ATOM     66  C   UNL     1      12.261  11.058  -2.292  1.00  0.00     0.134 A 
ATOM     67  F   UNL     1      12.073  10.025  -5.769  1.00  0.00    -0.206 F 
ATOM     68  C   UNL     1      13.886  10.003  -4.280  1.00  0.00     0.040 A 
ATOM     69  C   UNL     1      13.609  10.807  -2.029  1.00  0.00     0.040 A 
ATOM     70  F   UNL     1      11.515  11.573  -1.302  1.00  0.00    -0.206 F 
ATOM     71  C   UNL     1      14.424  10.269  -3.023  1.00  0.00     0.006 A 
ENDBRANCH  50  64
BRANCH  51  72
ATOM     72  C   UNL     1       2.113  12.733  -5.106  1.00  0.00     0.057 A 
ATOM     73  C   UNL     1       1.677  13.387  -6.265  1.00  0.00     0.134 A 
ATOM     74  C   UNL     1       1.145  12.400  -4.150  1.00  0.00     0.134 A 
ATOM     75  F   UNL     1       2.560  13.753  -7.206  1.00  0.00    -0.206 F 
ATOM     76  C   UNL     1       0.335  13.718  -6.457  1.00  0.00     0.040 A 
ATOM     77  C   UNL     1      -0.204  12.699  -4.343  1.00  0.00     0.040 A 
ATOM     78  F   UNL     1       1.497  11.768  -3.021  1.00  0.00    -0.206 F 
ATOM     79  C   UNL     1      -0.611  13.368  -5.496  1.00  0.00     0.006 A 
ENDBRANCH  51  72
BRANCH  63  80
ATOM     80  C   UNL     1       7.680  16.771  -4.056  1.00  0.00     0.057 A 
ATOM     81  C   UNL     1       7.215  17.526  -2.971  1.00  0.00     0.134 A 
ATOM     82  C   UNL     1       8.361  17.457  -5.070  1.00  0.00     0.134 A 
ATOM     83  F   UNL     1       6.541  16.936  -1.971  1.00  0.00    -0.206 F 
ATOM     84  C   UNL     1       7.401  18.909  -2.908  1.00  0.00     0.040 A 
ATOM     85  C   UNL     1       8.577  18.835  -5.006  1.00  0.00     0.040 A 
ATOM     86  F   UNL     1       8.839  16.797  -6.136  1.00  0.00    -0.206 F 
ATOM     87  C   UNL     1       8.091  19.566  -3.925  1.00  0.00     0.006 A 
ENDBRANCH  63  80
ENDBRANCH  37  38
ENDBRANCH  29  32
ENDBRANCH  27  28
ENDBRANCH  26  27
ENDBRANCH   1  26
TORSDOF 14
