REMARK SMILES CCOc1cc(N2CCOCC2)ccc1[C@H]([NH3+])C(=O)NCCCNC(=O)c1ccc(-c2c3nc(c(-c4c(F)cccc4F)c4ccc([nH]4)c(-c4c(F)cccc4F)c4nc(c(-c5c(F)cccc5F)c5ccc2[nH]5)C=C4)C=C3)cc1
REMARK SMILES IDX 21 1 20 2 18 3 19 4 16 6 15 7 4 8 5 9 6 10 14 11 13 12 3 13
REMARK SMILES IDX 2 14 1 15 7 16 8 17 12 18 9 19 11 20 10 21 17 22 22 26 23 27
REMARK SMILES IDX 24 28 25 29 26 31 27 32 28 33 80 34 29 35 79 36 30 37 31 38
REMARK SMILES IDX 32 39 73 40 33 41 78 42 72 43 74 44 34 45 77 46 71 47 70 48
REMARK SMILES IDX 35 50 61 51 44 52 60 53 45 54 48 55 59 56 75 57 46 58 47 59
REMARK SMILES IDX 58 61 76 62 49 63 36 64 37 65 42 66 38 67 39 68 41 69 43 70
REMARK SMILES IDX 40 71 62 72 63 73 68 74 64 75 65 76 67 77 69 78 66 79 50 80
REMARK SMILES IDX 51 81 56 82 52 83 53 84 55 85 57 86 54 87
REMARK H PARENT 20 5 17 23 17 24 17 25 24 30 74 49 48 60
REMARK Flexibility Score: inf
ROOT
ATOM      1  C   UNL     1       5.290  -1.349   1.396  1.00  0.00     0.118 C 
ENDROOT
BRANCH   1   2
ATOM      2  N   UNL     1       4.163  -0.501   1.805  1.00  0.00    -0.351 N 
ATOM      3  C   UNL     1       2.836  -0.397   1.490  1.00  0.00     0.283 C 
ATOM      4  O   UNL     1       2.257   0.541   2.070  1.00  0.00    -0.268 OA
ATOM      5  H   UNL     1       4.431   0.163   2.481  1.00  0.00     0.163 HD
BRANCH   3   6
ATOM      6  C   UNL     1       1.972  -1.329   0.566  1.00  0.00     0.306 C 
BRANCH   6   7
ATOM      7  C   UNL     1       2.675  -2.209  -0.425  1.00  0.00     0.061 A 
ATOM      8  C   UNL     1       3.520  -1.753  -1.444  1.00  0.00     0.131 A 
ATOM      9  C   UNL     1       4.463  -2.648  -1.981  1.00  0.00     0.072 A 
ATOM     10  C   UNL     1       4.491  -3.999  -1.567  1.00  0.00     0.040 A 
ATOM     11  C   UNL     1       2.521  -3.594  -0.252  1.00  0.00     0.016 A 
ATOM     12  C   UNL     1       3.409  -4.480  -0.836  1.00  0.00     0.027 A 
BRANCH   8  13
ATOM     13  O   UNL     1       3.281  -0.544  -2.057  1.00  0.00    -0.493 OA
BRANCH  13  14
ATOM     14  C   UNL     1       3.892   0.607  -1.478  1.00  0.00     0.226 C 
ATOM     15  C   UNL     1       2.928   1.782  -1.379  1.00  0.00     0.049 C 
ENDBRANCH  13  14
ENDBRANCH   8  13
BRANCH  10  16
ATOM     16  N   UNL     1       5.613  -4.796  -1.755  1.00  0.00    -0.367 N 
ATOM     17  C   UNL     1       5.676  -5.719  -2.897  1.00  0.00     0.145 C 
ATOM     18  C   UNL     1       6.279  -5.294  -0.526  1.00  0.00     0.145 C 
ATOM     19  C   UNL     1       5.353  -7.165  -2.477  1.00  0.00     0.181 C 
ATOM     20  C   UNL     1       5.937  -6.766  -0.231  1.00  0.00     0.181 C 
ATOM     21  O   UNL     1       6.167  -7.601  -1.374  1.00  0.00    -0.378 OA
ENDBRANCH  10  16
ENDBRANCH   6   7
BRANCH   6  22
ATOM     22  N   UNL     1       0.863  -0.588  -0.074  1.00  0.00    -0.343 N 
ATOM     23  H   UNL     1       1.243   0.081  -0.743  1.00  0.00     0.345 HD
ATOM     24  H   UNL     1       0.330  -0.091   0.639  1.00  0.00     0.345 HD
ATOM     25  H   UNL     1       0.252  -1.244  -0.560  1.00  0.00     0.345 HD
ENDBRANCH   6  22
ENDBRANCH   3   6
ENDBRANCH   1   2
BRANCH   1  26
ATOM     26  C   UNL     1       6.409  -0.587   0.647  1.00  0.00     0.042 C 
BRANCH  26  27
ATOM     27  C   UNL     1       7.444   0.119   1.524  1.00  0.00     0.118 C 
BRANCH  27  28
ATOM     28  N   UNL     1       8.546  -0.762   1.870  1.00  0.00    -0.352 N 
ATOM     29  C   UNL     1       9.841  -0.823   1.411  1.00  0.00     0.251 C 
ATOM     30  H   UNL     1       8.327  -1.435   2.554  1.00  0.00     0.163 HD
ATOM     31  O   UNL     1      10.489  -1.841   1.649  1.00  0.00    -0.269 OA
BRANCH  29  32
ATOM     32  C   UNL     1      10.497   0.285   0.660  1.00  0.00     0.039 A 
ATOM     33  C   UNL     1      11.508  -0.042  -0.260  1.00  0.00     0.014 A 
ATOM     34  C   UNL     1      10.252   1.631   0.933  1.00  0.00     0.014 A 
ATOM     35  C   UNL     1      12.249   0.961  -0.902  1.00  0.00     0.010 A 
ATOM     36  C   UNL     1      10.943   2.633   0.240  1.00  0.00     0.010 A 
ATOM     37  C   UNL     1      11.968   2.313  -0.666  1.00  0.00    -0.014 A 
BRANCH  37  38
ATOM     38  C   UNL     1      12.768   3.413  -1.282  1.00  0.00     0.031 A 
ATOM     39  C   UNL     1      13.540   4.360  -0.397  1.00  0.00     0.074 A 
ATOM     40  C   UNL     1      12.745   3.625  -2.612  1.00  0.00     0.049 A 
ATOM     41  N   UNL     1      14.121   5.495  -0.695  1.00  0.00    -0.248 NA
ATOM     42  C   UNL     1      13.637   3.993   1.024  1.00  0.00     0.031 C 
ATOM     43  C   UNL     1      12.039   2.799  -3.591  1.00  0.00     0.029 A 
ATOM     44  N   UNL     1      13.314   4.623  -3.367  1.00  0.00    -0.354 N 
ATOM     45  C   UNL     1      14.600   6.003   0.508  1.00  0.00     0.074 A 
ATOM     46  C   UNL     1      14.219   5.064   1.541  1.00  0.00     0.031 C 
ATOM     47  C   UNL     1      12.215   3.323  -4.815  1.00  0.00     0.029 A 
ATOM     48  C   UNL     1      13.007   4.545  -4.705  1.00  0.00     0.049 A 
ATOM     49  H   UNL     1      13.888   5.327  -2.986  1.00  0.00     0.167 HD
ATOM     50  C   UNL     1      15.302   7.141   0.732  1.00  0.00     0.037 A 
ATOM     51  C   UNL     1      13.308   5.374  -5.724  1.00  0.00     0.037 A 
ATOM     52  C   UNL     1      15.736   8.043  -0.302  1.00  0.00     0.049 A 
ATOM     53  C   UNL     1      14.114   6.616  -5.460  1.00  0.00     0.074 A 
ATOM     54  C   UNL     1      16.507   9.187  -0.184  1.00  0.00     0.029 A 
ATOM     55  N   UNL     1      15.448   7.893  -1.651  1.00  0.00    -0.354 N 
ATOM     56  N   UNL     1      14.575   7.075  -4.322  1.00  0.00    -0.248 NA
ATOM     57  C   UNL     1      14.444   7.454  -6.623  1.00  0.00     0.031 C 
ATOM     58  C   UNL     1      16.661   9.745  -1.458  1.00  0.00     0.029 A 
ATOM     59  C   UNL     1      16.020   8.927  -2.373  1.00  0.00     0.049 A 
ATOM     60  H   UNL     1      14.915   7.161  -2.037  1.00  0.00     0.167 HD
ATOM     61  C   UNL     1      15.273   8.234  -4.633  1.00  0.00     0.074 A 
ATOM     62  C   UNL     1      15.179   8.408  -6.068  1.00  0.00     0.031 C 
ATOM     63  C   UNL     1      15.936   9.076  -3.804  1.00  0.00     0.037 A 
BRANCH  50  64
ATOM     64  C   UNL     1      15.636   7.478   2.158  1.00  0.00     0.057 A 
ATOM     65  C   UNL     1      16.567   6.739   2.900  1.00  0.00     0.134 A 
ATOM     66  C   UNL     1      15.024   8.566   2.795  1.00  0.00     0.134 A 
ATOM     67  F   UNL     1      17.183   5.679   2.355  1.00  0.00    -0.206 F 
ATOM     68  C   UNL     1      16.847   7.044   4.234  1.00  0.00     0.040 A 
ATOM     69  C   UNL     1      15.317   8.899   4.119  1.00  0.00     0.040 A 
ATOM     70  F   UNL     1      14.131   9.325   2.141  1.00  0.00    -0.206 F 
ATOM     71  C   UNL     1      16.223   8.130   4.846  1.00  0.00     0.006 A 
ENDBRANCH  50  64
BRANCH  51  72
ATOM     72  C   UNL     1      12.854   5.043  -7.098  1.00  0.00     0.057 A 
ATOM     73  C   UNL     1      13.761   4.598  -8.066  1.00  0.00     0.134 A 
ATOM     74  C   UNL     1      11.509   5.147  -7.472  1.00  0.00     0.134 A 
ATOM     75  F   UNL     1      15.066   4.499  -7.773  1.00  0.00    -0.206 F 
ATOM     76  C   UNL     1      13.349   4.274  -9.360  1.00  0.00     0.040 A 
ATOM     77  C   UNL     1      11.079   4.806  -8.756  1.00  0.00     0.040 A 
ATOM     78  F   UNL     1      10.590   5.564  -6.588  1.00  0.00    -0.206 F 
ATOM     79  C   UNL     1      12.002   4.370  -9.705  1.00  0.00     0.006 A 
ENDBRANCH  51  72
BRANCH  63  80
ATOM     80  C   UNL     1      16.658  10.235  -4.425  1.00  0.00     0.057 A 
ATOM     81  C   UNL     1      15.979  11.364  -4.897  1.00  0.00     0.134 A 
ATOM     82  C   UNL     1      18.057  10.242  -4.495  1.00  0.00     0.134 A 
ATOM     83  F   UNL     1      14.639  11.413  -4.868  1.00  0.00    -0.206 F 
ATOM     84  C   UNL     1      16.667  12.457  -5.428  1.00  0.00     0.040 A 
ATOM     85  C   UNL     1      18.756  11.337  -5.005  1.00  0.00     0.040 A 
ATOM     86  F   UNL     1      18.767   9.193  -4.053  1.00  0.00    -0.206 F 
ATOM     87  C   UNL     1      18.060  12.448  -5.476  1.00  0.00     0.006 A 
ENDBRANCH  63  80
ENDBRANCH  37  38
ENDBRANCH  29  32
ENDBRANCH  27  28
ENDBRANCH  26  27
ENDBRANCH   1  26
TORSDOF 15
