REMARK SMILES CCCc1cc2c(cc1Cl)C=C(C(=O)NCCCNC(=O)c1ccc(-c3c4nc(c(-c5c(F)cccc5F)c5ccc([nH]5)c(-c5c(F)cccc5F)c5nc(c(-c6c(F)cccc6F)c6ccc3[nH]6)C=C5)C=C4)cc1)[C@H](C(F)(F)F)O2
REMARK SMILES IDX 17 1 16 2 15 3 13 4 14 5 12 7 4 8 5 9 9 10 6 11 8 12 10 13
REMARK SMILES IDX 7 14 81 15 11 16 76 17 3 18 2 19 1 20 77 21 78 22 79 23
REMARK SMILES IDX 80 24 18 25 19 26 20 27 21 29 22 30 23 31 75 32 24 33 74 34
REMARK SMILES IDX 25 35 26 36 27 37 68 38 28 39 73 40 67 41 69 42 29 43 72 44
REMARK SMILES IDX 66 45 65 46 30 48 56 49 39 50 55 51 40 52 43 53 54 54 70 55
REMARK SMILES IDX 41 56 42 57 53 59 71 60 44 61 31 62 32 63 37 64 33 65 34 66
REMARK SMILES IDX 36 67 38 68 35 69 57 70 58 71 63 72 59 73 60 74 62 75 64 76
REMARK SMILES IDX 61 77 45 78 46 79 51 80 47 81 48 82 50 83 52 84 49 85
REMARK H PARENT 15 6 19 28 69 47 43 58
REMARK Flexibility Score: inf
ROOT
ATOM      1  C   UNL     1      -1.558  -5.682   9.377  1.00  0.00     0.042 C 
ENDROOT
BRANCH   1   2
ATOM      2  C   UNL     1      -2.523  -4.883   8.512  1.00  0.00     0.118 C 
BRANCH   2   3
ATOM      3  N   UNL     1      -2.234  -3.463   8.592  1.00  0.00    -0.352 N 
ATOM      4  C   UNL     1      -1.668  -2.518   7.816  1.00  0.00     0.251 C 
ATOM      5  O   UNL     1      -1.594  -1.405   8.349  1.00  0.00    -0.270 OA
ATOM      6  H   UNL     1      -2.534  -3.087   9.451  1.00  0.00     0.163 HD
BRANCH   4   7
ATOM      7  C   UNL     1      -1.154  -2.707   6.433  1.00  0.00     0.067 C 
ATOM      8  C   UNL     1       0.868  -1.870   1.890  1.00  0.00    -0.026 A 
ATOM      9  C   UNL     1       0.107  -2.914   2.445  1.00  0.00     0.052 A 
ATOM     10  C   UNL     1       1.093  -0.724   2.675  1.00  0.00     0.045 A 
ATOM     11  C   UNL     1      -0.387  -2.811   3.742  1.00  0.00     0.128 A 
ATOM     12  C   UNL     1       0.503  -0.590   3.939  1.00  0.00     0.032 A 
ATOM     13  Cl  UNL     1       2.163   0.541   2.188  1.00  0.00    -0.084 Cl
ATOM     14  C   UNL     1      -0.235  -1.639   4.476  1.00  0.00     0.019 A 
ATOM     15  O   UNL     1      -1.022  -3.900   4.269  1.00  0.00    -0.475 OA
ATOM     16  C   UNL     1      -0.834  -1.557   5.803  1.00  0.00     0.025 C 
ATOM     17  C   UNL     1      -0.890  -4.011   5.721  1.00  0.00     0.314 C 
BRANCH   8  18
ATOM     18  C   UNL     1       1.428  -2.059   0.498  1.00  0.00     0.037 C 
BRANCH  18  19
ATOM     19  C   UNL     1       0.586  -1.444  -0.626  1.00  0.00     0.001 C 
ATOM     20  C   UNL     1       0.740   0.062  -0.771  1.00  0.00     0.004 C 
ENDBRANCH  18  19
ENDBRANCH   8  18
BRANCH  17  21
ATOM     21  C   UNL     1       0.468  -4.637   6.094  1.00  0.00     0.429 C 
ATOM     22  F   UNL     1       1.474  -3.737   6.141  1.00  0.00    -0.167 F 
ATOM     23  F   UNL     1       0.412  -5.237   7.304  1.00  0.00    -0.167 F 
ATOM     24  F   UNL     1       0.828  -5.601   5.212  1.00  0.00    -0.167 F 
ENDBRANCH  17  21
ENDBRANCH   4   7
ENDBRANCH   2   3
ENDBRANCH   1   2
BRANCH   1  25
ATOM     25  C   UNL     1      -1.891  -5.598  10.858  1.00  0.00     0.118 C 
BRANCH  25  26
ATOM     26  N   UNL     1      -3.087  -6.358  11.200  1.00  0.00    -0.352 N 
ATOM     27  C   UNL     1      -3.227  -7.587  11.798  1.00  0.00     0.251 C 
ATOM     28  H   UNL     1      -3.935  -5.917  10.964  1.00  0.00     0.163 HD
ATOM     29  O   UNL     1      -4.322  -8.148  11.773  1.00  0.00    -0.269 OA
BRANCH  27  30
ATOM     30  C   UNL     1      -2.075  -8.250  12.446  1.00  0.00     0.039 A 
ATOM     31  C   UNL     1      -1.133  -7.510  13.157  1.00  0.00     0.014 A 
ATOM     32  C   UNL     1      -1.939  -9.640  12.360  1.00  0.00     0.014 A 
ATOM     33  C   UNL     1       0.042  -8.112  13.584  1.00  0.00     0.010 A 
ATOM     34  C   UNL     1      -0.818 -10.267  12.916  1.00  0.00     0.010 A 
ATOM     35  C   UNL     1       0.210  -9.502  13.489  1.00  0.00    -0.014 A 
BRANCH  35  36
ATOM     36  C   UNL     1       1.459 -10.117  14.014  1.00  0.00     0.031 A 
ATOM     37  C   UNL     1       2.376 -10.899  13.110  1.00  0.00     0.074 A 
ATOM     38  C   UNL     1       1.798  -9.914  15.303  1.00  0.00     0.049 A 
ATOM     39  N   UNL     1       3.497 -11.512  13.402  1.00  0.00    -0.248 NA
ATOM     40  C   UNL     1       1.986 -11.014  11.696  1.00  0.00     0.031 C 
ATOM     41  C   UNL     1       1.001  -9.166  16.281  1.00  0.00     0.029 A 
ATOM     42  N   UNL     1       2.909 -10.295  16.011  1.00  0.00    -0.354 N 
ATOM     43  C   UNL     1       3.937 -12.090  12.218  1.00  0.00     0.074 A 
ATOM     44  C   UNL     1       2.941 -11.794  11.211  1.00  0.00     0.031 C 
ATOM     45  C   UNL     1       1.672  -9.094  17.438  1.00  0.00     0.029 A 
ATOM     46  C   UNL     1       2.903  -9.863  17.316  1.00  0.00     0.049 A 
ATOM     47  H   UNL     1       3.641 -10.826  15.622  1.00  0.00     0.167 HD
ATOM     48  C   UNL     1       5.075 -12.788  11.985  1.00  0.00     0.037 A 
ATOM     49  C   UNL     1       3.775 -10.087  18.316  1.00  0.00     0.037 A 
ATOM     50  C   UNL     1       6.069 -13.077  12.988  1.00  0.00     0.049 A 
ATOM     51  C   UNL     1       4.986 -10.933  18.044  1.00  0.00     0.074 A 
ATOM     52  C   UNL     1       7.251 -13.785  12.854  1.00  0.00     0.029 A 
ATOM     53  N   UNL     1       5.997 -12.669  14.312  1.00  0.00    -0.354 N 
ATOM     54  N   UNL     1       5.385 -11.473  16.919  1.00  0.00    -0.248 NA
ATOM     55  C   UNL     1       5.864 -11.209  19.189  1.00  0.00     0.031 C 
ATOM     56  C   UNL     1       7.873 -13.843  14.106  1.00  0.00     0.029 A 
ATOM     57  C   UNL     1       7.105 -13.125  15.008  1.00  0.00     0.049 A 
ATOM     58  H   UNL     1       5.267 -12.135  14.699  1.00  0.00     0.167 HD
ATOM     59  C   UNL     1       6.570 -12.132  17.215  1.00  0.00     0.074 A 
ATOM     60  C   UNL     1       6.841 -11.895  18.618  1.00  0.00     0.031 C 
ATOM     61  C   UNL     1       7.361 -12.876  16.403  1.00  0.00     0.037 A 
BRANCH  48  62
ATOM     62  C   UNL     1       5.306 -13.296  10.590  1.00  0.00     0.057 A 
ATOM     63  C   UNL     1       5.262 -14.668  10.308  1.00  0.00     0.134 A 
ATOM     64  C   UNL     1       5.616 -12.432   9.531  1.00  0.00     0.134 A 
ATOM     65  F   UNL     1       4.979 -15.553  11.275  1.00  0.00    -0.206 F 
ATOM     66  C   UNL     1       5.522 -15.161   9.028  1.00  0.00     0.040 A 
ATOM     67  C   UNL     1       5.851 -12.910   8.240  1.00  0.00     0.040 A 
ATOM     68  F   UNL     1       5.663 -11.105   9.728  1.00  0.00    -0.206 F 
ATOM     69  C   UNL     1       5.811 -14.280   7.988  1.00  0.00     0.006 A 
ENDBRANCH  48  62
BRANCH  49  70
ATOM     70  C   UNL     1       3.518  -9.552  19.678  1.00  0.00     0.057 A 
ATOM     71  C   UNL     1       2.440 -10.009  20.448  1.00  0.00     0.134 A 
ATOM     72  C   UNL     1       4.379  -8.620  20.268  1.00  0.00     0.134 A 
ATOM     73  F   UNL     1       1.572 -10.897  19.940  1.00  0.00    -0.206 F 
ATOM     74  C   UNL     1       2.230  -9.563  21.752  1.00  0.00     0.040 A 
ATOM     75  C   UNL     1       4.202  -8.192  21.585  1.00  0.00     0.040 A 
ATOM     76  F   UNL     1       5.440  -8.157  19.591  1.00  0.00    -0.206 F 
ATOM     77  C   UNL     1       3.123  -8.664  22.331  1.00  0.00     0.006 A 
ENDBRANCH  49  70
BRANCH  61  78
ATOM     78  C   UNL     1       8.609 -13.445  17.014  1.00  0.00     0.057 A 
ATOM     79  C   UNL     1       9.868 -12.950  16.652  1.00  0.00     0.134 A 
ATOM     80  C   UNL     1       8.566 -14.474  17.964  1.00  0.00     0.134 A 
ATOM     81  F   UNL     1       9.981 -11.971  15.742  1.00  0.00    -0.206 F 
ATOM     82  C   UNL     1      11.040 -13.453  17.220  1.00  0.00     0.040 A 
ATOM     83  C   UNL     1       9.729 -14.961  18.563  1.00  0.00     0.040 A 
ATOM     84  F   UNL     1       7.391 -14.979  18.367  1.00  0.00    -0.206 F 
ATOM     85  C   UNL     1      10.971 -14.453  18.187  1.00  0.00     0.006 A 
ENDBRANCH  61  78
ENDBRANCH  35  36
ENDBRANCH  27  30
ENDBRANCH  25  26
ENDBRANCH   1  25
TORSDOF 13
