REMARK SMILES O=C(NCCCNC(=O)[C@@]1([NH2+]C2CC2)CCC[C@@H](Sc2ncn[nH]2)C1)c1ccc(-c2c3nc(c(-c4c(F)cccc4F)c4ccc([nH]4)c(-c4c(F)cccc4F)c4nc(c(-c5c(F)cccc5F)c5ccc2[nH]5)C=C4)C=C3)cc1
REMARK SMILES IDX 5 1 4 2 3 3 1 4 2 5 26 7 27 8 79 9 28 10 78 11 29 12 30 13
REMARK SMILES IDX 31 14 72 15 32 16 77 17 71 18 73 19 33 20 76 21 70 22 69 23
REMARK SMILES IDX 34 25 60 26 43 27 59 28 44 29 47 30 58 31 74 32 45 33 46 34
REMARK SMILES IDX 57 36 75 37 48 38 35 39 36 40 41 41 37 42 38 43 40 44 42 45
REMARK SMILES IDX 39 46 61 47 62 48 67 49 63 50 64 51 66 52 68 53 65 54 49 55
REMARK SMILES IDX 50 56 55 57 51 58 52 59 54 60 56 61 53 62 6 63 7 64 8 65
REMARK SMILES IDX 9 67 10 68 15 69 25 70 16 71 18 72 17 73 11 74 12 77 13 78
REMARK SMILES IDX 14 79 19 80 20 81 21 82 24 83 22 84 23 85
REMARK H PARENT 3 6 73 24 47 35 7 66 11 75 11 76 24 86
REMARK Flexibility Score: inf
ROOT
ATOM      1  C   UNL     1       4.365  -0.748   2.473  1.00  0.00     0.042 C 
ENDROOT
BRANCH   1   2
ATOM      2  C   UNL     1       4.348  -1.002   0.967  1.00  0.00     0.118 C 
BRANCH   2   3
ATOM      3  N   UNL     1       2.986  -1.081   0.463  1.00  0.00    -0.352 N 
ATOM      4  O   UNL     1       1.078  -0.271  -0.401  1.00  0.00    -0.269 OA
ATOM      5  C   UNL     1       2.302  -0.211  -0.345  1.00  0.00     0.251 C 
ATOM      6  H   UNL     1       2.480  -1.877   0.745  1.00  0.00     0.163 HD
BRANCH   5   7
ATOM      7  C   UNL     1       3.026   0.784  -1.164  1.00  0.00     0.039 A 
ATOM      8  C   UNL     1       4.190   0.437  -1.860  1.00  0.00     0.014 A 
ATOM      9  C   UNL     1       2.465   2.054  -1.325  1.00  0.00     0.014 A 
ATOM     10  C   UNL     1       4.828   1.379  -2.663  1.00  0.00     0.010 A 
ATOM     11  C   UNL     1       3.074   2.979  -2.173  1.00  0.00     0.010 A 
ATOM     12  C   UNL     1       4.262   2.649  -2.845  1.00  0.00    -0.014 A 
BRANCH  12  13
ATOM     13  C   UNL     1       4.864   3.610  -3.799  1.00  0.00     0.031 A 
ATOM     14  C   UNL     1       5.481   4.885  -3.310  1.00  0.00     0.074 A 
ATOM     15  C   UNL     1       4.800   3.345  -5.117  1.00  0.00     0.049 A 
ATOM     16  N   UNL     1       5.962   5.886  -4.001  1.00  0.00    -0.248 NA
ATOM     17  C   UNL     1       5.554   5.065  -1.853  1.00  0.00     0.031 C 
ATOM     18  C   UNL     1       4.210   2.142  -5.707  1.00  0.00     0.029 A 
ATOM     19  N   UNL     1       5.216   4.078  -6.199  1.00  0.00    -0.354 N 
ATOM     20  C   UNL     1       6.374   6.826  -3.066  1.00  0.00     0.074 A 
ATOM     21  C   UNL     1       6.069   6.283  -1.759  1.00  0.00     0.031 C 
ATOM     22  C   UNL     1       4.301   2.219  -7.042  1.00  0.00     0.029 A 
ATOM     23  C   UNL     1       4.908   3.496  -7.403  1.00  0.00     0.049 A 
ATOM     24  H   UNL     1       5.690   4.938  -6.119  1.00  0.00     0.167 HD
ATOM     25  C   UNL     1       6.955   8.030  -3.283  1.00  0.00     0.037 A 
ATOM     26  C   UNL     1       5.064   3.953  -8.659  1.00  0.00     0.037 A 
ATOM     27  C   UNL     1       7.261   8.557  -4.588  1.00  0.00     0.049 A 
ATOM     28  C   UNL     1       5.690   5.298  -8.877  1.00  0.00     0.074 A 
ATOM     29  C   UNL     1       7.893   9.745  -4.913  1.00  0.00     0.029 A 
ATOM     30  N   UNL     1       6.945   7.931  -5.785  1.00  0.00    -0.354 N 
ATOM     31  N   UNL     1       6.116   6.160  -7.985  1.00  0.00    -0.248 NA
ATOM     32  C   UNL     1       5.856   5.737 -10.268  1.00  0.00     0.031 C 
ATOM     33  C   UNL     1       7.922   9.857  -6.307  1.00  0.00     0.029 A 
ATOM     34  C   UNL     1       7.347   8.719  -6.851  1.00  0.00     0.049 A 
ATOM     35  H   UNL     1       6.501   7.056  -5.865  1.00  0.00     0.167 HD
ATOM     36  C   UNL     1       6.619   7.234  -8.705  1.00  0.00     0.074 A 
ATOM     37  C   UNL     1       6.449   6.914 -10.108  1.00  0.00     0.031 C 
ATOM     38  C   UNL     1       7.175   8.380  -8.242  1.00  0.00     0.037 A 
BRANCH  25  39
ATOM     39  C   UNL     1       7.269   8.869  -2.079  1.00  0.00     0.057 A 
ATOM     40  C   UNL     1       8.306   8.541  -1.195  1.00  0.00     0.134 A 
ATOM     41  C   UNL     1       6.531  10.027  -1.807  1.00  0.00     0.134 A 
ATOM     42  F   UNL     1       9.043   7.437  -1.391  1.00  0.00    -0.206 F 
ATOM     43  C   UNL     1       8.576   9.318  -0.067  1.00  0.00     0.040 A 
ATOM     44  C   UNL     1       6.808  10.826  -0.696  1.00  0.00     0.040 A 
ATOM     45  F   UNL     1       5.529  10.403  -2.616  1.00  0.00    -0.206 F 
ATOM     46  C   UNL     1       7.828  10.467   0.183  1.00  0.00     0.006 A 
ENDBRANCH  25  39
BRANCH  26  47
ATOM     47  C   UNL     1       4.604   3.118  -9.794  1.00  0.00     0.057 A 
ATOM     48  C   UNL     1       5.516   2.444 -10.613  1.00  0.00     0.134 A 
ATOM     49  C   UNL     1       3.240   2.924 -10.046  1.00  0.00     0.134 A 
ATOM     50  F   UNL     1       6.834   2.602 -10.427  1.00  0.00    -0.206 F 
ATOM     51  C   UNL     1       5.088   1.604 -11.643  1.00  0.00     0.040 A 
ATOM     52  C   UNL     1       2.798   2.071 -11.058  1.00  0.00     0.040 A 
ATOM     53  F   UNL     1       2.318   3.535  -9.288  1.00  0.00    -0.206 F 
ATOM     54  C   UNL     1       3.725   1.409 -11.861  1.00  0.00     0.006 A 
ENDBRANCH  26  47
BRANCH  38  55
ATOM     55  C   UNL     1       7.671   9.362  -9.260  1.00  0.00     0.057 A 
ATOM     56  C   UNL     1       6.796  10.186  -9.977  1.00  0.00     0.134 A 
ATOM     57  C   UNL     1       9.045   9.527  -9.475  1.00  0.00     0.134 A 
ATOM     58  F   UNL     1       5.469  10.066  -9.823  1.00  0.00    -0.206 F 
ATOM     59  C   UNL     1       7.272  11.139 -10.879  1.00  0.00     0.040 A 
ATOM     60  C   UNL     1       9.533  10.489 -10.360  1.00  0.00     0.040 A 
ATOM     61  F   UNL     1       9.934   8.770  -8.814  1.00  0.00    -0.206 F 
ATOM     62  C   UNL     1       8.644  11.298 -11.065  1.00  0.00     0.006 A 
ENDBRANCH  38  55
ENDBRANCH  12  13
ENDBRANCH   5   7
ENDBRANCH   2   3
ENDBRANCH   1   2
BRANCH   1  63
ATOM     63  C   UNL     1       3.873  -1.948   3.282  1.00  0.00     0.118 C 
BRANCH  63  64
ATOM     64  N   UNL     1       4.836  -3.026   3.250  1.00  0.00    -0.351 N 
ATOM     65  C   UNL     1       5.889  -3.359   4.043  1.00  0.00     0.281 C 
ATOM     66  H   UNL     1       4.702  -3.648   2.499  1.00  0.00     0.163 HD
ATOM     67  O   UNL     1       6.472  -4.393   3.686  1.00  0.00    -0.268 OA
BRANCH  65  68
ATOM     68  C   UNL     1       6.270  -2.597   5.376  1.00  0.00     0.176 C 
ATOM     69  C   UNL     1       6.139  -1.056   5.411  1.00  0.00     0.079 C 
ATOM     70  C   UNL     1       5.304  -3.211   6.428  1.00  0.00     0.094 C 
ATOM     71  C   UNL     1       6.322  -0.457   6.808  1.00  0.00     0.008 C 
ATOM     72  C   UNL     1       5.327  -2.553   7.812  1.00  0.00     0.061 C 
ATOM     73  C   UNL     1       5.283  -1.023   7.769  1.00  0.00     0.015 C 
BRANCH  68  74
ATOM     74  N   UNL     1       7.664  -2.951   5.753  1.00  0.00    -0.331 N 
ATOM     75  H   UNL     1       7.639  -3.914   6.087  1.00  0.00     0.347 HD
ATOM     76  H   UNL     1       7.910  -2.218   6.419  1.00  0.00     0.347 HD
BRANCH  74  77
ATOM     77  C   UNL     1       8.753  -2.876   4.772  1.00  0.00     0.183 C 
ATOM     78  C   UNL     1       8.704  -2.178   3.441  1.00  0.00     0.071 C 
ATOM     79  C   UNL     1       9.486  -1.575   4.567  1.00  0.00     0.071 C 
ENDBRANCH  74  77
ENDBRANCH  68  74
BRANCH  72  80
ATOM     80  S   UNL     1       4.012  -3.196   8.927  1.00  0.00    -0.083 SA
BRANCH  80  81
ATOM     81  C   UNL     1       2.551  -2.744   8.134  1.00  0.00     0.183 A 
ATOM     82  N   UNL     1       2.148  -3.044   6.925  1.00  0.00    -0.210 NA
ATOM     83  N   UNL     1       1.596  -2.014   8.769  1.00  0.00    -0.254 N 
ATOM     84  C   UNL     1       0.913  -2.462   6.865  1.00  0.00     0.247 A 
ATOM     85  N   UNL     1       0.541  -1.795   7.962  1.00  0.00    -0.162 NA
ATOM     86  H   UNL     1       1.667  -1.688   9.696  1.00  0.00     0.192 HD
ENDBRANCH  80  81
ENDBRANCH  72  80
ENDBRANCH  65  68
ENDBRANCH  63  64
ENDBRANCH   1  63
TORSDOF 14
