REMARK SMILES CC(=O)O[C@@H]1CC[C@]23C(=O)O[C@]4(CC[C@]2(O)C1)[C@H]3CC[C@]1(C)[C@H](C(=O)NCCCNC(=O)c2ccc(-c3c5nc(c(-c6c(F)cccc6F)c6ccc([nH]6)c(-c6c(F)cccc6F)c6nc(c(-c7c(F)cccc7F)c7ccc3[nH]7)C=C6)C=C5)cc2)CC[C@@H]14
REMARK SMILES IDX 28 1 27 2 26 3 24 4 25 5 23 7 5 8 6 9 17 10 7 11 15 12 8 13
REMARK SMILES IDX 14 14 9 15 18 16 13 17 10 18 11 19 12 20 19 21 89 22 20 23
REMARK SMILES IDX 21 24 88 25 22 26 87 27 4 28 2 29 1 30 3 31 16 32 29 34
REMARK SMILES IDX 30 35 31 36 32 38 33 39 34 40 86 41 35 42 85 43 36 44 37 45
REMARK SMILES IDX 38 46 79 47 39 48 84 49 78 50 80 51 40 52 83 53 77 54 76 55
REMARK SMILES IDX 41 57 67 58 50 59 66 60 51 61 54 62 65 63 81 64 52 65 53 66
REMARK SMILES IDX 64 68 82 69 55 70 42 71 43 72 48 73 44 74 45 75 47 76 49 77
REMARK SMILES IDX 46 78 68 79 69 80 74 81 70 82 71 83 73 84 75 85 72 86 56 87
REMARK SMILES IDX 57 88 62 89 58 90 59 91 61 92 63 93 60 94
REMARK H PARENT 26 6 16 33 30 37 80 56 54 67
REMARK Flexibility Score: inf
ROOT
ATOM      1  C   UNL     1      -4.743  -5.558  -6.381  1.00  0.00     0.042 C 
ENDROOT
BRANCH   1   2
ATOM      2  C   UNL     1      -5.470  -4.468  -5.579  1.00  0.00     0.117 C 
BRANCH   2   3
ATOM      3  N   UNL     1      -6.403  -5.061  -4.630  1.00  0.00    -0.356 N 
ATOM      4  C   UNL     1      -6.370  -5.374  -3.315  1.00  0.00     0.223 C 
ATOM      5  O   UNL     1      -7.323  -6.071  -2.933  1.00  0.00    -0.275 OA
ATOM      6  H   UNL     1      -7.266  -5.289  -5.047  1.00  0.00     0.163 HD
BRANCH   4   7
ATOM      7  C   UNL     1      -5.341  -4.924  -2.266  1.00  0.00     0.085 C 
ATOM      8  C   UNL     1       1.268  -0.416  -3.485  1.00  0.00     0.179 C 
ATOM      9  C   UNL     1      -0.159  -0.231  -3.933  1.00  0.00     0.047 C 
ATOM     10  C   UNL     1       1.724  -1.837  -3.813  1.00  0.00     0.081 C 
ATOM     11  C   UNL     1      -1.050  -1.393  -3.550  1.00  0.00     0.026 C 
ATOM     12  C   UNL     1       0.803  -2.998  -3.336  1.00  0.00     0.085 C 
ATOM     13  C   UNL     1      -0.560  -3.002  -3.996  1.00  0.00     0.103 C 
ATOM     14  C   UNL     1       0.649  -3.062  -1.776  1.00  0.00     0.041 C 
ATOM     15  C   UNL     1      -1.949  -3.191  -4.384  1.00  0.00     0.316 C 
ATOM     16  C   UNL     1      -1.050  -4.522  -3.093  1.00  0.00     0.054 C 
ATOM     17  C   UNL     1      -0.848  -3.169  -1.206  1.00  0.00     0.052 C 
ATOM     18  O   UNL     1      -2.403  -3.190  -5.533  1.00  0.00    -0.251 OA
ATOM     19  O   UNL     1      -2.667  -3.125  -3.213  1.00  0.00    -0.458 OA
ATOM     20  C   UNL     1      -1.941  -3.816  -2.160  1.00  0.00     0.120 C 
ATOM     21  C   UNL     1      -1.724  -5.773  -3.711  1.00  0.00     0.009 C 
ATOM     22  C   UNL     1      -3.072  -4.457  -1.360  1.00  0.00     0.040 C 
ATOM     23  C   UNL     1      -3.240  -5.918  -3.481  1.00  0.00     0.008 C 
ATOM     24  C   UNL     1      -3.890  -5.535  -2.137  1.00  0.00    -0.014 C 
ATOM     25  C   UNL     1      -4.109  -3.346  -1.004  1.00  0.00     0.009 C 
ATOM     26  C   UNL     1      -4.002  -6.792  -1.246  1.00  0.00     0.012 C 
ATOM     27  C   UNL     1      -5.197  -3.422  -2.079  1.00  0.00     0.014 C 
BRANCH   8  28
ATOM     28  O   UNL     1       1.656  -0.058  -2.129  1.00  0.00    -0.462 OA
BRANCH  28  29
ATOM     29  C   UNL     1       0.832   0.316  -1.119  1.00  0.00     0.302 C 
ATOM     30  C   UNL     1       1.629   0.718   0.089  1.00  0.00     0.139 C 
ATOM     31  O   UNL     1      -0.388   0.327  -1.132  1.00  0.00    -0.253 OA
ENDBRANCH  28  29
ENDBRANCH   8  28
BRANCH  12  32
ATOM     32  O   UNL     1       1.485  -4.180  -3.821  1.00  0.00    -0.389 OA
ATOM     33  H   UNL     1       0.980  -4.970  -3.570  1.00  0.00     0.211 HD
ENDBRANCH  12  32
ENDBRANCH   4   7
ENDBRANCH   2   3
ENDBRANCH   1   2
BRANCH   1  34
ATOM     34  C   UNL     1      -5.598  -6.248  -7.432  1.00  0.00     0.118 C 
BRANCH  34  35
ATOM     35  N   UNL     1      -5.639  -5.511  -8.681  1.00  0.00    -0.352 N 
ATOM     36  C   UNL     1      -5.089  -5.808  -9.905  1.00  0.00     0.251 C 
ATOM     37  H   UNL     1      -6.141  -4.665  -8.647  1.00  0.00     0.163 HD
ATOM     38  O   UNL     1      -5.074  -4.946 -10.780  1.00  0.00    -0.269 OA
BRANCH  36  39
ATOM     39  C   UNL     1      -4.497  -7.140 -10.188  1.00  0.00     0.039 A 
ATOM     40  C   UNL     1      -3.348  -7.202 -10.984  1.00  0.00     0.014 A 
ATOM     41  C   UNL     1      -5.081  -8.326  -9.736  1.00  0.00     0.014 A 
ATOM     42  C   UNL     1      -2.762  -8.438 -11.278  1.00  0.00     0.010 A 
ATOM     43  C   UNL     1      -4.447  -9.550  -9.953  1.00  0.00     0.010 A 
ATOM     44  C   UNL     1      -3.287  -9.622 -10.738  1.00  0.00    -0.014 A 
BRANCH  44  45
ATOM     45  C   UNL     1      -2.648 -10.940 -11.000  1.00  0.00     0.031 A 
ATOM     46  C   UNL     1      -3.397 -12.017 -11.738  1.00  0.00     0.074 A 
ATOM     47  C   UNL     1      -1.410 -11.188 -10.528  1.00  0.00     0.049 A 
ATOM     48  N   UNL     1      -3.030 -13.246 -12.007  1.00  0.00    -0.248 NA
ATOM     49  C   UNL     1      -4.748 -11.680 -12.214  1.00  0.00     0.031 C 
ATOM     50  C   UNL     1      -0.594 -10.249  -9.756  1.00  0.00     0.029 A 
ATOM     51  N   UNL     1      -0.624 -12.311 -10.620  1.00  0.00    -0.354 N 
ATOM     52  C   UNL     1      -4.108 -13.829 -12.662  1.00  0.00     0.074 A 
ATOM     53  C   UNL     1      -5.161 -12.838 -12.708  1.00  0.00     0.031 C 
ATOM     54  C   UNL     1       0.584 -10.825  -9.466  1.00  0.00     0.029 A 
ATOM     55  C   UNL     1       0.594 -12.184  -9.996  1.00  0.00     0.049 A 
ATOM     56  H   UNL     1      -0.907 -13.129 -11.089  1.00  0.00     0.167 HD
ATOM     57  C   UNL     1      -4.205 -15.069 -13.199  1.00  0.00     0.037 A 
ATOM     58  C   UNL     1       1.602 -13.066  -9.859  1.00  0.00     0.037 A 
ATOM     59  C   UNL     1      -3.146 -16.044 -13.184  1.00  0.00     0.049 A 
ATOM     60  C   UNL     1       1.471 -14.435 -10.467  1.00  0.00     0.074 A 
ATOM     61  C   UNL     1      -3.123 -17.301 -13.764  1.00  0.00     0.029 A 
ATOM     62  N   UNL     1      -1.922 -15.870 -12.557  1.00  0.00    -0.354 N 
ATOM     63  N   UNL     1       0.472 -14.946 -11.145  1.00  0.00    -0.248 NA
ATOM     64  C   UNL     1       2.611 -15.348 -10.296  1.00  0.00     0.031 C 
ATOM     65  C   UNL     1      -1.901 -17.904 -13.451  1.00  0.00     0.029 A 
ATOM     66  C   UNL     1      -1.145 -17.006 -12.715  1.00  0.00     0.049 A 
ATOM     67  H   UNL     1      -1.646 -15.059 -12.071  1.00  0.00     0.167 HD
ATOM     68  C   UNL     1       0.869 -16.229 -11.498  1.00  0.00     0.074 A 
ATOM     69  C   UNL     1       2.208 -16.411 -10.976  1.00  0.00     0.031 C 
ATOM     70  C   UNL     1       0.186 -17.172 -12.191  1.00  0.00     0.037 A 
BRANCH  57  71
ATOM     71  C   UNL     1      -5.503 -15.442 -13.857  1.00  0.00     0.057 A 
ATOM     72  C   UNL     1      -5.901 -14.881 -15.077  1.00  0.00     0.134 A 
ATOM     73  C   UNL     1      -6.344 -16.405 -13.284  1.00  0.00     0.134 A 
ATOM     74  F   UNL     1      -5.146 -13.946 -15.674  1.00  0.00    -0.206 F 
ATOM     75  C   UNL     1      -7.100 -15.245 -15.693  1.00  0.00     0.040 A 
ATOM     76  C   UNL     1      -7.533 -16.797 -13.903  1.00  0.00     0.040 A 
ATOM     77  F   UNL     1      -6.020 -16.988 -12.120  1.00  0.00    -0.206 F 
ATOM     78  C   UNL     1      -7.916 -16.212 -15.108  1.00  0.00     0.006 A 
ENDBRANCH  57  71
BRANCH  58  79
ATOM     79  C   UNL     1       2.834 -12.678  -9.128  1.00  0.00     0.057 A 
ATOM     80  C   UNL     1       4.045 -12.486  -9.803  1.00  0.00     0.134 A 
ATOM     81  C   UNL     1       2.835 -12.497  -7.740  1.00  0.00     0.134 A 
ATOM     82  F   UNL     1       4.112 -12.664 -11.131  1.00  0.00    -0.206 F 
ATOM     83  C   UNL     1       5.216 -12.146  -9.124  1.00  0.00     0.040 A 
ATOM     84  C   UNL     1       3.993 -12.133  -7.051  1.00  0.00     0.040 A 
ATOM     85  F   UNL     1       1.706 -12.661  -7.034  1.00  0.00    -0.206 F 
ATOM     86  C   UNL     1       5.190 -11.963  -7.743  1.00  0.00     0.006 A 
ENDBRANCH  58  79
BRANCH  70  87
ATOM     87  C   UNL     1       0.884 -18.475 -12.445  1.00  0.00     0.057 A 
ATOM     88  C   UNL     1       1.089 -19.413 -11.425  1.00  0.00     0.134 A 
ATOM     89  C   UNL     1       1.324 -18.811 -13.732  1.00  0.00     0.134 A 
ATOM     90  F   UNL     1       0.703 -19.146 -10.168  1.00  0.00    -0.206 F 
ATOM     91  C   UNL     1       1.727 -20.630 -11.672  1.00  0.00     0.040 A 
ATOM     92  C   UNL     1       1.940 -20.034 -13.996  1.00  0.00     0.040 A 
ATOM     93  F   UNL     1       1.151 -17.960 -14.755  1.00  0.00    -0.206 F 
ATOM     94  C   UNL     1       2.148 -20.945 -12.963  1.00  0.00     0.006 A 
ENDBRANCH  70  87
ENDBRANCH  44  45
ENDBRANCH  36  39
ENDBRANCH  34  35
ENDBRANCH   1  34
TORSDOF 13
