REMARK SMILES COc1ccc(/C=C(/SCC(=O)NCCCNC(=O)c2ccc(-c3c4nc(c(-c5c(F)cccc5F)c5ccc([nH]5)c(-c5c(F)cccc5F)c5nc(c(-c6c(F)cccc6F)c6ccc3[nH]6)C=C5)C=C4)cc2)c2nc3ccccc3s2)cc1O
REMARK SMILES IDX 14 1 13 2 11 3 12 4 10 6 9 7 8 8 7 9 6 10 3 11 4 12 84 13
REMARK SMILES IDX 5 14 83 15 2 16 1 17 85 18 74 20 75 21 82 22 76 23 81 24
REMARK SMILES IDX 77 25 80 26 78 27 79 28 15 29 16 30 17 31 18 32 19 34 20 35
REMARK SMILES IDX 21 36 73 37 22 38 72 39 23 40 24 41 25 42 66 43 26 44 71 45
REMARK SMILES IDX 65 46 67 47 27 48 70 49 64 50 63 51 28 53 54 54 37 55 53 56
REMARK SMILES IDX 38 57 41 58 52 59 68 60 39 61 40 62 51 64 69 65 42 66 29 67
REMARK SMILES IDX 30 68 35 69 31 70 32 71 34 72 36 73 33 74 55 75 56 76 61 77
REMARK SMILES IDX 57 78 58 79 60 80 62 81 59 82 43 83 44 84 49 85 45 86 46 87
REMARK SMILES IDX 48 88 50 89 47 90
REMARK H PARENT 13 5 85 19 17 33 67 52 41 63
REMARK Flexibility Score: inf
ROOT
ATOM      1  C   UNL     1      -7.721   3.797  -5.056  1.00  0.00     0.117 C 
ENDROOT
BRANCH   1   2
ATOM      2  N   UNL     1      -7.185   2.518  -4.625  1.00  0.00    -0.355 N 
ATOM      3  C   UNL     1      -6.992   2.032  -3.366  1.00  0.00     0.230 C 
ATOM      4  O   UNL     1      -6.423   0.944  -3.250  1.00  0.00    -0.274 OA
ATOM      5  H   UNL     1      -6.922   1.909  -5.352  1.00  0.00     0.163 HD
BRANCH   3   6
ATOM      6  C   UNL     1      -7.535   2.757  -2.153  1.00  0.00     0.174 C 
BRANCH   6   7
ATOM      7  S   UNL     1      -6.762   4.340  -1.808  1.00  0.00    -0.113 SA
BRANCH   7   8
ATOM      8  C   UNL     1      -5.044   4.084  -1.518  1.00  0.00     0.044 C 
ATOM      9  C   UNL     1      -4.511   2.876  -1.233  1.00  0.00     0.026 C 
BRANCH   9  10
ATOM     10  C   UNL     1      -3.142   2.433  -0.868  1.00  0.00    -0.020 A 
ATOM     11  C   UNL     1      -0.584   1.397  -0.145  1.00  0.00     0.160 A 
ATOM     12  C   UNL     1      -0.935   2.725   0.115  1.00  0.00     0.051 A 
ATOM     13  C   UNL     1      -1.548   0.577  -0.727  1.00  0.00     0.158 A 
ATOM     14  C   UNL     1      -2.207   3.223  -0.198  1.00  0.00     0.012 A 
ATOM     15  C   UNL     1      -2.794   1.093  -1.114  1.00  0.00     0.058 A 
BRANCH  11  16
ATOM     16  O   UNL     1       0.687   1.095   0.249  1.00  0.00    -0.493 OA
ATOM     17  C   UNL     1       1.258  -0.156  -0.096  1.00  0.00     0.278 C 
ENDBRANCH  11  16
BRANCH  13  18
ATOM     18  O   UNL     1      -1.391  -0.768  -0.907  1.00  0.00    -0.504 OA
ATOM     19  H   UNL     1      -0.584  -1.181  -0.671  1.00  0.00     0.293 HD
ENDBRANCH  13  18
ENDBRANCH   9  10
BRANCH   8  20
ATOM     20  C   UNL     1      -4.312   5.325  -1.474  1.00  0.00     0.131 A 
ATOM     21  N   UNL     1      -4.691   6.380  -0.773  1.00  0.00    -0.235 NA
ATOM     22  S   UNL     1      -2.909   5.622  -2.454  1.00  0.00    -0.113 S 
ATOM     23  C   UNL     1      -3.800   7.422  -0.899  1.00  0.00     0.082 A 
ATOM     24  C   UNL     1      -2.697   7.163  -1.708  1.00  0.00     0.055 A 
ATOM     25  C   UNL     1      -3.913   8.675  -0.266  1.00  0.00     0.030 A 
ATOM     26  C   UNL     1      -1.652   8.094  -1.839  1.00  0.00     0.021 A 
ATOM     27  C   UNL     1      -2.891   9.616  -0.405  1.00  0.00     0.002 A 
ATOM     28  C   UNL     1      -1.764   9.316  -1.165  1.00  0.00     0.002 A 
ENDBRANCH   8  20
ENDBRANCH   7   8
ENDBRANCH   6   7
ENDBRANCH   3   6
ENDBRANCH   1   2
BRANCH   1  29
ATOM     29  C   UNL     1      -6.613   4.752  -5.496  1.00  0.00     0.042 C 
BRANCH  29  30
ATOM     30  C   UNL     1      -5.812   4.264  -6.701  1.00  0.00     0.118 C 
BRANCH  30  31
ATOM     31  N   UNL     1      -6.615   4.168  -7.911  1.00  0.00    -0.352 N 
ATOM     32  C   UNL     1      -6.444   4.764  -9.134  1.00  0.00     0.251 C 
ATOM     33  H   UNL     1      -7.405   3.584  -7.841  1.00  0.00     0.163 HD
ATOM     34  O   UNL     1      -7.340   4.689  -9.976  1.00  0.00    -0.269 OA
BRANCH  32  35
ATOM     35  C   UNL     1      -5.207   5.511  -9.447  1.00  0.00     0.039 A 
ATOM     36  C   UNL     1      -5.311   6.721 -10.141  1.00  0.00     0.014 A 
ATOM     37  C   UNL     1      -3.949   5.019  -9.091  1.00  0.00     0.014 A 
ATOM     38  C   UNL     1      -4.162   7.466 -10.417  1.00  0.00     0.010 A 
ATOM     39  C   UNL     1      -2.812   5.797  -9.300  1.00  0.00     0.010 A 
ATOM     40  C   UNL     1      -2.906   7.029  -9.964  1.00  0.00    -0.014 A 
BRANCH  40  41
ATOM     41  C   UNL     1      -1.683   7.848 -10.177  1.00  0.00     0.031 A 
ATOM     42  C   UNL     1      -0.556   7.323 -11.026  1.00  0.00     0.074 A 
ATOM     43  C   UNL     1      -1.565   9.044  -9.567  1.00  0.00     0.049 A 
ATOM     44  N   UNL     1       0.618   7.852 -11.261  1.00  0.00    -0.248 NA
ATOM     45  C   UNL     1      -0.770   6.023 -11.682  1.00  0.00     0.031 C 
ATOM     46  C   UNL     1      -2.571   9.654  -8.695  1.00  0.00     0.029 A 
ATOM     47  N   UNL     1      -0.541   9.959  -9.579  1.00  0.00    -0.354 N 
ATOM     48  C   UNL     1       1.279   6.954 -12.090  1.00  0.00     0.074 A 
ATOM     49  C   UNL     1       0.401   5.817 -12.267  1.00  0.00     0.031 C 
ATOM     50  C   UNL     1      -2.124  10.848  -8.274  1.00  0.00     0.029 A 
ATOM     51  C   UNL     1      -0.784  11.070  -8.807  1.00  0.00     0.049 A 
ATOM     52  H   UNL     1       0.289   9.831 -10.092  1.00  0.00     0.167 HD
ATOM     53  C   UNL     1       2.494   7.076 -12.675  1.00  0.00     0.037 A 
ATOM     54  C   UNL     1      -0.008  12.140  -8.547  1.00  0.00     0.037 A 
ATOM     55  C   UNL     1       3.366   8.210 -12.508  1.00  0.00     0.049 A 
ATOM     56  C   UNL     1       1.360  12.223  -9.171  1.00  0.00     0.074 A 
ATOM     57  C   UNL     1       4.611   8.431 -13.070  1.00  0.00     0.029 A 
ATOM     58  N   UNL     1       3.080   9.316 -11.722  1.00  0.00    -0.354 N 
ATOM     59  N   UNL     1       1.952  11.386  -9.988  1.00  0.00    -0.248 NA
ATOM     60  C   UNL     1       2.168  13.406  -8.838  1.00  0.00     0.031 C 
ATOM     61  C   UNL     1       5.096   9.653 -12.595  1.00  0.00     0.029 A 
ATOM     62  C   UNL     1       4.131  10.216 -11.777  1.00  0.00     0.049 A 
ATOM     63  H   UNL     1       2.254   9.442 -11.202  1.00  0.00     0.167 HD
ATOM     64  C   UNL     1       3.178  11.959 -10.298  1.00  0.00     0.074 A 
ATOM     65  C   UNL     1       3.241  13.222  -9.593  1.00  0.00     0.031 C 
ATOM     66  C   UNL     1       4.167  11.483 -11.092  1.00  0.00     0.037 A 
BRANCH  53  67
ATOM     67  C   UNL     1       2.949   5.963 -13.574  1.00  0.00     0.057 A 
ATOM     68  C   UNL     1       2.358   5.746 -14.826  1.00  0.00     0.134 A 
ATOM     69  C   UNL     1       4.024   5.139 -13.216  1.00  0.00     0.134 A 
ATOM     70  F   UNL     1       1.317   6.493 -15.225  1.00  0.00    -0.206 F 
ATOM     71  C   UNL     1       2.809   4.740 -15.682  1.00  0.00     0.040 A 
ATOM     72  C   UNL     1       4.501   4.148 -14.076  1.00  0.00     0.040 A 
ATOM     73  F   UNL     1       4.641   5.297 -12.035  1.00  0.00    -0.206 F 
ATOM     74  C   UNL     1       3.890   3.944 -15.312  1.00  0.00     0.006 A 
ENDBRANCH  53  67
BRANCH  54  75
ATOM     75  C   UNL     1      -0.491  13.229  -7.659  1.00  0.00     0.057 A 
ATOM     76  C   UNL     1      -0.724  14.518  -8.156  1.00  0.00     0.134 A 
ATOM     77  C   UNL     1      -0.673  13.028  -6.285  1.00  0.00     0.134 A 
ATOM     78  F   UNL     1      -0.548  14.779  -9.460  1.00  0.00    -0.206 F 
ATOM     79  C   UNL     1      -1.080  15.574  -7.316  1.00  0.00     0.040 A 
ATOM     80  C   UNL     1      -1.060  14.069  -5.439  1.00  0.00     0.040 A 
ATOM     81  F   UNL     1      -0.472  11.818  -5.744  1.00  0.00    -0.206 F 
ATOM     82  C   UNL     1      -1.250  15.350  -5.952  1.00  0.00     0.006 A 
ENDBRANCH  54  75
BRANCH  66  83
ATOM     83  C   UNL     1       5.372  12.355 -11.291  1.00  0.00     0.057 A 
ATOM     84  C   UNL     1       6.308  12.576 -10.273  1.00  0.00     0.134 A 
ATOM     85  C   UNL     1       5.616  12.956 -12.534  1.00  0.00     0.134 A 
ATOM     86  F   UNL     1       6.127  12.041  -9.056  1.00  0.00    -0.206 F 
ATOM     87  C   UNL     1       7.428  13.384 -10.474  1.00  0.00     0.040 A 
ATOM     88  C   UNL     1       6.747  13.741 -12.756  1.00  0.00     0.040 A 
ATOM     89  F   UNL     1       4.765  12.778 -13.556  1.00  0.00    -0.206 F 
ATOM     90  C   UNL     1       7.653  13.964 -11.722  1.00  0.00     0.006 A 
ENDBRANCH  66  83
ENDBRANCH  40  41
ENDBRANCH  32  35
ENDBRANCH  30  31
ENDBRANCH  29  30
ENDBRANCH   1  29
TORSDOF 16
