REMARK SMILES C[NH2+][C@H](CC(=O)NCCCNC(=O)c1ccc(-c2c3nc(c(-c4c(F)cccc4F)c4ccc([nH]4)c(-c4c(F)cccc4F)c4nc(c(-c5c(F)cccc5F)c5ccc2[nH]5)C=C4)C=C3)cc1)c1cccc(C2CC2)c1
REMARK SMILES IDX 8 1 7 2 5 3 6 4 4 6 3 7 2 8 1 9 68 12 69 13 76 14 70 15
REMARK SMILES IDX 72 16 71 17 73 18 74 19 75 20 9 21 10 22 11 23 12 24 13 26
REMARK SMILES IDX 14 27 15 28 67 29 16 30 66 31 17 32 18 33 19 34 60 35 20 36
REMARK SMILES IDX 65 37 59 38 61 39 21 40 64 41 58 42 57 43 22 45 48 46 31 47
REMARK SMILES IDX 47 48 32 49 35 50 46 51 62 52 33 53 34 54 45 56 63 57 36 58
REMARK SMILES IDX 23 59 24 60 29 61 25 62 26 63 28 64 30 65 27 66 49 67 50 68
REMARK SMILES IDX 55 69 51 70 52 71 54 72 56 73 53 74 37 75 38 76 43 77 39 78
REMARK SMILES IDX 40 79 42 80 44 81 41 82
REMARK H PARENT 7 5 2 10 2 11 11 25 61 44 35 55
REMARK Flexibility Score: inf
ROOT
ATOM      1  C   UNL     1       1.296   4.055   2.024  1.00  0.00     0.117 C 
ENDROOT
BRANCH   1   2
ATOM      2  N   UNL     1       1.548   2.685   2.457  1.00  0.00    -0.356 N 
ATOM      3  C   UNL     1       0.993   1.514   2.014  1.00  0.00     0.226 C 
ATOM      4  O   UNL     1       1.146   0.507   2.709  1.00  0.00    -0.275 OA
ATOM      5  H   UNL     1       2.216   2.588   3.174  1.00  0.00     0.163 HD
BRANCH   3   6
ATOM      6  C   UNL     1       0.264   1.458   0.683  1.00  0.00     0.170 C 
BRANCH   6   7
ATOM      7  C   UNL     1      -1.220   1.037   0.750  1.00  0.00     0.222 C 
BRANCH   7   8
ATOM      8  N   UNL     1      -1.372  -0.389   1.075  1.00  0.00    -0.342 N 
ATOM      9  C   UNL     1      -2.748  -0.859   0.999  1.00  0.00     0.331 C 
ATOM     10  H   UNL     1      -0.810  -0.931   0.419  1.00  0.00     0.346 HD
ATOM     11  H   UNL     1      -1.067  -0.511   2.040  1.00  0.00     0.346 HD
ENDBRANCH   7   8
BRANCH   7  12
ATOM     12  C   UNL     1      -2.046   1.990   1.602  1.00  0.00     0.010 A 
ATOM     13  C   UNL     1      -2.652   3.104   1.004  1.00  0.00     0.010 A 
ATOM     14  C   UNL     1      -2.181   1.822   2.995  1.00  0.00     0.014 A 
ATOM     15  C   UNL     1      -3.367   4.017   1.776  1.00  0.00     0.001 A 
ATOM     16  C   UNL     1      -2.882   2.738   3.807  1.00  0.00    -0.044 A 
ATOM     17  C   UNL     1      -3.477   3.833   3.157  1.00  0.00     0.004 A 
BRANCH  16  18
ATOM     18  C   UNL     1      -2.959   2.618   5.318  1.00  0.00     0.019 C 
ATOM     19  C   UNL     1      -3.014   1.275   6.001  1.00  0.00     0.009 C 
ATOM     20  C   UNL     1      -1.774   2.115   6.110  1.00  0.00     0.009 C 
ENDBRANCH  16  18
ENDBRANCH   7  12
ENDBRANCH   6   7
ENDBRANCH   3   6
ENDBRANCH   1   2
BRANCH   1  21
ATOM     21  C   UNL     1       0.095   4.642   2.761  1.00  0.00     0.042 C 
BRANCH  21  22
ATOM     22  C   UNL     1       0.429   5.381   4.051  1.00  0.00     0.118 C 
BRANCH  22  23
ATOM     23  N   UNL     1       0.489   6.817   3.842  1.00  0.00    -0.352 N 
ATOM     24  C   UNL     1      -0.428   7.832   3.952  1.00  0.00     0.251 C 
ATOM     25  H   UNL     1       1.379   7.130   3.561  1.00  0.00     0.163 HD
ATOM     26  O   UNL     1      -0.107   8.912   3.450  1.00  0.00    -0.269 OA
BRANCH  24  27
ATOM     27  C   UNL     1      -1.760   7.736   4.627  1.00  0.00     0.039 A 
ATOM     28  C   UNL     1      -2.710   8.717   4.290  1.00  0.00     0.014 A 
ATOM     29  C   UNL     1      -2.082   6.849   5.655  1.00  0.00     0.014 A 
ATOM     30  C   UNL     1      -3.933   8.818   4.971  1.00  0.00     0.010 A 
ATOM     31  C   UNL     1      -3.339   6.900   6.287  1.00  0.00     0.010 A 
ATOM     32  C   UNL     1      -4.267   7.905   5.978  1.00  0.00    -0.014 A 
BRANCH  32  33
ATOM     33  C   UNL     1      -5.543   8.036   6.744  1.00  0.00     0.031 A 
ATOM     34  C   UNL     1      -5.528   8.322   8.227  1.00  0.00     0.074 A 
ATOM     35  C   UNL     1      -6.732   7.894   6.125  1.00  0.00     0.049 A 
ATOM     36  N   UNL     1      -6.532   8.419   9.066  1.00  0.00    -0.248 NA
ATOM     37  C   UNL     1      -4.210   8.506   8.853  1.00  0.00     0.031 C 
ATOM     38  C   UNL     1      -6.917   7.610   4.702  1.00  0.00     0.029 A 
ATOM     39  N   UNL     1      -8.014   7.969   6.618  1.00  0.00    -0.354 N 
ATOM     40  C   UNL     1      -5.967   8.646  10.316  1.00  0.00     0.074 A 
ATOM     41  C   UNL     1      -4.531   8.637  10.132  1.00  0.00     0.031 C 
ATOM     42  C   UNL     1      -8.232   7.559   4.432  1.00  0.00     0.029 A 
ATOM     43  C   UNL     1      -8.985   7.767   5.666  1.00  0.00     0.049 A 
ATOM     44  H   UNL     1      -8.217   8.151   7.564  1.00  0.00     0.167 HD
ATOM     45  C   UNL     1      -6.580   8.859  11.507  1.00  0.00     0.037 A 
ATOM     46  C   UNL     1     -10.328   7.744   5.770  1.00  0.00     0.037 A 
ATOM     47  C   UNL     1      -8.006   8.917  11.701  1.00  0.00     0.049 A 
ATOM     48  C   UNL     1     -10.986   7.972   7.103  1.00  0.00     0.074 A 
ATOM     49  C   UNL     1      -8.707   9.191  12.864  1.00  0.00     0.029 A 
ATOM     50  N   UNL     1      -8.950   8.702  10.709  1.00  0.00    -0.354 N 
ATOM     51  N   UNL     1     -10.436   8.223   8.264  1.00  0.00    -0.248 NA
ATOM     52  C   UNL     1     -12.456   7.916   7.135  1.00  0.00     0.031 C 
ATOM     53  C   UNL     1     -10.076   9.104  12.584  1.00  0.00     0.029 A 
ATOM     54  C   UNL     1     -10.226   8.818  11.238  1.00  0.00     0.049 A 
ATOM     55  H   UNL     1      -8.744   8.498   9.768  1.00  0.00     0.167 HD
ATOM     56  C   UNL     1     -11.489   8.384   9.157  1.00  0.00     0.074 A 
ATOM     57  C   UNL     1     -12.711   8.209   8.402  1.00  0.00     0.031 C 
ATOM     58  C   UNL     1     -11.442   8.655  10.484  1.00  0.00     0.037 A 
BRANCH  45  59
ATOM     59  C   UNL     1      -5.702   9.041  12.712  1.00  0.00     0.057 A 
ATOM     60  C   UNL     1      -4.954  10.208  12.915  1.00  0.00     0.134 A 
ATOM     61  C   UNL     1      -5.635   8.051  13.701  1.00  0.00     0.134 A 
ATOM     62  F   UNL     1      -4.968  11.191  12.002  1.00  0.00    -0.206 F 
ATOM     63  C   UNL     1      -4.146  10.370  14.042  1.00  0.00     0.040 A 
ATOM     64  C   UNL     1      -4.852   8.213  14.845  1.00  0.00     0.040 A 
ATOM     65  F   UNL     1      -6.336   6.914  13.575  1.00  0.00    -0.206 F 
ATOM     66  C   UNL     1      -4.098   9.372  15.014  1.00  0.00     0.006 A 
ENDBRANCH  45  59
BRANCH  46  67
ATOM     67  C   UNL     1     -11.156   7.509   4.561  1.00  0.00     0.057 A 
ATOM     68  C   UNL     1     -11.905   8.544   3.990  1.00  0.00     0.134 A 
ATOM     69  C   UNL     1     -11.228   6.249   3.957  1.00  0.00     0.134 A 
ATOM     70  F   UNL     1     -11.895   9.767   4.541  1.00  0.00    -0.206 F 
ATOM     71  C   UNL     1     -12.705   8.333   2.867  1.00  0.00     0.040 A 
ATOM     72  C   UNL     1     -12.006   6.028   2.820  1.00  0.00     0.040 A 
ATOM     73  F   UNL     1     -10.533   5.217   4.458  1.00  0.00    -0.206 F 
ATOM     74  C   UNL     1     -12.752   7.072   2.275  1.00  0.00     0.006 A 
ENDBRANCH  46  67
BRANCH  58  75
ATOM     75  C   UNL     1     -12.749   8.823  11.202  1.00  0.00     0.057 A 
ATOM     76  C   UNL     1     -13.573   7.732  11.505  1.00  0.00     0.134 A 
ATOM     77  C   UNL     1     -13.171  10.089  11.627  1.00  0.00     0.134 A 
ATOM     78  F   UNL     1     -13.233   6.494  11.115  1.00  0.00    -0.206 F 
ATOM     79  C   UNL     1     -14.781   7.897  12.186  1.00  0.00     0.040 A 
ATOM     80  C   UNL     1     -14.366  10.264  12.328  1.00  0.00     0.040 A 
ATOM     81  F   UNL     1     -12.426  11.176  11.375  1.00  0.00    -0.206 F 
ATOM     82  C   UNL     1     -15.177   9.166  12.605  1.00  0.00     0.006 A 
ENDBRANCH  58  75
ENDBRANCH  32  33
ENDBRANCH  24  27
ENDBRANCH  22  23
ENDBRANCH  21  22
ENDBRANCH   1  21
TORSDOF 14
