REMARK SMILES Cc1cccc(C)c1Nc1ccccc1CC(=O)NCCCNC(=O)c1ccc(-c2c3nc(c(-c4c(F)cccc4F)c4ccc([nH]4)c(-c4c(F)cccc4F)c4nc(c(-c5c(F)cccc5F)c5ccc2[nH]5)C=C4)C=C3)cc1
REMARK SMILES IDX 20 1 19 2 17 3 18 4 16 6 15 7 10 8 11 9 12 10 14 11 13 12
REMARK SMILES IDX 9 13 8 15 1 16 2 17 3 18 4 19 6 20 5 21 7 22 21 23 22 24
REMARK SMILES IDX 23 25 24 26 25 28 26 29 27 30 79 31 28 32 78 33 29 34 30 35
REMARK SMILES IDX 31 36 72 37 32 38 77 39 71 40 73 41 33 42 76 43 70 44 69 45
REMARK SMILES IDX 34 47 60 48 43 49 59 50 44 51 47 52 58 53 74 54 45 55 46 56
REMARK SMILES IDX 57 58 75 59 48 60 35 61 36 62 41 63 37 64 38 65 40 66 42 67
REMARK SMILES IDX 39 68 61 69 62 70 67 71 63 72 64 73 66 74 68 75 65 76 49 77
REMARK SMILES IDX 50 78 55 79 51 80 52 81 54 82 56 83 53 84
REMARK H PARENT 19 5 9 14 23 27 73 46 47 57
REMARK Flexibility Score: inf
ROOT
ATOM      1  C   UNL     1       0.582   3.821   2.933  1.00  0.00     0.117 C 
ENDROOT
BRANCH   1   2
ATOM      2  N   UNL     1      -0.502   3.515   3.845  1.00  0.00    -0.356 N 
ATOM      3  C   UNL     1      -1.667   2.854   3.581  1.00  0.00     0.224 C 
ATOM      4  O   UNL     1      -2.526   2.806   4.464  1.00  0.00    -0.275 OA
ATOM      5  H   UNL     1      -0.383   3.824   4.772  1.00  0.00     0.163 HD
BRANCH   3   6
ATOM      6  C   UNL     1      -1.861   2.173   2.237  1.00  0.00     0.137 C 
BRANCH   6   7
ATOM      7  C   UNL     1      -2.140   3.127   1.093  1.00  0.00    -0.015 A 
ATOM      8  C   UNL     1      -1.354   3.180  -0.078  1.00  0.00     0.042 A 
ATOM      9  C   UNL     1      -1.640   4.169  -1.039  1.00  0.00     0.026 A 
ATOM     10  C   UNL     1      -2.699   5.061  -0.875  1.00  0.00     0.002 A 
ATOM     11  C   UNL     1      -3.224   4.021   1.230  1.00  0.00     0.006 A 
ATOM     12  C   UNL     1      -3.500   4.978   0.255  1.00  0.00     0.000 A 
BRANCH   8  13
ATOM     13  N   UNL     1      -0.326   2.270  -0.394  1.00  0.00    -0.355 N 
ATOM     14  H   UNL     1       0.491   2.703  -0.733  1.00  0.00     0.167 HD
BRANCH  13  15
ATOM     15  C   UNL     1      -0.229   0.860  -0.324  1.00  0.00     0.044 A 
ATOM     16  C   UNL     1       2.299   1.135  -0.013  1.00  0.00     0.046 C 
ATOM     17  C   UNL     1       1.054   0.288  -0.102  1.00  0.00    -0.027 A 
ATOM     18  C   UNL     1       1.190  -1.099   0.068  1.00  0.00     0.005 A 
ATOM     19  C   UNL     1       0.079  -1.930   0.025  1.00  0.00     0.001 A 
ATOM     20  C   UNL     1      -1.347  -0.004  -0.418  1.00  0.00    -0.027 A 
ATOM     21  C   UNL     1      -1.177  -1.386  -0.215  1.00  0.00     0.005 A 
ATOM     22  C   UNL     1      -2.736   0.464  -0.764  1.00  0.00     0.046 C 
ENDBRANCH  13  15
ENDBRANCH   8  13
ENDBRANCH   6   7
ENDBRANCH   3   6
ENDBRANCH   1   2
BRANCH   1  23
ATOM     23  C   UNL     1       0.489   5.247   2.398  1.00  0.00     0.042 C 
BRANCH  23  24
ATOM     24  C   UNL     1       0.671   6.317   3.470  1.00  0.00     0.118 C 
BRANCH  24  25
ATOM     25  N   UNL     1       1.992   6.270   4.083  1.00  0.00    -0.352 N 
ATOM     26  C   UNL     1       2.948   7.244   4.193  1.00  0.00     0.251 C 
ATOM     27  H   UNL     1       2.235   5.403   4.481  1.00  0.00     0.163 HD
ATOM     28  O   UNL     1       4.084   6.942   4.566  1.00  0.00    -0.269 OA
BRANCH  26  29
ATOM     29  C   UNL     1       2.638   8.647   3.854  1.00  0.00     0.039 A 
ATOM     30  C   UNL     1       3.582   9.391   3.141  1.00  0.00     0.014 A 
ATOM     31  C   UNL     1       1.437   9.240   4.257  1.00  0.00     0.014 A 
ATOM     32  C   UNL     1       3.293  10.705   2.771  1.00  0.00     0.010 A 
ATOM     33  C   UNL     1       1.122  10.527   3.829  1.00  0.00     0.010 A 
ATOM     34  C   UNL     1       2.045  11.269   3.077  1.00  0.00    -0.014 A 
BRANCH  34  35
ATOM     35  C   UNL     1       1.672  12.619   2.586  1.00  0.00     0.031 A 
ATOM     36  C   UNL     1       1.419  13.740   3.553  1.00  0.00     0.074 A 
ATOM     37  C   UNL     1       1.492  12.810   1.265  1.00  0.00     0.049 A 
ATOM     38  N   UNL     1       1.014  14.962   3.313  1.00  0.00    -0.248 NA
ATOM     39  C   UNL     1       1.625  13.444   4.980  1.00  0.00     0.031 C 
ATOM     40  C   UNL     1       1.666  11.787   0.232  1.00  0.00     0.029 A 
ATOM     41  N   UNL     1       1.111  13.927   0.565  1.00  0.00    -0.354 N 
ATOM     42  C   UNL     1       0.906  15.575   4.554  1.00  0.00     0.074 A 
ATOM     43  C   UNL     1       1.243  14.579   5.549  1.00  0.00     0.031 C 
ATOM     44  C   UNL     1       1.413  12.329  -0.970  1.00  0.00     0.029 A 
ATOM     45  C   UNL     1       1.018  13.722  -0.790  1.00  0.00     0.049 A 
ATOM     46  H   UNL     1       0.923  14.793   0.994  1.00  0.00     0.167 HD
ATOM     47  C   UNL     1       0.573  16.857   4.837  1.00  0.00     0.037 A 
ATOM     48  C   UNL     1       0.642  14.558  -1.776  1.00  0.00     0.037 A 
ATOM     49  C   UNL     1       0.255  17.849   3.842  1.00  0.00     0.049 A 
ATOM     50  C   UNL     1       0.252  15.967  -1.432  1.00  0.00     0.074 A 
ATOM     51  C   UNL     1      -0.025  19.192   4.022  1.00  0.00     0.029 A 
ATOM     52  N   UNL     1       0.165  17.602   2.480  1.00  0.00    -0.354 N 
ATOM     53  N   UNL     1       0.226  16.555  -0.260  1.00  0.00    -0.248 NA
ATOM     54  C   UNL     1      -0.165  16.829  -2.547  1.00  0.00     0.031 C 
ATOM     55  C   UNL     1      -0.335  19.746   2.776  1.00  0.00     0.029 A 
ATOM     56  C   UNL     1      -0.200  18.759   1.812  1.00  0.00     0.049 A 
ATOM     57  H   UNL     1       0.336  16.732   2.051  1.00  0.00     0.167 HD
ATOM     58  C   UNL     1      -0.191  17.858  -0.498  1.00  0.00     0.074 A 
ATOM     59  C   UNL     1      -0.386  17.980  -1.928  1.00  0.00     0.031 C 
ATOM     60  C   UNL     1      -0.398  18.862   0.389  1.00  0.00     0.037 A 
BRANCH  47  61
ATOM     61  C   UNL     1       0.534  17.263   6.282  1.00  0.00     0.057 A 
ATOM     62  C   UNL     1       1.702  17.389   7.046  1.00  0.00     0.134 A 
ATOM     63  C   UNL     1      -0.681  17.572   6.905  1.00  0.00     0.134 A 
ATOM     64  F   UNL     1       2.898  17.098   6.513  1.00  0.00    -0.206 F 
ATOM     65  C   UNL     1       1.660  17.783   8.385  1.00  0.00     0.040 A 
ATOM     66  C   UNL     1      -0.734  17.993   8.235  1.00  0.00     0.040 A 
ATOM     67  F   UNL     1      -1.837  17.480   6.230  1.00  0.00    -0.206 F 
ATOM     68  C   UNL     1       0.439  18.093   8.981  1.00  0.00     0.006 A 
ENDBRANCH  47  61
BRANCH  48  69
ATOM     69  C   UNL     1       0.626  14.087  -3.183  1.00  0.00     0.057 A 
ATOM     70  C   UNL     1       1.554  14.568  -4.114  1.00  0.00     0.134 A 
ATOM     71  C   UNL     1      -0.313  13.151  -3.633  1.00  0.00     0.134 A 
ATOM     72  F   UNL     1       2.467  15.479  -3.747  1.00  0.00    -0.206 F 
ATOM     73  C   UNL     1       1.539  14.149  -5.445  1.00  0.00     0.040 A 
ATOM     74  C   UNL     1      -0.325  12.705  -4.955  1.00  0.00     0.040 A 
ATOM     75  F   UNL     1      -1.225  12.646  -2.789  1.00  0.00    -0.206 F 
ATOM     76  C   UNL     1       0.600  13.210  -5.867  1.00  0.00     0.006 A 
ENDBRANCH  48  69
BRANCH  60  77
ATOM     77  C   UNL     1      -0.846  20.182  -0.167  1.00  0.00     0.057 A 
ATOM     78  C   UNL     1      -2.143  20.371  -0.660  1.00  0.00     0.134 A 
ATOM     79  C   UNL     1       0.018  21.285  -0.178  1.00  0.00     0.134 A 
ATOM     80  F   UNL     1      -3.014  19.350  -0.692  1.00  0.00    -0.206 F 
ATOM     81  C   UNL     1      -2.559  21.604  -1.165  1.00  0.00     0.040 A 
ATOM     82  C   UNL     1      -0.395  22.530  -0.655  1.00  0.00     0.040 A 
ATOM     83  F   UNL     1       1.271  21.174   0.287  1.00  0.00    -0.206 F 
ATOM     84  C   UNL     1      -1.685  22.690  -1.156  1.00  0.00     0.006 A 
ENDBRANCH  60  77
ENDBRANCH  34  35
ENDBRANCH  26  29
ENDBRANCH  24  25
ENDBRANCH  23  24
ENDBRANCH   1  23
TORSDOF 13
