REMARK SMILES CCCc1c(C(=O)NCCCNC(=O)c2ccc(-c3c4nc(c(-c5c(F)cccc5F)c5ccc([nH]5)c(-c5c(F)cccc5F)c5nc(c(-c6c(F)cccc6F)c6ccc3[nH]6)C=C5)C=C4)cc2)nnn1[C@@H](C)[C@H](C)O
REMARK SMILES IDX 9 1 8 2 6 3 7 4 5 6 4 7 71 8 69 9 70 10 3 11 2 12 1 13 72 14
REMARK SMILES IDX 73 15 74 16 75 17 76 18 10 20 11 21 12 22 13 23 14 25 15 26
REMARK SMILES IDX 16 27 68 28 17 29 67 30 18 31 19 32 20 33 61 34 21 35 66 36
REMARK SMILES IDX 60 37 62 38 22 39 65 40 59 41 58 42 23 44 49 45 32 46 48 47
REMARK SMILES IDX 33 48 36 49 47 50 63 51 34 52 35 53 46 55 64 56 37 57 24 58
REMARK SMILES IDX 25 59 30 60 26 61 27 62 29 63 31 64 28 65 50 66 51 67 56 68
REMARK SMILES IDX 52 69 53 70 55 71 57 72 54 73 38 74 39 75 44 76 40 77 41 78
REMARK SMILES IDX 43 79 45 80 42 81
REMARK H PARENT 8 5 76 19 12 24 62 43 36 54
REMARK Flexibility Score: inf
ROOT
ATOM      1  C   UNL     1      -1.157   2.197   1.886  1.00  0.00     0.118 C 
ENDROOT
BRANCH   1   2
ATOM      2  N   UNL     1      -1.091   3.550   1.363  1.00  0.00    -0.351 N 
ATOM      3  C   UNL     1      -1.579   4.148   0.224  1.00  0.00     0.273 C 
ATOM      4  O   UNL     1      -1.543   5.382   0.238  1.00  0.00    -0.267 OA
ATOM      5  H   UNL     1      -0.595   4.170   1.946  1.00  0.00     0.163 HD
BRANCH   3   6
ATOM      6  C   UNL     1      -2.122   3.426  -0.934  1.00  0.00     0.173 A 
ATOM      7  C   UNL     1      -1.822   2.212  -1.561  1.00  0.00     0.072 A 
ATOM      8  N   UNL     1      -2.706   2.170  -2.622  1.00  0.00    -0.243 N 
ATOM      9  N   UNL     1      -3.042   4.090  -1.724  1.00  0.00    -0.125 NA
ATOM     10  N   UNL     1      -3.356   3.334  -2.757  1.00  0.00    -0.066 NA
BRANCH   7  11
ATOM     11  C   UNL     1      -0.820   1.142  -1.318  1.00  0.00     0.058 C 
BRANCH  11  12
ATOM     12  C   UNL     1       0.630   1.477  -1.700  1.00  0.00     0.003 C 
ATOM     13  C   UNL     1       1.096   2.918  -1.543  1.00  0.00     0.004 C 
ENDBRANCH  11  12
ENDBRANCH   7  11
BRANCH   8  14
ATOM     14  C   UNL     1      -3.011   1.086  -3.550  1.00  0.00     0.135 C 
ATOM     15  C   UNL     1      -4.525   0.865  -3.659  1.00  0.00     0.036 C 
BRANCH  14  16
ATOM     16  C   UNL     1      -2.370   1.273  -4.944  1.00  0.00     0.135 C 
ATOM     17  C   UNL     1      -0.851   1.365  -4.922  1.00  0.00     0.040 C 
BRANCH  16  18
ATOM     18  O   UNL     1      -2.888   2.400  -5.647  1.00  0.00    -0.391 OA
ATOM     19  H   UNL     1      -2.646   3.213  -5.178  1.00  0.00     0.211 HD
ENDBRANCH  16  18
ENDBRANCH  14  16
ENDBRANCH   8  14
ENDBRANCH   3   6
ENDBRANCH   1   2
BRANCH   1  20
ATOM     20  C   UNL     1       0.183   1.455   1.793  1.00  0.00     0.042 C 
BRANCH  20  21
ATOM     21  C   UNL     1       1.236   1.964   2.742  1.00  0.00     0.118 C 
BRANCH  21  22
ATOM     22  N   UNL     1       1.214   1.278   4.027  1.00  0.00    -0.352 N 
ATOM     23  C   UNL     1       2.236   1.218   4.952  1.00  0.00     0.251 C 
ATOM     24  H   UNL     1       0.382   0.806   4.261  1.00  0.00     0.163 HD
ATOM     25  O   UNL     1       2.274   0.306   5.782  1.00  0.00    -0.269 OA
BRANCH  23  26
ATOM     26  C   UNL     1       3.270   2.267   4.948  1.00  0.00     0.039 A 
ATOM     27  C   UNL     1       4.564   2.047   5.429  1.00  0.00     0.014 A 
ATOM     28  C   UNL     1       2.909   3.523   4.471  1.00  0.00     0.014 A 
ATOM     29  C   UNL     1       5.468   3.108   5.423  1.00  0.00     0.010 A 
ATOM     30  C   UNL     1       3.853   4.467   4.224  1.00  0.00     0.010 A 
ATOM     31  C   UNL     1       5.084   4.319   4.833  1.00  0.00    -0.014 A 
BRANCH  31  32
ATOM     32  C   UNL     1       5.954   5.476   4.748  1.00  0.00     0.031 A 
ATOM     33  C   UNL     1       7.186   5.223   3.972  1.00  0.00     0.074 A 
ATOM     34  C   UNL     1       5.511   6.705   5.102  1.00  0.00     0.049 A 
ATOM     35  N   UNL     1       8.393   5.211   4.422  1.00  0.00    -0.248 NA
ATOM     36  C   UNL     1       7.060   4.740   2.586  1.00  0.00     0.031 C 
ATOM     37  C   UNL     1       4.184   7.084   5.614  1.00  0.00     0.029 A 
ATOM     38  N   UNL     1       6.116   7.913   4.946  1.00  0.00    -0.354 N 
ATOM     39  C   UNL     1       9.199   4.970   3.316  1.00  0.00     0.074 A 
ATOM     40  C   UNL     1       8.331   4.457   2.291  1.00  0.00     0.031 C 
ATOM     41  C   UNL     1       4.011   8.418   5.493  1.00  0.00     0.029 A 
ATOM     42  C   UNL     1       5.255   9.008   5.045  1.00  0.00     0.049 A 
ATOM     43  H   UNL     1       7.081   8.007   4.777  1.00  0.00     0.167 HD
ATOM     44  C   UNL     1      10.451   5.497   3.251  1.00  0.00     0.037 A 
ATOM     45  C   UNL     1       5.559  10.294   4.728  1.00  0.00     0.037 A 
ATOM     46  C   UNL     1      10.877   5.967   4.549  1.00  0.00     0.049 A 
ATOM     47  C   UNL     1       7.043  10.394   4.734  1.00  0.00     0.074 A 
ATOM     48  C   UNL     1      11.023   5.375   5.789  1.00  0.00     0.029 A 
ATOM     49  N   UNL     1      10.815   7.321   4.783  1.00  0.00    -0.354 N 
ATOM     50  N   UNL     1       7.763  10.289   5.819  1.00  0.00    -0.248 NA
ATOM     51  C   UNL     1       7.742  10.095   3.492  1.00  0.00     0.031 C 
ATOM     52  C   UNL     1      10.550   6.347   6.719  1.00  0.00     0.029 A 
ATOM     53  C   UNL     1      10.236   7.508   6.012  1.00  0.00     0.049 A 
ATOM     54  H   UNL     1      11.130   8.030   4.176  1.00  0.00     0.167 HD
ATOM     55  C   UNL     1       8.836   9.488   5.452  1.00  0.00     0.074 A 
ATOM     56  C   UNL     1       8.810   9.463   3.989  1.00  0.00     0.031 C 
ATOM     57  C   UNL     1       9.443   8.666   6.359  1.00  0.00     0.037 A 
BRANCH  44  58
ATOM     58  C   UNL     1      11.113   5.963   1.979  1.00  0.00     0.057 A 
ATOM     59  C   UNL     1      12.460   6.365   2.030  1.00  0.00     0.134 A 
ATOM     60  C   UNL     1      10.428   6.315   0.798  1.00  0.00     0.134 A 
ATOM     61  F   UNL     1      13.218   6.094   3.103  1.00  0.00    -0.206 F 
ATOM     62  C   UNL     1      13.050   7.138   1.024  1.00  0.00     0.040 A 
ATOM     63  C   UNL     1      11.024   7.040  -0.236  1.00  0.00     0.040 A 
ATOM     64  F   UNL     1       9.125   6.074   0.616  1.00  0.00    -0.206 F 
ATOM     65  C   UNL     1      12.328   7.487  -0.109  1.00  0.00     0.006 A 
ENDBRANCH  44  58
BRANCH  45  66
ATOM     66  C   UNL     1       4.686  11.347   4.150  1.00  0.00     0.057 A 
ATOM     67  C   UNL     1       5.114  12.682   4.069  1.00  0.00     0.134 A 
ATOM     68  C   UNL     1       3.527  11.035   3.417  1.00  0.00     0.134 A 
ATOM     69  F   UNL     1       6.227  13.080   4.702  1.00  0.00    -0.206 F 
ATOM     70  C   UNL     1       4.451  13.637   3.282  1.00  0.00     0.040 A 
ATOM     71  C   UNL     1       2.851  11.979   2.634  1.00  0.00     0.040 A 
ATOM     72  F   UNL     1       3.055   9.782   3.361  1.00  0.00    -0.206 F 
ATOM     73  C   UNL     1       3.322  13.282   2.550  1.00  0.00     0.006 A 
ENDBRANCH  45  66
BRANCH  57  74
ATOM     74  C   UNL     1       9.078   8.819   7.813  1.00  0.00     0.057 A 
ATOM     75  C   UNL     1       7.797   8.585   8.337  1.00  0.00     0.134 A 
ATOM     76  C   UNL     1      10.102   9.041   8.739  1.00  0.00     0.134 A 
ATOM     77  F   UNL     1       6.771   8.259   7.543  1.00  0.00    -0.206 F 
ATOM     78  C   UNL     1       7.540   8.613   9.711  1.00  0.00     0.040 A 
ATOM     79  C   UNL     1       9.867   9.037  10.116  1.00  0.00     0.040 A 
ATOM     80  F   UNL     1      11.366   9.211   8.319  1.00  0.00    -0.206 F 
ATOM     81  C   UNL     1       8.580   8.833  10.607  1.00  0.00     0.006 A 
ENDBRANCH  57  74
ENDBRANCH  31  32
ENDBRANCH  23  26
ENDBRANCH  21  22
ENDBRANCH  20  21
ENDBRANCH   1  20
TORSDOF 15
