REMARK SMILES Cc1cc(C)c(NC(=O)C2(C)CCCC2)c(C(=O)NCCCNC(=O)c2ccc(-c3c4nc(c(-c5c(F)cccc5F)c5ccc([nH]5)c(-c5c(F)cccc5F)c5nc(c(-c6c(F)cccc6F)c6ccc3[nH]6)C=C5)C=C4)cc2)c1
REMARK SMILES IDX 21 1 20 2 19 3 17 4 18 5 16 7 1 8 2 9 3 10 80 11 4 12 5 13
REMARK SMILES IDX 6 14 7 15 8 16 9 18 10 19 11 20 12 21 15 22 13 23 14 24
REMARK SMILES IDX 22 25 23 26 24 27 25 29 26 30 27 31 79 32 28 33 78 34 29 35
REMARK SMILES IDX 30 36 31 37 72 38 32 39 77 40 71 41 73 42 33 43 76 44 70 45
REMARK SMILES IDX 69 46 34 48 60 49 43 50 59 51 44 52 47 53 58 54 74 55 45 56
REMARK SMILES IDX 46 57 57 59 75 60 48 61 35 62 36 63 41 64 37 65 38 66 40 67
REMARK SMILES IDX 42 68 39 69 61 70 62 71 67 72 63 73 64 74 66 75 68 76 65 77
REMARK SMILES IDX 49 78 50 79 55 80 51 81 52 82 54 83 56 84 53 85
REMARK H PARENT 19 6 7 17 23 28 73 47 47 58
REMARK Flexibility Score: inf
ROOT
ATOM      1  C   UNL     1       3.253  -3.768   0.400  1.00  0.00     0.042 C 
ENDROOT
BRANCH   1   2
ATOM      2  C   UNL     1       2.346  -3.757  -0.835  1.00  0.00     0.118 C 
BRANCH   2   3
ATOM      3  N   UNL     1       0.935  -3.843  -0.498  1.00  0.00    -0.352 N 
ATOM      4  C   UNL     1      -0.070  -2.947  -0.225  1.00  0.00     0.253 C 
ATOM      5  O   UNL     1      -1.177  -3.468  -0.049  1.00  0.00    -0.269 OA
ATOM      6  H   UNL     1       0.622  -4.775  -0.453  1.00  0.00     0.163 HD
BRANCH   4   7
ATOM      7  C   UNL     1       0.067  -1.450  -0.064  1.00  0.00     0.063 A 
ATOM      8  C   UNL     1       2.810   1.213   0.098  1.00  0.00     0.044 C 
ATOM      9  C   UNL     1       1.468   0.547   0.190  1.00  0.00    -0.050 A 
ATOM     10  C   UNL     1       0.361   1.257   0.640  1.00  0.00     0.009 A 
ATOM     11  C   UNL     1       1.317  -0.813  -0.101  1.00  0.00     0.019 A 
ATOM     12  C   UNL     1      -0.895   0.638   0.753  1.00  0.00    -0.026 A 
ATOM     13  C   UNL     1      -1.845   1.258   1.752  1.00  0.00     0.046 C 
ATOM     14  C   UNL     1      -1.088  -0.660   0.242  1.00  0.00     0.056 A 
BRANCH  14  15
ATOM     15  N   UNL     1      -2.370  -1.253   0.206  1.00  0.00    -0.325 N 
ATOM     16  C   UNL     1      -3.652  -0.809   0.042  1.00  0.00     0.230 C 
ATOM     17  H   UNL     1      -2.330  -2.229   0.329  1.00  0.00     0.169 HD
ATOM     18  O   UNL     1      -4.518  -1.443   0.662  1.00  0.00    -0.274 OA
BRANCH  16  19
ATOM     19  C   UNL     1      -4.082   0.226  -1.054  1.00  0.00     0.047 C 
ATOM     20  C   UNL     1      -3.651  -0.323  -2.422  1.00  0.00     0.022 C 
ATOM     21  C   UNL     1      -5.631   0.370  -1.028  1.00  0.00     0.016 C 
ATOM     22  C   UNL     1      -3.691   1.704  -0.920  1.00  0.00     0.016 C 
ATOM     23  C   UNL     1      -5.887   1.368   0.094  1.00  0.00     0.001 C 
ATOM     24  C   UNL     1      -4.736   2.360  -0.008  1.00  0.00     0.001 C 
ENDBRANCH  16  19
ENDBRANCH  14  15
ENDBRANCH   4   7
ENDBRANCH   2   3
ENDBRANCH   1   2
BRANCH   1  25
ATOM     25  C   UNL     1       3.582  -5.172   0.915  1.00  0.00     0.118 C 
BRANCH  25  26
ATOM     26  N   UNL     1       4.429  -5.907  -0.017  1.00  0.00    -0.352 N 
ATOM     27  C   UNL     1       5.647  -6.508   0.155  1.00  0.00     0.251 C 
ATOM     28  H   UNL     1       4.062  -5.985  -0.927  1.00  0.00     0.163 HD
ATOM     29  O   UNL     1       6.274  -6.873  -0.844  1.00  0.00    -0.269 OA
BRANCH  27  30
ATOM     30  C   UNL     1       6.231  -6.736   1.495  1.00  0.00     0.039 A 
ATOM     31  C   UNL     1       7.620  -6.634   1.642  1.00  0.00     0.014 A 
ATOM     32  C   UNL     1       5.450  -7.143   2.580  1.00  0.00     0.014 A 
ATOM     33  C   UNL     1       8.219  -6.907   2.874  1.00  0.00     0.010 A 
ATOM     34  C   UNL     1       6.042  -7.362   3.826  1.00  0.00     0.010 A 
ATOM     35  C   UNL     1       7.432  -7.257   3.982  1.00  0.00    -0.014 A 
BRANCH  35  36
ATOM     36  C   UNL     1       8.056  -7.528   5.303  1.00  0.00     0.031 A 
ATOM     37  C   UNL     1       8.023  -8.912   5.893  1.00  0.00     0.074 A 
ATOM     38  C   UNL     1       8.618  -6.516   5.991  1.00  0.00     0.049 A 
ATOM     39  N   UNL     1       8.475  -9.329   7.049  1.00  0.00    -0.248 NA
ATOM     40  C   UNL     1       7.378  -9.959   5.087  1.00  0.00     0.031 C 
ATOM     41  C   UNL     1       8.679  -5.123   5.546  1.00  0.00     0.029 A 
ATOM     42  N   UNL     1       9.239  -6.502   7.215  1.00  0.00    -0.354 N 
ATOM     43  C   UNL     1       8.155 -10.680   7.116  1.00  0.00     0.074 A 
ATOM     44  C   UNL     1       7.433 -11.002   5.903  1.00  0.00     0.031 C 
ATOM     45  C   UNL     1       9.321  -4.394   6.472  1.00  0.00     0.029 A 
ATOM     46  C   UNL     1       9.690  -5.260   7.588  1.00  0.00     0.049 A 
ATOM     47  H   UNL     1       9.350  -7.306   7.772  1.00  0.00     0.167 HD
ATOM     48  C   UNL     1       8.452 -11.574   8.089  1.00  0.00     0.037 A 
ATOM     49  C   UNL     1      10.329  -4.863   8.705  1.00  0.00     0.037 A 
ATOM     50  C   UNL     1       9.194 -11.259   9.283  1.00  0.00     0.049 A 
ATOM     51  C   UNL     1      10.658  -5.877   9.764  1.00  0.00     0.074 A 
ATOM     52  C   UNL     1       9.590 -12.106  10.303  1.00  0.00     0.029 A 
ATOM     53  N   UNL     1       9.652  -9.993   9.614  1.00  0.00    -0.354 N 
ATOM     54  N   UNL     1      10.397  -7.161   9.787  1.00  0.00    -0.248 NA
ATOM     55  C   UNL     1      11.379  -5.386  10.947  1.00  0.00     0.031 C 
ATOM     56  C   UNL     1      10.261 -11.346  11.268  1.00  0.00     0.029 A 
ATOM     57  C   UNL     1      10.316 -10.033  10.829  1.00  0.00     0.049 A 
ATOM     58  H   UNL     1       9.524  -9.184   9.066  1.00  0.00     0.167 HD
ATOM     59  C   UNL     1      10.941  -7.637  10.973  1.00  0.00     0.074 A 
ATOM     60  C   UNL     1      11.560  -6.506  11.633  1.00  0.00     0.031 C 
ATOM     61  C   UNL     1      10.930  -8.898  11.470  1.00  0.00     0.037 A 
BRANCH  48  62
ATOM     62  C   UNL     1       7.976 -12.985   7.899  1.00  0.00     0.057 A 
ATOM     63  C   UNL     1       8.552 -13.836   6.946  1.00  0.00     0.134 A 
ATOM     64  C   UNL     1       6.951 -13.510   8.696  1.00  0.00     0.134 A 
ATOM     65  F   UNL     1       9.530 -13.393   6.143  1.00  0.00    -0.206 F 
ATOM     66  C   UNL     1       8.107 -15.148   6.774  1.00  0.00     0.040 A 
ATOM     67  C   UNL     1       6.514 -14.828   8.551  1.00  0.00     0.040 A 
ATOM     68  F   UNL     1       6.361 -12.752   9.633  1.00  0.00    -0.206 F 
ATOM     69  C   UNL     1       7.088 -15.649   7.582  1.00  0.00     0.006 A 
ENDBRANCH  48  62
BRANCH  49  70
ATOM     70  C   UNL     1      10.729  -3.443   8.863  1.00  0.00     0.057 A 
ATOM     71  C   UNL     1      12.073  -3.061   8.776  1.00  0.00     0.134 A 
ATOM     72  C   UNL     1       9.785  -2.438   9.099  1.00  0.00     0.134 A 
ATOM     73  F   UNL     1      13.024  -3.983   8.568  1.00  0.00    -0.206 F 
ATOM     74  C   UNL     1      12.466  -1.732   8.935  1.00  0.00     0.040 A 
ATOM     75  C   UNL     1      10.162  -1.101   9.238  1.00  0.00     0.040 A 
ATOM     76  F   UNL     1       8.481  -2.739   9.184  1.00  0.00    -0.206 F 
ATOM     77  C   UNL     1      11.508  -0.746   9.162  1.00  0.00     0.006 A 
ENDBRANCH  49  70
BRANCH  61  78
ATOM     78  C   UNL     1      11.631  -9.122  12.776  1.00  0.00     0.057 A 
ATOM     79  C   UNL     1      11.089  -8.680  13.989  1.00  0.00     0.134 A 
ATOM     80  C   UNL     1      12.850  -9.810  12.822  1.00  0.00     0.134 A 
ATOM     81  F   UNL     1       9.932  -8.003  14.010  1.00  0.00    -0.206 F 
ATOM     82  C   UNL     1      11.748  -8.895  15.201  1.00  0.00     0.040 A 
ATOM     83  C   UNL     1      13.506 -10.051  14.029  1.00  0.00     0.040 A 
ATOM     84  F   UNL     1      13.418 -10.265  11.695  1.00  0.00    -0.206 F 
ATOM     85  C   UNL     1      12.957  -9.587  15.223  1.00  0.00     0.006 A 
ENDBRANCH  61  78
ENDBRANCH  35  36
ENDBRANCH  27  30
ENDBRANCH  25  26
ENDBRANCH   1  25
TORSDOF 12
