REMARK SMILES C[C@H]1N=N[C@H](S/C(=C/c2ccc(-c3cccc(Cl)c3)o2)C(=O)NCCCNC(=O)c2ccc(-c3c4nc(c(-c5c(F)cccc5F)c5ccc([nH]5)c(-c5c(F)cccc5F)c5nc(c(-c6c(F)cccc6F)c6ccc3[nH]6)C=C5)C=C4)cc2)[NH2+]1
REMARK SMILES IDX 25 1 24 2 23 3 21 4 22 5 7 7 8 8 6 9 5 10 1 11 2 12 3 13
REMARK SMILES IDX 84 14 4 15 9 18 10 19 20 20 11 21 12 22 13 23 14 24 19 25
REMARK SMILES IDX 15 26 17 27 16 28 18 29 26 30 27 31 28 32 29 34 30 35 31 36
REMARK SMILES IDX 83 37 32 38 82 39 33 40 34 41 35 42 76 43 36 44 81 45 75 46
REMARK SMILES IDX 77 47 37 48 80 49 74 50 73 51 38 53 64 54 47 55 63 56 48 57
REMARK SMILES IDX 51 58 62 59 78 60 49 61 50 62 61 64 79 65 52 66 39 67 40 68
REMARK SMILES IDX 45 69 41 70 42 71 44 72 46 73 43 74 65 75 66 76 71 77 67 78
REMARK SMILES IDX 68 79 70 80 72 81 69 82 53 83 54 84 59 85 55 86 56 87 58 88
REMARK SMILES IDX 60 89 57 90
REMARK H PARENT 23 6 84 16 84 17 27 33 77 52 51 63
REMARK Flexibility Score: inf
ROOT
ATOM      1  C   UNL     1      -3.069   8.220  -3.541  1.00  0.00     0.042 C 
ENDROOT
BRANCH   1   2
ATOM      2  C   UNL     1      -2.832   6.839  -2.974  1.00  0.00     0.118 C 
BRANCH   2   3
ATOM      3  N   UNL     1      -2.693   5.715  -3.869  1.00  0.00    -0.352 N 
ATOM      4  C   UNL     1      -2.069   4.514  -3.600  1.00  0.00     0.258 C 
ATOM      5  O   UNL     1      -2.297   3.568  -4.356  1.00  0.00    -0.269 OA
ATOM      6  H   UNL     1      -3.086   5.816  -4.766  1.00  0.00     0.163 HD
BRANCH   4   7
ATOM      7  C   UNL     1      -1.027   4.388  -2.496  1.00  0.00     0.084 C 
ATOM      8  C   UNL     1      -1.167   4.719  -1.199  1.00  0.00     0.068 C 
BRANCH   7   9
ATOM      9  S   UNL     1       0.547   3.930  -3.148  1.00  0.00    -0.030 SA
BRANCH   9  10
ATOM     10  C   UNL     1       1.385   2.860  -1.940  1.00  0.00     0.393 C 
ATOM     11  C   UNL     1       0.986  -0.195  -0.277  1.00  0.00     0.106 C 
ATOM     12  C   UNL     1       0.460   1.111  -0.864  1.00  0.00     0.324 C 
ATOM     13  N   UNL     1       0.751   2.185   0.097  1.00  0.00    -0.126 NA
ATOM     14  N   UNL     1       1.086   1.442  -2.142  1.00  0.00    -0.293 N 
ATOM     15  N   UNL     1       1.294   3.145  -0.498  1.00  0.00    -0.115 NA
ATOM     16  H   UNL     1       0.445   1.301  -2.922  1.00  0.00     0.350 HD
ATOM     17  H   UNL     1       1.897   0.869  -2.377  1.00  0.00     0.350 HD
ENDBRANCH   9  10
ENDBRANCH   7   9
BRANCH   8  18
ATOM     18  C   UNL     1      -2.323   5.221  -0.553  1.00  0.00     0.128 A 
ATOM     19  C   UNL     1      -3.616   4.739  -0.410  1.00  0.00     0.051 A 
ATOM     20  O   UNL     1      -2.276   6.457   0.052  1.00  0.00    -0.457 OA
ATOM     21  C   UNL     1      -4.379   5.750   0.243  1.00  0.00     0.051 A 
ATOM     22  C   UNL     1      -3.524   6.808   0.464  1.00  0.00     0.134 A 
BRANCH  22  23
ATOM     23  C   UNL     1      -3.660   8.171   0.969  1.00  0.00     0.019 A 
ATOM     24  C   UNL     1      -4.733   8.525   1.797  1.00  0.00     0.012 A 
ATOM     25  C   UNL     1      -2.736   9.168   0.612  1.00  0.00     0.032 A 
ATOM     26  C   UNL     1      -4.875   9.835   2.267  1.00  0.00     0.002 A 
ATOM     27  C   UNL     1      -2.883  10.475   1.080  1.00  0.00     0.041 A 
ATOM     28  C   UNL     1      -3.950  10.813   1.907  1.00  0.00     0.020 A 
ATOM     29  Cl  UNL     1      -1.728  11.672   0.637  1.00  0.00    -0.084 Cl
ENDBRANCH  22  23
ENDBRANCH   8  18
ENDBRANCH   4   7
ENDBRANCH   2   3
ENDBRANCH   1   2
BRANCH   1  30
ATOM     30  C   UNL     1      -4.491   8.533  -3.987  1.00  0.00     0.118 C 
BRANCH  30  31
ATOM     31  N   UNL     1      -5.540   8.295  -2.994  1.00  0.00    -0.352 N 
ATOM     32  C   UNL     1      -6.357   9.111  -2.235  1.00  0.00     0.251 C 
ATOM     33  H   UNL     1      -5.700   7.338  -2.830  1.00  0.00     0.163 HD
ATOM     34  O   UNL     1      -7.135   8.588  -1.448  1.00  0.00    -0.269 OA
BRANCH  32  35
ATOM     35  C   UNL     1      -6.288  10.594  -2.305  1.00  0.00     0.039 A 
ATOM     36  C   UNL     1      -6.584  11.345  -1.158  1.00  0.00     0.014 A 
ATOM     37  C   UNL     1      -5.949  11.268  -3.470  1.00  0.00     0.014 A 
ATOM     38  C   UNL     1      -6.411  12.736  -1.159  1.00  0.00     0.010 A 
ATOM     39  C   UNL     1      -5.622  12.618  -3.428  1.00  0.00     0.010 A 
ATOM     40  C   UNL     1      -5.851  13.377  -2.274  1.00  0.00    -0.014 A 
BRANCH  40  41
ATOM     41  C   UNL     1      -5.490  14.823  -2.281  1.00  0.00     0.031 A 
ATOM     42  C   UNL     1      -6.015  15.730  -3.366  1.00  0.00     0.074 A 
ATOM     43  C   UNL     1      -4.588  15.297  -1.397  1.00  0.00     0.049 A 
ATOM     44  N   UNL     1      -5.683  16.965  -3.649  1.00  0.00    -0.248 NA
ATOM     45  C   UNL     1      -7.016  15.159  -4.283  1.00  0.00     0.031 C 
ATOM     46  C   UNL     1      -3.953  14.519  -0.333  1.00  0.00     0.029 A 
ATOM     47  N   UNL     1      -4.021  16.542  -1.273  1.00  0.00    -0.354 N 
ATOM     48  C   UNL     1      -6.413  17.303  -4.782  1.00  0.00     0.074 A 
ATOM     49  C   UNL     1      -7.142  16.120  -5.183  1.00  0.00     0.031 C 
ATOM     50  C   UNL     1      -3.091  15.299   0.336  1.00  0.00     0.029 A 
ATOM     51  C   UNL     1      -3.076  16.621  -0.277  1.00  0.00     0.049 A 
ATOM     52  H   UNL     1      -4.267  17.306  -1.843  1.00  0.00     0.167 HD
ATOM     53  C   UNL     1      -6.504  18.499  -5.409  1.00  0.00     0.037 A 
ATOM     54  C   UNL     1      -2.272  17.636   0.094  1.00  0.00     0.037 A 
ATOM     55  C   UNL     1      -5.811  19.686  -4.984  1.00  0.00     0.049 A 
ATOM     56  C   UNL     1      -2.377  18.951  -0.625  1.00  0.00     0.074 A 
ATOM     57  C   UNL     1      -5.902  20.968  -5.497  1.00  0.00     0.029 A 
ATOM     58  N   UNL     1      -4.896  19.733  -3.943  1.00  0.00    -0.354 N 
ATOM     59  N   UNL     1      -3.139  19.279  -1.640  1.00  0.00    -0.248 NA
ATOM     60  C   UNL     1      -1.524  20.043  -0.135  1.00  0.00     0.031 C 
ATOM     61  C   UNL     1      -5.007  21.782  -4.795  1.00  0.00     0.029 A 
ATOM     62  C   UNL     1      -4.398  21.019  -3.812  1.00  0.00     0.049 A 
ATOM     63  H   UNL     1      -4.638  18.967  -3.381  1.00  0.00     0.167 HD
ATOM     64  C   UNL     1      -2.889  20.623  -1.883  1.00  0.00     0.074 A 
ATOM     65  C   UNL     1      -1.909  21.049  -0.906  1.00  0.00     0.031 C 
ATOM     66  C   UNL     1      -3.431  21.432  -2.826  1.00  0.00     0.037 A 
BRANCH  53  67
ATOM     67  C   UNL     1      -7.408  18.585  -6.607  1.00  0.00     0.057 A 
ATOM     68  C   UNL     1      -8.801  18.474  -6.491  1.00  0.00     0.134 A 
ATOM     69  C   UNL     1      -6.885  18.804  -7.888  1.00  0.00     0.134 A 
ATOM     70  F   UNL     1      -9.368  18.253  -5.295  1.00  0.00    -0.206 F 
ATOM     71  C   UNL     1      -9.637  18.541  -7.607  1.00  0.00     0.040 A 
ATOM     72  C   UNL     1      -7.713  18.905  -9.007  1.00  0.00     0.040 A 
ATOM     73  F   UNL     1      -5.562  18.927  -8.073  1.00  0.00    -0.206 F 
ATOM     74  C   UNL     1      -9.093  18.764  -8.870  1.00  0.00     0.006 A 
ENDBRANCH  53  67
BRANCH  54  75
ATOM     75  C   UNL     1      -1.319  17.457   1.219  1.00  0.00     0.057 A 
ATOM     76  C   UNL     1      -1.524  18.097   2.447  1.00  0.00     0.134 A 
ATOM     77  C   UNL     1      -0.185  16.645   1.098  1.00  0.00     0.134 A 
ATOM     78  F   UNL     1      -2.584  18.901   2.619  1.00  0.00    -0.206 F 
ATOM     79  C   UNL     1      -0.626  17.956   3.506  1.00  0.00     0.040 A 
ATOM     80  C   UNL     1       0.708  16.474   2.158  1.00  0.00     0.040 A 
ATOM     81  F   UNL     1       0.066  15.998  -0.050  1.00  0.00    -0.206 F 
ATOM     82  C   UNL     1       0.492  17.137   3.364  1.00  0.00     0.006 A 
ENDBRANCH  54  75
BRANCH  66  83
ATOM     83  C   UNL     1      -3.015  22.873  -2.814  1.00  0.00     0.057 A 
ATOM     84  C   UNL     1      -1.739  23.282  -3.218  1.00  0.00     0.134 A 
ATOM     85  C   UNL     1      -3.921  23.869  -2.424  1.00  0.00     0.134 A 
ATOM     86  F   UNL     1      -0.820  22.378  -3.589  1.00  0.00    -0.206 F 
ATOM     87  C   UNL     1      -1.370  24.629  -3.212  1.00  0.00     0.040 A 
ATOM     88  C   UNL     1      -3.574  25.219  -2.443  1.00  0.00     0.040 A 
ATOM     89  F   UNL     1      -5.164  23.545  -2.034  1.00  0.00    -0.206 F 
ATOM     90  C   UNL     1      -2.292  25.602  -2.831  1.00  0.00     0.006 A 
ENDBRANCH  66  83
ENDBRANCH  40  41
ENDBRANCH  32  35
ENDBRANCH  30  31
ENDBRANCH   1  30
TORSDOF 14
