REMARK SMILES Cc1cccc(CC(=O)NC2(CC(=O)NCCCNC(=O)c3ccc(-c4c5nc(c(-c6c(F)cccc6F)c6ccc([nH]6)c(-c6c(F)cccc6F)c6nc(c(-c7c(F)cccc7F)c7ccc4[nH]7)C=C6)C=C5)cc3)CCC2)c1
REMARK SMILES IDX 16 1 15 2 13 3 14 4 12 6 11 7 76 8 78 9 77 10 10 11 8 12
REMARK SMILES IDX 9 13 7 15 6 16 1 17 2 18 3 19 79 20 4 21 5 22 17 23 18 24
REMARK SMILES IDX 19 25 20 26 21 28 22 29 23 30 75 31 24 32 74 33 25 34 26 35
REMARK SMILES IDX 27 36 68 37 28 38 73 39 67 40 69 41 29 42 72 43 66 44 65 45
REMARK SMILES IDX 30 47 56 48 39 49 55 50 40 51 43 52 54 53 70 54 41 55 42 56
REMARK SMILES IDX 53 58 71 59 44 60 31 61 32 62 37 63 33 64 34 65 36 66 38 67
REMARK SMILES IDX 35 68 57 69 58 70 63 71 59 72 60 73 62 74 64 75 61 76 45 77
REMARK SMILES IDX 46 78 51 79 47 80 48 81 50 82 52 83 49 84
REMARK H PARENT 15 5 10 14 19 27 69 46 43 57
REMARK Flexibility Score: inf
ROOT
ATOM      1  C   UNL     1       0.325  -0.443  -4.532  1.00  0.00     0.117 C 
ENDROOT
BRANCH   1   2
ATOM      2  N   UNL     1      -0.969   0.094  -4.909  1.00  0.00    -0.356 N 
ATOM      3  C   UNL     1      -1.447   1.366  -4.839  1.00  0.00     0.222 C 
ATOM      4  O   UNL     1      -2.635   1.554  -5.116  1.00  0.00    -0.275 OA
ATOM      5  H   UNL     1      -1.602  -0.566  -5.272  1.00  0.00     0.163 HD
BRANCH   3   6
ATOM      6  C   UNL     1      -0.587   2.537  -4.396  1.00  0.00     0.128 C 
BRANCH   6   7
ATOM      7  C   UNL     1      -0.583   2.826  -2.877  1.00  0.00     0.049 C 
ATOM      8  C   UNL     1      -0.054   4.235  -2.485  1.00  0.00     0.029 C 
ATOM      9  C   UNL     1       0.676   2.220  -2.237  1.00  0.00     0.029 C 
ATOM     10  C   UNL     1       1.217   3.607  -1.907  1.00  0.00     0.005 C 
BRANCH   7  11
ATOM     11  N   UNL     1      -1.928   2.537  -2.305  1.00  0.00    -0.350 N 
ATOM     12  C   UNL     1      -2.464   2.425  -1.054  1.00  0.00     0.224 C 
ATOM     13  O   UNL     1      -3.677   2.187  -0.988  1.00  0.00    -0.275 OA
ATOM     14  H   UNL     1      -2.601   2.388  -3.007  1.00  0.00     0.164 HD
BRANCH  12  15
ATOM     15  C   UNL     1      -1.654   2.565   0.222  1.00  0.00     0.135 C 
BRANCH  15  16
ATOM     16  C   UNL     1      -1.068   1.255   0.699  1.00  0.00    -0.038 A 
ATOM     17  C   UNL     1       2.417  -0.206   1.045  1.00  0.00     0.044 C 
ATOM     18  C   UNL     1       0.923  -0.089   1.104  1.00  0.00    -0.051 A 
ATOM     19  C   UNL     1       0.122  -1.229   1.206  1.00  0.00     0.003 A 
ATOM     20  C   UNL     1       0.311   1.156   0.929  1.00  0.00     0.007 A 
ATOM     21  C   UNL     1      -1.267  -1.118   1.130  1.00  0.00     0.001 A 
ATOM     22  C   UNL     1      -1.860   0.112   0.850  1.00  0.00     0.004 A 
ENDBRANCH  15  16
ENDBRANCH  12  15
ENDBRANCH   7  11
ENDBRANCH   6   7
ENDBRANCH   3   6
ENDBRANCH   1   2
BRANCH   1  23
ATOM     23  C   UNL     1       0.378  -0.857  -3.061  1.00  0.00     0.042 C 
BRANCH  23  24
ATOM     24  C   UNL     1      -0.034  -2.299  -2.787  1.00  0.00     0.118 C 
BRANCH  24  25
ATOM     25  N   UNL     1       0.993  -3.039  -2.041  1.00  0.00    -0.352 N 
ATOM     26  C   UNL     1       0.917  -4.271  -1.411  1.00  0.00     0.251 C 
ATOM     27  H   UNL     1       1.867  -2.592  -1.978  1.00  0.00     0.163 HD
ATOM     28  O   UNL     1       1.913  -4.805  -0.954  1.00  0.00    -0.269 OA
BRANCH  26  29
ATOM     29  C   UNL     1      -0.380  -4.979  -1.419  1.00  0.00     0.039 A 
ATOM     30  C   UNL     1      -0.446  -6.223  -2.050  1.00  0.00     0.014 A 
ATOM     31  C   UNL     1      -1.534  -4.282  -1.089  1.00  0.00     0.014 A 
ATOM     32  C   UNL     1      -1.653  -6.619  -2.614  1.00  0.00     0.010 A 
ATOM     33  C   UNL     1      -2.707  -4.621  -1.729  1.00  0.00     0.010 A 
ATOM     34  C   UNL     1      -2.737  -5.741  -2.566  1.00  0.00    -0.014 A 
BRANCH  34  35
ATOM     35  C   UNL     1      -3.849  -5.806  -3.509  1.00  0.00     0.031 A 
ATOM     36  C   UNL     1      -5.206  -6.172  -3.061  1.00  0.00     0.074 A 
ATOM     37  C   UNL     1      -3.646  -5.422  -4.790  1.00  0.00     0.049 A 
ATOM     38  N   UNL     1      -6.135  -6.604  -3.845  1.00  0.00    -0.248 NA
ATOM     39  C   UNL     1      -5.615  -6.104  -1.665  1.00  0.00     0.031 C 
ATOM     40  C   UNL     1      -4.656  -5.155  -5.810  1.00  0.00     0.029 A 
ATOM     41  N   UNL     1      -2.432  -5.405  -5.494  1.00  0.00    -0.354 N 
ATOM     42  C   UNL     1      -7.310  -6.634  -3.133  1.00  0.00     0.074 A 
ATOM     43  C   UNL     1      -6.925  -6.348  -1.769  1.00  0.00     0.031 C 
ATOM     44  C   UNL     1      -4.095  -5.305  -7.020  1.00  0.00     0.029 A 
ATOM     45  C   UNL     1      -2.746  -5.800  -6.815  1.00  0.00     0.049 A 
ATOM     46  H   UNL     1      -1.544  -5.166  -5.140  1.00  0.00     0.167 HD
ATOM     47  C   UNL     1      -8.492  -6.795  -3.794  1.00  0.00     0.037 A 
ATOM     48  C   UNL     1      -2.244  -6.960  -7.330  1.00  0.00     0.037 A 
ATOM     49  C   UNL     1      -8.286  -7.017  -5.223  1.00  0.00     0.049 A 
ATOM     50  C   UNL     1      -3.287  -8.004  -7.670  1.00  0.00     0.074 A 
ATOM     51  C   UNL     1      -8.327  -6.209  -6.348  1.00  0.00     0.029 A 
ATOM     52  N   UNL     1      -7.684  -8.195  -5.624  1.00  0.00    -0.354 N 
ATOM     53  N   UNL     1      -4.568  -7.859  -7.472  1.00  0.00    -0.248 NA
ATOM     54  C   UNL     1      -2.952  -9.339  -8.174  1.00  0.00     0.031 C 
ATOM     55  C   UNL     1      -7.698  -6.906  -7.419  1.00  0.00     0.029 A 
ATOM     56  C   UNL     1      -7.282  -8.136  -6.943  1.00  0.00     0.049 A 
ATOM     57  H   UNL     1      -7.558  -8.978  -5.041  1.00  0.00     0.167 HD
ATOM     58  C   UNL     1      -5.200  -9.045  -7.726  1.00  0.00     0.074 A 
ATOM     59  C   UNL     1      -4.155  -9.938  -8.185  1.00  0.00     0.031 C 
ATOM     60  C   UNL     1      -6.526  -9.244  -7.494  1.00  0.00     0.037 A 
BRANCH  47  61
ATOM     61  C   UNL     1      -9.841  -6.531  -3.173  1.00  0.00     0.057 A 
ATOM     62  C   UNL     1     -10.910  -6.045  -3.949  1.00  0.00     0.134 A 
ATOM     63  C   UNL     1     -10.140  -6.697  -1.810  1.00  0.00     0.134 A 
ATOM     64  F   UNL     1     -10.822  -5.935  -5.280  1.00  0.00    -0.206 F 
ATOM     65  C   UNL     1     -12.131  -5.639  -3.393  1.00  0.00     0.040 A 
ATOM     66  C   UNL     1     -11.332  -6.239  -1.231  1.00  0.00     0.040 A 
ATOM     67  F   UNL     1      -9.318  -7.362  -0.989  1.00  0.00    -0.206 F 
ATOM     68  C   UNL     1     -12.330  -5.693  -2.023  1.00  0.00     0.006 A 
ENDBRANCH  47  61
BRANCH  48  69
ATOM     69  C   UNL     1      -0.867  -7.252  -6.854  1.00  0.00     0.057 A 
ATOM     70  C   UNL     1       0.167  -6.362  -7.197  1.00  0.00     0.134 A 
ATOM     71  C   UNL     1      -0.619  -8.142  -5.807  1.00  0.00     0.134 A 
ATOM     72  F   UNL     1      -0.005  -5.479  -8.194  1.00  0.00    -0.206 F 
ATOM     73  C   UNL     1       1.349  -6.283  -6.458  1.00  0.00     0.040 A 
ATOM     74  C   UNL     1       0.567  -8.082  -5.067  1.00  0.00     0.040 A 
ATOM     75  F   UNL     1      -1.564  -9.004  -5.405  1.00  0.00    -0.206 F 
ATOM     76  C   UNL     1       1.536  -7.124  -5.366  1.00  0.00     0.006 A 
ENDBRANCH  48  69
BRANCH  60  77
ATOM     77  C   UNL     1      -7.211 -10.538  -7.783  1.00  0.00     0.057 A 
ATOM     78  C   UNL     1      -7.176 -11.119  -9.056  1.00  0.00     0.134 A 
ATOM     79  C   UNL     1      -8.041 -11.158  -6.834  1.00  0.00     0.134 A 
ATOM     80  F   UNL     1      -6.423 -10.588 -10.032  1.00  0.00    -0.206 F 
ATOM     81  C   UNL     1      -7.931 -12.254  -9.370  1.00  0.00     0.040 A 
ATOM     82  C   UNL     1      -8.829 -12.267  -7.145  1.00  0.00     0.040 A 
ATOM     83  F   UNL     1      -8.106 -10.711  -5.570  1.00  0.00    -0.206 F 
ATOM     84  C   UNL     1      -8.775 -12.819  -8.418  1.00  0.00     0.006 A 
ENDBRANCH  60  77
ENDBRANCH  34  35
ENDBRANCH  26  29
ENDBRANCH  24  25
ENDBRANCH  23  24
ENDBRANCH   1  23
TORSDOF 14
