REMARK SMILES Cc1cccc(-c2cccnc2C(=O)NCCCNC(=O)c2ccc(-c3c4nc(c(-c5c(F)cccc5F)c5ccc([nH]5)c(-c5c(F)cccc5F)c5nc(c(-c6c(F)cccc6F)c6ccc3[nH]6)C=C5)C=C4)cc2)c1
REMARK SMILES IDX 17 1 16 2 15 3 13 4 14 5 12 7 7 8 8 9 9 10 11 11 10 12 6 13
REMARK SMILES IDX 1 14 2 15 3 16 76 17 4 18 5 19 18 20 19 21 20 22 21 24 22 25
REMARK SMILES IDX 23 26 75 27 24 28 74 29 25 30 26 31 27 32 68 33 28 34 73 35
REMARK SMILES IDX 67 36 69 37 29 38 72 39 66 40 65 41 30 43 56 44 39 45 55 46
REMARK SMILES IDX 40 47 43 48 54 49 70 50 41 51 42 52 53 54 71 55 44 56 31 57
REMARK SMILES IDX 32 58 37 59 33 60 34 61 36 62 38 63 35 64 57 65 58 66 63 67
REMARK SMILES IDX 59 68 60 69 62 70 64 71 61 72 45 73 46 74 51 75 47 76 48 77
REMARK SMILES IDX 50 78 52 79 49 80
REMARK H PARENT 15 6 19 23 69 42 43 53
REMARK Flexibility Score: inf
ROOT
ATOM      1  C   UNL     1      -0.013   0.368   2.859  1.00  0.00     0.042 C 
ENDROOT
BRANCH   1   2
ATOM      2  C   UNL     1      -0.997   0.848   1.818  1.00  0.00     0.118 C 
BRANCH   2   3
ATOM      3  N   UNL     1      -2.345   1.104   2.227  1.00  0.00    -0.351 N 
ATOM      4  C   UNL     1      -3.274   1.878   1.552  1.00  0.00     0.270 C 
ATOM      5  O   UNL     1      -4.442   1.808   1.945  1.00  0.00    -0.267 OA
ATOM      6  H   UNL     1      -2.640   0.690   3.069  1.00  0.00     0.163 HD
BRANCH   4   7
ATOM      7  C   UNL     1      -2.917   2.869   0.454  1.00  0.00     0.135 A 
ATOM      8  C   UNL     1      -2.150   2.641  -0.709  1.00  0.00     0.013 A 
ATOM      9  C   UNL     1      -2.000   3.737  -1.585  1.00  0.00     0.013 A 
ATOM     10  C   UNL     1      -2.577   4.971  -1.314  1.00  0.00     0.021 A 
ATOM     11  N   UNL     1      -3.485   4.089   0.721  1.00  0.00    -0.250 NA
ATOM     12  C   UNL     1      -3.308   5.096  -0.155  1.00  0.00     0.112 A 
BRANCH   8  13
ATOM     13  C   UNL     1      -1.440   1.408  -1.087  1.00  0.00    -0.016 A 
ATOM     14  C   UNL     1       2.194   0.203  -1.032  1.00  0.00     0.044 C 
ATOM     15  C   UNL     1       0.713   0.230  -1.286  1.00  0.00    -0.051 A 
ATOM     16  C   UNL     1       0.023  -0.944  -1.596  1.00  0.00     0.003 A 
ATOM     17  C   UNL     1      -0.023   1.404  -1.082  1.00  0.00     0.012 A 
ATOM     18  C   UNL     1      -1.373  -0.949  -1.663  1.00  0.00     0.001 A 
ATOM     19  C   UNL     1      -2.104   0.217  -1.403  1.00  0.00     0.009 A 
ENDBRANCH   8  13
ENDBRANCH   4   7
ENDBRANCH   2   3
ENDBRANCH   1   2
BRANCH   1  20
ATOM     20  C   UNL     1       0.123  -1.154   2.920  1.00  0.00     0.118 C 
BRANCH  20  21
ATOM     21  N   UNL     1       0.665  -1.762   1.688  1.00  0.00    -0.352 N 
ATOM     22  C   UNL     1       1.454  -2.885   1.471  1.00  0.00     0.251 C 
ATOM     23  H   UNL     1       0.422  -1.280   0.864  1.00  0.00     0.163 HD
ATOM     24  O   UNL     1       1.631  -3.329   0.350  1.00  0.00    -0.269 OA
BRANCH  22  25
ATOM     25  C   UNL     1       1.976  -3.610   2.646  1.00  0.00     0.039 A 
ATOM     26  C   UNL     1       1.400  -4.859   2.900  1.00  0.00     0.014 A 
ATOM     27  C   UNL     1       2.551  -2.852   3.654  1.00  0.00     0.014 A 
ATOM     28  C   UNL     1       1.042  -5.157   4.205  1.00  0.00     0.010 A 
ATOM     29  C   UNL     1       2.093  -3.096   4.932  1.00  0.00     0.010 A 
ATOM     30  C   UNL     1       1.228  -4.178   5.176  1.00  0.00    -0.014 A 
BRANCH  30  31
ATOM     31  C   UNL     1       0.356  -4.056   6.348  1.00  0.00     0.031 A 
ATOM     32  C   UNL     1       0.953  -3.969   7.698  1.00  0.00     0.074 A 
ATOM     33  C   UNL     1      -0.980  -3.868   6.189  1.00  0.00     0.049 A 
ATOM     34  N   UNL     1       0.274  -4.025   8.791  1.00  0.00    -0.248 NA
ATOM     35  C   UNL     1       2.393  -3.890   7.934  1.00  0.00     0.031 C 
ATOM     36  C   UNL     1      -1.929  -3.346   7.175  1.00  0.00     0.029 A 
ATOM     37  N   UNL     1      -1.802  -4.325   5.143  1.00  0.00    -0.354 N 
ATOM     38  C   UNL     1       1.112  -3.694   9.827  1.00  0.00     0.074 A 
ATOM     39  C   UNL     1       2.433  -3.738   9.260  1.00  0.00     0.031 C 
ATOM     40  C   UNL     1      -3.165  -3.757   6.858  1.00  0.00     0.029 A 
ATOM     41  C   UNL     1      -3.037  -4.674   5.743  1.00  0.00     0.049 A 
ATOM     42  H   UNL     1      -1.568  -4.390   4.189  1.00  0.00     0.167 HD
ATOM     43  C   UNL     1       0.556  -3.299  11.004  1.00  0.00     0.037 A 
ATOM     44  C   UNL     1      -3.510  -5.954   5.735  1.00  0.00     0.037 A 
ATOM     45  C   UNL     1      -0.850  -3.712  11.064  1.00  0.00     0.049 A 
ATOM     46  C   UNL     1      -3.717  -6.550   7.110  1.00  0.00     0.074 A 
ATOM     47  C   UNL     1      -2.059  -3.044  10.984  1.00  0.00     0.029 A 
ATOM     48  N   UNL     1      -1.146  -5.070  10.960  1.00  0.00    -0.354 N 
ATOM     49  N   UNL     1      -3.228  -6.038   8.206  1.00  0.00    -0.248 NA
ATOM     50  C   UNL     1      -4.456  -7.785   7.358  1.00  0.00     0.031 C 
ATOM     51  C   UNL     1      -3.075  -4.010  10.739  1.00  0.00     0.029 A 
ATOM     52  C   UNL     1      -2.489  -5.265  10.710  1.00  0.00     0.049 A 
ATOM     53  H   UNL     1      -0.486  -5.794  11.053  1.00  0.00     0.167 HD
ATOM     54  C   UNL     1      -3.506  -6.863   9.266  1.00  0.00     0.074 A 
ATOM     55  C   UNL     1      -4.310  -7.923   8.688  1.00  0.00     0.031 C 
ATOM     56  C   UNL     1      -3.018  -6.612  10.518  1.00  0.00     0.037 A 
BRANCH  43  57
ATOM     57  C   UNL     1       1.214  -2.380  12.018  1.00  0.00     0.057 A 
ATOM     58  C   UNL     1       0.485  -1.924  13.136  1.00  0.00     0.134 A 
ATOM     59  C   UNL     1       2.492  -1.792  11.900  1.00  0.00     0.134 A 
ATOM     60  F   UNL     1      -0.749  -2.377  13.401  1.00  0.00    -0.206 F 
ATOM     61  C   UNL     1       0.971  -0.956  14.030  1.00  0.00     0.040 A 
ATOM     62  C   UNL     1       3.004  -0.853  12.808  1.00  0.00     0.040 A 
ATOM     63  F   UNL     1       3.316  -2.042  10.880  1.00  0.00    -0.206 F 
ATOM     64  C   UNL     1       2.237  -0.417  13.871  1.00  0.00     0.006 A 
ENDBRANCH  43  57
BRANCH  44  65
ATOM     65  C   UNL     1      -3.126  -6.709   4.516  1.00  0.00     0.057 A 
ATOM     66  C   UNL     1      -3.659  -6.295   3.282  1.00  0.00     0.134 A 
ATOM     67  C   UNL     1      -1.987  -7.517   4.480  1.00  0.00     0.134 A 
ATOM     68  F   UNL     1      -4.757  -5.523   3.248  1.00  0.00    -0.206 F 
ATOM     69  C   UNL     1      -3.014  -6.563   2.073  1.00  0.00     0.040 A 
ATOM     70  C   UNL     1      -1.339  -7.803   3.272  1.00  0.00     0.040 A 
ATOM     71  F   UNL     1      -1.407  -7.929   5.617  1.00  0.00    -0.206 F 
ATOM     72  C   UNL     1      -1.827  -7.289   2.070  1.00  0.00     0.006 A 
ENDBRANCH  44  65
BRANCH  56  73
ATOM     73  C   UNL     1      -3.024  -7.571  11.691  1.00  0.00     0.057 A 
ATOM     74  C   UNL     1      -3.063  -8.970  11.581  1.00  0.00     0.134 A 
ATOM     75  C   UNL     1      -2.834  -7.088  13.007  1.00  0.00     0.134 A 
ATOM     76  F   UNL     1      -3.119  -9.583  10.392  1.00  0.00    -0.206 F 
ATOM     77  C   UNL     1      -2.982  -9.819  12.696  1.00  0.00     0.040 A 
ATOM     78  C   UNL     1      -2.693  -7.927  14.118  1.00  0.00     0.040 A 
ATOM     79  F   UNL     1      -2.749  -5.776  13.272  1.00  0.00    -0.206 F 
ATOM     80  C   UNL     1      -2.783  -9.300  13.968  1.00  0.00     0.006 A 
ENDBRANCH  56  73
ENDBRANCH  30  31
ENDBRANCH  22  25
ENDBRANCH  20  21
ENDBRANCH   1  20
TORSDOF 11
