REMARK SMILES CO[C@@H]1C[C@@H](C(=O)NCCCNC(=O)c2ccc(-c3c4nc(c(-c5c(F)cccc5F)c5ccc([nH]5)c(-c5c(F)cccc5F)c5nc(c(-c6c(F)cccc6F)c6ccc3[nH]6)C=C5)C=C4)cc2)N(C(=O)c2nc(C(C)C)n[nH]2)C1
REMARK SMILES IDX 9 1 8 2 6 3 7 4 5 6 3 7 4 8 80 9 69 10 2 11 1 12 70 13 71 14
REMARK SMILES IDX 72 15 73 16 79 17 74 18 78 19 75 21 76 22 77 23 10 24 11 25
REMARK SMILES IDX 12 26 13 27 14 29 15 30 16 31 68 32 17 33 67 34 18 35 19 36
REMARK SMILES IDX 20 37 61 38 21 39 66 40 60 41 62 42 22 43 65 44 59 45 58 46
REMARK SMILES IDX 23 48 49 49 32 50 48 51 33 52 36 53 47 54 63 55 34 56 35 57
REMARK SMILES IDX 46 59 64 60 37 61 24 62 25 63 30 64 26 65 27 66 29 67 31 68
REMARK SMILES IDX 28 69 50 70 51 71 56 72 52 73 53 74 55 75 57 76 54 77 38 78
REMARK SMILES IDX 39 79 44 80 40 81 41 82 43 83 45 84 42 85
REMARK H PARENT 8 5 79 20 12 28 62 47 36 58
REMARK Flexibility Score: inf
ROOT
ATOM      1  C   UNL     1       4.433   0.837   0.278  1.00  0.00     0.117 C 
ENDROOT
BRANCH   1   2
ATOM      2  N   UNL     1       4.494  -0.165  -0.762  1.00  0.00    -0.354 N 
ATOM      3  C   UNL     1       3.763  -1.250  -1.095  1.00  0.00     0.242 C 
ATOM      4  O   UNL     1       4.209  -1.812  -2.096  1.00  0.00    -0.273 OA
ATOM      5  H   UNL     1       5.252  -0.022  -1.374  1.00  0.00     0.163 HD
BRANCH   3   6
ATOM      6  C   UNL     1       2.406  -1.662  -0.471  1.00  0.00     0.177 C 
ATOM      7  C   UNL     1       0.974  -1.962   1.474  1.00  0.00     0.139 C 
ATOM      8  C   UNL     1       2.271  -1.306   1.021  1.00  0.00     0.069 C 
ATOM      9  C   UNL     1       0.863  -3.191   0.583  1.00  0.00     0.153 C 
ATOM     10  N   UNL     1       1.919  -3.073  -0.429  1.00  0.00    -0.321 N 
BRANCH   7  11
ATOM     11  O   UNL     1      -0.160  -1.093   1.473  1.00  0.00    -0.380 OA
ATOM     12  C   UNL     1      -0.404  -0.294   0.326  1.00  0.00     0.195 C 
ENDBRANCH   7  11
BRANCH  10  13
ATOM     13  C   UNL     1       1.976  -4.137  -1.338  1.00  0.00     0.291 C 
ATOM     14  O   UNL     1       1.227  -5.105  -1.168  1.00  0.00    -0.265 OA
BRANCH  13  15
ATOM     15  C   UNL     1       2.962  -4.172  -2.381  1.00  0.00     0.214 A 
ATOM     16  N   UNL     1       2.705  -4.148  -3.674  1.00  0.00    -0.207 NA
ATOM     17  N   UNL     1       4.289  -4.447  -2.206  1.00  0.00    -0.255 N 
ATOM     18  C   UNL     1       3.939  -4.341  -4.245  1.00  0.00     0.153 A 
ATOM     19  N   UNL     1       4.934  -4.571  -3.378  1.00  0.00    -0.158 NA
ATOM     20  H   UNL     1       4.721  -4.542  -1.326  1.00  0.00     0.192 HD
BRANCH  18  21
ATOM     21  C   UNL     1       4.144  -4.350  -5.723  1.00  0.00     0.053 C 
ATOM     22  C   UNL     1       4.003  -5.767  -6.276  1.00  0.00     0.016 C 
ATOM     23  C   UNL     1       3.180  -3.397  -6.432  1.00  0.00     0.016 C 
ENDBRANCH  18  21
ENDBRANCH  13  15
ENDBRANCH  10  13
ENDBRANCH   3   6
ENDBRANCH   1   2
BRANCH   1  24
ATOM     24  C   UNL     1       5.265   0.430   1.490  1.00  0.00     0.042 C 
BRANCH  24  25
ATOM     25  C   UNL     1       6.761   0.325   1.188  1.00  0.00     0.118 C 
BRANCH  25  26
ATOM     26  N   UNL     1       7.314   1.589   0.729  1.00  0.00    -0.352 N 
ATOM     27  C   UNL     1       8.312   2.358   1.258  1.00  0.00     0.251 C 
ATOM     28  H   UNL     1       6.905   1.947  -0.092  1.00  0.00     0.163 HD
ATOM     29  O   UNL     1       8.447   3.521   0.866  1.00  0.00    -0.269 OA
BRANCH  27  30
ATOM     30  C   UNL     1       9.229   1.819   2.280  1.00  0.00     0.039 A 
ATOM     31  C   UNL     1       9.657   2.664   3.306  1.00  0.00     0.014 A 
ATOM     32  C   UNL     1       9.725   0.513   2.193  1.00  0.00     0.014 A 
ATOM     33  C   UNL     1      10.558   2.192   4.260  1.00  0.00     0.010 A 
ATOM     34  C   UNL     1      10.568   0.021   3.186  1.00  0.00     0.010 A 
ATOM     35  C   UNL     1      11.006   0.862   4.219  1.00  0.00    -0.014 A 
BRANCH  35  36
ATOM     36  C   UNL     1      11.948   0.356   5.246  1.00  0.00     0.031 A 
ATOM     37  C   UNL     1      13.350  -0.035   4.865  1.00  0.00     0.074 A 
ATOM     38  C   UNL     1      11.529   0.238   6.520  1.00  0.00     0.049 A 
ATOM     39  N   UNL     1      14.317  -0.481   5.627  1.00  0.00    -0.248 NA
ATOM     40  C   UNL     1      13.707   0.065   3.441  1.00  0.00     0.031 C 
ATOM     41  C   UNL     1      10.176   0.534   6.997  1.00  0.00     0.029 A 
ATOM     42  N   UNL     1      12.201  -0.153   7.649  1.00  0.00    -0.354 N 
ATOM     43  C   UNL     1      15.391  -0.713   4.777  1.00  0.00     0.074 A 
ATOM     44  C   UNL     1      14.941  -0.417   3.435  1.00  0.00     0.031 C 
ATOM     45  C   UNL     1      10.128   0.347   8.326  1.00  0.00     0.029 A 
ATOM     46  C   UNL     1      11.437  -0.101   8.789  1.00  0.00     0.049 A 
ATOM     47  H   UNL     1      13.142  -0.444   7.643  1.00  0.00     0.167 HD
ATOM     48  C   UNL     1      16.648  -1.108   5.091  1.00  0.00     0.037 A 
ATOM     49  C   UNL     1      11.762  -0.373  10.066  1.00  0.00     0.037 A 
ATOM     50  C   UNL     1      17.099  -1.382   6.430  1.00  0.00     0.049 A 
ATOM     51  C   UNL     1      13.172  -0.783  10.387  1.00  0.00     0.074 A 
ATOM     52  C   UNL     1      18.358  -1.767   6.858  1.00  0.00     0.029 A 
ATOM     53  N   UNL     1      16.303  -1.288   7.562  1.00  0.00    -0.354 N 
ATOM     54  N   UNL     1      14.191  -0.947   9.578  1.00  0.00    -0.248 NA
ATOM     55  C   UNL     1      13.481  -1.030  11.802  1.00  0.00     0.031 C 
ATOM     56  C   UNL     1      18.318  -1.927   8.247  1.00  0.00     0.029 A 
ATOM     57  C   UNL     1      17.044  -1.607   8.688  1.00  0.00     0.049 A 
ATOM     58  H   UNL     1      15.353  -1.032   7.565  1.00  0.00     0.167 HD
ATOM     59  C   UNL     1      15.266  -1.289  10.387  1.00  0.00     0.074 A 
ATOM     60  C   UNL     1      14.780  -1.285  11.752  1.00  0.00     0.031 C 
ATOM     61  C   UNL     1      16.540  -1.587  10.036  1.00  0.00     0.037 A 
BRANCH  48  62
ATOM     62  C   UNL     1      17.632  -1.244   3.966  1.00  0.00     0.057 A 
ATOM     63  C   UNL     1      18.157  -0.120   3.314  1.00  0.00     0.134 A 
ATOM     64  C   UNL     1      18.095  -2.501   3.559  1.00  0.00     0.134 A 
ATOM     65  F   UNL     1      17.744   1.113   3.647  1.00  0.00    -0.206 F 
ATOM     66  C   UNL     1      19.094  -0.241   2.287  1.00  0.00     0.040 A 
ATOM     67  C   UNL     1      19.049  -2.635   2.548  1.00  0.00     0.040 A 
ATOM     68  F   UNL     1      17.637  -3.618   4.143  1.00  0.00    -0.206 F 
ATOM     69  C   UNL     1      19.549  -1.502   1.907  1.00  0.00     0.006 A 
ENDBRANCH  48  62
BRANCH  49  70
ATOM     70  C   UNL     1      10.753  -0.230  11.144  1.00  0.00     0.057 A 
ATOM     71  C   UNL     1      10.855   0.791  12.097  1.00  0.00     0.134 A 
ATOM     72  C   UNL     1       9.684  -1.124  11.268  1.00  0.00     0.134 A 
ATOM     73  F   UNL     1      11.867   1.669  12.039  1.00  0.00    -0.206 F 
ATOM     74  C   UNL     1       9.949   0.899  13.153  1.00  0.00     0.040 A 
ATOM     75  C   UNL     1       8.755  -1.012  12.305  1.00  0.00     0.040 A 
ATOM     76  F   UNL     1       9.524  -2.117  10.381  1.00  0.00    -0.206 F 
ATOM     77  C   UNL     1       8.894  -0.005  13.258  1.00  0.00     0.006 A 
ENDBRANCH  49  70
BRANCH  61  78
ATOM     78  C   UNL     1      17.493  -1.897  11.151  1.00  0.00     0.057 A 
ATOM     79  C   UNL     1      17.419  -3.096  11.872  1.00  0.00     0.134 A 
ATOM     80  C   UNL     1      18.493  -0.985  11.508  1.00  0.00     0.134 A 
ATOM     81  F   UNL     1      16.473  -4.003  11.587  1.00  0.00    -0.206 F 
ATOM     82  C   UNL     1      18.286  -3.361  12.933  1.00  0.00     0.040 A 
ATOM     83  C   UNL     1      19.382  -1.250  12.550  1.00  0.00     0.040 A 
ATOM     84  F   UNL     1      18.622   0.178  10.851  1.00  0.00    -0.206 F 
ATOM     85  C   UNL     1      19.273  -2.437  13.272  1.00  0.00     0.006 A 
ENDBRANCH  61  78
ENDBRANCH  35  36
ENDBRANCH  27  30
ENDBRANCH  25  26
ENDBRANCH  24  25
ENDBRANCH   1  24
TORSDOF 14
