REMARK SMILES O=C(CCc1ccccc1)Nc1ccccc1Oc1ccsc1C(=O)NCCCNC(=O)c1ccc(-c2c3nc(c(-c4c(F)cccc4F)c4ccc([nH]4)c(-c4c(F)cccc4F)c4nc(c(-c5c(F)cccc5F)c5ccc2[nH]5)C=C4)C=C3)cc1
REMARK SMILES IDX 24 1 25 2 26 3 23 5 19 6 20 7 21 8 22 9 18 10 17 11 12 12
REMARK SMILES IDX 13 13 14 14 16 15 15 16 11 17 1 18 2 19 3 21 4 22 5 23 6 24
REMARK SMILES IDX 10 25 7 26 9 27 8 28 27 29 28 30 29 31 30 32 31 33 32 35
REMARK SMILES IDX 33 36 34 37 86 38 35 39 85 40 36 41 37 42 38 43 79 44 39 45
REMARK SMILES IDX 84 46 78 47 80 48 40 49 83 50 77 51 76 52 41 54 67 55 50 56
REMARK SMILES IDX 66 57 51 58 54 59 65 60 81 61 52 62 53 63 64 65 82 66 55 67
REMARK SMILES IDX 42 68 43 69 48 70 44 71 45 72 47 73 49 74 46 75 68 76 69 77
REMARK SMILES IDX 74 78 70 79 71 80 73 81 75 82 72 83 56 84 57 85 62 86 58 87
REMARK SMILES IDX 59 88 61 89 63 90 60 91
REMARK H PARENT 26 4 11 20 30 34 80 53 54 64
REMARK Flexibility Score: inf
ROOT
ATOM      1  C   UNL     1      -1.086  -0.707  -1.276  1.00  0.00     0.265 C 
ATOM      2  O   UNL     1      -1.791  -0.216  -2.169  1.00  0.00    -0.268 OA
ATOM      3  N   UNL     1      -1.723  -0.748  -0.050  1.00  0.00    -0.351 N 
ATOM      4  H   UNL     1      -2.648  -0.413  -0.029  1.00  0.00     0.163 HD
ENDROOT
BRANCH   1   5
ATOM      5  C   UNL     1       0.291  -1.185  -1.526  1.00  0.00     0.135 A 
ATOM      6  C   UNL     1       1.256  -1.940  -0.853  1.00  0.00     0.151 A 
ATOM      7  C   UNL     1       2.452  -2.147  -1.608  1.00  0.00     0.059 A 
ATOM      8  C   UNL     1       2.413  -1.524  -2.829  1.00  0.00     0.069 A 
ATOM      9  S   UNL     1       0.944  -0.704  -3.076  1.00  0.00    -0.135 S 
BRANCH   6  10
ATOM     10  O   UNL     1       1.040  -2.601   0.301  1.00  0.00    -0.453 OA
BRANCH  10  11
ATOM     11  C   UNL     1       1.615  -2.340   1.532  1.00  0.00     0.151 A 
ATOM     12  C   UNL     1       2.400  -1.260   1.973  1.00  0.00     0.084 A 
ATOM     13  C   UNL     1       2.770  -1.199   3.332  1.00  0.00     0.030 A 
ATOM     14  C   UNL     1       2.309  -2.135   4.259  1.00  0.00     0.002 A 
ATOM     15  C   UNL     1       1.197  -3.299   2.480  1.00  0.00     0.049 A 
ATOM     16  C   UNL     1       1.520  -3.190   3.831  1.00  0.00     0.004 A 
BRANCH  12  17
ATOM     17  N   UNL     1       2.946  -0.233   1.182  1.00  0.00    -0.323 N 
ATOM     18  O   UNL     1       1.097   0.991   0.553  1.00  0.00    -0.275 OA
ATOM     19  C   UNL     1       2.277   0.686   0.406  1.00  0.00     0.224 C 
ATOM     20  H   UNL     1       3.928  -0.163   1.184  1.00  0.00     0.170 HD
BRANCH  19  21
ATOM     21  C   UNL     1       3.124   1.302  -0.709  1.00  0.00     0.105 C 
BRANCH  21  22
ATOM     22  C   UNL     1       4.287   2.216  -0.320  1.00  0.00     0.045 C 
BRANCH  22  23
ATOM     23  C   UNL     1       5.353   1.602   0.558  1.00  0.00    -0.048 A 
ATOM     24  C   UNL     1       5.819   0.290   0.369  1.00  0.00     0.004 A 
ATOM     25  C   UNL     1       5.841   2.339   1.645  1.00  0.00     0.004 A 
ATOM     26  C   UNL     1       6.612  -0.322   1.341  1.00  0.00     0.000 A 
ATOM     27  C   UNL     1       6.673   1.740   2.590  1.00  0.00     0.000 A 
ATOM     28  C   UNL     1       7.027   0.399   2.458  1.00  0.00     0.000 A 
ENDBRANCH  22  23
ENDBRANCH  21  22
ENDBRANCH  19  21
ENDBRANCH  12  17
ENDBRANCH  10  11
ENDBRANCH   6  10
ENDBRANCH   1   5
BRANCH   3  29
ATOM     29  C   UNL     1      -1.194  -1.218   1.190  1.00  0.00     0.118 C 
BRANCH  29  30
ATOM     30  C   UNL     1      -1.690  -0.604   2.477  1.00  0.00     0.042 C 
BRANCH  30  31
ATOM     31  C   UNL     1      -3.147  -0.849   2.785  1.00  0.00     0.118 C 
BRANCH  31  32
ATOM     32  N   UNL     1      -3.484  -2.256   2.961  1.00  0.00    -0.352 N 
ATOM     33  C   UNL     1      -3.724  -3.027   4.072  1.00  0.00     0.251 C 
ATOM     34  H   UNL     1      -3.555  -2.754   2.114  1.00  0.00     0.163 HD
ATOM     35  O   UNL     1      -3.867  -4.244   3.927  1.00  0.00    -0.269 OA
BRANCH  33  36
ATOM     36  C   UNL     1      -3.773  -2.455   5.439  1.00  0.00     0.039 A 
ATOM     37  C   UNL     1      -3.361  -3.246   6.519  1.00  0.00     0.014 A 
ATOM     38  C   UNL     1      -4.240  -1.168   5.689  1.00  0.00     0.014 A 
ATOM     39  C   UNL     1      -3.339  -2.714   7.813  1.00  0.00     0.010 A 
ATOM     40  C   UNL     1      -4.073  -0.591   6.943  1.00  0.00     0.010 A 
ATOM     41  C   UNL     1      -3.642  -1.361   8.028  1.00  0.00    -0.014 A 
BRANCH  41  42
ATOM     42  C   UNL     1      -3.552  -0.737   9.375  1.00  0.00     0.031 A 
ATOM     43  C   UNL     1      -4.761  -0.077   9.988  1.00  0.00     0.074 A 
ATOM     44  C   UNL     1      -2.367  -0.698  10.016  1.00  0.00     0.049 A 
ATOM     45  N   UNL     1      -4.861   0.590  11.111  1.00  0.00    -0.248 NA
ATOM     46  C   UNL     1      -6.017  -0.141   9.222  1.00  0.00     0.031 C 
ATOM     47  C   UNL     1      -1.106  -1.242   9.506  1.00  0.00     0.029 A 
ATOM     48  N   UNL     1      -2.026  -0.169  11.236  1.00  0.00    -0.354 N 
ATOM     49  C   UNL     1      -6.175   1.041  11.168  1.00  0.00     0.074 A 
ATOM     50  C   UNL     1      -6.816   0.635   9.937  1.00  0.00     0.031 C 
ATOM     51  C   UNL     1      -0.142  -1.054  10.420  1.00  0.00     0.029 A 
ATOM     52  C   UNL     1      -0.701  -0.335  11.559  1.00  0.00     0.049 A 
ATOM     53  H   UNL     1      -2.671   0.287  11.825  1.00  0.00     0.167 HD
ATOM     54  C   UNL     1      -6.804   1.703  12.167  1.00  0.00     0.037 A 
ATOM     55  C   UNL     1      -0.011   0.055  12.648  1.00  0.00     0.037 A 
ATOM     56  C   UNL     1      -6.175   2.074  13.406  1.00  0.00     0.049 A 
ATOM     57  C   UNL     1      -0.732   0.788  13.746  1.00  0.00     0.074 A 
ATOM     58  C   UNL     1      -6.740   2.685  14.511  1.00  0.00     0.029 A 
ATOM     59  N   UNL     1      -4.836   1.869  13.702  1.00  0.00    -0.354 N 
ATOM     60  N   UNL     1      -1.994   1.138  13.818  1.00  0.00    -0.248 NA
ATOM     61  C   UNL     1       0.067   1.175  14.917  1.00  0.00     0.031 C 
ATOM     62  C   UNL     1      -5.731   2.897  15.456  1.00  0.00     0.029 A 
ATOM     63  C   UNL     1      -4.550   2.365  14.963  1.00  0.00     0.049 A 
ATOM     64  H   UNL     1      -4.184   1.435  13.105  1.00  0.00     0.167 HD
ATOM     65  C   UNL     1      -2.146   1.760  15.051  1.00  0.00     0.074 A 
ATOM     66  C   UNL     1      -0.852   1.721  15.700  1.00  0.00     0.031 C 
ATOM     67  C   UNL     1      -3.257   2.314  15.596  1.00  0.00     0.037 A 
BRANCH  54  68
ATOM     68  C   UNL     1      -8.250   2.059  11.963  1.00  0.00     0.057 A 
ATOM     69  C   UNL     1      -9.255   1.082  11.914  1.00  0.00     0.134 A 
ATOM     70  C   UNL     1      -8.648   3.396  11.842  1.00  0.00     0.134 A 
ATOM     71  F   UNL     1      -8.944  -0.220  12.011  1.00  0.00    -0.206 F 
ATOM     72  C   UNL     1     -10.596   1.420  11.720  1.00  0.00     0.040 A 
ATOM     73  C   UNL     1      -9.990   3.748  11.680  1.00  0.00     0.040 A 
ATOM     74  F   UNL     1      -7.742   4.384  11.886  1.00  0.00    -0.206 F 
ATOM     75  C   UNL     1     -10.967   2.758  11.610  1.00  0.00     0.006 A 
ENDBRANCH  54  68
BRANCH  55  76
ATOM     76  C   UNL     1       1.435  -0.262  12.768  1.00  0.00     0.057 A 
ATOM     77  C   UNL     1       1.897  -1.182  13.717  1.00  0.00     0.134 A 
ATOM     78  C   UNL     1       2.392   0.351  11.950  1.00  0.00     0.134 A 
ATOM     79  F   UNL     1       1.032  -1.790  14.543  1.00  0.00    -0.206 F 
ATOM     80  C   UNL     1       3.256  -1.464  13.865  1.00  0.00     0.040 A 
ATOM     81  C   UNL     1       3.751   0.058  12.066  1.00  0.00     0.040 A 
ATOM     82  F   UNL     1       2.016   1.234  11.013  1.00  0.00    -0.206 F 
ATOM     83  C   UNL     1       4.188  -0.846  13.034  1.00  0.00     0.006 A 
ENDBRANCH  55  76
BRANCH  67  84
ATOM     84  C   UNL     1      -3.129   2.893  16.976  1.00  0.00     0.057 A 
ATOM     85  C   UNL     1      -2.414   4.072  17.222  1.00  0.00     0.134 A 
ATOM     86  C   UNL     1      -3.760   2.280  18.066  1.00  0.00     0.134 A 
ATOM     87  F   UNL     1      -1.776   4.702  16.224  1.00  0.00    -0.206 F 
ATOM     88  C   UNL     1      -2.309   4.606  18.507  1.00  0.00     0.040 A 
ATOM     89  C   UNL     1      -3.689   2.821  19.350  1.00  0.00     0.040 A 
ATOM     90  F   UNL     1      -4.470   1.153  17.898  1.00  0.00    -0.206 F 
ATOM     91  C   UNL     1      -2.955   3.983  19.574  1.00  0.00     0.006 A 
ENDBRANCH  67  84
ENDBRANCH  41  42
ENDBRANCH  33  36
ENDBRANCH  31  32
ENDBRANCH  30  31
ENDBRANCH  29  30
ENDBRANCH   3  29
TORSDOF 16
