REMARK SMILES O=C(NC[C@@H]1CC[C@@H](C(=O)NCCCNC(=O)c2ccc(-c3c4nc(c(-c5c(F)cccc5F)c5ccc([nH]5)c(-c5c(F)cccc5F)c5nc(c(-c6c(F)cccc6F)c6ccc3[nH]6)C=C5)C=C4)cc2)O1)NC1CC1
REMARK SMILES IDX 12 1 11 2 9 3 10 4 8 6 5 7 6 8 72 9 7 10 4 11 3 12 1 13 2 14
REMARK SMILES IDX 73 15 74 18 75 19 76 20 13 21 14 22 15 23 16 24 17 26 18 27
REMARK SMILES IDX 19 28 71 29 20 30 70 31 21 32 22 33 23 34 64 35 24 36 69 37
REMARK SMILES IDX 63 38 65 39 25 40 68 41 62 42 61 43 26 45 52 46 35 47 51 48
REMARK SMILES IDX 36 49 39 50 50 51 66 52 37 53 38 54 49 56 67 57 40 58 27 59
REMARK SMILES IDX 28 60 33 61 29 62 30 63 32 64 34 65 31 66 53 67 54 68 59 69
REMARK SMILES IDX 55 70 56 71 58 72 60 73 57 74 41 75 42 76 47 77 43 78 44 79
REMARK SMILES IDX 46 80 48 81 45 82
REMARK H PARENT 11 5 3 16 73 17 15 25 65 44 39 55
REMARK Flexibility Score: inf
ROOT
ATOM      1  C   UNL     1       4.506  -6.249  -0.703  1.00  0.00     0.117 C 
ENDROOT
BRANCH   1   2
ATOM      2  N   UNL     1       5.723  -5.597  -1.152  1.00  0.00    -0.354 N 
ATOM      3  C   UNL     1       5.938  -4.309  -1.548  1.00  0.00     0.249 C 
ATOM      4  O   UNL     1       7.093  -3.984  -1.838  1.00  0.00    -0.272 OA
ATOM      5  H   UNL     1       6.520  -6.175  -1.173  1.00  0.00     0.163 HD
BRANCH   3   6
ATOM      6  C   UNL     1       4.765  -3.324  -1.659  1.00  0.00     0.207 C 
ATOM      7  C   UNL     1       4.977  -1.033  -2.026  1.00  0.00     0.138 C 
ATOM      8  C   UNL     1       4.079  -1.590  -3.120  1.00  0.00     0.037 C 
ATOM      9  O   UNL     1       5.058  -2.064  -1.028  1.00  0.00    -0.363 OA
ATOM     10  C   UNL     1       4.469  -3.045  -3.129  1.00  0.00     0.045 C 
BRANCH   7  11
ATOM     11  C   UNL     1       4.514   0.290  -1.399  1.00  0.00     0.149 C 
BRANCH  11  12
ATOM     12  N   UNL     1       3.075   0.349  -1.179  1.00  0.00    -0.336 N 
ATOM     13  O   UNL     1       1.089   0.224  -0.226  1.00  0.00    -0.249 OA
ATOM     14  C   UNL     1       2.307   0.148  -0.081  1.00  0.00     0.315 C 
ATOM     15  N   UNL     1       2.950  -0.093   1.095  1.00  0.00    -0.335 N 
ATOM     16  H   UNL     1       2.560   0.580  -1.985  1.00  0.00     0.165 HD
ATOM     17  H   UNL     1       3.923  -0.237   1.046  1.00  0.00     0.165 HD
BRANCH  15  18
ATOM     18  C   UNL     1       2.353  -0.156   2.399  1.00  0.00     0.084 C 
ATOM     19  C   UNL     1       1.012   0.426   2.754  1.00  0.00     0.027 C 
ATOM     20  C   UNL     1       1.194  -1.064   2.702  1.00  0.00     0.027 C 
ENDBRANCH  15  18
ENDBRANCH  11  12
ENDBRANCH   7  11
ENDBRANCH   3   6
ENDBRANCH   1   2
BRANCH   1  21
ATOM     21  C   UNL     1       4.087  -7.389  -1.622  1.00  0.00     0.042 C 
BRANCH  21  22
ATOM     22  C   UNL     1       5.084  -8.542  -1.694  1.00  0.00     0.118 C 
BRANCH  22  23
ATOM     23  N   UNL     1       5.286  -9.203  -0.411  1.00  0.00    -0.352 N 
ATOM     24  C   UNL     1       5.132 -10.519  -0.056  1.00  0.00     0.251 C 
ATOM     25  H   UNL     1       5.581  -8.610   0.317  1.00  0.00     0.163 HD
ATOM     26  O   UNL     1       5.212 -10.839   1.130  1.00  0.00    -0.269 OA
BRANCH  24  27
ATOM     27  C   UNL     1       4.844 -11.552  -1.074  1.00  0.00     0.039 A 
ATOM     28  C   UNL     1       3.902 -12.542  -0.778  1.00  0.00     0.014 A 
ATOM     29  C   UNL     1       5.505 -11.566  -2.304  1.00  0.00     0.014 A 
ATOM     30  C   UNL     1       3.570 -13.497  -1.741  1.00  0.00     0.010 A 
ATOM     31  C   UNL     1       5.113 -12.466  -3.293  1.00  0.00     0.010 A 
ATOM     32  C   UNL     1       4.141 -13.441  -3.023  1.00  0.00    -0.014 A 
BRANCH  32  33
ATOM     33  C   UNL     1       3.721 -14.381  -4.095  1.00  0.00     0.031 A 
ATOM     34  C   UNL     1       4.710 -15.336  -4.703  1.00  0.00     0.074 A 
ATOM     35  C   UNL     1       2.464 -14.321  -4.576  1.00  0.00     0.049 A 
ATOM     36  N   UNL     1       4.545 -16.177  -5.693  1.00  0.00    -0.248 NA
ATOM     37  C   UNL     1       6.070 -15.326  -4.144  1.00  0.00     0.031 C 
ATOM     38  C   UNL     1       1.424 -13.402  -4.110  1.00  0.00     0.029 A 
ATOM     39  N   UNL     1       1.852 -15.036  -5.575  1.00  0.00    -0.354 N 
ATOM     40  C   UNL     1       5.782 -16.780  -5.887  1.00  0.00     0.074 A 
ATOM     41  C   UNL     1       6.698 -16.171  -4.947  1.00  0.00     0.031 C 
ATOM     42  C   UNL     1       0.299 -13.622  -4.808  1.00  0.00     0.029 A 
ATOM     43  C   UNL     1       0.549 -14.664  -5.799  1.00  0.00     0.049 A 
ATOM     44  H   UNL     1       2.304 -15.748  -6.082  1.00  0.00     0.167 HD
ATOM     45  C   UNL     1       6.119 -17.764  -6.755  1.00  0.00     0.037 A 
ATOM     46  C   UNL     1      -0.343 -15.102  -6.708  1.00  0.00     0.037 A 
ATOM     47  C   UNL     1       5.200 -18.380  -7.677  1.00  0.00     0.049 A 
ATOM     48  C   UNL     1       0.053 -16.191  -7.665  1.00  0.00     0.074 A 
ATOM     49  C   UNL     1       5.426 -19.436  -8.543  1.00  0.00     0.029 A 
ATOM     50  N   UNL     1       3.882 -17.989  -7.861  1.00  0.00    -0.354 N 
ATOM     51  N   UNL     1       1.203 -16.809  -7.782  1.00  0.00    -0.248 NA
ATOM     52  C   UNL     1      -0.974 -16.648  -8.611  1.00  0.00     0.031 C 
ATOM     53  C   UNL     1       4.264 -19.643  -9.294  1.00  0.00     0.029 A 
ATOM     54  C   UNL     1       3.293 -18.759  -8.852  1.00  0.00     0.049 A 
ATOM     55  H   UNL     1       3.431 -17.270  -7.362  1.00  0.00     0.167 HD
ATOM     56  C   UNL     1       1.032 -17.743  -8.796  1.00  0.00     0.074 A 
ATOM     57  C   UNL     1      -0.338 -17.620  -9.250  1.00  0.00     0.031 C 
ATOM     58  C   UNL     1       1.929 -18.625  -9.301  1.00  0.00     0.037 A 
BRANCH  45  59
ATOM     59  C   UNL     1       7.549 -18.226  -6.755  1.00  0.00     0.057 A 
ATOM     60  C   UNL     1       8.106 -18.926  -5.676  1.00  0.00     0.134 A 
ATOM     61  C   UNL     1       8.376 -17.983  -7.860  1.00  0.00     0.134 A 
ATOM     62  F   UNL     1       7.373 -19.184  -4.582  1.00  0.00    -0.206 F 
ATOM     63  C   UNL     1       9.441 -19.334  -5.680  1.00  0.00     0.040 A 
ATOM     64  C   UNL     1       9.703 -18.415  -7.889  1.00  0.00     0.040 A 
ATOM     65  F   UNL     1       7.907 -17.327  -8.932  1.00  0.00    -0.206 F 
ATOM     66  C   UNL     1      10.242 -19.083  -6.792  1.00  0.00     0.006 A 
ENDBRANCH  45  59
BRANCH  46  67
ATOM     67  C   UNL     1      -1.706 -14.514  -6.741  1.00  0.00     0.057 A 
ATOM     68  C   UNL     1      -2.822 -15.250  -6.329  1.00  0.00     0.134 A 
ATOM     69  C   UNL     1      -1.923 -13.197  -7.167  1.00  0.00     0.134 A 
ATOM     70  F   UNL     1      -2.681 -16.522  -5.927  1.00  0.00    -0.206 F 
ATOM     71  C   UNL     1      -4.107 -14.704  -6.350  1.00  0.00     0.040 A 
ATOM     72  C   UNL     1      -3.198 -12.630  -7.169  1.00  0.00     0.040 A 
ATOM     73  F   UNL     1      -0.893 -12.436  -7.565  1.00  0.00    -0.206 F 
ATOM     74  C   UNL     1      -4.295 -13.387  -6.764  1.00  0.00     0.006 A 
ENDBRANCH  46  67
BRANCH  58  75
ATOM     75  C   UNL     1       1.452 -19.549 -10.386  1.00  0.00     0.057 A 
ATOM     76  C   UNL     1       1.179 -19.093 -11.682  1.00  0.00     0.134 A 
ATOM     77  C   UNL     1       1.306 -20.920 -10.139  1.00  0.00     0.134 A 
ATOM     78  F   UNL     1       1.286 -17.790 -11.982  1.00  0.00    -0.206 F 
ATOM     79  C   UNL     1       0.755 -19.965 -12.687  1.00  0.00     0.040 A 
ATOM     80  C   UNL     1       0.911 -21.805 -11.144  1.00  0.00     0.040 A 
ATOM     81  F   UNL     1       1.560 -21.425  -8.923  1.00  0.00    -0.206 F 
ATOM     82  C   UNL     1       0.628 -21.327 -12.421  1.00  0.00     0.006 A 
ENDBRANCH  58  75
ENDBRANCH  32  33
ENDBRANCH  24  27
ENDBRANCH  22  23
ENDBRANCH  21  22
ENDBRANCH   1  21
TORSDOF 13
