REMARK SMILES O=C(NCCCNC(=O)c1ccccc1/C=C1\SC(=S)N(Cc2ccccc2)C1=O)c1ccc(-c2c3nc(c(-c4c(F)cccc4F)c4ccc([nH]4)c(-c4c(F)cccc4F)c4nc(c(-c5c(F)cccc5F)c5ccc2[nH]5)C=C4)C=C3)cc1
REMARK SMILES IDX 5 1 4 2 3 3 1 4 2 5 31 7 32 8 84 9 33 10 83 11 34 12 35 13
REMARK SMILES IDX 36 14 77 15 37 16 82 17 76 18 78 19 38 20 81 21 75 22 74 23
REMARK SMILES IDX 39 25 65 26 48 27 64 28 49 29 52 30 63 31 79 32 50 33 51 34
REMARK SMILES IDX 62 36 80 37 53 38 40 39 41 40 46 41 42 42 43 43 45 44 47 45
REMARK SMILES IDX 44 46 66 47 67 48 72 49 68 50 69 51 71 52 73 53 70 54 54 55
REMARK SMILES IDX 55 56 60 57 56 58 57 59 59 60 61 61 58 62 6 63 7 64 8 65
REMARK SMILES IDX 9 67 10 68 11 69 15 70 12 71 14 72 13 73 16 74 17 75 18 76
REMARK SMILES IDX 29 77 19 78 21 79 30 80 20 81 22 82 23 83 24 84 28 85 25 86
REMARK SMILES IDX 27 87 26 88
REMARK H PARENT 3 6 78 24 52 35 7 66
REMARK Flexibility Score: inf
ROOT
ATOM      1  C   UNL     1       5.318  -1.515   1.496  1.00  0.00     0.042 C 
ENDROOT
BRANCH   1   2
ATOM      2  C   UNL     1       4.728  -1.123   0.150  1.00  0.00     0.118 C 
BRANCH   2   3
ATOM      3  N   UNL     1       3.273  -1.015   0.146  1.00  0.00    -0.352 N 
ATOM      4  O   UNL     1       1.242  -0.036   0.045  1.00  0.00    -0.269 OA
ATOM      5  C   UNL     1       2.460   0.075  -0.063  1.00  0.00     0.251 C 
ATOM      6  H   UNL     1       2.796  -1.858   0.322  1.00  0.00     0.163 HD
BRANCH   5   7
ATOM      7  C   UNL     1       3.051   1.396  -0.369  1.00  0.00     0.039 A 
ATOM      8  C   UNL     1       4.099   1.519  -1.280  1.00  0.00     0.014 A 
ATOM      9  C   UNL     1       2.564   2.529   0.290  1.00  0.00     0.014 A 
ATOM     10  C   UNL     1       4.795   2.717  -1.370  1.00  0.00     0.010 A 
ATOM     11  C   UNL     1       3.190   3.765   0.104  1.00  0.00     0.010 A 
ATOM     12  C   UNL     1       4.343   3.859  -0.690  1.00  0.00    -0.014 A 
BRANCH  12  13
ATOM     13  C   UNL     1       5.070   5.142  -0.868  1.00  0.00     0.031 A 
ATOM     14  C   UNL     1       5.731   5.836   0.291  1.00  0.00     0.074 A 
ATOM     15  C   UNL     1       5.168   5.660  -2.109  1.00  0.00     0.049 A 
ATOM     16  N   UNL     1       6.410   6.956   0.300  1.00  0.00    -0.248 NA
ATOM     17  C   UNL     1       5.609   5.201   1.612  1.00  0.00     0.031 C 
ATOM     18  C   UNL     1       4.563   5.081  -3.312  1.00  0.00     0.029 A 
ATOM     19  N   UNL     1       5.827   6.769  -2.571  1.00  0.00    -0.354 N 
ATOM     20  C   UNL     1       6.771   7.175   1.624  1.00  0.00     0.074 A 
ATOM     21  C   UNL     1       6.221   6.080   2.395  1.00  0.00     0.031 C 
ATOM     22  C   UNL     1       4.928   5.804  -4.379  1.00  0.00     0.029 A 
ATOM     23  C   UNL     1       5.728   6.936  -3.930  1.00  0.00     0.049 A 
ATOM     24  H   UNL     1       6.323   7.385  -1.985  1.00  0.00     0.167 HD
ATOM     25  C   UNL     1       7.499   8.192   2.146  1.00  0.00     0.037 A 
ATOM     26  C   UNL     1       6.209   7.904  -4.730  1.00  0.00     0.037 A 
ATOM     27  C   UNL     1       8.068   9.265   1.370  1.00  0.00     0.049 A 
ATOM     28  C   UNL     1       7.001   9.023  -4.125  1.00  0.00     0.074 A 
ATOM     29  C   UNL     1       8.850  10.322   1.803  1.00  0.00     0.029 A 
ATOM     30  N   UNL     1       7.917   9.416  -0.001  1.00  0.00    -0.354 N 
ATOM     31  N   UNL     1       7.344   9.206  -2.873  1.00  0.00    -0.248 NA
ATOM     32  C   UNL     1       7.463  10.075  -5.039  1.00  0.00     0.031 C 
ATOM     33  C   UNL     1       9.139  11.134   0.701  1.00  0.00     0.029 A 
ATOM     34  C   UNL     1       8.573  10.560  -0.426  1.00  0.00     0.049 A 
ATOM     35  H   UNL     1       7.416   8.802  -0.585  1.00  0.00     0.167 HD
ATOM     36  C   UNL     1       8.069  10.388  -2.849  1.00  0.00     0.074 A 
ATOM     37  C   UNL     1       8.135  10.866  -4.215  1.00  0.00     0.031 C 
ATOM     38  C   UNL     1       8.625  11.023  -1.789  1.00  0.00     0.037 A 
BRANCH  25  39
ATOM     39  C   UNL     1       7.710   8.207   3.632  1.00  0.00     0.057 A 
ATOM     40  C   UNL     1       8.586   7.318   4.267  1.00  0.00     0.134 A 
ATOM     41  C   UNL     1       7.064   9.159   4.433  1.00  0.00     0.134 A 
ATOM     42  F   UNL     1       9.228   6.376   3.561  1.00  0.00    -0.206 F 
ATOM     43  C   UNL     1       8.798   7.363   5.647  1.00  0.00     0.040 A 
ATOM     44  C   UNL     1       7.284   9.228   5.809  1.00  0.00     0.040 A 
ATOM     45  F   UNL     1       6.217  10.045   3.887  1.00  0.00    -0.206 F 
ATOM     46  C   UNL     1       8.151   8.325   6.421  1.00  0.00     0.006 A 
ENDBRANCH  25  39
BRANCH  26  47
ATOM     47  C   UNL     1       5.939   7.852  -6.187  1.00  0.00     0.057 A 
ATOM     48  C   UNL     1       6.958   7.573  -7.103  1.00  0.00     0.134 A 
ATOM     49  C   UNL     1       4.648   8.051  -6.694  1.00  0.00     0.134 A 
ATOM     50  F   UNL     1       8.216   7.388  -6.677  1.00  0.00    -0.206 F 
ATOM     51  C   UNL     1       6.706   7.499  -8.473  1.00  0.00     0.040 A 
ATOM     52  C   UNL     1       4.377   7.954  -8.059  1.00  0.00     0.040 A 
ATOM     53  F   UNL     1       3.627   8.312  -5.864  1.00  0.00    -0.206 F 
ATOM     54  C   UNL     1       5.410   7.682  -8.953  1.00  0.00     0.006 A 
ENDBRANCH  26  47
BRANCH  38  55
ATOM     55  C   UNL     1       9.368  12.292  -2.076  1.00  0.00     0.057 A 
ATOM     56  C   UNL     1       8.698  13.482  -2.383  1.00  0.00     0.134 A 
ATOM     57  C   UNL     1      10.767  12.328  -2.025  1.00  0.00     0.134 A 
ATOM     58  F   UNL     1       7.359  13.508  -2.463  1.00  0.00    -0.206 F 
ATOM     59  C   UNL     1       9.395  14.661  -2.653  1.00  0.00     0.040 A 
ATOM     60  C   UNL     1      11.474  13.505  -2.271  1.00  0.00     0.040 A 
ATOM     61  F   UNL     1      11.466  11.221  -1.732  1.00  0.00    -0.206 F 
ATOM     62  C   UNL     1      10.787  14.675  -2.591  1.00  0.00     0.006 A 
ENDBRANCH  38  55
ENDBRANCH  12  13
ENDBRANCH   5   7
ENDBRANCH   2   3
ENDBRANCH   1   2
BRANCH   1  63
ATOM     63  C   UNL     1       4.956  -2.917   1.944  1.00  0.00     0.118 C 
BRANCH  63  64
ATOM     64  N   UNL     1       5.402  -3.948   1.020  1.00  0.00    -0.352 N 
ATOM     65  C   UNL     1       5.963  -5.173   1.279  1.00  0.00     0.251 C 
ATOM     66  H   UNL     1       5.283  -3.735   0.067  1.00  0.00     0.163 HD
ATOM     67  O   UNL     1       6.348  -5.866   0.341  1.00  0.00    -0.269 OA
BRANCH  65  68
ATOM     68  C   UNL     1       6.154  -5.650   2.667  1.00  0.00     0.047 A 
ATOM     69  C   UNL     1       7.472  -5.968   3.026  1.00  0.00     0.014 A 
ATOM     70  C   UNL     1       5.106  -5.797   3.598  1.00  0.00    -0.012 A 
ATOM     71  C   UNL     1       7.764  -6.375   4.325  1.00  0.00     0.001 A 
ATOM     72  C   UNL     1       5.420  -6.198   4.904  1.00  0.00     0.009 A 
ATOM     73  C   UNL     1       6.741  -6.482   5.264  1.00  0.00     0.001 A 
BRANCH  70  74
ATOM     74  C   UNL     1       3.722  -5.400   3.314  1.00  0.00     0.030 C 
ATOM     75  C   UNL     1       2.892  -5.886   2.383  1.00  0.00     0.081 C 
ATOM     76  S   UNL     1       3.025  -7.285   1.413  1.00  0.00    -0.054 SA
ATOM     77  C   UNL     1       1.708  -5.091   1.977  1.00  0.00     0.266 C 
ATOM     78  C   UNL     1       1.513  -6.944   0.563  1.00  0.00     0.148 C 
ATOM     79  N   UNL     1       0.983  -5.751   1.008  1.00  0.00    -0.288 N 
ATOM     80  O   UNL     1       1.509  -3.951   2.389  1.00  0.00    -0.268 OA
ATOM     81  S   UNL     1       0.909  -7.972  -0.604  1.00  0.00    -0.052 S 
BRANCH  79  82
ATOM     82  C   UNL     1      -0.213  -5.098   0.472  1.00  0.00     0.163 C 
BRANCH  82  83
ATOM     83  C   UNL     1      -1.383  -5.175   1.429  1.00  0.00    -0.028 A 
ATOM     84  C   UNL     1      -2.300  -6.231   1.362  1.00  0.00     0.005 A 
ATOM     85  C   UNL     1      -1.548  -4.200   2.426  1.00  0.00     0.005 A 
ATOM     86  C   UNL     1      -3.352  -6.311   2.279  1.00  0.00     0.000 A 
ATOM     87  C   UNL     1      -2.586  -4.292   3.352  1.00  0.00     0.000 A 
ATOM     88  C   UNL     1      -3.489  -5.347   3.277  1.00  0.00     0.000 A 
ENDBRANCH  82  83
ENDBRANCH  79  82
ENDBRANCH  70  74
ENDBRANCH  65  68
ENDBRANCH  63  64
ENDBRANCH   1  63
TORSDOF 13
