REMARK SMILES O=C(NC[C@@H]1CCOC1)NC[C@@H]1CC[C@H](C(=O)NCCCNC(=O)c2ccc(-c3c4nc(c(-c5c(F)cccc5F)c5ccc([nH]5)c(-c5c(F)cccc5F)c5nc(c(-c6c(F)cccc6F)c6ccc3[nH]6)C=C5)C=C4)cc2)O1
REMARK SMILES IDX 19 1 18 2 16 3 17 4 15 6 12 7 13 8 79 9 14 10 11 11 10 12
REMARK SMILES IDX 1 13 2 14 3 15 4 18 5 19 6 20 9 21 7 22 8 23 20 24 21 25
REMARK SMILES IDX 22 26 23 27 24 29 25 30 26 31 78 32 27 33 77 34 28 35 29 36
REMARK SMILES IDX 30 37 71 38 31 39 76 40 70 41 72 42 32 43 75 44 69 45 68 46
REMARK SMILES IDX 33 48 59 49 42 50 58 51 43 52 46 53 57 54 73 55 44 56 45 57
REMARK SMILES IDX 56 59 74 60 47 61 34 62 35 63 40 64 36 65 37 66 39 67 41 68
REMARK SMILES IDX 38 69 60 70 61 71 66 72 62 73 63 74 65 75 67 76 64 77 48 78
REMARK SMILES IDX 49 79 54 80 50 81 51 82 53 83 55 84 52 85
REMARK H PARENT 18 5 3 16 10 17 22 28 72 47 46 58
REMARK Flexibility Score: inf
ROOT
ATOM      1  C   UNL     1      -0.092   2.216  -1.458  1.00  0.00     0.117 C 
ENDROOT
BRANCH   1   2
ATOM      2  N   UNL     1      -0.502   3.231  -2.404  1.00  0.00    -0.354 N 
ATOM      3  C   UNL     1       0.098   3.624  -3.562  1.00  0.00     0.249 C 
ATOM      4  O   UNL     1      -0.427   4.554  -4.184  1.00  0.00    -0.272 OA
ATOM      5  H   UNL     1      -1.334   3.705  -2.178  1.00  0.00     0.163 HD
BRANCH   3   6
ATOM      6  C   UNL     1       1.424   2.995  -4.056  1.00  0.00     0.207 C 
ATOM      7  C   UNL     1       2.833   1.224  -3.453  1.00  0.00     0.138 C 
ATOM      8  C   UNL     1       3.317   2.442  -2.687  1.00  0.00     0.037 C 
ATOM      9  O   UNL     1       1.533   1.574  -3.968  1.00  0.00    -0.363 OA
ATOM     10  C   UNL     1       2.648   3.601  -3.384  1.00  0.00     0.045 C 
BRANCH   7  11
ATOM     11  C   UNL     1       2.756  -0.111  -2.672  1.00  0.00     0.149 C 
BRANCH  11  12
ATOM     12  N   UNL     1       3.284  -0.072  -1.314  1.00  0.00    -0.336 N 
ATOM     13  O   UNL     1       1.275  -0.335  -0.267  1.00  0.00    -0.249 OA
ATOM     14  C   UNL     1       2.494  -0.175  -0.216  1.00  0.00     0.314 C 
ATOM     15  N   UNL     1       3.086  -0.043   0.994  1.00  0.00    -0.338 N 
ATOM     16  H   UNL     1       2.459   0.115   1.737  1.00  0.00     0.165 HD
ATOM     17  H   UNL     1       4.255   0.034  -1.188  1.00  0.00     0.165 HD
BRANCH  15  18
ATOM     18  C   UNL     1       4.480  -0.093   1.390  1.00  0.00     0.123 C 
BRANCH  18  19
ATOM     19  C   UNL     1       5.096   1.206   1.939  1.00  0.00     0.036 C 
ATOM     20  C   UNL     1       4.178   2.070   2.785  1.00  0.00     0.036 C 
ATOM     21  C   UNL     1       5.558   2.163   0.855  1.00  0.00     0.165 C 
ATOM     22  C   UNL     1       3.809   3.244   1.897  1.00  0.00     0.160 C 
ATOM     23  O   UNL     1       4.498   3.094   0.652  1.00  0.00    -0.381 OA
ENDBRANCH  18  19
ENDBRANCH  15  18
ENDBRANCH  11  12
ENDBRANCH   7  11
ENDBRANCH   3   6
ENDBRANCH   1   2
BRANCH   1  24
ATOM     24  C   UNL     1       0.660   2.828  -0.285  1.00  0.00     0.042 C 
BRANCH  24  25
ATOM     25  C   UNL     1      -0.170   2.901   0.982  1.00  0.00     0.118 C 
BRANCH  25  26
ATOM     26  N   UNL     1      -0.505   1.588   1.513  1.00  0.00    -0.352 N 
ATOM     27  C   UNL     1      -0.535   1.105   2.792  1.00  0.00     0.251 C 
ATOM     28  H   UNL     1      -0.755   0.928   0.826  1.00  0.00     0.163 HD
ATOM     29  O   UNL     1      -0.803  -0.083   2.979  1.00  0.00    -0.269 OA
BRANCH  27  30
ATOM     30  C   UNL     1      -0.181   1.948   3.956  1.00  0.00     0.039 A 
ATOM     31  C   UNL     1       0.416   1.314   5.052  1.00  0.00     0.014 A 
ATOM     32  C   UNL     1      -0.427   3.321   4.009  1.00  0.00     0.014 A 
ATOM     33  C   UNL     1       0.787   2.053   6.174  1.00  0.00     0.010 A 
ATOM     34  C   UNL     1       0.046   4.076   5.079  1.00  0.00     0.010 A 
ATOM     35  C   UNL     1       0.626   3.446   6.187  1.00  0.00    -0.014 A 
BRANCH  35  36
ATOM     36  C   UNL     1       0.995   4.238   7.384  1.00  0.00     0.031 A 
ATOM     37  C   UNL     1      -0.067   4.984   8.147  1.00  0.00     0.074 A 
ATOM     38  C   UNL     1       2.283   4.295   7.774  1.00  0.00     0.049 A 
ATOM     39  N   UNL     1       0.053   5.727   9.218  1.00  0.00    -0.248 NA
ATOM     40  C   UNL     1      -1.440   4.910   7.622  1.00  0.00     0.031 C 
ATOM     41  C   UNL     1       3.406   3.655   7.086  1.00  0.00     0.029 A 
ATOM     42  N   UNL     1       2.862   4.915   8.851  1.00  0.00    -0.354 N 
ATOM     43  C   UNL     1      -1.221   6.217   9.481  1.00  0.00     0.074 A 
ATOM     44  C   UNL     1      -2.084   5.746   8.421  1.00  0.00     0.031 C 
ATOM     45  C   UNL     1       4.533   3.883   7.780  1.00  0.00     0.029 A 
ATOM     46  C   UNL     1       4.217   4.710   8.940  1.00  0.00     0.049 A 
ATOM     47  H   UNL     1       2.355   5.457   9.498  1.00  0.00     0.167 HD
ATOM     48  C   UNL     1      -1.643   6.964  10.528  1.00  0.00     0.037 A 
ATOM     49  C   UNL     1       5.101   5.136   9.861  1.00  0.00     0.037 A 
ATOM     50  C   UNL     1      -0.786   7.404  11.596  1.00  0.00     0.049 A 
ATOM     51  C   UNL     1       4.605   5.952  11.023  1.00  0.00     0.074 A 
ATOM     52  C   UNL     1      -1.118   8.123  12.730  1.00  0.00     0.029 A 
ATOM     53  N   UNL     1       0.579   7.162  11.660  1.00  0.00    -0.354 N 
ATOM     54  N   UNL     1       3.386   6.352  11.294  1.00  0.00    -0.248 NA
ATOM     55  C   UNL     1       5.608   6.362  12.014  1.00  0.00     0.031 C 
ATOM     56  C   UNL     1       0.053   8.353  13.459  1.00  0.00     0.029 A 
ATOM     57  C   UNL     1       1.106   7.731  12.807  1.00  0.00     0.049 A 
ATOM     58  H   UNL     1       1.096   6.661  10.989  1.00  0.00     0.167 HD
ATOM     59  C   UNL     1       3.469   7.034  12.501  1.00  0.00     0.074 A 
ATOM     60  C   UNL     1       4.856   6.974  12.918  1.00  0.00     0.031 C 
ATOM     61  C   UNL     1       2.490   7.656  13.204  1.00  0.00     0.037 A 
BRANCH  48  62
ATOM     62  C   UNL     1      -3.096   7.343  10.565  1.00  0.00     0.057 A 
ATOM     63  C   UNL     1      -4.106   6.394  10.780  1.00  0.00     0.134 A 
ATOM     64  C   UNL     1      -3.493   8.676  10.398  1.00  0.00     0.134 A 
ATOM     65  F   UNL     1      -3.797   5.097  10.932  1.00  0.00    -0.206 F 
ATOM     66  C   UNL     1      -5.455   6.750  10.796  1.00  0.00     0.040 A 
ATOM     67  C   UNL     1      -4.838   9.050  10.442  1.00  0.00     0.040 A 
ATOM     68  F   UNL     1      -2.581   9.638  10.191  1.00  0.00    -0.206 F 
ATOM     69  C   UNL     1      -5.824   8.084  10.633  1.00  0.00     0.006 A 
ENDBRANCH  48  62
BRANCH  49  70
ATOM     70  C   UNL     1       6.535   4.768   9.745  1.00  0.00     0.057 A 
ATOM     71  C   UNL     1       7.130   3.882  10.652  1.00  0.00     0.134 A 
ATOM     72  C   UNL     1       7.348   5.298   8.737  1.00  0.00     0.134 A 
ATOM     73  F   UNL     1       6.407   3.350  11.649  1.00  0.00    -0.206 F 
ATOM     74  C   UNL     1       8.486   3.558  10.577  1.00  0.00     0.040 A 
ATOM     75  C   UNL     1       8.698   4.963   8.633  1.00  0.00     0.040 A 
ATOM     76  F   UNL     1       6.836   6.142   7.828  1.00  0.00    -0.206 F 
ATOM     77  C   UNL     1       9.273   4.097   9.562  1.00  0.00     0.006 A 
ENDBRANCH  49  70
BRANCH  61  78
ATOM     78  C   UNL     1       2.882   8.282  14.510  1.00  0.00     0.057 A 
ATOM     79  C   UNL     1       3.683   9.430  14.573  1.00  0.00     0.134 A 
ATOM     80  C   UNL     1       2.442   7.734  15.722  1.00  0.00     0.134 A 
ATOM     81  F   UNL     1       4.148   9.998  13.450  1.00  0.00    -0.206 F 
ATOM     82  C   UNL     1       4.065   9.986  15.795  1.00  0.00     0.040 A 
ATOM     83  C   UNL     1       2.790   8.300  16.948  1.00  0.00     0.040 A 
ATOM     84  F   UNL     1       1.661   6.643  15.733  1.00  0.00    -0.206 F 
ATOM     85  C   UNL     1       3.614   9.423  16.987  1.00  0.00     0.006 A 
ENDBRANCH  61  78
ENDBRANCH  35  36
ENDBRANCH  27  30
ENDBRANCH  25  26
ENDBRANCH  24  25
ENDBRANCH   1  24
TORSDOF 14
