REMARK SMILES CSc1ccc(-c2cc(C[C@H]3CCCC3=O)ccc2[C@@H](C)C(=O)NCCCNC(=O)c2ccc(-c3c4nc(c(-c5c(F)cccc5F)c5ccc([nH]5)c(-c5c(F)cccc5F)c5nc(c(-c6c(F)cccc6F)c6ccc3[nH]6)C=C5)C=C4)cc2)cc1
REMARK SMILES IDX 25 1 24 2 22 3 23 4 20 6 21 7 19 8 7 9 8 10 9 11 18 12 17 13
REMARK SMILES IDX 6 14 3 15 4 16 86 17 5 18 85 19 2 20 1 21 10 22 11 23 12 24
REMARK SMILES IDX 15 25 13 26 14 27 16 28 26 29 27 30 28 31 29 32 30 34 31 35
REMARK SMILES IDX 32 36 84 37 33 38 83 39 34 40 35 41 36 42 77 43 37 44 82 45
REMARK SMILES IDX 76 46 78 47 38 48 81 49 75 50 74 51 39 53 65 54 48 55 64 56
REMARK SMILES IDX 49 57 52 58 63 59 79 60 50 61 51 62 62 64 80 65 53 66 40 67
REMARK SMILES IDX 41 68 46 69 42 70 43 71 45 72 47 73 44 74 66 75 67 76 72 77
REMARK SMILES IDX 68 78 69 79 71 80 73 81 70 82 54 83 55 84 60 85 56 86 57 87
REMARK SMILES IDX 59 88 61 89 58 90
REMARK H PARENT 24 5 28 33 78 52 52 63
REMARK Flexibility Score: inf
ROOT
ATOM      1  C   UNL     1      -1.442   9.855   4.309  1.00  0.00     0.117 C 
ENDROOT
BRANCH   1   2
ATOM      2  N   UNL     1      -1.123   9.485   2.943  1.00  0.00    -0.356 N 
ATOM      3  C   UNL     1      -0.788   8.303   2.358  1.00  0.00     0.227 C 
ATOM      4  O   UNL     1      -0.477   8.374   1.161  1.00  0.00    -0.274 OA
ATOM      5  H   UNL     1      -1.155  10.241   2.313  1.00  0.00     0.163 HD
BRANCH   3   6
ATOM      6  C   UNL     1      -0.762   6.941   3.076  1.00  0.00     0.106 C 
ATOM      7  C   UNL     1      -2.039   6.559   3.822  1.00  0.00     0.023 C 
BRANCH   6   8
ATOM      8  C   UNL     1       0.531   6.703   3.853  1.00  0.00    -0.028 A 
ATOM      9  C   UNL     1       1.579   5.886   3.364  1.00  0.00    -0.014 A 
ATOM     10  C   UNL     1       2.791   5.814   4.088  1.00  0.00     0.012 A 
ATOM     11  C   UNL     1       2.948   6.452   5.324  1.00  0.00    -0.047 A 
ATOM     12  C   UNL     1       0.703   7.305   5.109  1.00  0.00     0.005 A 
ATOM     13  C   UNL     1       1.894   7.211   5.821  1.00  0.00     0.004 A 
BRANCH   9  14
ATOM     14  C   UNL     1       1.377   4.903   2.287  1.00  0.00    -0.018 A 
ATOM     15  C   UNL     1       0.878   2.895   0.349  1.00  0.00     0.007 A 
ATOM     16  C   UNL     1       0.920   2.573   1.704  1.00  0.00     0.015 A 
ATOM     17  C   UNL     1       1.083   4.231  -0.028  1.00  0.00     0.015 A 
ATOM     18  C   UNL     1       1.164   3.563   2.654  1.00  0.00     0.010 A 
ATOM     19  C   UNL     1       1.342   5.226   0.929  1.00  0.00     0.010 A 
BRANCH  15  20
ATOM     20  S   UNL     1       0.516   1.700  -0.931  1.00  0.00    -0.130 SA
ATOM     21  C   UNL     1       0.981   0.128  -0.150  1.00  0.00     0.091 C 
ENDBRANCH  15  20
ENDBRANCH   9  14
BRANCH  11  22
ATOM     22  C   UNL     1       4.155   6.194   6.191  1.00  0.00     0.047 C 
BRANCH  22  23
ATOM     23  C   UNL     1       4.066   4.923   7.049  1.00  0.00     0.060 C 
ATOM     24  C   UNL     1       2.754   4.667   7.807  1.00  0.00     0.012 C 
ATOM     25  C   UNL     1       4.184   3.669   6.210  1.00  0.00     0.136 C 
ATOM     26  C   UNL     1       1.940   3.713   6.936  1.00  0.00     0.009 C 
ATOM     27  C   UNL     1       2.970   2.784   6.314  1.00  0.00     0.076 C 
ATOM     28  O   UNL     1       5.173   3.385   5.544  1.00  0.00    -0.299 OA
ENDBRANCH  22  23
ENDBRANCH  11  22
ENDBRANCH   6   8
ENDBRANCH   3   6
ENDBRANCH   1   2
BRANCH   1  29
ATOM     29  C   UNL     1      -0.235  10.440   5.042  1.00  0.00     0.042 C 
BRANCH  29  30
ATOM     30  C   UNL     1       0.004  11.919   4.778  1.00  0.00     0.118 C 
BRANCH  30  31
ATOM     31  N   UNL     1      -1.000  12.756   5.415  1.00  0.00    -0.352 N 
ATOM     32  C   UNL     1      -0.893  13.668   6.436  1.00  0.00     0.251 C 
ATOM     33  H   UNL     1      -1.910  12.651   5.054  1.00  0.00     0.163 HD
ATOM     34  O   UNL     1      -1.919  14.089   6.964  1.00  0.00    -0.269 OA
BRANCH  32  35
ATOM     35  C   UNL     1       0.425  14.150   6.917  1.00  0.00     0.039 A 
ATOM     36  C   UNL     1       0.568  14.456   8.275  1.00  0.00     0.014 A 
ATOM     37  C   UNL     1       1.492  14.380   6.045  1.00  0.00     0.014 A 
ATOM     38  C   UNL     1       1.783  14.949   8.761  1.00  0.00     0.010 A 
ATOM     39  C   UNL     1       2.728  14.791   6.543  1.00  0.00     0.010 A 
ATOM     40  C   UNL     1       2.882  15.099   7.902  1.00  0.00    -0.014 A 
BRANCH  40  41
ATOM     41  C   UNL     1       4.184  15.616   8.396  1.00  0.00     0.031 A 
ATOM     42  C   UNL     1       4.721  16.923   7.875  1.00  0.00     0.074 A 
ATOM     43  C   UNL     1       4.909  14.890   9.268  1.00  0.00     0.049 A 
ATOM     44  N   UNL     1       5.875  17.496   8.107  1.00  0.00    -0.248 NA
ATOM     45  C   UNL     1       3.857  17.672   6.948  1.00  0.00     0.031 C 
ATOM     46  C   UNL     1       4.520  13.589   9.817  1.00  0.00     0.029 A 
ATOM     47  N   UNL     1       6.134  15.137   9.836  1.00  0.00    -0.354 N 
ATOM     48  C   UNL     1       5.880  18.660   7.347  1.00  0.00     0.074 A 
ATOM     49  C   UNL     1       4.638  18.685   6.605  1.00  0.00     0.031 C 
ATOM     50  C   UNL     1       5.481  13.159  10.650  1.00  0.00     0.029 A 
ATOM     51  C   UNL     1       6.568  14.134  10.668  1.00  0.00     0.049 A 
ATOM     52  H   UNL     1       6.652  15.956   9.664  1.00  0.00     0.167 HD
ATOM     53  C   UNL     1       6.819  19.634   7.292  1.00  0.00     0.037 A 
ATOM     54  C   UNL     1       7.716  14.009  11.359  1.00  0.00     0.037 A 
ATOM     55  C   UNL     1       8.042  19.622   8.050  1.00  0.00     0.049 A 
ATOM     56  C   UNL     1       8.740  15.108  11.288  1.00  0.00     0.074 A 
ATOM     57  C   UNL     1       9.046  20.576   8.085  1.00  0.00     0.029 A 
ATOM     58  N   UNL     1       8.424  18.608   8.914  1.00  0.00    -0.354 N 
ATOM     59  N   UNL     1       8.711  16.221  10.597  1.00  0.00    -0.248 NA
ATOM     60  C   UNL     1       9.953  14.938  12.102  1.00  0.00     0.031 C 
ATOM     61  C   UNL     1      10.046  20.125   8.953  1.00  0.00     0.029 A 
ATOM     62  C   UNL     1       9.648  18.910   9.486  1.00  0.00     0.049 A 
ATOM     63  H   UNL     1       7.901  17.793   9.095  1.00  0.00     0.167 HD
ATOM     64  C   UNL     1       9.884  16.895  10.911  1.00  0.00     0.074 A 
ATOM     65  C   UNL     1      10.596  16.073  11.867  1.00  0.00     0.031 C 
ATOM     66  C   UNL     1      10.333  18.086  10.447  1.00  0.00     0.037 A 
BRANCH  53  67
ATOM     67  C   UNL     1       6.550  20.803   6.391  1.00  0.00     0.057 A 
ATOM     68  C   UNL     1       5.573  21.759   6.702  1.00  0.00     0.134 A 
ATOM     69  C   UNL     1       7.294  20.999   5.221  1.00  0.00     0.134 A 
ATOM     70  F   UNL     1       4.816  21.623   7.801  1.00  0.00    -0.206 F 
ATOM     71  C   UNL     1       5.330  22.853   5.870  1.00  0.00     0.040 A 
ATOM     72  C   UNL     1       7.078  22.103   4.394  1.00  0.00     0.040 A 
ATOM     73  F   UNL     1       8.249  20.125   4.867  1.00  0.00    -0.206 F 
ATOM     74  C   UNL     1       6.089  23.030   4.715  1.00  0.00     0.006 A 
ENDBRANCH  53  67
BRANCH  54  75
ATOM     75  C   UNL     1       7.957  12.803  12.191  1.00  0.00     0.057 A 
ATOM     76  C   UNL     1       7.957  12.876  13.589  1.00  0.00     0.134 A 
ATOM     77  C   UNL     1       8.207  11.554  11.610  1.00  0.00     0.134 A 
ATOM     78  F   UNL     1       7.742  14.049  14.203  1.00  0.00    -0.206 F 
ATOM     79  C   UNL     1       8.221  11.756  14.380  1.00  0.00     0.040 A 
ATOM     80  C   UNL     1       8.447  10.421  12.389  1.00  0.00     0.040 A 
ATOM     81  F   UNL     1       8.210  11.415  10.276  1.00  0.00    -0.206 F 
ATOM     82  C   UNL     1       8.463  10.523  13.778  1.00  0.00     0.006 A 
ENDBRANCH  54  75
BRANCH  66  83
ATOM     83  C   UNL     1      11.634  18.588  10.998  1.00  0.00     0.057 A 
ATOM     84  C   UNL     1      12.861  18.029  10.620  1.00  0.00     0.134 A 
ATOM     85  C   UNL     1      11.660  19.670  11.887  1.00  0.00     0.134 A 
ATOM     86  F   UNL     1      12.902  16.982   9.781  1.00  0.00    -0.206 F 
ATOM     87  C   UNL     1      14.068  18.514  11.125  1.00  0.00     0.040 A 
ATOM     88  C   UNL     1      12.862  20.179  12.380  1.00  0.00     0.040 A 
ATOM     89  F   UNL     1      10.519  20.256  12.281  1.00  0.00    -0.206 F 
ATOM     90  C   UNL     1      14.070  19.596  12.003  1.00  0.00     0.006 A 
ENDBRANCH  66  83
ENDBRANCH  40  41
ENDBRANCH  32  35
ENDBRANCH  30  31
ENDBRANCH  29  30
ENDBRANCH   1  29
TORSDOF 15
