REMARK SMILES CC(C)CSc1cc2c(cc1Cl)C=C(C(=O)NCCCNC(=O)c1ccc(-c3c4nc(c(-c5c(F)cccc5F)c5ccc([nH]5)c(-c5c(F)cccc5F)c5nc(c(-c6c(F)cccc6F)c6ccc3[nH]6)C=C5)C=C4)cc1)[C@@H](C(F)(F)F)O2
REMARK SMILES IDX 18 1 17 2 15 3 16 4 14 6 6 7 7 8 11 9 8 10 10 11 12 12 9 13
REMARK SMILES IDX 83 14 13 15 78 16 5 17 4 18 2 19 1 20 3 21 79 22 80 23 81 24
REMARK SMILES IDX 82 25 19 26 20 27 21 28 22 29 23 31 24 32 25 33 77 34 26 35
REMARK SMILES IDX 76 36 27 37 28 38 29 39 70 40 30 41 75 42 69 43 71 44 31 45
REMARK SMILES IDX 74 46 68 47 67 48 32 50 58 51 41 52 57 53 42 54 45 55 56 56
REMARK SMILES IDX 72 57 43 58 44 59 55 61 73 62 46 63 33 64 34 65 39 66 35 67
REMARK SMILES IDX 36 68 38 69 40 70 37 71 59 72 60 73 65 74 61 75 62 76 64 77
REMARK SMILES IDX 66 78 63 79 47 80 48 81 53 82 49 83 50 84 52 85 54 86 51 87
REMARK H PARENT 17 5 21 30 71 49 45 60
REMARK Flexibility Score: inf
ROOT
ATOM      1  C   UNL     1      -2.079   8.191  -1.670  1.00  0.00     0.118 C 
ENDROOT
BRANCH   1   2
ATOM      2  N   UNL     1      -0.852   7.843  -2.368  1.00  0.00    -0.352 N 
ATOM      3  C   UNL     1      -0.198   6.713  -2.717  1.00  0.00     0.251 C 
ATOM      4  O   UNL     1       0.859   6.889  -3.332  1.00  0.00    -0.270 OA
ATOM      5  H   UNL     1      -0.368   8.646  -2.668  1.00  0.00     0.163 HD
BRANCH   3   6
ATOM      6  C   UNL     1      -0.652   5.327  -2.412  1.00  0.00     0.067 C 
ATOM      7  C   UNL     1      -0.936   0.316  -1.933  1.00  0.00     0.030 A 
ATOM      8  C   UNL     1      -1.567   1.397  -1.305  1.00  0.00     0.063 A 
ATOM      9  C   UNL     1       0.006   0.576  -2.946  1.00  0.00     0.055 A 
ATOM     10  C   UNL     1      -1.226   2.702  -1.648  1.00  0.00     0.129 A 
ATOM     11  C   UNL     1       0.356   1.892  -3.271  1.00  0.00     0.033 A 
ATOM     12  Cl  UNL     1       0.826  -0.689  -3.797  1.00  0.00    -0.083 Cl
ATOM     13  C   UNL     1      -0.252   2.959  -2.613  1.00  0.00     0.019 A 
ATOM     14  O   UNL     1      -1.856   3.704  -0.964  1.00  0.00    -0.475 OA
ATOM     15  C   UNL     1       0.135   4.338  -2.877  1.00  0.00     0.025 C 
ATOM     16  C   UNL     1      -1.904   4.986  -1.653  1.00  0.00     0.314 C 
BRANCH   7  17
ATOM     17  S   UNL     1      -1.349  -1.339  -1.396  1.00  0.00    -0.124 SA
BRANCH  17  18
ATOM     18  C   UNL     1      -0.845  -1.279   0.367  1.00  0.00     0.078 C 
BRANCH  18  19
ATOM     19  C   UNL     1       0.675  -1.386   0.601  1.00  0.00    -0.007 C 
ATOM     20  C   UNL     1       1.406  -0.051   0.436  1.00  0.00     0.008 C 
ATOM     21  C   UNL     1       0.934  -1.910   2.018  1.00  0.00     0.008 C 
ENDBRANCH  18  19
ENDBRANCH  17  18
ENDBRANCH   7  17
BRANCH  16  22
ATOM     22  C   UNL     1      -3.168   5.050  -2.535  1.00  0.00     0.429 C 
ATOM     23  F   UNL     1      -4.277   5.144  -1.760  1.00  0.00    -0.167 F 
ATOM     24  F   UNL     1      -3.176   6.130  -3.352  1.00  0.00    -0.167 F 
ATOM     25  F   UNL     1      -3.314   3.963  -3.324  1.00  0.00    -0.167 F 
ENDBRANCH  16  22
ENDBRANCH   3   6
ENDBRANCH   1   2
BRANCH   1  26
ATOM     26  C   UNL     1      -1.798   8.798  -0.305  1.00  0.00     0.042 C 
BRANCH  26  27
ATOM     27  C   UNL     1      -1.391  10.261  -0.394  1.00  0.00     0.118 C 
BRANCH  27  28
ATOM     28  N   UNL     1      -2.484  11.114  -0.855  1.00  0.00    -0.352 N 
ATOM     29  C   UNL     1      -3.139  12.144  -0.222  1.00  0.00     0.251 C 
ATOM     30  H   UNL     1      -2.803  10.920  -1.766  1.00  0.00     0.163 HD
ATOM     31  O   UNL     1      -4.172  12.600  -0.705  1.00  0.00    -0.269 OA
BRANCH  29  32
ATOM     32  C   UNL     1      -2.614  12.682   1.048  1.00  0.00     0.039 A 
ATOM     33  C   UNL     1      -1.242  12.841   1.229  1.00  0.00     0.014 A 
ATOM     34  C   UNL     1      -3.501  13.021   2.075  1.00  0.00     0.014 A 
ATOM     35  C   UNL     1      -0.747  13.124   2.492  1.00  0.00     0.010 A 
ATOM     36  C   UNL     1      -3.001  13.428   3.315  1.00  0.00     0.010 A 
ATOM     37  C   UNL     1      -1.618  13.425   3.551  1.00  0.00    -0.014 A 
BRANCH  37  38
ATOM     38  C   UNL     1      -1.039  13.731   4.884  1.00  0.00     0.031 A 
ATOM     39  C   UNL     1      -1.336  12.864   6.077  1.00  0.00     0.074 A 
ATOM     40  C   UNL     1      -0.174  14.759   4.995  1.00  0.00     0.049 A 
ATOM     41  N   UNL     1      -0.871  12.954   7.298  1.00  0.00    -0.248 NA
ATOM     42  C   UNL     1      -2.285  11.758   5.881  1.00  0.00     0.031 C 
ATOM     43  C   UNL     1       0.188  15.675   3.910  1.00  0.00     0.029 A 
ATOM     44  N   UNL     1       0.585  15.183   6.054  1.00  0.00    -0.354 N 
ATOM     45  C   UNL     1      -1.492  11.942   8.020  1.00  0.00     0.074 A 
ATOM     46  C   UNL     1      -2.387  11.265   7.107  1.00  0.00     0.031 C 
ATOM     47  C   UNL     1       1.147  16.507   4.338  1.00  0.00     0.029 A 
ATOM     48  C   UNL     1       1.415  16.233   5.745  1.00  0.00     0.049 A 
ATOM     49  H   UNL     1       0.539  14.776   6.949  1.00  0.00     0.167 HD
ATOM     50  C   UNL     1      -1.325  11.603   9.321  1.00  0.00     0.037 A 
ATOM     51  C   UNL     1       2.286  16.912   6.511  1.00  0.00     0.037 A 
ATOM     52  C   UNL     1      -0.413  12.264  10.219  1.00  0.00     0.049 A 
ATOM     53  C   UNL     1       2.446  16.522   7.950  1.00  0.00     0.074 A 
ATOM     54  C   UNL     1      -0.141  11.973  11.545  1.00  0.00     0.029 A 
ATOM     55  N   UNL     1       0.377  13.353   9.881  1.00  0.00    -0.354 N 
ATOM     56  N   UNL     1       1.866  15.549   8.610  1.00  0.00    -0.248 NA
ATOM     57  C   UNL     1       3.371  17.331   8.752  1.00  0.00     0.031 C 
ATOM     58  C   UNL     1       0.781  12.913  12.020  1.00  0.00     0.029 A 
ATOM     59  C   UNL     1       1.118  13.762  10.979  1.00  0.00     0.049 A 
ATOM     60  H   UNL     1       0.407  13.774   8.991  1.00  0.00     0.167 HD
ATOM     61  C   UNL     1       2.357  15.626   9.905  1.00  0.00     0.074 A 
ATOM     62  C   UNL     1       3.307  16.721   9.927  1.00  0.00     0.031 C 
ATOM     63  C   UNL     1       2.045  14.865  10.983  1.00  0.00     0.037 A 
BRANCH  50  64
ATOM     64  C   UNL     1      -2.172  10.484   9.855  1.00  0.00     0.057 A 
ATOM     65  C   UNL     1      -3.211  10.748  10.759  1.00  0.00     0.134 A 
ATOM     66  C   UNL     1      -1.964   9.148   9.486  1.00  0.00     0.134 A 
ATOM     67  F   UNL     1      -3.462  12.003  11.159  1.00  0.00    -0.206 F 
ATOM     68  C   UNL     1      -4.014   9.726  11.269  1.00  0.00     0.040 A 
ATOM     69  C   UNL     1      -2.778   8.120   9.970  1.00  0.00     0.040 A 
ATOM     70  F   UNL     1      -0.998   8.827   8.613  1.00  0.00    -0.206 F 
ATOM     71  C   UNL     1      -3.804   8.409  10.868  1.00  0.00     0.006 A 
ENDBRANCH  50  64
BRANCH  51  72
ATOM     72  C   UNL     1       3.055  18.040   5.930  1.00  0.00     0.057 A 
ATOM     73  C   UNL     1       2.420  19.228   5.547  1.00  0.00     0.134 A 
ATOM     74  C   UNL     1       4.436  17.953   5.731  1.00  0.00     0.134 A 
ATOM     75  F   UNL     1       1.095  19.369   5.704  1.00  0.00    -0.206 F 
ATOM     76  C   UNL     1       3.128  20.283   4.971  1.00  0.00     0.040 A 
ATOM     77  C   UNL     1       5.162  19.011   5.182  1.00  0.00     0.040 A 
ATOM     78  F   UNL     1       5.102  16.846   6.093  1.00  0.00    -0.206 F 
ATOM     79  C   UNL     1       4.506  20.178   4.793  1.00  0.00     0.006 A 
ENDBRANCH  51  72
BRANCH  63  80
ATOM     80  C   UNL     1       2.749  15.197  12.265  1.00  0.00     0.057 A 
ATOM     81  C   UNL     1       3.748  14.358  12.771  1.00  0.00     0.134 A 
ATOM     82  C   UNL     1       2.439  16.352  12.996  1.00  0.00     0.134 A 
ATOM     83  F   UNL     1       4.088  13.234  12.121  1.00  0.00    -0.206 F 
ATOM     84  C   UNL     1       4.419  14.657  13.957  1.00  0.00     0.040 A 
ATOM     85  C   UNL     1       3.121  16.675  14.170  1.00  0.00     0.040 A 
ATOM     86  F   UNL     1       1.504  17.206  12.554  1.00  0.00    -0.206 F 
ATOM     87  C   UNL     1       4.112  15.824  14.655  1.00  0.00     0.006 A 
ENDBRANCH  63  80
ENDBRANCH  37  38
ENDBRANCH  29  32
ENDBRANCH  27  28
ENDBRANCH  26  27
ENDBRANCH   1  26
TORSDOF 14
