REMARK SMILES CC[C@@H]1CCCN1C(=O)N[C@H]1C=C[C@@H](C(=O)NCCCNC(=O)c2ccc(-c3c4nc(c(-c5c(F)cccc5F)c5ccc([nH]5)c(-c5c(F)cccc5F)c5nc(c(-c6c(F)cccc6F)c6ccc3[nH]6)C=C5)C=C4)cc2)C1
REMARK SMILES IDX 18 1 17 2 15 3 16 4 14 6 11 7 12 8 78 9 13 10 10 11 8 12
REMARK SMILES IDX 9 13 7 15 3 16 4 17 5 18 6 19 2 20 1 21 19 22 20 23 21 24
REMARK SMILES IDX 22 25 23 27 24 28 25 29 77 30 26 31 76 32 27 33 28 34 29 35
REMARK SMILES IDX 70 36 30 37 75 38 69 39 71 40 31 41 74 42 68 43 67 44 32 46
REMARK SMILES IDX 58 47 41 48 57 49 42 50 45 51 56 52 72 53 43 54 44 55 55 57
REMARK SMILES IDX 73 58 46 59 33 60 34 61 39 62 35 63 36 64 38 65 40 66 37 67
REMARK SMILES IDX 59 68 60 69 65 70 61 71 62 72 64 73 66 74 63 75 47 76 48 77
REMARK SMILES IDX 53 78 49 79 50 80 52 81 54 82 51 83
REMARK H PARENT 17 5 10 14 21 26 71 45 45 56
REMARK Flexibility Score: inf
ROOT
ATOM      1  C   UNL     1      -4.503  -0.034  -0.541  1.00  0.00     0.117 C 
ENDROOT
BRANCH   1   2
ATOM      2  N   UNL     1      -3.617  -1.063  -1.055  1.00  0.00    -0.356 N 
ATOM      3  C   UNL     1      -2.302  -1.301  -0.814  1.00  0.00     0.227 C 
ATOM      4  O   UNL     1      -1.770  -2.229  -1.430  1.00  0.00    -0.274 OA
ATOM      5  H   UNL     1      -4.040  -1.692  -1.683  1.00  0.00     0.163 HD
BRANCH   3   6
ATOM      6  C   UNL     1      -1.469  -0.412   0.102  1.00  0.00     0.103 C 
ATOM      7  C   UNL     1      -0.825   1.833   0.584  1.00  0.00     0.107 C 
ATOM      8  C   UNL     1      -1.794   1.362   1.616  1.00  0.00    -0.006 C 
ATOM      9  C   UNL     1      -1.171   0.914  -0.574  1.00  0.00     0.047 C 
ATOM     10  C   UNL     1      -2.058   0.058   1.405  1.00  0.00    -0.016 C 
BRANCH   7  11
ATOM     11  N   UNL     1      -0.857   3.195   0.222  1.00  0.00    -0.332 N 
ATOM     12  C   UNL     1       0.067   3.907  -0.451  1.00  0.00     0.318 C 
ATOM     13  O   UNL     1      -0.208   5.109  -0.561  1.00  0.00    -0.249 OA
ATOM     14  H   UNL     1      -1.661   3.691   0.498  1.00  0.00     0.165 HD
BRANCH  12  15
ATOM     15  N   UNL     1       1.216   3.384  -1.006  1.00  0.00    -0.322 N 
ATOM     16  C   UNL     1       1.894   2.045  -1.168  1.00  0.00     0.086 C 
ATOM     17  C   UNL     1       3.220   2.407  -1.868  1.00  0.00     0.027 C 
ATOM     18  C   UNL     1       2.823   3.540  -2.778  1.00  0.00     0.024 C 
ATOM     19  C   UNL     1       1.889   4.342  -1.895  1.00  0.00     0.122 C 
BRANCH  16  20
ATOM     20  C   UNL     1       2.244   1.138   0.030  1.00  0.00     0.022 C 
ATOM     21  C   UNL     1       2.995  -0.137  -0.354  1.00  0.00     0.006 C 
ENDBRANCH  16  20
ENDBRANCH  12  15
ENDBRANCH   7  11
ENDBRANCH   3   6
ENDBRANCH   1   2
BRANCH   1  22
ATOM     22  C   UNL     1      -4.925   0.955  -1.617  1.00  0.00     0.042 C 
BRANCH  22  23
ATOM     23  C   UNL     1      -5.761   0.307  -2.709  1.00  0.00     0.118 C 
BRANCH  23  24
ATOM     24  N   UNL     1      -6.984  -0.278  -2.170  1.00  0.00    -0.352 N 
ATOM     25  C   UNL     1      -8.237   0.264  -2.084  1.00  0.00     0.251 C 
ATOM     26  H   UNL     1      -6.895  -1.193  -1.817  1.00  0.00     0.163 HD
ATOM     27  O   UNL     1      -9.062  -0.209  -1.292  1.00  0.00    -0.269 OA
BRANCH  25  28
ATOM     28  C   UNL     1      -8.602   1.412  -2.930  1.00  0.00     0.039 A 
ATOM     29  C   UNL     1      -9.352   2.461  -2.394  1.00  0.00     0.014 A 
ATOM     30  C   UNL     1      -8.202   1.443  -4.268  1.00  0.00     0.014 A 
ATOM     31  C   UNL     1      -9.633   3.578  -3.182  1.00  0.00     0.010 A 
ATOM     32  C   UNL     1      -8.399   2.592  -5.020  1.00  0.00     0.010 A 
ATOM     33  C   UNL     1      -9.120   3.670  -4.486  1.00  0.00    -0.014 A 
BRANCH  33  34
ATOM     34  C   UNL     1      -9.307   4.882  -5.319  1.00  0.00     0.031 A 
ATOM     35  C   UNL     1     -10.042   4.784  -6.627  1.00  0.00     0.074 A 
ATOM     36  C   UNL     1      -8.718   6.036  -4.950  1.00  0.00     0.049 A 
ATOM     37  N   UNL     1     -10.183   5.686  -7.564  1.00  0.00    -0.248 NA
ATOM     38  C   UNL     1     -10.671   3.490  -6.941  1.00  0.00     0.031 C 
ATOM     39  C   UNL     1      -7.928   6.233  -3.732  1.00  0.00     0.029 A 
ATOM     40  N   UNL     1      -8.667   7.254  -5.578  1.00  0.00    -0.354 N 
ATOM     41  C   UNL     1     -10.892   5.063  -8.583  1.00  0.00     0.074 A 
ATOM     42  C   UNL     1     -11.116   3.695  -8.172  1.00  0.00     0.031 C 
ATOM     43  C   UNL     1      -7.478   7.497  -3.699  1.00  0.00     0.029 A 
ATOM     44  C   UNL     1      -7.906   8.185  -4.912  1.00  0.00     0.049 A 
ATOM     45  H   UNL     1      -9.132   7.444  -6.425  1.00  0.00     0.167 HD
ATOM     46  C   UNL     1     -11.330   5.593  -9.749  1.00  0.00     0.037 A 
ATOM     47  C   UNL     1      -7.570   9.443  -5.254  1.00  0.00     0.037 A 
ATOM     48  C   UNL     1     -11.138   6.966 -10.132  1.00  0.00     0.049 A 
ATOM     49  C   UNL     1      -8.078  10.005  -6.553  1.00  0.00     0.074 A 
ATOM     50  C   UNL     1     -11.625   7.624 -11.247  1.00  0.00     0.029 A 
ATOM     51  N   UNL     1     -10.396   7.889  -9.412  1.00  0.00    -0.354 N 
ATOM     52  N   UNL     1      -8.823   9.432  -7.467  1.00  0.00    -0.248 NA
ATOM     53  C   UNL     1      -7.700  11.390  -6.868  1.00  0.00     0.031 C 
ATOM     54  C   UNL     1     -11.135   8.933 -11.228  1.00  0.00     0.029 A 
ATOM     55  C   UNL     1     -10.384   9.104 -10.076  1.00  0.00     0.049 A 
ATOM     56  H   UNL     1      -9.944   7.708  -8.556  1.00  0.00     0.167 HD
ATOM     57  C   UNL     1      -9.019  10.389  -8.453  1.00  0.00     0.074 A 
ATOM     58  C   UNL     1      -8.334  11.587  -8.015  1.00  0.00     0.031 C 
ATOM     59  C   UNL     1      -9.699  10.285  -9.621  1.00  0.00     0.037 A 
BRANCH  46  60
ATOM     60  C   UNL     1     -12.069   4.693 -10.696  1.00  0.00     0.057 A 
ATOM     61  C   UNL     1     -13.368   4.245 -10.429  1.00  0.00     0.134 A 
ATOM     62  C   UNL     1     -11.497   4.327 -11.921  1.00  0.00     0.134 A 
ATOM     63  F   UNL     1     -13.968   4.550  -9.268  1.00  0.00    -0.206 F 
ATOM     64  C   UNL     1     -14.069   3.454 -11.341  1.00  0.00     0.040 A 
ATOM     65  C   UNL     1     -12.197   3.558 -12.852  1.00  0.00     0.040 A 
ATOM     66  F   UNL     1     -10.257   4.726 -12.241  1.00  0.00    -0.206 F 
ATOM     67  C   UNL     1     -13.486   3.117 -12.562  1.00  0.00     0.006 A 
ENDBRANCH  46  60
BRANCH  47  68
ATOM     68  C   UNL     1      -6.701  10.255  -4.365  1.00  0.00     0.057 A 
ATOM     69  C   UNL     1      -7.199  11.376  -3.692  1.00  0.00     0.134 A 
ATOM     70  C   UNL     1      -5.347   9.945  -4.187  1.00  0.00     0.134 A 
ATOM     71  F   UNL     1      -8.483  11.735  -3.837  1.00  0.00    -0.206 F 
ATOM     72  C   UNL     1      -6.377  12.177  -2.897  1.00  0.00     0.040 A 
ATOM     73  C   UNL     1      -4.520  10.720  -3.371  1.00  0.00     0.040 A 
ATOM     74  F   UNL     1      -4.809   8.879  -4.798  1.00  0.00    -0.206 F 
ATOM     75  C   UNL     1      -5.034  11.847  -2.732  1.00  0.00     0.006 A 
ENDBRANCH  47  68
BRANCH  59  76
ATOM     76  C   UNL     1      -9.754  11.505 -10.492  1.00  0.00     0.057 A 
ATOM     77  C   UNL     1      -8.635  11.950 -11.207  1.00  0.00     0.134 A 
ATOM     78  C   UNL     1     -10.950  12.216 -10.650  1.00  0.00     0.134 A 
ATOM     79  F   UNL     1      -7.456  11.319 -11.087  1.00  0.00    -0.206 F 
ATOM     80  C   UNL     1      -8.698  13.073 -12.032  1.00  0.00     0.040 A 
ATOM     81  C   UNL     1     -11.032  13.323 -11.494  1.00  0.00     0.040 A 
ATOM     82  F   UNL     1     -12.060  11.836 -10.001  1.00  0.00    -0.206 F 
ATOM     83  C   UNL     1      -9.902  13.758 -12.184  1.00  0.00     0.006 A 
ENDBRANCH  59  76
ENDBRANCH  33  34
ENDBRANCH  25  28
ENDBRANCH  23  24
ENDBRANCH  22  23
ENDBRANCH   1  22
TORSDOF 13
