REMARK SMILES CC(C)(C)OC(=O)[C@@H]1CCCC[C@H]1C(=O)NCCCNC(=O)c1ccc(-c2c3nc(c(-c4c(F)cccc4F)c4ccc([nH]4)c(-c4c(F)cccc4F)c4nc(c(-c5c(F)cccc5F)c5ccc2[nH]5)C=C4)C=C3)cc1
REMARK SMILES IDX 17 1 16 2 14 3 15 4 13 6 8 7 9 8 10 9 12 10 11 11 6 12 7 13
REMARK SMILES IDX 5 14 2 15 1 16 3 17 4 18 18 19 19 20 20 21 21 22 22 24 23 25
REMARK SMILES IDX 24 26 76 27 25 28 75 29 26 30 27 31 28 32 69 33 29 34 74 35
REMARK SMILES IDX 68 36 70 37 30 38 73 39 67 40 66 41 31 43 57 44 40 45 56 46
REMARK SMILES IDX 41 47 44 48 55 49 71 50 42 51 43 52 54 54 72 55 45 56 32 57
REMARK SMILES IDX 33 58 38 59 34 60 35 61 37 62 39 63 36 64 58 65 59 66 64 67
REMARK SMILES IDX 60 68 61 69 63 70 65 71 62 72 46 73 47 74 52 75 48 76 49 77
REMARK SMILES IDX 51 78 53 79 50 80
REMARK H PARENT 16 5 20 23 70 42 44 53
REMARK Flexibility Score: inf
ROOT
ATOM      1  C   UNL     1       1.412  -2.722  -5.282  1.00  0.00     0.117 C 
ENDROOT
BRANCH   1   2
ATOM      2  N   UNL     1       2.280  -2.096  -4.297  1.00  0.00    -0.356 N 
ATOM      3  C   UNL     1       2.862  -2.575  -3.165  1.00  0.00     0.223 C 
ATOM      4  O   UNL     1       3.603  -1.809  -2.542  1.00  0.00    -0.275 OA
ATOM      5  H   UNL     1       2.483  -1.151  -4.485  1.00  0.00     0.163 HD
BRANCH   3   6
ATOM      6  C   UNL     1       2.666  -4.016  -2.693  1.00  0.00     0.092 C 
ATOM      7  C   UNL     1       1.192  -4.348  -2.369  1.00  0.00     0.111 C 
ATOM      8  C   UNL     1       0.949  -5.865  -2.287  1.00  0.00     0.016 C 
ATOM      9  C   UNL     1       1.504  -6.609  -3.489  1.00  0.00     0.001 C 
ATOM     10  C   UNL     1       3.377  -4.949  -3.696  1.00  0.00     0.014 C 
ATOM     11  C   UNL     1       3.008  -6.418  -3.568  1.00  0.00     0.001 C 
BRANCH   7  12
ATOM     12  C   UNL     1       0.724  -3.716  -1.056  1.00  0.00     0.310 C 
ATOM     13  O   UNL     1       0.106  -4.327  -0.189  1.00  0.00    -0.252 OA
BRANCH  12  14
ATOM     14  O   UNL     1       0.987  -2.386  -1.027  1.00  0.00    -0.460 OA
BRANCH  14  15
ATOM     15  C   UNL     1       0.560  -1.564   0.095  1.00  0.00     0.104 C 
ATOM     16  C   UNL     1       1.149  -0.172  -0.178  1.00  0.00     0.056 C 
ATOM     17  C   UNL     1       1.120  -2.068   1.431  1.00  0.00     0.056 C 
ATOM     18  C   UNL     1      -0.969  -1.452   0.122  1.00  0.00     0.056 C 
ENDBRANCH  14  15
ENDBRANCH  12  14
ENDBRANCH   7  12
ENDBRANCH   3   6
ENDBRANCH   1   2
BRANCH   1  19
ATOM     19  C   UNL     1       0.001  -2.151  -5.253  1.00  0.00     0.042 C 
BRANCH  19  20
ATOM     20  C   UNL     1      -0.081  -0.684  -5.649  1.00  0.00     0.118 C 
BRANCH  20  21
ATOM     21  N   UNL     1       0.294  -0.455  -7.037  1.00  0.00    -0.352 N 
ATOM     22  C   UNL     1      -0.450   0.018  -8.090  1.00  0.00     0.251 C 
ATOM     23  H   UNL     1       1.228  -0.674  -7.256  1.00  0.00     0.163 HD
ATOM     24  O   UNL     1       0.004  -0.047  -9.230  1.00  0.00    -0.269 OA
BRANCH  22  25
ATOM     25  C   UNL     1      -1.798   0.583  -7.867  1.00  0.00     0.039 A 
ATOM     26  C   UNL     1      -2.815   0.281  -8.778  1.00  0.00     0.014 A 
ATOM     27  C   UNL     1      -2.061   1.424  -6.784  1.00  0.00     0.014 A 
ATOM     28  C   UNL     1      -4.107   0.765  -8.562  1.00  0.00     0.010 A 
ATOM     29  C   UNL     1      -3.365   1.831  -6.520  1.00  0.00     0.010 A 
ATOM     30  C   UNL     1      -4.401   1.512  -7.409  1.00  0.00    -0.014 A 
BRANCH  30  31
ATOM     31  C   UNL     1      -5.782   1.971  -7.118  1.00  0.00     0.031 A 
ATOM     32  C   UNL     1      -6.091   3.441  -7.040  1.00  0.00     0.074 A 
ATOM     33  C   UNL     1      -6.744   1.065  -6.855  1.00  0.00     0.049 A 
ATOM     34  N   UNL     1      -7.213   4.035  -6.722  1.00  0.00    -0.248 NA
ATOM     35  C   UNL     1      -4.984   4.366  -7.330  1.00  0.00     0.031 C 
ATOM     36  C   UNL     1      -6.561  -0.388  -6.849  1.00  0.00     0.029 A 
ATOM     37  N   UNL     1      -8.067   1.234  -6.530  1.00  0.00    -0.354 N 
ATOM     38  C   UNL     1      -6.942   5.397  -6.757  1.00  0.00     0.074 A 
ATOM     39  C   UNL     1      -5.538   5.542  -7.073  1.00  0.00     0.031 C 
ATOM     40  C   UNL     1      -7.733  -0.978  -6.562  1.00  0.00     0.029 A 
ATOM     41  C   UNL     1      -8.739   0.053  -6.325  1.00  0.00     0.049 A 
ATOM     42  H   UNL     1      -8.494   2.117  -6.452  1.00  0.00     0.167 HD
ATOM     43  C   UNL     1      -7.791   6.435  -6.567  1.00  0.00     0.037 A 
ATOM     44  C   UNL     1     -10.020  -0.173  -5.979  1.00  0.00     0.037 A 
ATOM     45  C   UNL     1      -9.194   6.290  -6.281  1.00  0.00     0.049 A 
ATOM     46  C   UNL     1     -10.942   0.995  -5.771  1.00  0.00     0.074 A 
ATOM     47  C   UNL     1     -10.151   7.279  -6.132  1.00  0.00     0.029 A 
ATOM     48  N   UNL     1      -9.841   5.077  -6.099  1.00  0.00    -0.354 N 
ATOM     49  N   UNL     1     -10.687   2.277  -5.872  1.00  0.00    -0.248 NA
ATOM     50  C   UNL     1     -12.332   0.685  -5.407  1.00  0.00     0.031 C 
ATOM     51  C   UNL     1     -11.368   6.665  -5.819  1.00  0.00     0.029 A 
ATOM     52  C   UNL     1     -11.180   5.293  -5.820  1.00  0.00     0.049 A 
ATOM     53  H   UNL     1      -9.411   4.193  -6.160  1.00  0.00     0.167 HD
ATOM     54  C   UNL     1     -11.888   2.925  -5.612  1.00  0.00     0.074 A 
ATOM     55  C   UNL     1     -12.874   1.894  -5.362  1.00  0.00     0.031 C 
ATOM     56  C   UNL     1     -12.150   4.254  -5.582  1.00  0.00     0.037 A 
BRANCH  43  57
ATOM     57  C   UNL     1      -7.224   7.821  -6.672  1.00  0.00     0.057 A 
ATOM     58  C   UNL     1      -6.810   8.360  -7.898  1.00  0.00     0.134 A 
ATOM     59  C   UNL     1      -7.118   8.639  -5.540  1.00  0.00     0.134 A 
ATOM     60  F   UNL     1      -6.873   7.625  -9.019  1.00  0.00    -0.206 F 
ATOM     61  C   UNL     1      -6.286   9.650  -7.990  1.00  0.00     0.040 A 
ATOM     62  C   UNL     1      -6.622   9.941  -5.624  1.00  0.00     0.040 A 
ATOM     63  F   UNL     1      -7.501   8.190  -4.335  1.00  0.00    -0.206 F 
ATOM     64  C   UNL     1      -6.197  10.447  -6.851  1.00  0.00     0.006 A 
ENDBRANCH  43  57
BRANCH  44  65
ATOM     65  C   UNL     1     -10.515  -1.565  -5.830  1.00  0.00     0.057 A 
ATOM     66  C   UNL     1     -11.412  -2.112  -6.755  1.00  0.00     0.134 A 
ATOM     67  C   UNL     1     -10.111  -2.378  -4.764  1.00  0.00     0.134 A 
ATOM     68  F   UNL     1     -11.849  -1.377  -7.787  1.00  0.00    -0.206 F 
ATOM     69  C   UNL     1     -11.905  -3.411  -6.615  1.00  0.00     0.040 A 
ATOM     70  C   UNL     1     -10.576  -3.686  -4.626  1.00  0.00     0.040 A 
ATOM     71  F   UNL     1      -9.246  -1.915  -3.850  1.00  0.00    -0.206 F 
ATOM     72  C   UNL     1     -11.483  -4.203  -5.550  1.00  0.00     0.006 A 
ENDBRANCH  44  65
BRANCH  56  73
ATOM     73  C   UNL     1     -13.565   4.668  -5.304  1.00  0.00     0.057 A 
ATOM     74  C   UNL     1     -14.133   4.553  -4.029  1.00  0.00     0.134 A 
ATOM     75  C   UNL     1     -14.357   5.222  -6.318  1.00  0.00     0.134 A 
ATOM     76  F   UNL     1     -13.431   4.018  -3.018  1.00  0.00    -0.206 F 
ATOM     77  C   UNL     1     -15.446   4.954  -3.777  1.00  0.00     0.040 A 
ATOM     78  C   UNL     1     -15.662   5.651  -6.073  1.00  0.00     0.040 A 
ATOM     79  F   UNL     1     -13.870   5.367  -7.560  1.00  0.00    -0.206 F 
ATOM     80  C   UNL     1     -16.212   5.512  -4.800  1.00  0.00     0.006 A 
ENDBRANCH  56  73
ENDBRANCH  30  31
ENDBRANCH  22  25
ENDBRANCH  20  21
ENDBRANCH  19  20
ENDBRANCH   1  19
TORSDOF 13
