REMARK SMILES O=C(NCCCNC(=O)c1ccc(N2C(=O)/C(=C/c3ccco3)SC2=S)cc1)c1ccc(-c2c3nc(c(-c4c(F)cccc4F)c4ccc([nH]4)c(-c4c(F)cccc4F)c4nc(c(-c5c(F)cccc5F)c5ccc2[nH]5)C=C4)C=C3)cc1
REMARK SMILES IDX 5 1 4 2 3 3 1 4 2 5 29 7 30 8 82 9 31 10 81 11 32 12 33 13
REMARK SMILES IDX 34 14 75 15 35 16 80 17 74 18 76 19 36 20 79 21 73 22 72 23
REMARK SMILES IDX 37 25 63 26 46 27 62 28 47 29 50 30 61 31 77 32 48 33 49 34
REMARK SMILES IDX 60 36 78 37 51 38 38 39 39 40 44 41 40 42 41 43 43 44 45 45
REMARK SMILES IDX 42 46 64 47 65 48 70 49 66 50 67 51 69 52 71 53 68 54 52 55
REMARK SMILES IDX 53 56 58 57 54 58 55 59 57 60 59 61 56 62 6 63 7 64 8 65
REMARK SMILES IDX 9 67 10 68 11 69 28 70 12 71 27 72 13 73 14 74 15 75 25 76
REMARK SMILES IDX 16 77 17 78 24 79 26 80 18 81 19 82 20 83 23 84 21 85 22 86
REMARK H PARENT 3 6 76 24 50 35 7 66
REMARK Flexibility Score: inf
ROOT
ATOM      1  C   UNL     1       4.901   0.449   2.497  1.00  0.00     0.042 C 
ENDROOT
BRANCH   1   2
ATOM      2  C   UNL     1       4.527  -0.485   1.355  1.00  0.00     0.118 C 
BRANCH   2   3
ATOM      3  N   UNL     1       3.090  -0.549   1.127  1.00  0.00    -0.352 N 
ATOM      4  O   UNL     1       1.118  -0.108   0.136  1.00  0.00    -0.269 OA
ATOM      5  C   UNL     1       2.343  -0.132   0.053  1.00  0.00     0.251 C 
ATOM      6  H   UNL     1       2.572  -0.956   1.859  1.00  0.00     0.163 HD
BRANCH   5   7
ATOM      7  C   UNL     1       3.004   0.307  -1.195  1.00  0.00     0.039 A 
ATOM      8  C   UNL     1       4.095  -0.391  -1.716  1.00  0.00     0.014 A 
ATOM      9  C   UNL     1       2.497   1.419  -1.875  1.00  0.00     0.014 A 
ATOM     10  C   UNL     1       4.770   0.103  -2.826  1.00  0.00     0.010 A 
ATOM     11  C   UNL     1       3.119   1.860  -3.046  1.00  0.00     0.010 A 
ATOM     12  C   UNL     1       4.278   1.222  -3.514  1.00  0.00    -0.014 A 
BRANCH  12  13
ATOM     13  C   UNL     1       4.946   1.665  -4.762  1.00  0.00     0.031 A 
ATOM     14  C   UNL     1       5.601   3.012  -4.857  1.00  0.00     0.074 A 
ATOM     15  C   UNL     1       4.949   0.834  -5.821  1.00  0.00     0.049 A 
ATOM     16  N   UNL     1       6.200   3.566  -5.881  1.00  0.00    -0.248 NA
ATOM     17  C   UNL     1       5.571   3.853  -3.651  1.00  0.00     0.031 C 
ATOM     18  C   UNL     1       4.326  -0.492  -5.852  1.00  0.00     0.029 A 
ATOM     19  N   UNL     1       5.491   0.976  -7.072  1.00  0.00    -0.354 N 
ATOM     20  C   UNL     1       6.598   4.825  -5.454  1.00  0.00     0.074 A 
ATOM     21  C   UNL     1       6.152   4.965  -4.083  1.00  0.00     0.031 C 
ATOM     22  C   UNL     1       4.538  -1.049  -7.052  1.00  0.00     0.029 A 
ATOM     23  C   UNL     1       5.258  -0.099  -7.893  1.00  0.00     0.049 A 
ATOM     24  H   UNL     1       5.997   1.772  -7.354  1.00  0.00     0.167 HD
ATOM     25  C   UNL     1       7.277   5.774  -6.142  1.00  0.00     0.037 A 
ATOM     26  C   UNL     1       5.562  -0.292  -9.189  1.00  0.00     0.037 A 
ATOM     27  C   UNL     1       7.730   5.621  -7.501  1.00  0.00     0.049 A 
ATOM     28  C   UNL     1       6.300   0.778  -9.934  1.00  0.00     0.074 A 
ATOM     29  C   UNL     1       8.477   6.500  -8.266  1.00  0.00     0.029 A 
ATOM     30  N   UNL     1       7.470   4.518  -8.302  1.00  0.00    -0.354 N 
ATOM     31  N   UNL     1       6.713   1.944  -9.502  1.00  0.00    -0.248 NA
ATOM     32  C   UNL     1       6.611   0.510 -11.344  1.00  0.00     0.031 C 
ATOM     33  C   UNL     1       8.627   5.951  -9.544  1.00  0.00     0.029 A 
ATOM     34  C   UNL     1       8.014   4.708  -9.562  1.00  0.00     0.049 A 
ATOM     35  H   UNL     1       6.971   3.719  -8.017  1.00  0.00     0.167 HD
ATOM     36  C   UNL     1       7.344   2.547 -10.581  1.00  0.00     0.074 A 
ATOM     37  C   UNL     1       7.272   1.609 -11.684  1.00  0.00     0.031 C 
ATOM     38  C   UNL     1       7.928   3.768 -10.651  1.00  0.00     0.037 A 
BRANCH  25  39
ATOM     39  C   UNL     1       7.549   7.075  -5.444  1.00  0.00     0.057 A 
ATOM     40  C   UNL     1       8.481   7.181  -4.403  1.00  0.00     0.134 A 
ATOM     41  C   UNL     1       6.887   8.246  -5.838  1.00  0.00     0.134 A 
ATOM     42  F   UNL     1       9.142   6.097  -3.970  1.00  0.00    -0.206 F 
ATOM     43  C   UNL     1       8.725   8.397  -3.761  1.00  0.00     0.040 A 
ATOM     44  C   UNL     1       7.140   9.472  -5.220  1.00  0.00     0.040 A 
ATOM     45  F   UNL     1       5.988   8.218  -6.833  1.00  0.00    -0.206 F 
ATOM     46  C   UNL     1       8.056   9.549  -4.174  1.00  0.00     0.006 A 
ENDBRANCH  25  39
BRANCH  26  47
ATOM     47  C   UNL     1       5.142  -1.551  -9.850  1.00  0.00     0.057 A 
ATOM     48  C   UNL     1       6.072  -2.540 -10.186  1.00  0.00     0.134 A 
ATOM     49  C   UNL     1       3.791  -1.815 -10.111  1.00  0.00     0.134 A 
ATOM     50  F   UNL     1       7.380  -2.338  -9.971  1.00  0.00    -0.206 F 
ATOM     51  C   UNL     1       5.674  -3.748 -10.760  1.00  0.00     0.040 A 
ATOM     52  C   UNL     1       3.377  -3.027 -10.662  1.00  0.00     0.040 A 
ATOM     53  F   UNL     1       2.852  -0.909  -9.800  1.00  0.00    -0.206 F 
ATOM     54  C   UNL     1       4.321  -3.998 -10.991  1.00  0.00     0.006 A 
ENDBRANCH  26  47
BRANCH  38  55
ATOM     55  C   UNL     1       8.550   4.152 -11.960  1.00  0.00     0.057 A 
ATOM     56  C   UNL     1       7.772   4.519 -13.064  1.00  0.00     0.134 A 
ATOM     57  C   UNL     1       9.942   4.197 -12.102  1.00  0.00     0.134 A 
ATOM     58  F   UNL     1       6.433   4.481 -12.996  1.00  0.00    -0.206 F 
ATOM     59  C   UNL     1       8.358   4.903 -14.271  1.00  0.00     0.040 A 
ATOM     60  C   UNL     1      10.540   4.601 -13.296  1.00  0.00     0.040 A 
ATOM     61  F   UNL     1      10.743   3.862 -11.079  1.00  0.00    -0.206 F 
ATOM     62  C   UNL     1       9.746   4.953 -14.386  1.00  0.00     0.006 A 
ENDBRANCH  38  55
ENDBRANCH  12  13
ENDBRANCH   5   7
ENDBRANCH   2   3
ENDBRANCH   1   2
BRANCH   1  63
ATOM     63  C   UNL     1       4.377   0.007   3.856  1.00  0.00     0.118 C 
BRANCH  63  64
ATOM     64  N   UNL     1       4.905  -1.290   4.252  1.00  0.00    -0.352 N 
ATOM     65  C   UNL     1       5.736  -1.613   5.293  1.00  0.00     0.251 C 
ATOM     66  H   UNL     1       4.623  -2.047   3.689  1.00  0.00     0.163 HD
ATOM     67  O   UNL     1       6.259  -2.721   5.345  1.00  0.00    -0.269 OA
BRANCH  65  68
ATOM     68  C   UNL     1       6.003  -0.624   6.355  1.00  0.00     0.039 A 
ATOM     69  C   UNL     1       7.319  -0.393   6.753  1.00  0.00     0.016 A 
ATOM     70  C   UNL     1       4.951   0.046   6.984  1.00  0.00     0.016 A 
ATOM     71  C   UNL     1       7.586   0.554   7.747  1.00  0.00     0.027 A 
ATOM     72  C   UNL     1       5.222   0.993   7.971  1.00  0.00     0.027 A 
ATOM     73  C   UNL     1       6.541   1.253   8.373  1.00  0.00     0.051 A 
BRANCH  73  74
ATOM     74  N   UNL     1       6.816   2.228   9.379  1.00  0.00    -0.261 N 
ATOM     75  C   UNL     1       7.831   3.163   9.170  1.00  0.00     0.270 C 
ATOM     76  C   UNL     1       6.126   2.326  10.581  1.00  0.00     0.152 C 
ATOM     77  O   UNL     1       8.577   3.256   8.207  1.00  0.00    -0.268 OA
ATOM     78  C   UNL     1       7.875   4.130  10.302  1.00  0.00     0.084 C 
ATOM     79  S   UNL     1       6.705   3.720  11.486  1.00  0.00    -0.054 SA
ATOM     80  S   UNL     1       4.987   1.305  11.262  1.00  0.00    -0.051 S 
ATOM     81  C   UNL     1       8.700   5.186  10.281  1.00  0.00     0.068 C 
BRANCH  81  82
ATOM     82  C   UNL     1       8.755   6.152  11.320  1.00  0.00     0.127 A 
ATOM     83  C   UNL     1       8.990   5.994  12.682  1.00  0.00     0.050 A 
ATOM     84  O   UNL     1       8.586   7.497  11.084  1.00  0.00    -0.465 OA
ATOM     85  C   UNL     1       8.915   7.270  13.287  1.00  0.00     0.042 A 
ATOM     86  C   UNL     1       8.660   8.151  12.268  1.00  0.00     0.195 A 
ENDBRANCH  81  82
ENDBRANCH  73  74
ENDBRANCH  65  68
ENDBRANCH  63  64
ENDBRANCH   1  63
TORSDOF 12
