REMARK SMILES NC(=O)c1ccc(NC(=O)Cc2ccccc2C(=O)NCCCNC(=O)c2ccc(-c3c4nc(c(-c5c(F)cccc5F)c5ccc([nH]5)c(-c5c(F)cccc5F)c5nc(c(-c6c(F)cccc6F)c6ccc3[nH]6)C=C5)C=C4)cc2)cc1
REMARK SMILES IDX 21 1 20 2 18 3 19 4 17 6 12 7 13 8 14 9 16 10 15 11 11 12
REMARK SMILES IDX 9 13 8 14 10 16 7 17 4 18 5 19 82 20 6 21 81 22 2 23 1 24
REMARK SMILES IDX 3 27 22 28 23 29 24 30 25 31 26 33 27 34 28 35 80 36 29 37
REMARK SMILES IDX 79 38 30 39 31 40 32 41 73 42 33 43 78 44 72 45 74 46 34 47
REMARK SMILES IDX 77 48 71 49 70 50 35 52 61 53 44 54 60 55 45 56 48 57 59 58
REMARK SMILES IDX 75 59 46 60 47 61 58 63 76 64 49 65 36 66 37 67 42 68 38 69
REMARK SMILES IDX 39 70 41 71 43 72 40 73 62 74 63 75 68 76 64 77 65 78 67 79
REMARK SMILES IDX 69 80 66 81 50 82 51 83 56 84 52 85 53 86 55 87 57 88 54 89
REMARK H PARENT 20 5 8 15 1 25 1 26 24 32 74 51 48 62
REMARK Flexibility Score: inf
ROOT
ATOM      1  C   UNL     1       3.953   3.781  -6.955  1.00  0.00     0.118 C 
ENDROOT
BRANCH   1   2
ATOM      2  N   UNL     1       3.171   2.589  -6.561  1.00  0.00    -0.352 N 
ATOM      3  C   UNL     1       2.049   2.108  -7.232  1.00  0.00     0.251 C 
ATOM      4  O   UNL     1       2.283   1.185  -8.019  1.00  0.00    -0.269 OA
ATOM      5  H   UNL     1       3.466   2.096  -5.762  1.00  0.00     0.163 HD
BRANCH   3   6
ATOM      6  C   UNL     1       0.591   2.391  -6.851  1.00  0.00     0.043 A 
ATOM      7  C   UNL     1      -0.067   3.551  -6.374  1.00  0.00    -0.026 A 
ATOM      8  C   UNL     1      -1.492   3.548  -6.269  1.00  0.00     0.005 A 
ATOM      9  C   UNL     1      -2.260   2.417  -6.503  1.00  0.00     0.000 A 
ATOM     10  C   UNL     1      -0.232   1.246  -7.045  1.00  0.00     0.014 A 
ATOM     11  C   UNL     1      -1.621   1.248  -6.858  1.00  0.00     0.001 A 
BRANCH   7  12
ATOM     12  C   UNL     1       0.531   4.873  -5.963  1.00  0.00     0.136 C 
BRANCH  12  13
ATOM     13  C   UNL     1       1.659   4.880  -4.972  1.00  0.00     0.228 C 
ATOM     14  N   UNL     1       2.038   3.696  -4.423  1.00  0.00    -0.326 N 
ATOM     15  H   UNL     1       2.922   3.380  -4.721  1.00  0.00     0.169 HD
ATOM     16  O   UNL     1       2.356   5.891  -4.849  1.00  0.00    -0.274 OA
BRANCH  14  17
ATOM     17  C   UNL     1       1.411   2.850  -3.521  1.00  0.00     0.041 A 
ATOM     18  C   UNL     1       0.444   1.076  -1.631  1.00  0.00     0.039 A 
ATOM     19  C   UNL     1      -0.205   2.301  -1.845  1.00  0.00     0.016 A 
ATOM     20  C   UNL     1       1.544   0.709  -2.404  1.00  0.00     0.016 A 
ATOM     21  C   UNL     1       0.288   3.203  -2.790  1.00  0.00     0.027 A 
ATOM     22  C   UNL     1       2.024   1.599  -3.349  1.00  0.00     0.027 A 
BRANCH  18  23
ATOM     23  C   UNL     1      -0.039   0.184  -0.553  1.00  0.00     0.248 C 
ATOM     24  N   UNL     1       0.939  -0.448   0.172  1.00  0.00    -0.366 N 
ATOM     25  H   UNL     1       0.692  -1.057   0.905  1.00  0.00     0.159 HD
ATOM     26  H   UNL     1       1.887  -0.293  -0.041  1.00  0.00     0.159 HD
ATOM     27  O   UNL     1      -1.217   0.059  -0.306  1.00  0.00    -0.270 OA
ENDBRANCH  18  23
ENDBRANCH  14  17
ENDBRANCH  12  13
ENDBRANCH   7  12
ENDBRANCH   3   6
ENDBRANCH   1   2
BRANCH   1  28
ATOM     28  C   UNL     1       4.832   4.332  -5.807  1.00  0.00     0.042 C 
BRANCH  28  29
ATOM     29  C   UNL     1       6.191   3.669  -5.604  1.00  0.00     0.118 C 
BRANCH  29  30
ATOM     30  N   UNL     1       7.234   4.399  -6.296  1.00  0.00    -0.352 N 
ATOM     31  C   UNL     1       7.924   5.532  -5.927  1.00  0.00     0.251 C 
ATOM     32  H   UNL     1       7.491   4.025  -7.170  1.00  0.00     0.163 HD
ATOM     33  O   UNL     1       8.437   6.206  -6.820  1.00  0.00    -0.269 OA
BRANCH  31  34
ATOM     34  C   UNL     1       8.101   5.962  -4.510  1.00  0.00     0.039 A 
ATOM     35  C   UNL     1       8.341   7.322  -4.255  1.00  0.00     0.014 A 
ATOM     36  C   UNL     1       8.210   5.058  -3.452  1.00  0.00     0.014 A 
ATOM     37  C   UNL     1       8.714   7.759  -2.976  1.00  0.00     0.010 A 
ATOM     38  C   UNL     1       8.486   5.506  -2.155  1.00  0.00     0.010 A 
ATOM     39  C   UNL     1       8.799   6.852  -1.910  1.00  0.00    -0.014 A 
BRANCH  39  40
ATOM     40  C   UNL     1       9.320   7.261  -0.573  1.00  0.00     0.031 A 
ATOM     41  C   UNL     1      10.582   6.625  -0.033  1.00  0.00     0.074 A 
ATOM     42  C   UNL     1       8.659   8.165   0.175  1.00  0.00     0.049 A 
ATOM     43  N   UNL     1      11.151   6.761   1.139  1.00  0.00    -0.248 NA
ATOM     44  C   UNL     1      11.274   5.675  -0.919  1.00  0.00     0.031 C 
ATOM     45  C   UNL     1       7.412   8.829  -0.206  1.00  0.00     0.029 A 
ATOM     46  N   UNL     1       8.940   8.678   1.419  1.00  0.00    -0.354 N 
ATOM     47  C   UNL     1      12.235   5.888   1.141  1.00  0.00     0.074 A 
ATOM     48  C   UNL     1      12.210   5.185  -0.121  1.00  0.00     0.031 C 
ATOM     49  C   UNL     1       7.049   9.678   0.769  1.00  0.00     0.029 A 
ATOM     50  C   UNL     1       8.016   9.596   1.859  1.00  0.00     0.049 A 
ATOM     51  H   UNL     1       9.728   8.412   1.945  1.00  0.00     0.167 HD
ATOM     52  C   UNL     1      13.184   5.706   2.092  1.00  0.00     0.037 A 
ATOM     53  C   UNL     1       7.957  10.291   3.012  1.00  0.00     0.037 A 
ATOM     54  C   UNL     1      13.242   6.453   3.321  1.00  0.00     0.049 A 
ATOM     55  C   UNL     1       9.044  10.106   4.035  1.00  0.00     0.074 A 
ATOM     56  C   UNL     1      14.194   6.397   4.324  1.00  0.00     0.029 A 
ATOM     57  N   UNL     1      12.311   7.407   3.706  1.00  0.00    -0.354 N 
ATOM     58  N   UNL     1      10.084   9.309   4.003  1.00  0.00    -0.248 NA
ATOM     59  C   UNL     1       8.955  10.927   5.251  1.00  0.00     0.031 C 
ATOM     60  C   UNL     1      13.821   7.295   5.331  1.00  0.00     0.029 A 
ATOM     61  C   UNL     1      12.662   7.941   4.934  1.00  0.00     0.049 A 
ATOM     62  H   UNL     1      11.518   7.665   3.183  1.00  0.00     0.167 HD
ATOM     63  C   UNL     1      10.789   9.552   5.175  1.00  0.00     0.074 A 
ATOM     64  C   UNL     1      10.065  10.584   5.889  1.00  0.00     0.031 C 
ATOM     65  C   UNL     1      11.931   8.975   5.622  1.00  0.00     0.037 A 
BRANCH  52  66
ATOM     66  C   UNL     1      14.241   4.668   1.833  1.00  0.00     0.057 A 
ATOM     67  C   UNL     1      15.214   4.829   0.837  1.00  0.00     0.134 A 
ATOM     68  C   UNL     1      14.301   3.497   2.602  1.00  0.00     0.134 A 
ATOM     69  F   UNL     1      15.212   5.920   0.056  1.00  0.00    -0.206 F 
ATOM     70  C   UNL     1      16.180   3.852   0.589  1.00  0.00     0.040 A 
ATOM     71  C   UNL     1      15.281   2.526   2.385  1.00  0.00     0.040 A 
ATOM     72  F   UNL     1      13.409   3.278   3.580  1.00  0.00    -0.206 F 
ATOM     73  C   UNL     1      16.219   2.698   1.368  1.00  0.00     0.006 A 
ENDBRANCH  52  66
BRANCH  53  74
ATOM     74  C   UNL     1       6.852  11.258   3.241  1.00  0.00     0.057 A 
ATOM     75  C   UNL     1       7.090  12.638   3.241  1.00  0.00     0.134 A 
ATOM     76  C   UNL     1       5.536  10.832   3.461  1.00  0.00     0.134 A 
ATOM     77  F   UNL     1       8.332  13.108   3.056  1.00  0.00    -0.206 F 
ATOM     78  C   UNL     1       6.065  13.559   3.467  1.00  0.00     0.040 A 
ATOM     79  C   UNL     1       4.497  11.743   3.663  1.00  0.00     0.040 A 
ATOM     80  F   UNL     1       5.239   9.525   3.467  1.00  0.00    -0.206 F 
ATOM     81  C   UNL     1       4.762  13.111   3.673  1.00  0.00     0.006 A 
ENDBRANCH  53  74
BRANCH  65  82
ATOM     82  C   UNL     1      12.487   9.477   6.922  1.00  0.00     0.057 A 
ATOM     83  C   UNL     1      11.880   9.182   8.149  1.00  0.00     0.134 A 
ATOM     84  C   UNL     1      13.661  10.240   6.946  1.00  0.00     0.134 A 
ATOM     85  F   UNL     1      10.747   8.466   8.193  1.00  0.00    -0.206 F 
ATOM     86  C   UNL     1      12.406   9.654   9.353  1.00  0.00     0.040 A 
ATOM     87  C   UNL     1      14.212  10.693   8.145  1.00  0.00     0.040 A 
ATOM     88  F   UNL     1      14.298  10.547   5.806  1.00  0.00    -0.206 F 
ATOM     89  C   UNL     1      13.579  10.407   9.353  1.00  0.00     0.006 A 
ENDBRANCH  65  82
ENDBRANCH  39  40
ENDBRANCH  31  34
ENDBRANCH  29  30
ENDBRANCH  28  29
ENDBRANCH   1  28
TORSDOF 14
