REMARK SMILES CN(C)S(=O)(=O)c1ccc(-n2c(CCC(=O)NCCCNC(=O)c3ccc(-c4c5nc(c(-c6c(F)cccc6F)c6ccc([nH]6)c(-c6c(F)cccc6F)c6nc(c(-c7c(F)cccc7F)c7ccc4[nH]7)C=C6)C=C5)cc3)ccc2-c2ccc(F)cc2)cc1
REMARK SMILES IDX 15 1 16 2 17 3 14 5 13 6 12 7 11 8 80 9 78 10 79 11 10 12
REMARK SMILES IDX 7 13 8 14 89 15 9 16 88 17 4 18 5 19 6 20 2 21 1 22 3 23
REMARK SMILES IDX 81 24 82 25 87 26 83 27 86 28 84 29 85 30 18 31 19 32 20 33
REMARK SMILES IDX 21 34 22 35 23 37 24 38 25 39 77 40 26 41 76 42 27 43 28 44
REMARK SMILES IDX 29 45 70 46 30 47 75 48 69 49 71 50 31 51 74 52 68 53 67 54
REMARK SMILES IDX 32 56 58 57 41 58 57 59 42 60 45 61 56 62 72 63 43 64 44 65
REMARK SMILES IDX 55 67 73 68 46 69 33 70 34 71 39 72 35 73 36 74 38 75 40 76
REMARK SMILES IDX 37 77 59 78 60 79 65 80 61 81 62 82 64 83 66 84 63 85 47 86
REMARK SMILES IDX 48 87 53 88 49 89 50 90 52 91 54 92 51 93
REMARK H PARENT 17 4 21 36 71 55 45 66
REMARK Flexibility Score: inf
ROOT
ATOM      1  C   UNL     1       1.406  -6.654  -3.460  1.00  0.00     0.220 C 
ATOM      2  O   UNL     1       1.435  -6.371  -2.258  1.00  0.00    -0.275 OA
ATOM      3  N   UNL     1       2.235  -5.953  -4.291  1.00  0.00    -0.356 N 
ATOM      4  H   UNL     1       2.693  -5.191  -3.867  1.00  0.00     0.163 HD
ENDROOT
BRANCH   1   5
ATOM      5  C   UNL     1       0.395  -7.671  -3.973  1.00  0.00     0.106 C 
BRANCH   5   6
ATOM      6  C   UNL     1      -1.059  -7.161  -4.081  1.00  0.00     0.064 C 
BRANCH   6   7
ATOM      7  C   UNL     1      -1.419  -6.695  -5.471  1.00  0.00     0.024 A 
ATOM      8  N   UNL     1      -1.566  -5.373  -5.950  1.00  0.00    -0.314 N 
ATOM      9  C   UNL     1      -1.885  -5.509  -7.334  1.00  0.00     0.053 A 
ATOM     10  C   UNL     1      -1.727  -7.576  -6.496  1.00  0.00     0.024 A 
ATOM     11  C   UNL     1      -2.007  -6.845  -7.650  1.00  0.00     0.029 A 
BRANCH   8  12
ATOM     12  C   UNL     1      -1.292  -4.123  -5.226  1.00  0.00     0.046 A 
ATOM     13  C   UNL     1      -0.364  -1.734  -3.965  1.00  0.00     0.082 A 
ATOM     14  C   UNL     1      -1.271  -1.662  -5.016  1.00  0.00     0.024 A 
ATOM     15  C   UNL     1       0.023  -2.972  -3.492  1.00  0.00     0.024 A 
ATOM     16  C   UNL     1      -1.740  -2.855  -5.622  1.00  0.00     0.028 A 
ATOM     17  C   UNL     1      -0.467  -4.123  -4.105  1.00  0.00     0.028 A 
BRANCH  13  18
ATOM     18  S   UNL     1       0.300  -0.309  -3.145  1.00  0.00     0.242 S 
ATOM     19  O   UNL     1      -0.579   0.820  -3.402  1.00  0.00    -0.207 OA
ATOM     20  O   UNL     1       1.703  -0.267  -3.471  1.00  0.00    -0.207 OA
BRANCH  18  21
ATOM     21  N   UNL     1       0.134  -0.727  -1.489  1.00  0.00    -0.204 NA
ATOM     22  C   UNL     1       0.978   0.069  -0.572  1.00  0.00     0.124 C 
ATOM     23  C   UNL     1      -1.257  -0.850  -1.002  1.00  0.00     0.124 C 
ENDBRANCH  18  21
ENDBRANCH  13  18
ENDBRANCH   8  12
BRANCH   9  24
ATOM     24  C   UNL     1      -1.779  -4.437  -8.315  1.00  0.00    -0.001 A 
ATOM     25  C   UNL     1      -2.890  -3.679  -8.687  1.00  0.00     0.013 A 
ATOM     26  C   UNL     1      -0.491  -4.009  -8.630  1.00  0.00     0.013 A 
ATOM     27  C   UNL     1      -2.688  -2.342  -8.998  1.00  0.00     0.040 A 
ATOM     28  C   UNL     1      -0.290  -2.672  -8.875  1.00  0.00     0.040 A 
ATOM     29  C   UNL     1      -1.395  -1.844  -8.921  1.00  0.00     0.123 A 
ATOM     30  F   UNL     1      -1.233  -0.553  -8.646  1.00  0.00    -0.207 F 
ENDBRANCH   9  24
ENDBRANCH   6   7
ENDBRANCH   5   6
ENDBRANCH   1   5
BRANCH   3  31
ATOM     31  C   UNL     1       2.554  -6.143  -5.696  1.00  0.00     0.117 C 
BRANCH  31  32
ATOM     32  C   UNL     1       2.190  -4.974  -6.623  1.00  0.00     0.042 C 
BRANCH  32  33
ATOM     33  C   UNL     1       3.114  -3.740  -6.665  1.00  0.00     0.118 C 
BRANCH  33  34
ATOM     34  N   UNL     1       3.626  -3.517  -8.025  1.00  0.00    -0.352 N 
ATOM     35  C   UNL     1       3.681  -2.537  -8.983  1.00  0.00     0.251 C 
ATOM     36  H   UNL     1       4.071  -4.332  -8.353  1.00  0.00     0.163 HD
ATOM     37  O   UNL     1       4.263  -2.881 -10.019  1.00  0.00    -0.269 OA
BRANCH  35  38
ATOM     38  C   UNL     1       3.101  -1.153  -8.949  1.00  0.00     0.039 A 
ATOM     39  C   UNL     1       3.205  -0.405 -10.147  1.00  0.00     0.014 A 
ATOM     40  C   UNL     1       2.425  -0.558  -7.883  1.00  0.00     0.014 A 
ATOM     41  C   UNL     1       2.623   0.863 -10.292  1.00  0.00     0.010 A 
ATOM     42  C   UNL     1       1.822   0.708  -8.029  1.00  0.00     0.010 A 
ATOM     43  C   UNL     1       1.906   1.424  -9.235  1.00  0.00    -0.014 A 
BRANCH  43  44
ATOM     44  C   UNL     1       1.285   2.780  -9.375  1.00  0.00     0.031 A 
ATOM     45  C   UNL     1      -0.171   2.826  -9.861  1.00  0.00     0.074 A 
ATOM     46  C   UNL     1       2.072   3.830  -9.004  1.00  0.00     0.049 A 
ATOM     47  N   UNL     1      -0.959   3.826 -10.123  1.00  0.00    -0.248 NA
ATOM     48  C   UNL     1      -0.871   1.549 -10.077  1.00  0.00     0.031 C 
ATOM     49  C   UNL     1       3.467   3.679  -8.560  1.00  0.00     0.029 A 
ATOM     50  N   UNL     1       1.893   5.198  -8.925  1.00  0.00    -0.354 N 
ATOM     51  C   UNL     1      -2.270   3.311 -10.278  1.00  0.00     0.074 A 
ATOM     52  C   UNL     1      -2.154   1.887 -10.220  1.00  0.00     0.031 C 
ATOM     53  C   UNL     1       4.025   4.881  -8.339  1.00  0.00     0.029 A 
ATOM     54  C   UNL     1       3.055   5.930  -8.579  1.00  0.00     0.049 A 
ATOM     55  H   UNL     1       1.025   5.630  -9.096  1.00  0.00     0.167 HD
ATOM     56  C   UNL     1      -3.386   4.088 -10.401  1.00  0.00     0.037 A 
ATOM     57  C   UNL     1       3.253   7.282  -8.523  1.00  0.00     0.037 A 
ATOM     58  C   UNL     1      -3.031   5.454 -10.555  1.00  0.00     0.049 A 
ATOM     59  C   UNL     1       1.935   7.905  -8.727  1.00  0.00     0.074 A 
ATOM     60  C   UNL     1      -2.495   6.159 -11.599  1.00  0.00     0.029 A 
ATOM     61  N   UNL     1      -2.995   6.229  -9.429  1.00  0.00    -0.354 N 
ATOM     62  N   UNL     1       0.991   7.960  -7.835  1.00  0.00    -0.248 NA
ATOM     63  C   UNL     1       1.612   8.461 -10.047  1.00  0.00     0.031 C 
ATOM     64  C   UNL     1      -1.775   7.201 -10.980  1.00  0.00     0.029 A 
ATOM     65  C   UNL     1      -1.973   7.131  -9.597  1.00  0.00     0.049 A 
ATOM     66  H   UNL     1      -3.589   6.155  -8.647  1.00  0.00     0.167 HD
ATOM     67  C   UNL     1      -0.119   8.258  -8.591  1.00  0.00     0.074 A 
ATOM     68  C   UNL     1       0.360   8.844  -9.820  1.00  0.00     0.031 C 
ATOM     69  C   UNL     1      -1.266   7.558  -8.412  1.00  0.00     0.037 A 
BRANCH  56  70
ATOM     70  C   UNL     1      -4.855   3.786 -10.270  1.00  0.00     0.057 A 
ATOM     71  C   UNL     1      -5.784   4.638 -10.913  1.00  0.00     0.134 A 
ATOM     72  C   UNL     1      -5.376   2.970  -9.261  1.00  0.00     0.134 A 
ATOM     73  F   UNL     1      -5.404   5.435 -11.925  1.00  0.00    -0.206 F 
ATOM     74  C   UNL     1      -7.112   4.765 -10.493  1.00  0.00     0.040 A 
ATOM     75  C   UNL     1      -6.719   3.062  -8.856  1.00  0.00     0.040 A 
ATOM     76  F   UNL     1      -4.588   2.129  -8.577  1.00  0.00    -0.206 F 
ATOM     77  C   UNL     1      -7.579   3.989  -9.444  1.00  0.00     0.006 A 
ENDBRANCH  56  70
BRANCH  57  78
ATOM     78  C   UNL     1       4.445   8.210  -8.411  1.00  0.00     0.057 A 
ATOM     79  C   UNL     1       5.758   7.841  -8.101  1.00  0.00     0.134 A 
ATOM     80  C   UNL     1       4.308   9.591  -8.716  1.00  0.00     0.134 A 
ATOM     81  F   UNL     1       6.061   6.633  -7.622  1.00  0.00    -0.206 F 
ATOM     82  C   UNL     1       6.851   8.719  -8.231  1.00  0.00     0.040 A 
ATOM     83  C   UNL     1       5.385  10.472  -8.870  1.00  0.00     0.040 A 
ATOM     84  F   UNL     1       3.109  10.166  -8.885  1.00  0.00    -0.206 F 
ATOM     85  C   UNL     1       6.673  10.027  -8.655  1.00  0.00     0.006 A 
ENDBRANCH  57  78
BRANCH  69  86
ATOM     86  C   UNL     1      -1.399   6.941  -7.038  1.00  0.00     0.057 A 
ATOM     87  C   UNL     1      -1.589   7.759  -5.920  1.00  0.00     0.134 A 
ATOM     88  C   UNL     1      -1.229   5.573  -6.776  1.00  0.00     0.134 A 
ATOM     89  F   UNL     1      -1.763   9.080  -6.074  1.00  0.00    -0.206 F 
ATOM     90  C   UNL     1      -1.600   7.244  -4.617  1.00  0.00     0.040 A 
ATOM     91  C   UNL     1      -1.255   5.038  -5.484  1.00  0.00     0.040 A 
ATOM     92  F   UNL     1      -1.018   4.708  -7.767  1.00  0.00    -0.206 F 
ATOM     93  C   UNL     1      -1.431   5.880  -4.395  1.00  0.00     0.006 A 
ENDBRANCH  69  86
ENDBRANCH  43  44
ENDBRANCH  35  38
ENDBRANCH  33  34
ENDBRANCH  32  33
ENDBRANCH  31  32
ENDBRANCH   3  31
TORSDOF 16
