REMARK SMILES CCc1cc(S(F)(F)(F)(F)F)cc2c1O[C@@H](C(F)(F)F)C(C(=O)NCCCNC(=O)c1ccc(-c3c4nc(c(-c5c(F)cccc5F)c5ccc([nH]5)c(-c5c(F)cccc5F)c5nc(c(-c6c(F)cccc6F)c6ccc3[nH]6)C=C5)C=C4)cc1)=C2
REMARK SMILES IDX 26 1 25 2 24 3 22 4 23 5 21 7 3 8 4 9 14 10 5 11 13 12 15 13
REMARK SMILES IDX 12 14 85 15 16 16 2 17 1 18 6 19 7 20 8 21 9 22 10 23 11 24
REMARK SMILES IDX 17 25 18 26 19 27 20 28 27 29 28 30 29 31 30 33 31 34 32 35
REMARK SMILES IDX 84 36 33 37 83 38 34 39 35 40 36 41 77 42 37 43 82 44 76 45
REMARK SMILES IDX 78 46 38 47 81 48 75 49 74 50 39 52 65 53 48 54 64 55 49 56
REMARK SMILES IDX 52 57 63 58 79 59 50 60 51 61 62 63 80 64 53 65 40 66 41 67
REMARK SMILES IDX 46 68 42 69 43 70 45 71 47 72 44 73 66 74 67 75 72 76 68 77
REMARK SMILES IDX 69 78 71 79 73 80 70 81 54 82 55 83 60 84 56 85 57 86 59 87
REMARK SMILES IDX 61 88 58 89
REMARK H PARENT 24 6 28 32 78 51 52 62
REMARK Flexibility Score: inf
ROOT
ATOM      1  C   UNL     1      -0.658   9.287   1.032  1.00  0.00     0.042 C 
ENDROOT
BRANCH   1   2
ATOM      2  C   UNL     1      -0.808   8.238   2.122  1.00  0.00     0.118 C 
BRANCH   2   3
ATOM      3  N   UNL     1      -2.233   7.927   2.310  1.00  0.00    -0.352 N 
ATOM      4  C   UNL     1      -2.720   6.556   2.102  1.00  0.00     0.251 C 
ATOM      5  O   UNL     1      -3.951   6.287   2.264  1.00  0.00    -0.270 OA
ATOM      6  H   UNL     1      -2.861   8.637   2.575  1.00  0.00     0.163 HD
BRANCH   4   7
ATOM      7  C   UNL     1      -1.750   5.459   1.692  1.00  0.00     0.067 C 
ATOM      8  C   UNL     1       0.919   2.309   1.061  1.00  0.00    -0.004 A 
ATOM      9  C   UNL     1       2.224   2.574   0.686  1.00  0.00     0.032 A 
ATOM     10  C   UNL     1       0.077   3.364   1.314  1.00  0.00     0.131 A 
ATOM     11  C   UNL     1       2.676   3.863   0.572  1.00  0.00     0.108 A 
ATOM     12  C   UNL     1       0.493   4.678   1.191  1.00  0.00     0.019 A 
ATOM     13  O   UNL     1      -1.179   3.086   1.794  1.00  0.00    -0.475 OA
ATOM     14  C   UNL     1       1.812   4.910   0.817  1.00  0.00     0.036 A 
ATOM     15  C   UNL     1      -0.461   5.724   1.519  1.00  0.00     0.025 C 
ATOM     16  C   UNL     1      -2.237   4.033   1.472  1.00  0.00     0.314 C 
BRANCH   8  17
ATOM     17  C   UNL     1       0.413   0.881   1.190  1.00  0.00     0.036 C 
ATOM     18  C   UNL     1       0.919   0.056   0.018  1.00  0.00     0.009 C 
ENDBRANCH   8  17
BRANCH  11  19
ATOM     19  S   UNL     1       4.394   4.188   0.104  1.00  0.00     0.310 S 
ATOM     20  F   UNL     1       4.871   4.216   1.616  1.00  0.00    -0.094 F 
ATOM     21  F   UNL     1       4.105   5.731   0.239  1.00  0.00    -0.094 F 
ATOM     22  F   UNL     1       5.867   4.471  -0.303  1.00  0.00    -0.094 F 
ATOM     23  F   UNL     1       4.701   2.639   0.111  1.00  0.00    -0.094 F 
ATOM     24  F   UNL     1       2.932   3.886   0.625  1.00  0.00    -0.094 F 
ENDBRANCH  11  19
BRANCH  16  25
ATOM     25  C   UNL     1      -3.429   3.770   2.378  1.00  0.00     0.429 C 
ATOM     26  F   UNL     1      -4.403   4.629   2.089  1.00  0.00    -0.167 F 
ATOM     27  F   UNL     1      -3.864   2.527   2.189  1.00  0.00    -0.167 F 
ATOM     28  F   UNL     1      -3.064   3.925   3.647  1.00  0.00    -0.167 F 
ENDBRANCH  16  25
ENDBRANCH   4   7
ENDBRANCH   2   3
ENDBRANCH   1   2
BRANCH   1  29
ATOM     29  C   UNL     1      -1.403  10.548   1.437  1.00  0.00     0.118 C 
BRANCH  29  30
ATOM     30  N   UNL     1      -0.844  11.065   2.695  1.00  0.00    -0.352 N 
ATOM     31  C   UNL     1      -0.260  12.413   2.740  1.00  0.00     0.251 C 
ATOM     32  H   UNL     1      -0.861  10.508   3.506  1.00  0.00     0.163 HD
ATOM     33  O   UNL     1       0.223  12.860   3.828  1.00  0.00    -0.269 OA
BRANCH  31  34
ATOM     34  C   UNL     1      -0.234  13.273   1.487  1.00  0.00     0.039 A 
ATOM     35  C   UNL     1       0.916  13.962   1.139  1.00  0.00     0.014 A 
ATOM     36  C   UNL     1      -1.330  13.340   0.741  1.00  0.00     0.014 A 
ATOM     37  C   UNL     1       0.719  14.934   0.130  1.00  0.00     0.010 A 
ATOM     38  C   UNL     1      -1.404  14.217  -0.315  1.00  0.00     0.010 A 
ATOM     39  C   UNL     1      -0.325  14.973  -0.678  1.00  0.00    -0.014 A 
BRANCH  39  40
ATOM     40  C   UNL     1      -0.325  15.813  -1.945  1.00  0.00     0.031 A 
ATOM     41  C   UNL     1      -1.292  16.812  -2.069  1.00  0.00     0.074 A 
ATOM     42  C   UNL     1       0.633  15.540  -2.906  1.00  0.00     0.049 A 
ATOM     43  N   UNL     1      -1.446  17.675  -3.075  1.00  0.00    -0.248 NA
ATOM     44  C   UNL     1      -2.333  17.081  -1.066  1.00  0.00     0.031 C 
ATOM     45  C   UNL     1       1.617  14.539  -2.785  1.00  0.00     0.029 A 
ATOM     46  N   UNL     1       0.812  16.162  -4.122  1.00  0.00    -0.354 N 
ATOM     47  C   UNL     1      -2.470  18.494  -2.827  1.00  0.00     0.074 A 
ATOM     48  C   UNL     1      -3.059  18.120  -1.534  1.00  0.00     0.031 C 
ATOM     49  C   UNL     1       2.371  14.550  -3.915  1.00  0.00     0.029 A 
ATOM     50  C   UNL     1       1.872  15.557  -4.762  1.00  0.00     0.049 A 
ATOM     51  H   UNL     1       0.276  16.909  -4.473  1.00  0.00     0.167 HD
ATOM     52  C   UNL     1      -2.935  19.539  -3.627  1.00  0.00     0.037 A 
ATOM     53  C   UNL     1       2.387  15.853  -6.014  1.00  0.00     0.037 A 
ATOM     54  C   UNL     1      -2.392  19.862  -4.860  1.00  0.00     0.049 A 
ATOM     55  C   UNL     1       1.885  16.861  -6.841  1.00  0.00     0.074 A 
ATOM     56  C   UNL     1      -2.844  20.917  -5.676  1.00  0.00     0.029 A 
ATOM     57  N   UNL     1      -1.349  19.242  -5.511  1.00  0.00    -0.354 N 
ATOM     58  N   UNL     1       0.886  17.704  -6.576  1.00  0.00    -0.248 NA
ATOM     59  C   UNL     1       2.401  17.161  -8.183  1.00  0.00     0.031 C 
ATOM     60  C   UNL     1      -2.089  20.928  -6.808  1.00  0.00     0.029 A 
ATOM     61  C   UNL     1      -1.155  19.879  -6.717  1.00  0.00     0.049 A 
ATOM     62  H   UNL     1      -0.831  18.476  -5.173  1.00  0.00     0.167 HD
ATOM     63  C   UNL     1       0.706  18.541  -7.600  1.00  0.00     0.074 A 
ATOM     64  C   UNL     1       1.673  18.198  -8.652  1.00  0.00     0.031 C 
ATOM     65  C   UNL     1      -0.223  19.578  -7.699  1.00  0.00     0.037 A 
BRANCH  52  66
ATOM     66  C   UNL     1      -4.102  20.369  -3.117  1.00  0.00     0.057 A 
ATOM     67  C   UNL     1      -3.957  21.026  -1.906  1.00  0.00     0.134 A 
ATOM     68  C   UNL     1      -5.235  20.436  -3.806  1.00  0.00     0.134 A 
ATOM     69  F   UNL     1      -2.781  21.198  -1.310  1.00  0.00    -0.206 F 
ATOM     70  C   UNL     1      -5.175  21.498  -1.361  1.00  0.00     0.040 A 
ATOM     71  C   UNL     1      -6.348  21.033  -3.265  1.00  0.00     0.040 A 
ATOM     72  F   UNL     1      -5.293  19.922  -5.031  1.00  0.00    -0.206 F 
ATOM     73  C   UNL     1      -6.293  21.650  -2.047  1.00  0.00     0.006 A 
ENDBRANCH  52  66
BRANCH  53  74
ATOM     74  C   UNL     1       3.564  15.034  -6.517  1.00  0.00     0.057 A 
ATOM     75  C   UNL     1       4.748  15.697  -6.793  1.00  0.00     0.134 A 
ATOM     76  C   UNL     1       3.461  13.718  -6.667  1.00  0.00     0.134 A 
ATOM     77  F   UNL     1       4.979  16.954  -6.424  1.00  0.00    -0.206 F 
ATOM     78  C   UNL     1       5.690  14.917  -7.505  1.00  0.00     0.040 A 
ATOM     79  C   UNL     1       4.477  12.998  -7.247  1.00  0.00     0.040 A 
ATOM     80  F   UNL     1       2.363  13.092  -6.251  1.00  0.00    -0.206 F 
ATOM     81  C   UNL     1       5.653  13.600  -7.599  1.00  0.00     0.006 A 
ENDBRANCH  53  74
BRANCH  65  82
ATOM     82  C   UNL     1      -0.213  20.428  -8.958  1.00  0.00     0.057 A 
ATOM     83  C   UNL     1      -0.433  19.834 -10.190  1.00  0.00     0.134 A 
ATOM     84  C   UNL     1       0.008  21.733  -8.853  1.00  0.00     0.134 A 
ATOM     85  F   UNL     1      -0.903  18.597 -10.325  1.00  0.00    -0.206 F 
ATOM     86  C   UNL     1      -0.113  20.662 -11.292  1.00  0.00     0.040 A 
ATOM     87  C   UNL     1       0.177  22.507  -9.976  1.00  0.00     0.040 A 
ATOM     88  F   UNL     1       0.066  22.297  -7.650  1.00  0.00    -0.206 F 
ATOM     89  C   UNL     1       0.032  21.973 -11.226  1.00  0.00     0.006 A 
ENDBRANCH  65  82
ENDBRANCH  39  40
ENDBRANCH  31  34
ENDBRANCH  29  30
ENDBRANCH   1  29
TORSDOF 13
