REMARK SMILES Cc1cccc(-c2cccc(O)c2)c1C(=O)NCCCNC(=O)c1ccc(-c2c3nc(c(-c4c(F)cccc4F)c4ccc([nH]4)c(-c4c(F)cccc4F)c4nc(c(-c5c(F)cccc5F)c5ccc2[nH]5)C=C4)C=C3)cc1
REMARK SMILES IDX 19 1 18 2 17 3 15 4 16 5 14 7 1 8 2 9 3 10 4 11 6 12 5 13
REMARK SMILES IDX 7 14 8 15 13 16 9 17 11 18 10 19 12 20 20 22 21 23 22 24
REMARK SMILES IDX 23 26 24 27 25 28 77 29 26 30 76 31 27 32 28 33 29 34 70 35
REMARK SMILES IDX 30 36 75 37 69 38 71 39 31 40 74 41 68 42 67 43 32 45 58 46
REMARK SMILES IDX 41 47 57 48 42 49 45 50 56 51 72 52 43 53 44 54 55 56 73 57
REMARK SMILES IDX 46 58 33 59 34 60 39 61 35 62 36 63 38 64 40 65 37 66 59 67
REMARK SMILES IDX 60 68 65 69 61 70 62 71 64 72 66 73 63 74 47 75 48 76 53 77
REMARK SMILES IDX 49 78 50 79 52 80 54 81 51 82
REMARK H PARENT 17 6 12 21 21 25 71 44 45 55
REMARK Flexibility Score: inf
ROOT
ATOM      1  C   UNL     1       4.220   0.492  -0.724  1.00  0.00     0.042 C 
ENDROOT
BRANCH   1   2
ATOM      2  C   UNL     1       3.460   1.054   0.486  1.00  0.00     0.118 C 
BRANCH   2   3
ATOM      3  N   UNL     1       2.427   1.981   0.055  1.00  0.00    -0.352 N 
ATOM      4  C   UNL     1       1.095   1.953  -0.283  1.00  0.00     0.252 C 
ATOM      5  O   UNL     1       0.737   3.037  -0.752  1.00  0.00    -0.269 OA
ATOM      6  H   UNL     1       2.785   2.895  -0.016  1.00  0.00     0.163 HD
BRANCH   4   7
ATOM      7  C   UNL     1       0.087   0.821  -0.118  1.00  0.00     0.050 A 
ATOM      8  C   UNL     1       1.637  -1.140  -0.838  1.00  0.00     0.045 C 
ATOM      9  C   UNL     1       0.381  -0.564  -0.269  1.00  0.00    -0.038 A 
ATOM     10  C   UNL     1      -0.594  -1.552   0.009  1.00  0.00     0.004 A 
ATOM     11  C   UNL     1      -1.897  -1.217   0.301  1.00  0.00     0.001 A 
ATOM     12  C   UNL     1      -1.293   1.160   0.122  1.00  0.00    -0.005 A 
ATOM     13  C   UNL     1      -2.244   0.120   0.318  1.00  0.00     0.009 A 
BRANCH  12  14
ATOM     14  C   UNL     1      -1.904   2.518   0.127  1.00  0.00    -0.014 A 
ATOM     15  C   UNL     1      -1.955   3.309  -1.035  1.00  0.00     0.009 A 
ATOM     16  C   UNL     1      -2.628   2.970   1.246  1.00  0.00     0.055 A 
ATOM     17  C   UNL     1      -2.640   4.529  -1.060  1.00  0.00     0.004 A 
ATOM     18  C   UNL     1      -3.352   4.160   1.198  1.00  0.00     0.116 A 
ATOM     19  C   UNL     1      -3.350   4.954   0.058  1.00  0.00     0.046 A 
BRANCH  18  20
ATOM     20  O   UNL     1      -4.087   4.501   2.296  1.00  0.00    -0.508 OA
ATOM     21  H   UNL     1      -4.586   5.294   2.299  1.00  0.00     0.293 HD
ENDBRANCH  18  20
ENDBRANCH  12  14
ENDBRANCH   4   7
ENDBRANCH   2   3
ENDBRANCH   1   2
BRANCH   1  22
ATOM     22  C   UNL     1       5.510   1.202  -1.103  1.00  0.00     0.118 C 
BRANCH  22  23
ATOM     23  N   UNL     1       6.704   0.372  -0.933  1.00  0.00    -0.352 N 
ATOM     24  C   UNL     1       8.004   0.645  -1.342  1.00  0.00     0.251 C 
ATOM     25  H   UNL     1       6.570  -0.486  -0.471  1.00  0.00     0.163 HD
ATOM     26  O   UNL     1       8.929  -0.086  -1.049  1.00  0.00    -0.269 OA
BRANCH  24  27
ATOM     27  C   UNL     1       8.239   1.935  -2.031  1.00  0.00     0.039 A 
ATOM     28  C   UNL     1       8.981   2.890  -1.336  1.00  0.00     0.014 A 
ATOM     29  C   UNL     1       7.425   2.292  -3.102  1.00  0.00     0.014 A 
ATOM     30  C   UNL     1       8.667   4.232  -1.510  1.00  0.00     0.010 A 
ATOM     31  C   UNL     1       7.051   3.618  -3.216  1.00  0.00     0.010 A 
ATOM     32  C   UNL     1       7.611   4.572  -2.358  1.00  0.00    -0.014 A 
BRANCH  32  33
ATOM     33  C   UNL     1       6.985   5.889  -2.323  1.00  0.00     0.031 A 
ATOM     34  C   UNL     1       7.332   6.889  -3.346  1.00  0.00     0.074 A 
ATOM     35  C   UNL     1       6.126   6.235  -1.338  1.00  0.00     0.049 A 
ATOM     36  N   UNL     1       7.373   8.160  -3.126  1.00  0.00    -0.248 NA
ATOM     37  C   UNL     1       7.704   6.516  -4.702  1.00  0.00     0.031 C 
ATOM     38  C   UNL     1       5.340   7.464  -1.247  1.00  0.00     0.029 A 
ATOM     39  N   UNL     1       5.971   5.632  -0.084  1.00  0.00    -0.354 N 
ATOM     40  C   UNL     1       7.506   8.784  -4.342  1.00  0.00     0.074 A 
ATOM     41  C   UNL     1       7.776   7.717  -5.282  1.00  0.00     0.031 C 
ATOM     42  C   UNL     1       5.054   7.698   0.042  1.00  0.00     0.029 A 
ATOM     43  C   UNL     1       5.720   6.681   0.833  1.00  0.00     0.049 A 
ATOM     44  H   UNL     1       6.026   4.670   0.119  1.00  0.00     0.167 HD
ATOM     45  C   UNL     1       7.248  10.119  -4.447  1.00  0.00     0.037 A 
ATOM     46  C   UNL     1       6.555   6.904   1.888  1.00  0.00     0.037 A 
ATOM     47  C   UNL     1       6.885  10.711  -3.159  1.00  0.00     0.049 A 
ATOM     48  C   UNL     1       7.271   8.236   1.847  1.00  0.00     0.074 A 
ATOM     49  C   UNL     1       5.684  11.054  -2.558  1.00  0.00     0.029 A 
ATOM     50  N   UNL     1       7.835  10.767  -2.154  1.00  0.00    -0.354 N 
ATOM     51  N   UNL     1       7.080   9.154   0.940  1.00  0.00    -0.248 NA
ATOM     52  C   UNL     1       8.348   8.588   2.774  1.00  0.00     0.031 C 
ATOM     53  C   UNL     1       5.930  11.328  -1.182  1.00  0.00     0.029 A 
ATOM     54  C   UNL     1       7.279  11.150  -0.946  1.00  0.00     0.049 A 
ATOM     55  H   UNL     1       8.788  10.559  -2.282  1.00  0.00     0.167 HD
ATOM     56  C   UNL     1       8.014  10.146   1.095  1.00  0.00     0.074 A 
ATOM     57  C   UNL     1       8.783   9.749   2.260  1.00  0.00     0.031 C 
ATOM     58  C   UNL     1       8.130  11.197   0.232  1.00  0.00     0.037 A 
BRANCH  45  59
ATOM     59  C   UNL     1       7.064  10.811  -5.777  1.00  0.00     0.057 A 
ATOM     60  C   UNL     1       6.163  11.882  -5.921  1.00  0.00     0.134 A 
ATOM     61  C   UNL     1       7.709  10.432  -6.967  1.00  0.00     0.134 A 
ATOM     62  F   UNL     1       5.567  12.451  -4.866  1.00  0.00    -0.206 F 
ATOM     63  C   UNL     1       5.823  12.426  -7.166  1.00  0.00     0.040 A 
ATOM     64  C   UNL     1       7.335  10.921  -8.226  1.00  0.00     0.040 A 
ATOM     65  F   UNL     1       8.766   9.607  -6.956  1.00  0.00    -0.206 F 
ATOM     66  C   UNL     1       6.371  11.912  -8.331  1.00  0.00     0.006 A 
ENDBRANCH  45  59
BRANCH  46  67
ATOM     67  C   UNL     1       7.106   5.637   2.433  1.00  0.00     0.057 A 
ATOM     68  C   UNL     1       6.202   4.710   2.985  1.00  0.00     0.134 A 
ATOM     69  C   UNL     1       8.356   5.155   2.039  1.00  0.00     0.134 A 
ATOM     70  F   UNL     1       4.992   5.115   3.403  1.00  0.00    -0.206 F 
ATOM     71  C   UNL     1       6.464   3.340   2.984  1.00  0.00     0.040 A 
ATOM     72  C   UNL     1       8.638   3.787   2.061  1.00  0.00     0.040 A 
ATOM     73  F   UNL     1       9.271   5.979   1.508  1.00  0.00    -0.206 F 
ATOM     74  C   UNL     1       7.671   2.872   2.477  1.00  0.00     0.006 A 
ENDBRANCH  46  67
BRANCH  58  75
ATOM     75  C   UNL     1       9.090  12.341   0.433  1.00  0.00     0.057 A 
ATOM     76  C   UNL     1       9.339  12.908   1.693  1.00  0.00     0.134 A 
ATOM     77  C   UNL     1       9.711  12.993  -0.651  1.00  0.00     0.134 A 
ATOM     78  F   UNL     1       8.723  12.451   2.794  1.00  0.00    -0.206 F 
ATOM     79  C   UNL     1      10.210  13.990   1.872  1.00  0.00     0.040 A 
ATOM     80  C   UNL     1      10.543  14.106  -0.491  1.00  0.00     0.040 A 
ATOM     81  F   UNL     1       9.553  12.574  -1.914  1.00  0.00    -0.206 F 
ATOM     82  C   UNL     1      10.812  14.597   0.777  1.00  0.00     0.006 A 
ENDBRANCH  58  75
ENDBRANCH  32  33
ENDBRANCH  24  27
ENDBRANCH  22  23
ENDBRANCH   1  22
TORSDOF 12
