REMARK SMILES Cc1nc2sc3c(c2c2nc(CCC(=O)NCCCNC(=O)c4ccc(-c5c6nc(c(-c7c(F)cccc7F)c7ccc([nH]7)c(-c7c(F)cccc7F)c7nc(c(-c8c(F)cccc8F)c8ccc5[nH]8)C=C7)C=C6)cc4)nn12)[C@@H](C)CCC3
REMARK SMILES IDX 18 1 17 2 16 3 14 4 15 5 13 7 12 8 11 9 1 10 2 11 3 12 78 13
REMARK SMILES IDX 4 14 9 15 77 16 5 17 8 18 10 19 6 20 7 21 83 22 79 23 82 24
REMARK SMILES IDX 80 25 81 26 19 27 20 28 21 29 22 31 23 32 24 33 76 34 25 35
REMARK SMILES IDX 75 36 26 37 27 38 28 39 69 40 29 41 74 42 68 43 70 44 30 45
REMARK SMILES IDX 73 46 67 47 66 48 31 50 57 51 40 52 56 53 41 54 44 55 55 56
REMARK SMILES IDX 71 57 42 58 43 59 54 61 72 62 45 63 32 64 33 65 38 66 34 67
REMARK SMILES IDX 35 68 37 69 39 70 36 71 58 72 59 73 64 74 60 75 61 76 63 77
REMARK SMILES IDX 65 78 62 79 46 80 47 81 52 82 48 83 49 84 51 85 53 86 50 87
REMARK H PARENT 16 6 20 30 70 49 44 60
REMARK Flexibility Score: inf
ROOT
ATOM      1  C   UNL     1       2.367   2.910  -3.082  1.00  0.00     0.042 C 
ENDROOT
BRANCH   1   2
ATOM      2  C   UNL     1       3.525   3.801  -2.420  1.00  0.00     0.117 C 
BRANCH   2   3
ATOM      3  N   UNL     1       3.276   5.166  -1.917  1.00  0.00    -0.356 N 
ATOM      4  C   UNL     1       3.534   5.831  -0.742  1.00  0.00     0.220 C 
ATOM      5  O   UNL     1       3.533   7.091  -0.798  1.00  0.00    -0.275 OA
ATOM      6  H   UNL     1       2.818   5.733  -2.578  1.00  0.00     0.163 HD
BRANCH   4   7
ATOM      7  C   UNL     1       3.849   5.194   0.600  1.00  0.00     0.108 C 
BRANCH   7   8
ATOM      8  C   UNL     1       2.793   5.468   1.692  1.00  0.00     0.089 C 
BRANCH   8   9
ATOM      9  C   UNL     1       1.531   4.793   1.347  1.00  0.00     0.152 A 
ATOM     10  C   UNL     1       0.598   0.841   0.565  1.00  0.00     0.090 C 
ATOM     11  C   UNL     1      -0.037   2.067  -0.016  1.00  0.00     0.131 A 
ATOM     12  N   UNL     1      -0.863   2.015  -1.025  1.00  0.00    -0.222 NA
ATOM     13  N   UNL     1       0.380   3.288   0.523  1.00  0.00    -0.199 N 
ATOM     14  C   UNL     1      -1.122   3.224  -1.620  1.00  0.00     0.129 A 
ATOM     15  C   UNL     1       0.008   4.501  -0.007  1.00  0.00     0.168 A 
ATOM     16  N   UNL     1       1.381   3.459   1.408  1.00  0.00    -0.150 NA
ATOM     17  S   UNL     1      -1.881   3.294  -3.102  1.00  0.00    -0.120 S 
ATOM     18  C   UNL     1      -0.718   4.508  -1.275  1.00  0.00     0.060 A 
ATOM     19  N   UNL     1       0.620   5.471   0.598  1.00  0.00    -0.211 NA
ATOM     20  C   UNL     1      -1.223   4.820  -3.442  1.00  0.00     0.011 A 
ATOM     21  C   UNL     1      -0.849   5.506  -2.309  1.00  0.00    -0.018 A 
ATOM     22  C   UNL     1      -0.923   5.333  -4.798  1.00  0.00     0.047 C 
ATOM     23  C   UNL     1      -0.488   6.992  -2.446  1.00  0.00     0.018 C 
ATOM     24  C   UNL     1      -1.174   6.787  -4.891  1.00  0.00     0.006 C 
ATOM     25  C   UNL     1       0.812   7.405  -1.822  1.00  0.00     0.013 C 
ATOM     26  C   UNL     1      -0.294   7.483  -3.914  1.00  0.00     0.008 C 
ENDBRANCH   8   9
ENDBRANCH   7   8
ENDBRANCH   4   7
ENDBRANCH   2   3
ENDBRANCH   1   2
BRANCH   1  27
ATOM     27  C   UNL     1       1.571   3.371  -4.382  1.00  0.00     0.118 C 
BRANCH  27  28
ATOM     28  N   UNL     1       0.807   2.318  -5.268  1.00  0.00    -0.352 N 
ATOM     29  C   UNL     1      -0.254   2.097  -6.222  1.00  0.00     0.251 C 
ATOM     30  H   UNL     1       1.229   1.444  -5.102  1.00  0.00     0.163 HD
ATOM     31  O   UNL     1      -0.118   1.062  -6.893  1.00  0.00    -0.269 OA
BRANCH  29  32
ATOM     32  C   UNL     1      -1.512   2.901  -6.607  1.00  0.00     0.039 A 
ATOM     33  C   UNL     1      -1.628   3.644  -7.794  1.00  0.00     0.014 A 
ATOM     34  C   UNL     1      -2.721   2.863  -5.909  1.00  0.00     0.014 A 
ATOM     35  C   UNL     1      -2.570   4.726  -7.920  1.00  0.00     0.010 A 
ATOM     36  C   UNL     1      -3.619   3.982  -5.969  1.00  0.00     0.010 A 
ATOM     37  C   UNL     1      -3.412   5.065  -6.861  1.00  0.00    -0.014 A 
BRANCH  37  38
ATOM     38  C   UNL     1      -4.019   6.448  -6.607  1.00  0.00     0.031 A 
ATOM     39  C   UNL     1      -5.263   6.405  -5.788  1.00  0.00     0.074 A 
ATOM     40  C   UNL     1      -3.583   7.743  -6.794  1.00  0.00     0.049 A 
ATOM     41  N   UNL     1      -6.441   6.216  -6.279  1.00  0.00    -0.248 NA
ATOM     42  C   UNL     1      -5.230   6.422  -4.315  1.00  0.00     0.031 C 
ATOM     43  C   UNL     1      -2.289   8.266  -7.269  1.00  0.00     0.029 A 
ATOM     44  N   UNL     1      -4.238   8.937  -6.491  1.00  0.00    -0.354 N 
ATOM     45  C   UNL     1      -7.322   6.293  -5.215  1.00  0.00     0.074 A 
ATOM     46  C   UNL     1      -6.514   6.171  -4.028  1.00  0.00     0.031 C 
ATOM     47  C   UNL     1      -2.170   9.599  -7.005  1.00  0.00     0.029 A 
ATOM     48  C   UNL     1      -3.469  10.109  -6.603  1.00  0.00     0.049 A 
ATOM     49  H   UNL     1      -5.183   8.957  -6.214  1.00  0.00     0.167 HD
ATOM     50  C   UNL     1      -8.605   6.709  -5.407  1.00  0.00     0.037 A 
ATOM     51  C   UNL     1      -3.890  11.409  -6.559  1.00  0.00     0.037 A 
ATOM     52  C   UNL     1      -8.824   7.013  -6.806  1.00  0.00     0.049 A 
ATOM     53  C   UNL     1      -5.278  11.389  -7.061  1.00  0.00     0.074 A 
ATOM     54  C   UNL     1      -8.955   6.301  -7.980  1.00  0.00     0.029 A 
ATOM     55  N   UNL     1      -8.470   8.293  -7.151  1.00  0.00    -0.354 N 
ATOM     56  N   UNL     1      -5.592  11.067  -8.283  1.00  0.00    -0.248 NA
ATOM     57  C   UNL     1      -6.391  11.512  -6.133  1.00  0.00     0.031 C 
ATOM     58  C   UNL     1      -8.433   7.139  -9.015  1.00  0.00     0.029 A 
ATOM     59  C   UNL     1      -8.045   8.353  -8.455  1.00  0.00     0.049 A 
ATOM     60  H   UNL     1      -8.514   9.066  -6.543  1.00  0.00     0.167 HD
ATOM     61  C   UNL     1      -6.831  10.485  -8.155  1.00  0.00     0.074 A 
ATOM     62  C   UNL     1      -7.352  10.970  -6.883  1.00  0.00     0.031 C 
ATOM     63  C   UNL     1      -7.163   9.406  -8.915  1.00  0.00     0.037 A 
BRANCH  50  64
ATOM     64  C   UNL     1      -9.545   7.238  -4.356  1.00  0.00     0.057 A 
ATOM     65  C   UNL     1     -10.915   7.354  -4.656  1.00  0.00     0.134 A 
ATOM     66  C   UNL     1      -9.147   7.837  -3.147  1.00  0.00     0.134 A 
ATOM     67  F   UNL     1     -11.414   6.859  -5.799  1.00  0.00    -0.206 F 
ATOM     68  C   UNL     1     -11.816   8.030  -3.822  1.00  0.00     0.040 A 
ATOM     69  C   UNL     1     -10.046   8.465  -2.279  1.00  0.00     0.040 A 
ATOM     70  F   UNL     1      -7.860   7.938  -2.792  1.00  0.00    -0.206 F 
ATOM     71  C   UNL     1     -11.384   8.581  -2.623  1.00  0.00     0.006 A 
ENDBRANCH  50  64
BRANCH  51  72
ATOM     72  C   UNL     1      -3.305  12.739  -6.206  1.00  0.00     0.057 A 
ATOM     73  C   UNL     1      -3.806  13.940  -6.757  1.00  0.00     0.134 A 
ATOM     74  C   UNL     1      -2.547  12.885  -5.037  1.00  0.00     0.134 A 
ATOM     75  F   UNL     1      -4.553  13.922  -7.870  1.00  0.00    -0.206 F 
ATOM     76  C   UNL     1      -3.635  15.191  -6.140  1.00  0.00     0.040 A 
ATOM     77  C   UNL     1      -2.368  14.132  -4.408  1.00  0.00     0.040 A 
ATOM     78  F   UNL     1      -2.055  11.806  -4.412  1.00  0.00    -0.206 F 
ATOM     79  C   UNL     1      -2.936  15.285  -4.943  1.00  0.00     0.006 A 
ENDBRANCH  51  72
BRANCH  63  80
ATOM     80  C   UNL     1      -6.425   9.225 -10.214  1.00  0.00     0.057 A 
ATOM     81  C   UNL     1      -5.061   8.925 -10.336  1.00  0.00     0.134 A 
ATOM     82  C   UNL     1      -7.146   9.312 -11.407  1.00  0.00     0.134 A 
ATOM     83  F   UNL     1      -4.287   8.777  -9.262  1.00  0.00    -0.206 F 
ATOM     84  C   UNL     1      -4.440   8.737 -11.575  1.00  0.00     0.040 A 
ATOM     85  C   UNL     1      -6.548   9.102 -12.653  1.00  0.00     0.040 A 
ATOM     86  F   UNL     1      -8.460   9.583 -11.380  1.00  0.00    -0.206 F 
ATOM     87  C   UNL     1      -5.188   8.818 -12.741  1.00  0.00     0.006 A 
ENDBRANCH  63  80
ENDBRANCH  37  38
ENDBRANCH  29  32
ENDBRANCH  27  28
ENDBRANCH   1  27
TORSDOF 12
