REMARK SMILES CC(=O)N1CC[NH+](C[C@@H](CC(=O)Nc2ccccc2F)C(=O)NCCCNC(=O)c2ccc(-c3c4nc(c(-c5c(F)cccc5F)c5ccc([nH]5)c(-c5c(F)cccc5F)c5nc(c(-c6c(F)cccc6F)c6ccc3[nH]6)C=C5)C=C4)cc2)CC1
REMARK SMILES IDX 24 1 23 2 21 3 22 4 9 6 8 7 7 8 1 9 2 10 3 11 4 12 5 13
REMARK SMILES IDX 85 14 6 15 84 16 10 18 11 19 12 20 13 21 14 23 15 24 19 25
REMARK SMILES IDX 16 26 18 27 20 28 17 29 25 30 26 31 27 32 28 33 29 35 30 36
REMARK SMILES IDX 31 37 83 38 32 39 82 40 33 41 34 42 35 43 76 44 36 45 81 46
REMARK SMILES IDX 75 47 77 48 37 49 80 50 74 51 73 52 38 54 64 55 47 56 63 57
REMARK SMILES IDX 48 58 51 59 62 60 78 61 49 62 50 63 61 65 79 66 52 67 39 68
REMARK SMILES IDX 40 69 45 70 41 71 42 72 44 73 46 74 43 75 65 76 66 77 71 78
REMARK SMILES IDX 67 79 68 80 70 81 72 82 69 83 53 84 54 85 59 86 55 87 56 88
REMARK SMILES IDX 58 89 60 90 57 91
REMARK H PARENT 23 5 7 17 13 22 27 34 77 53 51 64
REMARK Flexibility Score: inf
ROOT
ATOM      1  C   UNL     1       1.677   6.294  -5.709  1.00  0.00     0.117 C 
ENDROOT
BRANCH   1   2
ATOM      2  N   UNL     1       2.667   5.267  -5.828  1.00  0.00    -0.356 N 
ATOM      3  C   UNL     1       2.649   4.078  -5.159  1.00  0.00     0.229 C 
ATOM      4  O   UNL     1       3.520   3.252  -5.446  1.00  0.00    -0.275 OA
ATOM      5  H   UNL     1       3.420   5.432  -6.440  1.00  0.00     0.163 HD
BRANCH   3   6
ATOM      6  C   UNL     1       1.648   3.793  -4.009  1.00  0.00     0.142 C 
BRANCH   6   7
ATOM      7  C   UNL     1       2.375   4.047  -2.681  1.00  0.00     0.276 C 
BRANCH   7   8
ATOM      8  N   UNL     1       1.770   3.863  -1.352  1.00  0.00    -0.331 N 
ATOM      9  C   UNL     1       1.337  -0.980   0.489  1.00  0.00     0.114 C 
ATOM     10  C   UNL     1       0.561  -0.193  -0.525  1.00  0.00     0.219 C 
ATOM     11  O   UNL     1      -0.481  -0.643  -1.002  1.00  0.00    -0.275 OA
ATOM     12  N   UNL     1       1.026   1.076  -0.815  1.00  0.00    -0.332 N 
ATOM     13  C   UNL     1       0.141   1.945  -1.572  1.00  0.00     0.181 C 
ATOM     14  C   UNL     1       2.433   1.499  -0.741  1.00  0.00     0.181 C 
ATOM     15  C   UNL     1       0.379   3.419  -1.237  1.00  0.00     0.284 C 
ATOM     16  C   UNL     1       2.597   3.011  -0.470  1.00  0.00     0.284 C 
ATOM     17  H   UNL     1       1.743   4.839  -1.057  1.00  0.00     0.348 HD
ENDBRANCH   7   8
ENDBRANCH   6   7
BRANCH   6  18
ATOM     18  C   UNL     1       0.179   4.160  -4.272  1.00  0.00     0.119 C 
BRANCH  18  19
ATOM     19  C   UNL     1      -0.632   5.461  -4.106  1.00  0.00     0.225 C 
ATOM     20  O   UNL     1      -1.514   5.652  -4.967  1.00  0.00    -0.275 OA
ATOM     21  N   UNL     1      -0.654   6.384  -3.119  1.00  0.00    -0.324 N 
ATOM     22  H   UNL     1      -1.403   7.012  -3.239  1.00  0.00     0.170 HD
BRANCH  21  23
ATOM     23  C   UNL     1       0.088   6.701  -1.972  1.00  0.00     0.077 A 
ATOM     24  C   UNL     1      -0.650   6.865  -0.794  1.00  0.00     0.029 A 
ATOM     25  C   UNL     1       1.448   7.016  -1.926  1.00  0.00     0.146 A 
ATOM     26  C   UNL     1      -0.018   7.167   0.416  1.00  0.00     0.002 A 
ATOM     27  C   UNL     1       2.089   7.319  -0.724  1.00  0.00     0.041 A 
ATOM     28  F   UNL     1       2.181   7.124  -3.038  1.00  0.00    -0.205 F 
ATOM     29  C   UNL     1       1.359   7.365   0.457  1.00  0.00     0.003 A 
ENDBRANCH  21  23
ENDBRANCH  18  19
ENDBRANCH   6  18
ENDBRANCH   3   6
ENDBRANCH   1   2
BRANCH   1  30
ATOM     30  C   UNL     1       2.135   7.720  -5.800  1.00  0.00     0.042 C 
BRANCH  30  31
ATOM     31  C   UNL     1       2.284   8.191  -7.220  1.00  0.00     0.118 C 
BRANCH  31  32
ATOM     32  N   UNL     1       1.018   8.244  -7.950  1.00  0.00    -0.352 N 
ATOM     33  C   UNL     1       0.258   9.306  -8.380  1.00  0.00     0.251 C 
ATOM     34  H   UNL     1       0.643   7.361  -8.174  1.00  0.00     0.163 HD
ATOM     35  O   UNL     1      -0.848   9.106  -8.879  1.00  0.00    -0.269 OA
BRANCH  33  36
ATOM     36  C   UNL     1       0.743  10.691  -8.210  1.00  0.00     0.039 A 
ATOM     37  C   UNL     1      -0.160  11.710  -7.897  1.00  0.00     0.014 A 
ATOM     38  C   UNL     1       2.097  10.985  -8.331  1.00  0.00     0.014 A 
ATOM     39  C   UNL     1       0.318  12.993  -7.622  1.00  0.00     0.010 A 
ATOM     40  C   UNL     1       2.584  12.194  -7.870  1.00  0.00     0.010 A 
ATOM     41  C   UNL     1       1.700  13.232  -7.556  1.00  0.00    -0.014 A 
BRANCH  41  42
ATOM     42  C   UNL     1       2.265  14.566  -7.242  1.00  0.00     0.031 A 
ATOM     43  C   UNL     1       3.210  15.216  -8.222  1.00  0.00     0.074 A 
ATOM     44  C   UNL     1       1.996  15.156  -6.062  1.00  0.00     0.049 A 
ATOM     45  N   UNL     1       3.906  16.317  -8.095  1.00  0.00    -0.248 NA
ATOM     46  C   UNL     1       3.444  14.511  -9.497  1.00  0.00     0.031 C 
ATOM     47  C   UNL     1       1.145  14.601  -5.007  1.00  0.00     0.029 A 
ATOM     48  N   UNL     1       2.415  16.358  -5.549  1.00  0.00    -0.354 N 
ATOM     49  C   UNL     1       4.671  16.411  -9.251  1.00  0.00     0.074 A 
ATOM     50  C   UNL     1       4.426  15.221 -10.029  1.00  0.00     0.031 C 
ATOM     51  C   UNL     1       1.064  15.481  -3.997  1.00  0.00     0.029 A 
ATOM     52  C   UNL     1       1.896  16.640  -4.309  1.00  0.00     0.049 A 
ATOM     53  H   UNL     1       3.029  16.962  -6.026  1.00  0.00     0.167 HD
ATOM     54  C   UNL     1       5.471  17.423  -9.655  1.00  0.00     0.037 A 
ATOM     55  C   UNL     1       2.071  17.713  -3.515  1.00  0.00     0.037 A 
ATOM     56  C   UNL     1       5.660  18.634  -8.908  1.00  0.00     0.049 A 
ATOM     57  C   UNL     1       2.955  18.833  -3.989  1.00  0.00     0.074 A 
ATOM     58  C   UNL     1       6.395  19.752  -9.255  1.00  0.00     0.029 A 
ATOM     59  N   UNL     1       5.096  18.890  -7.667  1.00  0.00    -0.354 N 
ATOM     60  N   UNL     1       3.631  18.934  -5.109  1.00  0.00    -0.248 NA
ATOM     61  C   UNL     1       3.099  19.991  -3.095  1.00  0.00     0.031 C 
ATOM     62  C   UNL     1       6.315  20.666  -8.203  1.00  0.00     0.029 A 
ATOM     63  C   UNL     1       5.482  20.142  -7.226  1.00  0.00     0.049 A 
ATOM     64  H   UNL     1       4.509  18.272  -7.174  1.00  0.00     0.167 HD
ATOM     65  C   UNL     1       4.255  20.173  -5.068  1.00  0.00     0.074 A 
ATOM     66  C   UNL     1       3.870  20.793  -3.817  1.00  0.00     0.031 C 
ATOM     67  C   UNL     1       5.073  20.746  -5.984  1.00  0.00     0.037 A 
BRANCH  54  68
ATOM     68  C   UNL     1       6.172  17.280 -10.975  1.00  0.00     0.057 A 
ATOM     69  C   UNL     1       7.567  17.172 -11.036  1.00  0.00     0.134 A 
ATOM     70  C   UNL     1       5.473  17.303 -12.189  1.00  0.00     0.134 A 
ATOM     71  F   UNL     1       8.299  17.146  -9.912  1.00  0.00    -0.206 F 
ATOM     72  C   UNL     1       8.241  17.107 -12.257  1.00  0.00     0.040 A 
ATOM     73  C   UNL     1       6.132  17.207 -13.415  1.00  0.00     0.040 A 
ATOM     74  F   UNL     1       4.133  17.387 -12.202  1.00  0.00    -0.206 F 
ATOM     75  C   UNL     1       7.522  17.120 -13.451  1.00  0.00     0.006 A 
ENDBRANCH  54  68
BRANCH  55  76
ATOM     76  C   UNL     1       1.352  17.795  -2.217  1.00  0.00     0.057 A 
ATOM     77  C   UNL     1       1.671  16.954  -1.144  1.00  0.00     0.134 A 
ATOM     78  C   UNL     1       0.301  18.701  -2.034  1.00  0.00     0.134 A 
ATOM     79  F   UNL     1       2.661  16.056  -1.258  1.00  0.00    -0.206 F 
ATOM     80  C   UNL     1       0.962  17.000   0.057  1.00  0.00     0.040 A 
ATOM     81  C   UNL     1      -0.401  18.776  -0.829  1.00  0.00     0.040 A 
ATOM     82  F   UNL     1      -0.043  19.544  -3.019  1.00  0.00    -0.206 F 
ATOM     83  C   UNL     1      -0.076  17.916   0.218  1.00  0.00     0.006 A 
ENDBRANCH  55  76
BRANCH  67  84
ATOM     84  C   UNL     1       5.587  22.125  -5.697  1.00  0.00     0.057 A 
ATOM     85  C   UNL     1       5.158  23.216  -6.465  1.00  0.00     0.134 A 
ATOM     86  C   UNL     1       6.579  22.357  -4.737  1.00  0.00     0.134 A 
ATOM     87  F   UNL     1       4.221  23.056  -7.412  1.00  0.00    -0.206 F 
ATOM     88  C   UNL     1       5.713  24.485  -6.302  1.00  0.00     0.040 A 
ATOM     89  C   UNL     1       7.121  23.629  -4.545  1.00  0.00     0.040 A 
ATOM     90  F   UNL     1       7.027  21.355  -3.966  1.00  0.00    -0.206 F 
ATOM     91  C   UNL     1       6.697  24.694  -5.338  1.00  0.00     0.006 A 
ENDBRANCH  67  84
ENDBRANCH  41  42
ENDBRANCH  33  36
ENDBRANCH  31  32
ENDBRANCH  30  31
ENDBRANCH   1  30
TORSDOF 15
