REMARK SMILES Cn1c(C[NH+](C)C)nnc1[C@@H]1CCC[N@@H+](Cc2ccccc2C(=O)NCCCNC(=O)c2ccc(-c3c4nc(c(-c5c(F)cccc5F)c5ccc([nH]5)c(-c5c(F)cccc5F)c5nc(c(-c6c(F)cccc6F)c6ccc3[nH]6)C=C5)C=C4)cc2)C1
REMARK SMILES IDX 23 1 24 2 25 3 22 5 17 6 18 7 19 8 21 9 20 10 16 11 15 12
REMARK SMILES IDX 11 13 12 14 86 15 13 16 14 17 10 19 3 20 8 21 2 22 9 23 1 24
REMARK SMILES IDX 4 25 5 26 6 27 7 28 26 30 27 31 28 32 29 33 30 34 31 36
REMARK SMILES IDX 32 37 33 38 85 39 34 40 84 41 35 42 36 43 37 44 78 45 38 46
REMARK SMILES IDX 83 47 77 48 79 49 39 50 82 51 76 52 75 53 40 55 66 56 49 57
REMARK SMILES IDX 65 58 50 59 53 60 64 61 80 62 51 63 52 64 63 66 81 67 54 68
REMARK SMILES IDX 41 69 42 70 47 71 43 72 44 73 46 74 48 75 45 76 67 77 68 78
REMARK SMILES IDX 73 79 69 80 70 81 72 82 74 83 71 84 55 85 56 86 61 87 57 88
REMARK SMILES IDX 58 89 60 90 62 91 59 92
REMARK H PARENT 25 4 15 18 5 29 29 35 79 54 53 65
REMARK Flexibility Score: inf
ROOT
ATOM      1  C   UNL     1      -3.293   3.465  -6.283  1.00  0.00     0.251 C 
ATOM      2  O   UNL     1      -3.579   4.666  -6.318  1.00  0.00    -0.269 OA
ATOM      3  N   UNL     1      -1.954   3.168  -6.336  1.00  0.00    -0.352 N 
ATOM      4  H   UNL     1      -1.396   3.938  -6.590  1.00  0.00     0.163 HD
ENDROOT
BRANCH   1   5
ATOM      5  C   UNL     1      -4.418   2.486  -6.314  1.00  0.00     0.048 A 
ATOM      6  C   UNL     1      -4.682   1.399  -5.460  1.00  0.00     0.019 A 
ATOM      7  C   UNL     1      -5.835   0.611  -5.713  1.00  0.00     0.010 A 
ATOM      8  C   UNL     1      -6.737   0.918  -6.728  1.00  0.00     0.001 A 
ATOM      9  C   UNL     1      -5.377   2.808  -7.304  1.00  0.00     0.014 A 
ATOM     10  C   UNL     1      -6.522   2.038  -7.510  1.00  0.00     0.001 A 
BRANCH   6  11
ATOM     11  C   UNL     1      -3.824   0.916  -4.330  1.00  0.00     0.299 C 
BRANCH  11  12
ATOM     12  N   UNL     1      -3.714   1.670  -3.090  1.00  0.00    -0.331 N 
ATOM     13  C   UNL     1      -2.522   3.348  -1.703  1.00  0.00     0.113 C 
ATOM     14  C   UNL     1      -3.644   3.255  -0.662  1.00  0.00     0.023 C 
ATOM     15  C   UNL     1      -3.055   2.968  -3.093  1.00  0.00     0.274 C 
ATOM     16  C   UNL     1      -4.379   1.919  -0.744  1.00  0.00     0.062 C 
ATOM     17  C   UNL     1      -4.843   1.595  -2.173  1.00  0.00     0.262 C 
ATOM     18  H   UNL     1      -2.988   1.081  -2.682  1.00  0.00     0.348 HD
BRANCH  13  19
ATOM     19  C   UNL     1      -1.256   2.662  -1.222  1.00  0.00     0.141 A 
ATOM     20  C   UNL     1       0.441   1.306  -0.797  1.00  0.00     0.187 A 
ATOM     21  N   UNL     1       0.597   2.399  -0.082  1.00  0.00    -0.129 NA
ATOM     22  N   UNL     1      -0.739   1.411  -1.498  1.00  0.00    -0.313 N 
ATOM     23  N   UNL     1      -0.439   3.247  -0.364  1.00  0.00    -0.135 NA
ATOM     24  C   UNL     1      -1.261   0.376  -2.337  1.00  0.00     0.153 C 
BRANCH  20  25
ATOM     25  C   UNL     1       1.413   0.166  -0.912  1.00  0.00     0.340 C 
BRANCH  25  26
ATOM     26  N   UNL     1       1.240  -0.948   0.043  1.00  0.00    -0.333 N 
ATOM     27  C   UNL     1       1.547  -0.509   1.402  1.00  0.00     0.332 C 
ATOM     28  C   UNL     1      -0.060  -1.604  -0.008  1.00  0.00     0.332 C 
ATOM     29  H   UNL     1       1.907  -1.662  -0.252  1.00  0.00     0.348 HD
ENDBRANCH  25  26
ENDBRANCH  20  25
ENDBRANCH  13  19
ENDBRANCH  11  12
ENDBRANCH   6  11
ENDBRANCH   1   5
BRANCH   3  30
ATOM     30  C   UNL     1      -1.188   1.962  -6.099  1.00  0.00     0.118 C 
BRANCH  30  31
ATOM     31  C   UNL     1       0.315   2.079  -6.348  1.00  0.00     0.042 C 
BRANCH  31  32
ATOM     32  C   UNL     1       1.010   3.239  -5.623  1.00  0.00     0.118 C 
BRANCH  32  33
ATOM     33  N   UNL     1       1.325   3.037  -4.212  1.00  0.00    -0.352 N 
ATOM     34  C   UNL     1       2.504   2.721  -3.584  1.00  0.00     0.251 C 
ATOM     35  H   UNL     1       0.558   3.147  -3.605  1.00  0.00     0.163 HD
ATOM     36  O   UNL     1       2.583   2.756  -2.353  1.00  0.00    -0.269 OA
BRANCH  34  37
ATOM     37  C   UNL     1       3.693   2.265  -4.310  1.00  0.00     0.039 A 
ATOM     38  C   UNL     1       4.383   1.149  -3.816  1.00  0.00     0.014 A 
ATOM     39  C   UNL     1       4.180   2.955  -5.414  1.00  0.00     0.014 A 
ATOM     40  C   UNL     1       5.504   0.668  -4.489  1.00  0.00     0.010 A 
ATOM     41  C   UNL     1       5.229   2.419  -6.142  1.00  0.00     0.010 A 
ATOM     42  C   UNL     1       5.900   1.274  -5.686  1.00  0.00    -0.014 A 
BRANCH  42  43
ATOM     43  C   UNL     1       7.035   0.774  -6.490  1.00  0.00     0.031 A 
ATOM     44  C   UNL     1       8.194   1.691  -6.744  1.00  0.00     0.074 A 
ATOM     45  C   UNL     1       6.934  -0.418  -7.104  1.00  0.00     0.049 A 
ATOM     46  N   UNL     1       9.132   1.610  -7.649  1.00  0.00    -0.248 NA
ATOM     47  C   UNL     1       8.267   2.898  -5.903  1.00  0.00     0.031 C 
ATOM     48  C   UNL     1       5.830  -1.367  -6.943  1.00  0.00     0.029 A 
ATOM     49  N   UNL     1       7.758  -1.018  -8.019  1.00  0.00    -0.354 N 
ATOM     50  C   UNL     1       9.867   2.783  -7.528  1.00  0.00     0.074 A 
ATOM     51  C   UNL     1       9.246   3.571  -6.486  1.00  0.00     0.031 C 
ATOM     52  C   UNL     1       6.045  -2.430  -7.734  1.00  0.00     0.029 A 
ATOM     53  C   UNL     1       7.270  -2.211  -8.494  1.00  0.00     0.049 A 
ATOM     54  H   UNL     1       8.616  -0.631  -8.309  1.00  0.00     0.167 HD
ATOM     55  C   UNL     1      10.965   3.158  -8.226  1.00  0.00     0.037 A 
ATOM     56  C   UNL     1       7.748  -3.019  -9.457  1.00  0.00     0.037 A 
ATOM     57  C   UNL     1      11.594   2.323  -9.214  1.00  0.00     0.049 A 
ATOM     58  C   UNL     1       9.005  -2.612 -10.172  1.00  0.00     0.074 A 
ATOM     59  C   UNL     1      12.750   2.555  -9.935  1.00  0.00     0.029 A 
ATOM     60  N   UNL     1      11.118   1.078  -9.604  1.00  0.00    -0.354 N 
ATOM     61  N   UNL     1       9.708  -1.512 -10.040  1.00  0.00    -0.248 NA
ATOM     62  C   UNL     1       9.536  -3.553 -11.165  1.00  0.00     0.031 C 
ATOM     63  C   UNL     1      12.962   1.458 -10.778  1.00  0.00     0.029 A 
ATOM     64  C   UNL     1      11.957   0.528 -10.556  1.00  0.00     0.049 A 
ATOM     65  H   UNL     1      10.304   0.649  -9.254  1.00  0.00     0.167 HD
ATOM     66  C   UNL     1      10.777  -1.636 -10.917  1.00  0.00     0.074 A 
ATOM     67  C   UNL     1      10.634  -2.926 -11.564  1.00  0.00     0.031 C 
ATOM     68  C   UNL     1      11.784  -0.764 -11.169  1.00  0.00     0.037 A 
BRANCH  55  69
ATOM     69  C   UNL     1      11.537   4.516  -7.941  1.00  0.00     0.057 A 
ATOM     70  C   UNL     1      12.156   4.823  -6.722  1.00  0.00     0.134 A 
ATOM     71  C   UNL     1      11.465   5.536  -8.899  1.00  0.00     0.134 A 
ATOM     72  F   UNL     1      12.246   3.898  -5.754  1.00  0.00    -0.206 F 
ATOM     73  C   UNL     1      12.648   6.102  -6.451  1.00  0.00     0.040 A 
ATOM     74  C   UNL     1      11.980   6.811  -8.651  1.00  0.00     0.040 A 
ATOM     75  F   UNL     1      10.889   5.314 -10.090  1.00  0.00    -0.206 F 
ATOM     76  C   UNL     1      12.564   7.099  -7.420  1.00  0.00     0.006 A 
ENDBRANCH  55  69
BRANCH  56  77
ATOM     77  C   UNL     1       7.050  -4.289  -9.774  1.00  0.00     0.057 A 
ATOM     78  C   UNL     1       7.601  -5.520  -9.400  1.00  0.00     0.134 A 
ATOM     79  C   UNL     1       5.810  -4.309 -10.423  1.00  0.00     0.134 A 
ATOM     80  F   UNL     1       8.792  -5.566  -8.786  1.00  0.00    -0.206 F 
ATOM     81  C   UNL     1       6.951  -6.726  -9.670  1.00  0.00     0.040 A 
ATOM     82  C   UNL     1       5.138  -5.506 -10.680  1.00  0.00     0.040 A 
ATOM     83  F   UNL     1       5.220  -3.163 -10.794  1.00  0.00    -0.206 F 
ATOM     84  C   UNL     1       5.712  -6.720 -10.307  1.00  0.00     0.006 A 
ENDBRANCH  56  77
BRANCH  68  85
ATOM     85  C   UNL     1      12.819  -1.199 -12.160  1.00  0.00     0.057 A 
ATOM     86  C   UNL     1      12.564  -1.202 -13.536  1.00  0.00     0.134 A 
ATOM     87  C   UNL     1      14.098  -1.575 -11.732  1.00  0.00     0.134 A 
ATOM     88  F   UNL     1      11.352  -0.865 -14.004  1.00  0.00    -0.206 F 
ATOM     89  C   UNL     1      13.543  -1.581 -14.454  1.00  0.00     0.040 A 
ATOM     90  C   UNL     1      15.092  -1.934 -12.641  1.00  0.00     0.040 A 
ATOM     91  F   UNL     1      14.403  -1.585 -10.426  1.00  0.00    -0.206 F 
ATOM     92  C   UNL     1      14.813  -1.941 -14.007  1.00  0.00     0.006 A 
ENDBRANCH  68  85
ENDBRANCH  42  43
ENDBRANCH  34  37
ENDBRANCH  32  33
ENDBRANCH  31  32
ENDBRANCH  30  31
ENDBRANCH   3  30
TORSDOF 15
