REMARK SMILES O=C(NCCCNC(=O)c1coc(-c2csc(-c3ccc(Cl)cn3)n2)c1)c1ccc(-c2c3nc(c(-c4c(F)cccc4F)c4ccc([nH]4)c(-c4c(F)cccc4F)c4nc(c(-c5c(F)cccc5F)c5ccc2[nH]5)C=C4)C=C3)cc1
REMARK SMILES IDX 5 1 4 2 3 3 1 4 2 5 27 7 28 8 80 9 29 10 79 11 30 12 31 13
REMARK SMILES IDX 32 14 73 15 33 16 78 17 72 18 74 19 34 20 77 21 71 22 70 23
REMARK SMILES IDX 35 25 61 26 44 27 60 28 45 29 48 30 59 31 75 32 46 33 47 34
REMARK SMILES IDX 58 36 76 37 49 38 36 39 37 40 42 41 38 42 39 43 41 44 43 45
REMARK SMILES IDX 40 46 62 47 63 48 68 49 64 50 65 51 67 52 69 53 66 54 50 55
REMARK SMILES IDX 51 56 56 57 52 58 53 59 55 60 57 61 54 62 6 63 7 64 8 65
REMARK SMILES IDX 9 67 10 68 11 69 26 70 12 71 13 72 14 73 15 74 25 75 16 76
REMARK SMILES IDX 17 77 18 78 19 79 24 80 20 81 23 82 21 83 22 84
REMARK H PARENT 3 6 74 24 48 35 7 66
REMARK Flexibility Score: inf
ROOT
ATOM      1  C   UNL     1       4.615   3.137   0.520  1.00  0.00     0.042 C 
ENDROOT
BRANCH   1   2
ATOM      2  C   UNL     1       4.549   1.612   0.396  1.00  0.00     0.118 C 
BRANCH   2   3
ATOM      3  N   UNL     1       3.196   1.101   0.526  1.00  0.00    -0.352 N 
ATOM      4  O   UNL     1       1.387  -0.141   0.090  1.00  0.00    -0.269 OA
ATOM      5  C   UNL     1       2.593   0.027  -0.075  1.00  0.00     0.251 C 
ATOM      6  H   UNL     1       2.620   1.605   1.145  1.00  0.00     0.163 HD
BRANCH   5   7
ATOM      7  C   UNL     1       3.347  -0.922  -0.927  1.00  0.00     0.039 A 
ATOM      8  C   UNL     1       4.593  -1.437  -0.556  1.00  0.00     0.014 A 
ATOM      9  C   UNL     1       2.714  -1.403  -2.081  1.00  0.00     0.014 A 
ATOM     10  C   UNL     1       5.215  -2.406  -1.352  1.00  0.00     0.010 A 
ATOM     11  C   UNL     1       3.327  -2.380  -2.868  1.00  0.00     0.010 A 
ATOM     12  C   UNL     1       4.583  -2.888  -2.508  1.00  0.00    -0.014 A 
BRANCH  12  13
ATOM     13  C   UNL     1       5.193  -3.979  -3.304  1.00  0.00     0.031 A 
ATOM     14  C   UNL     1       5.951  -3.681  -4.562  1.00  0.00     0.074 A 
ATOM     15  C   UNL     1       5.023  -5.255  -2.910  1.00  0.00     0.049 A 
ATOM     16  N   UNL     1       6.567  -4.511  -5.365  1.00  0.00    -0.248 NA
ATOM     17  C   UNL     1       6.026  -2.272  -4.974  1.00  0.00     0.031 C 
ATOM     18  C   UNL     1       4.279  -5.682  -1.725  1.00  0.00     0.029 A 
ATOM     19  N   UNL     1       5.456  -6.426  -3.477  1.00  0.00    -0.354 N 
ATOM     20  C   UNL     1       7.103  -3.729  -6.378  1.00  0.00     0.074 A 
ATOM     21  C   UNL     1       6.727  -2.358  -6.097  1.00  0.00     0.031 C 
ATOM     22  C   UNL     1       4.308  -7.024  -1.652  1.00  0.00     0.029 A 
ATOM     23  C   UNL     1       5.062  -7.546  -2.788  1.00  0.00     0.049 A 
ATOM     24  H   UNL     1       5.998  -6.460  -4.298  1.00  0.00     0.167 HD
ATOM     25  C   UNL     1       7.853  -4.117  -7.436  1.00  0.00     0.037 A 
ATOM     26  C   UNL     1       5.277  -8.848  -3.049  1.00  0.00     0.037 A 
ATOM     27  C   UNL     1       8.260  -5.470  -7.702  1.00  0.00     0.049 A 
ATOM     28  C   UNL     1       6.051  -9.252  -4.266  1.00  0.00     0.074 A 
ATOM     29  C   UNL     1       9.156  -5.936  -8.649  1.00  0.00     0.029 A 
ATOM     30  N   UNL     1       7.772  -6.580  -7.033  1.00  0.00    -0.354 N 
ATOM     31  N   UNL     1       6.643  -8.493  -5.153  1.00  0.00    -0.248 NA
ATOM     32  C   UNL     1       6.175 -10.694  -4.524  1.00  0.00     0.031 C 
ATOM     33  C   UNL     1       9.188  -7.335  -8.572  1.00  0.00     0.029 A 
ATOM     34  C   UNL     1       8.312  -7.733  -7.576  1.00  0.00     0.049 A 
ATOM     35  H   UNL     1       7.136  -6.552  -6.282  1.00  0.00     0.167 HD
ATOM     36  C   UNL     1       7.221  -9.361  -6.067  1.00  0.00     0.074 A 
ATOM     37  C   UNL     1       6.897 -10.706  -5.637  1.00  0.00     0.031 C 
ATOM     38  C   UNL     1       7.966  -9.064  -7.157  1.00  0.00     0.037 A 
BRANCH  25  39
ATOM     39  C   UNL     1       8.298  -3.049  -8.380  1.00  0.00     0.057 A 
ATOM     40  C   UNL     1       9.488  -2.345  -8.169  1.00  0.00     0.134 A 
ATOM     41  C   UNL     1       7.546  -2.740  -9.519  1.00  0.00     0.134 A 
ATOM     42  F   UNL     1      10.243  -2.595  -7.089  1.00  0.00    -0.206 F 
ATOM     43  C   UNL     1       9.918  -1.364  -9.063  1.00  0.00     0.040 A 
ATOM     44  C   UNL     1       7.965  -1.761 -10.420  1.00  0.00     0.040 A 
ATOM     45  F   UNL     1       6.391  -3.377  -9.765  1.00  0.00    -0.206 F 
ATOM     46  C   UNL     1       9.155  -1.071 -10.193  1.00  0.00     0.006 A 
ENDBRANCH  25  39
BRANCH  26  47
ATOM     47  C   UNL     1       4.736  -9.873  -2.133  1.00  0.00     0.057 A 
ATOM     48  C   UNL     1       5.510 -10.378  -1.085  1.00  0.00     0.134 A 
ATOM     49  C   UNL     1       3.434 -10.361  -2.283  1.00  0.00     0.134 A 
ATOM     50  F   UNL     1       6.768  -9.949  -0.906  1.00  0.00    -0.206 F 
ATOM     51  C   UNL     1       5.005 -11.339  -0.210  1.00  0.00     0.040 A 
ATOM     52  C   UNL     1       2.916 -11.321  -1.414  1.00  0.00     0.040 A 
ATOM     53  F   UNL     1       2.656  -9.914  -3.279  1.00  0.00    -0.206 F 
ATOM     54  C   UNL     1       3.703 -11.812  -0.373  1.00  0.00     0.006 A 
ENDBRANCH  26  47
BRANCH  38  55
ATOM     55  C   UNL     1       8.475 -10.215  -7.962  1.00  0.00     0.057 A 
ATOM     56  C   UNL     1       7.709 -10.769  -8.993  1.00  0.00     0.134 A 
ATOM     57  C   UNL     1       9.738 -10.765  -7.715  1.00  0.00     0.134 A 
ATOM     58  F   UNL     1       6.486 -10.290  -9.264  1.00  0.00    -0.206 F 
ATOM     59  C   UNL     1       8.183 -11.840  -9.752  1.00  0.00     0.040 A 
ATOM     60  C   UNL     1      10.223 -11.833  -8.470  1.00  0.00     0.040 A 
ATOM     61  F   UNL     1      10.512 -10.278  -6.734  1.00  0.00    -0.206 F 
ATOM     62  C   UNL     1       9.444 -12.373  -9.492  1.00  0.00     0.006 A 
ENDBRANCH  38  55
ENDBRANCH  12  13
ENDBRANCH   5   7
ENDBRANCH   2   3
ENDBRANCH   1   2
BRANCH   1  63
ATOM     63  C   UNL     1       4.188   3.688   1.884  1.00  0.00     0.118 C 
BRANCH  63  64
ATOM     64  N   UNL     1       5.052   3.227   2.955  1.00  0.00    -0.352 N 
ATOM     65  C   UNL     1       6.191   3.798   3.463  1.00  0.00     0.254 C 
ATOM     66  H   UNL     1       4.782   2.380   3.378  1.00  0.00     0.163 HD
ATOM     67  O   UNL     1       6.955   3.099   4.123  1.00  0.00    -0.269 OA
BRANCH  65  68
ATOM     68  C   UNL     1       6.470   5.193   3.202  1.00  0.00     0.078 A 
ATOM     69  C   UNL     1       5.617   6.259   3.399  1.00  0.00     0.209 A 
ATOM     70  C   UNL     1       7.712   5.775   2.821  1.00  0.00     0.066 A 
ATOM     71  O   UNL     1       6.242   7.436   3.145  1.00  0.00    -0.462 OA
ATOM     72  C   UNL     1       7.530   7.144   2.795  1.00  0.00     0.153 A 
BRANCH  72  73
ATOM     73  C   UNL     1       8.579   8.150   2.475  1.00  0.00     0.117 A 
ATOM     74  C   UNL     1       8.373   9.506   2.609  1.00  0.00     0.099 A 
ATOM     75  N   UNL     1       9.835   7.779   2.030  1.00  0.00    -0.231 NA
ATOM     76  S   UNL     1       9.816  10.349   2.232  1.00  0.00    -0.120 S 
ATOM     77  C   UNL     1      10.596   8.849   1.885  1.00  0.00     0.142 A 
BRANCH  77  78
ATOM     78  C   UNL     1      11.989   8.823   1.415  1.00  0.00     0.099 A 
ATOM     79  C   UNL     1      12.402   7.868   0.486  1.00  0.00     0.033 A 
ATOM     80  N   UNL     1      12.838   9.742   1.945  1.00  0.00    -0.252 NA
ATOM     81  C   UNL     1      13.735   7.856   0.074  1.00  0.00     0.024 A 
ATOM     82  C   UNL     1      14.131   9.694   1.538  1.00  0.00     0.132 A 
ATOM     83  C   UNL     1      14.617   8.783   0.613  1.00  0.00     0.059 A 
ATOM     84  Cl  UNL     1      16.268   8.794   0.145  1.00  0.00    -0.083 Cl
ENDBRANCH  77  78
ENDBRANCH  72  73
ENDBRANCH  65  68
ENDBRANCH  63  64
ENDBRANCH   1  63
TORSDOF 12
