REMARK SMILES C[C@@H]1[C@H](C(=O)NCCCNC(=O)c2ccc(-c3c4nc(c(-c5c(F)cccc5F)c5ccc([nH]5)c(-c5c(F)cccc5F)c5nc(c(-c6c(F)cccc6F)c6ccc3[nH]6)C=C5)C=C4)cc2)CC[N@@H+]1Cc1cnn(-c2ccccc2)c1
REMARK SMILES IDX 7 1 6 2 4 3 5 4 3 6 1 7 2 8 69 9 67 10 68 11 70 13 71 14
REMARK SMILES IDX 72 15 81 16 73 17 74 18 75 19 76 20 80 21 77 22 79 23 78 24
REMARK SMILES IDX 8 25 9 26 10 27 11 28 12 30 13 31 14 32 66 33 15 34 65 35
REMARK SMILES IDX 16 36 17 37 18 38 59 39 19 40 64 41 58 42 60 43 20 44 63 45
REMARK SMILES IDX 57 46 56 47 21 49 47 50 30 51 46 52 31 53 34 54 45 55 61 56
REMARK SMILES IDX 32 57 33 58 44 60 62 61 35 62 22 63 23 64 28 65 24 66 25 67
REMARK SMILES IDX 27 68 29 69 26 70 48 71 49 72 54 73 50 74 51 75 53 76 55 77
REMARK SMILES IDX 52 78 36 79 37 80 42 81 38 82 39 83 41 84 43 85 40 86
REMARK H PARENT 6 5 69 12 10 29 60 48 34 59
REMARK Flexibility Score: inf
ROOT
ATOM      1  C   UNL     1       1.214   2.046   2.142  1.00  0.00     0.117 C 
ENDROOT
BRANCH   1   2
ATOM      2  N   UNL     1       1.198   2.741   0.867  1.00  0.00    -0.356 N 
ATOM      3  C   UNL     1       0.699   2.415  -0.350  1.00  0.00     0.229 C 
ATOM      4  O   UNL     1       0.954   3.207  -1.266  1.00  0.00    -0.275 OA
ATOM      5  H   UNL     1       1.635   3.622   0.891  1.00  0.00     0.163 HD
BRANCH   3   6
ATOM      6  C   UNL     1      -0.129   1.174  -0.652  1.00  0.00     0.142 C 
ATOM      7  C   UNL     1       2.025  -0.295  -0.378  1.00  0.00     0.076 C 
ATOM      8  C   UNL     1       0.562  -0.197  -0.774  1.00  0.00     0.193 C 
ATOM      9  N   UNL     1      -0.376  -1.131  -0.155  1.00  0.00    -0.328 N 
ATOM     10  C   UNL     1      -1.374   0.951   0.202  1.00  0.00     0.081 C 
ATOM     11  C   UNL     1      -1.680  -0.523   0.005  1.00  0.00     0.263 C 
ATOM     12  H   UNL     1      -0.384  -1.884  -0.844  1.00  0.00     0.348 HD
BRANCH   9  13
ATOM     13  C   UNL     1       0.003  -2.258   0.665  1.00  0.00     0.302 C 
BRANCH  13  14
ATOM     14  C   UNL     1       0.250  -1.899   2.093  1.00  0.00     0.045 A 
ATOM     15  C   UNL     1      -0.691  -1.593   3.098  1.00  0.00     0.145 A 
ATOM     16  C   UNL     1       1.451  -1.889   2.776  1.00  0.00     0.124 A 
ATOM     17  N   UNL     1      -0.138  -1.388   4.293  1.00  0.00    -0.176 NA
ATOM     18  N   UNL     1       1.191  -1.549   4.087  1.00  0.00    -0.240 N 
BRANCH  18  19
ATOM     19  C   UNL     1       2.126  -1.342   5.135  1.00  0.00     0.065 A 
ATOM     20  C   UNL     1       1.676  -1.196   6.456  1.00  0.00     0.028 A 
ATOM     21  C   UNL     1       3.493  -1.244   4.858  1.00  0.00     0.028 A 
ATOM     22  C   UNL     1       2.587  -0.971   7.490  1.00  0.00     0.002 A 
ATOM     23  C   UNL     1       4.386  -0.986   5.894  1.00  0.00     0.002 A 
ATOM     24  C   UNL     1       3.945  -0.865   7.208  1.00  0.00     0.000 A 
ENDBRANCH  18  19
ENDBRANCH  13  14
ENDBRANCH   9  13
ENDBRANCH   3   6
ENDBRANCH   1   2
BRANCH   1  25
ATOM     25  C   UNL     1       2.633   1.695   2.581  1.00  0.00     0.042 C 
BRANCH  25  26
ATOM     26  C   UNL     1       3.518   2.866   2.974  1.00  0.00     0.118 C 
BRANCH  26  27
ATOM     27  N   UNL     1       3.291   3.338   4.330  1.00  0.00    -0.352 N 
ATOM     28  C   UNL     1       4.064   3.292   5.467  1.00  0.00     0.251 C 
ATOM     29  H   UNL     1       2.418   3.774   4.458  1.00  0.00     0.163 HD
ATOM     30  O   UNL     1       3.579   3.715   6.517  1.00  0.00    -0.269 OA
BRANCH  28  31
ATOM     31  C   UNL     1       5.440   2.725   5.491  1.00  0.00     0.039 A 
ATOM     32  C   UNL     1       5.869   2.084   6.664  1.00  0.00     0.014 A 
ATOM     33  C   UNL     1       6.339   2.848   4.432  1.00  0.00     0.014 A 
ATOM     34  C   UNL     1       7.136   1.489   6.736  1.00  0.00     0.010 A 
ATOM     35  C   UNL     1       7.573   2.193   4.470  1.00  0.00     0.010 A 
ATOM     36  C   UNL     1       7.985   1.510   5.624  1.00  0.00    -0.014 A 
BRANCH  36  37
ATOM     37  C   UNL     1       9.344   0.912   5.667  1.00  0.00     0.031 A 
ATOM     38  C   UNL     1      10.542   1.816   5.683  1.00  0.00     0.074 A 
ATOM     39  C   UNL     1       9.515  -0.423   5.626  1.00  0.00     0.049 A 
ATOM     40  N   UNL     1      11.811   1.506   5.645  1.00  0.00    -0.248 NA
ATOM     41  C   UNL     1      10.274   3.263   5.727  1.00  0.00     0.031 C 
ATOM     42  C   UNL     1       8.440  -1.406   5.586  1.00  0.00     0.029 A 
ATOM     43  N   UNL     1      10.655  -1.187   5.591  1.00  0.00    -0.354 N 
ATOM     44  C   UNL     1      12.492   2.714   5.662  1.00  0.00     0.074 A 
ATOM     45  C   UNL     1      11.497   3.764   5.654  1.00  0.00     0.031 C 
ATOM     46  C   UNL     1       8.959  -2.642   5.528  1.00  0.00     0.029 A 
ATOM     47  C   UNL     1      10.412  -2.538   5.503  1.00  0.00     0.049 A 
ATOM     48  H   UNL     1      11.561  -0.804   5.625  1.00  0.00     0.167 HD
ATOM     49  C   UNL     1      13.827   2.930   5.705  1.00  0.00     0.037 A 
ATOM     50  C   UNL     1      11.263  -3.576   5.407  1.00  0.00     0.037 A 
ATOM     51  C   UNL     1      14.816   1.887   5.717  1.00  0.00     0.049 A 
ATOM     52  C   UNL     1      12.740  -3.310   5.417  1.00  0.00     0.074 A 
ATOM     53  C   UNL     1      16.192   2.002   5.798  1.00  0.00     0.029 A 
ATOM     54  N   UNL     1      14.531   0.531   5.641  1.00  0.00    -0.354 N 
ATOM     55  N   UNL     1      13.369  -2.163   5.498  1.00  0.00    -0.248 NA
ATOM     56  C   UNL     1      13.626  -4.479   5.333  1.00  0.00     0.031 C 
ATOM     57  C   UNL     1      16.742   0.718   5.735  1.00  0.00     0.029 A 
ATOM     58  C   UNL     1      15.707  -0.200   5.653  1.00  0.00     0.049 A 
ATOM     59  H   UNL     1      13.626   0.146   5.585  1.00  0.00     0.167 HD
ATOM     60  C   UNL     1      14.722  -2.473   5.512  1.00  0.00     0.074 A 
ATOM     61  C   UNL     1      14.822  -3.916   5.434  1.00  0.00     0.031 C 
ATOM     62  C   UNL     1      15.785  -1.636   5.587  1.00  0.00     0.037 A 
BRANCH  49  63
ATOM     63  C   UNL     1      14.282   4.357   5.747  1.00  0.00     0.057 A 
ATOM     64  C   UNL     1      14.112   5.147   6.892  1.00  0.00     0.134 A 
ATOM     65  C   UNL     1      14.891   4.949   4.635  1.00  0.00     0.134 A 
ATOM     66  F   UNL     1      13.517   4.643   7.983  1.00  0.00    -0.206 F 
ATOM     67  C   UNL     1      14.508   6.485   6.919  1.00  0.00     0.040 A 
ATOM     68  C   UNL     1      15.313   6.279   4.659  1.00  0.00     0.040 A 
ATOM     69  F   UNL     1      15.082   4.247   3.508  1.00  0.00    -0.206 F 
ATOM     70  C   UNL     1      15.115   7.053   5.801  1.00  0.00     0.006 A 
ENDBRANCH  49  63
BRANCH  50  71
ATOM     71  C   UNL     1      10.744  -4.965   5.321  1.00  0.00     0.057 A 
ATOM     72  C   UNL     1      10.873  -5.849   6.399  1.00  0.00     0.134 A 
ATOM     73  C   UNL     1      10.123  -5.445   4.162  1.00  0.00     0.134 A 
ATOM     74  F   UNL     1      11.474  -5.450   7.529  1.00  0.00    -0.206 F 
ATOM     75  C   UNL     1      10.423  -7.168   6.321  1.00  0.00     0.040 A 
ATOM     76  C   UNL     1       9.650  -6.756   4.077  1.00  0.00     0.040 A 
ATOM     77  F   UNL     1       9.962  -4.645   3.098  1.00  0.00    -0.206 F 
ATOM     78  C   UNL     1       9.806  -7.624   5.157  1.00  0.00     0.006 A 
ENDBRANCH  50  71
BRANCH  62  79
ATOM     79  C   UNL     1      17.145  -2.264   5.629  1.00  0.00     0.057 A 
ATOM     80  C   UNL     1      17.735  -2.824   4.490  1.00  0.00     0.134 A 
ATOM     81  C   UNL     1      17.887  -2.271   6.817  1.00  0.00     0.134 A 
ATOM     82  F   UNL     1      17.067  -2.862   3.327  1.00  0.00    -0.206 F 
ATOM     83  C   UNL     1      19.012  -3.385   4.534  1.00  0.00     0.040 A 
ATOM     84  C   UNL     1      19.173  -2.808   6.868  1.00  0.00     0.040 A 
ATOM     85  F   UNL     1      17.378  -1.746   7.941  1.00  0.00    -0.206 F 
ATOM     86  C   UNL     1      19.737  -3.370   5.725  1.00  0.00     0.006 A 
ENDBRANCH  62  79
ENDBRANCH  36  37
ENDBRANCH  28  31
ENDBRANCH  26  27
ENDBRANCH  25  26
ENDBRANCH   1  25
TORSDOF 13
