REMARK SMILES O=C(NCCCNC(=O)c1nnn(-c2cccc(OC(F)(F)F)c2)c1-c1ccncc1)c1ccc(-c2c3nc(c(-c4c(F)cccc4F)c4ccc([nH]4)c(-c4c(F)cccc4F)c4nc(c(-c5c(F)cccc5F)c5ccc2[nH]5)C=C4)C=C3)cc1
REMARK SMILES IDX 5 1 4 2 3 3 1 4 2 5 32 7 33 8 85 9 34 10 84 11 35 12 36 13
REMARK SMILES IDX 37 14 78 15 38 16 83 17 77 18 79 19 39 20 82 21 76 22 75 23
REMARK SMILES IDX 40 25 66 26 49 27 65 28 50 29 53 30 64 31 80 32 51 33 52 34
REMARK SMILES IDX 63 36 81 37 54 38 41 39 42 40 47 41 43 42 44 43 46 44 48 45
REMARK SMILES IDX 45 46 67 47 68 48 73 49 69 50 70 51 72 52 74 53 71 54 55 55
REMARK SMILES IDX 56 56 61 57 57 58 58 59 60 60 62 61 59 62 6 63 7 64 8 65
REMARK SMILES IDX 9 67 10 68 11 69 25 70 12 71 13 72 26 73 27 74 31 75 28 76
REMARK SMILES IDX 30 77 29 78 14 79 15 80 24 81 16 82 18 83 17 84 19 85 20 86
REMARK SMILES IDX 21 87 22 88 23 89
REMARK H PARENT 3 6 79 24 53 35 7 66
REMARK Flexibility Score: inf
ROOT
ATOM      1  C   UNL     1       5.131   1.932  -0.474  1.00  0.00     0.042 C 
ENDROOT
BRANCH   1   2
ATOM      2  C   UNL     1       4.579   0.868   0.468  1.00  0.00     0.118 C 
BRANCH   2   3
ATOM      3  N   UNL     1       3.137   0.861   0.604  1.00  0.00    -0.352 N 
ATOM      4  O   UNL     1       1.037   0.216   0.647  1.00  0.00    -0.269 OA
ATOM      5  C   UNL     1       2.108   0.163   0.036  1.00  0.00     0.251 C 
ATOM      6  H   UNL     1       2.822   1.518   1.266  1.00  0.00     0.163 HD
BRANCH   5   7
ATOM      7  C   UNL     1       2.145  -0.574  -1.260  1.00  0.00     0.039 A 
ATOM      8  C   UNL     1       3.256  -0.758  -2.082  1.00  0.00     0.014 A 
ATOM      9  C   UNL     1       0.898  -1.060  -1.710  1.00  0.00     0.014 A 
ATOM     10  C   UNL     1       3.104  -1.340  -3.348  1.00  0.00     0.010 A 
ATOM     11  C   UNL     1       0.742  -1.638  -2.966  1.00  0.00     0.010 A 
ATOM     12  C   UNL     1       1.841  -1.744  -3.809  1.00  0.00    -0.014 A 
BRANCH  12  13
ATOM     13  C   UNL     1       1.731  -2.419  -5.107  1.00  0.00     0.031 A 
ATOM     14  C   UNL     1       2.474  -3.713  -5.189  1.00  0.00     0.074 A 
ATOM     15  C   UNL     1       0.915  -2.039  -6.117  1.00  0.00     0.049 A 
ATOM     16  N   UNL     1       3.457  -4.023  -5.970  1.00  0.00    -0.248 NA
ATOM     17  C   UNL     1       2.141  -4.758  -4.207  1.00  0.00     0.031 C 
ATOM     18  C   UNL     1      -0.113  -0.995  -6.119  1.00  0.00     0.029 A 
ATOM     19  N   UNL     1       0.790  -2.580  -7.368  1.00  0.00    -0.354 N 
ATOM     20  C   UNL     1       3.762  -5.358  -5.700  1.00  0.00     0.074 A 
ATOM     21  C   UNL     1       3.010  -5.718  -4.527  1.00  0.00     0.031 C 
ATOM     22  C   UNL     1      -0.887  -1.121  -7.225  1.00  0.00     0.029 A 
ATOM     23  C   UNL     1      -0.327  -2.153  -8.082  1.00  0.00     0.049 A 
ATOM     24  H   UNL     1       1.440  -3.222  -7.735  1.00  0.00     0.167 HD
ATOM     25  C   UNL     1       4.473  -6.123  -6.575  1.00  0.00     0.037 A 
ATOM     26  C   UNL     1      -0.773  -2.633  -9.273  1.00  0.00     0.037 A 
ATOM     27  C   UNL     1       5.196  -5.313  -7.517  1.00  0.00     0.049 A 
ATOM     28  C   UNL     1       0.352  -3.348  -9.920  1.00  0.00     0.074 A 
ATOM     29  C   UNL     1       6.191  -4.360  -7.415  1.00  0.00     0.029 A 
ATOM     30  N   UNL     1       4.674  -5.166  -8.777  1.00  0.00    -0.354 N 
ATOM     31  N   UNL     1       1.417  -2.761 -10.384  1.00  0.00    -0.248 NA
ATOM     32  C   UNL     1       0.481  -4.771  -9.652  1.00  0.00     0.031 C 
ATOM     33  C   UNL     1       5.857  -3.379  -8.394  1.00  0.00     0.029 A 
ATOM     34  C   UNL     1       4.726  -3.829  -9.075  1.00  0.00     0.049 A 
ATOM     35  H   UNL     1       4.328  -5.883  -9.356  1.00  0.00     0.167 HD
ATOM     36  C   UNL     1       2.456  -3.614 -10.049  1.00  0.00     0.074 A 
ATOM     37  C   UNL     1       1.812  -4.870  -9.669  1.00  0.00     0.031 C 
ATOM     38  C   UNL     1       3.718  -3.141  -9.843  1.00  0.00     0.037 A 
BRANCH  25  39
ATOM     39  C   UNL     1       4.251  -7.599  -6.795  1.00  0.00     0.057 A 
ATOM     40  C   UNL     1       5.141  -8.323  -7.610  1.00  0.00     0.134 A 
ATOM     41  C   UNL     1       3.047  -8.263  -6.487  1.00  0.00     0.134 A 
ATOM     42  F   UNL     1       6.315  -7.795  -7.988  1.00  0.00    -0.206 F 
ATOM     43  C   UNL     1       4.824  -9.582  -8.137  1.00  0.00     0.040 A 
ATOM     44  C   UNL     1       2.740  -9.539  -6.969  1.00  0.00     0.040 A 
ATOM     45  F   UNL     1       2.064  -7.676  -5.794  1.00  0.00    -0.206 F 
ATOM     46  C   UNL     1       3.615 -10.191  -7.823  1.00  0.00     0.006 A 
ENDBRANCH  25  39
BRANCH  26  47
ATOM     47  C   UNL     1      -2.162  -2.796  -9.771  1.00  0.00     0.057 A 
ATOM     48  C   UNL     1      -2.435  -3.009 -11.133  1.00  0.00     0.134 A 
ATOM     49  C   UNL     1      -3.219  -3.062  -8.886  1.00  0.00     0.134 A 
ATOM     50  F   UNL     1      -1.478  -2.829 -12.056  1.00  0.00    -0.206 F 
ATOM     51  C   UNL     1      -3.677  -3.482 -11.584  1.00  0.00     0.040 A 
ATOM     52  C   UNL     1      -4.464  -3.533  -9.322  1.00  0.00     0.040 A 
ATOM     53  F   UNL     1      -3.046  -2.966  -7.560  1.00  0.00    -0.206 F 
ATOM     54  C   UNL     1      -4.692  -3.759 -10.674  1.00  0.00     0.006 A 
ENDBRANCH  26  47
BRANCH  38  55
ATOM     55  C   UNL     1       4.012  -1.716 -10.221  1.00  0.00     0.057 A 
ATOM     56  C   UNL     1       3.407  -0.598  -9.625  1.00  0.00     0.134 A 
ATOM     57  C   UNL     1       5.064  -1.466 -11.109  1.00  0.00     0.134 A 
ATOM     58  F   UNL     1       2.455  -0.736  -8.694  1.00  0.00    -0.206 F 
ATOM     59  C   UNL     1       3.812   0.707  -9.925  1.00  0.00     0.040 A 
ATOM     60  C   UNL     1       5.500  -0.170 -11.391  1.00  0.00     0.040 A 
ATOM     61  F   UNL     1       5.724  -2.486 -11.678  1.00  0.00    -0.206 F 
ATOM     62  C   UNL     1       4.869   0.923 -10.804  1.00  0.00     0.006 A 
ENDBRANCH  38  55
ENDBRANCH  12  13
ENDBRANCH   5   7
ENDBRANCH   2   3
ENDBRANCH   1   2
BRANCH   1  63
ATOM     63  C   UNL     1       4.727   3.369  -0.160  1.00  0.00     0.118 C 
BRANCH  63  64
ATOM     64  N   UNL     1       5.287   3.916   1.062  1.00  0.00    -0.351 N 
ATOM     65  C   UNL     1       5.891   5.141   1.280  1.00  0.00     0.274 C 
ATOM     66  H   UNL     1       5.228   3.329   1.850  1.00  0.00     0.163 HD
ATOM     67  O   UNL     1       6.308   5.382   2.406  1.00  0.00    -0.267 OA
BRANCH  65  68
ATOM     68  C   UNL     1       6.025   6.102   0.189  1.00  0.00     0.178 A 
ATOM     69  N   UNL     1       7.251   6.619  -0.163  1.00  0.00    -0.124 NA
ATOM     70  C   UNL     1       5.055   6.628  -0.656  1.00  0.00     0.108 A 
ATOM     71  N   UNL     1       7.096   7.370  -1.246  1.00  0.00    -0.061 NA
ATOM     72  N   UNL     1       5.774   7.493  -1.475  1.00  0.00    -0.212 N 
BRANCH  70  73
ATOM     73  C   UNL     1       3.652   6.267  -0.868  1.00  0.00     0.006 A 
ATOM     74  C   UNL     1       2.709   6.379   0.148  1.00  0.00     0.030 A 
ATOM     75  C   UNL     1       3.260   5.731  -2.104  1.00  0.00     0.030 A 
ATOM     76  C   UNL     1       1.419   5.944  -0.115  1.00  0.00     0.111 A 
ATOM     77  C   UNL     1       1.952   5.318  -2.265  1.00  0.00     0.111 A 
ATOM     78  N   UNL     1       1.026   5.412  -1.294  1.00  0.00    -0.265 NA
ENDBRANCH  70  73
BRANCH  72  79
ATOM     79  C   UNL     1       5.255   8.313  -2.502  1.00  0.00     0.071 A 
ATOM     80  C   UNL     1       5.847   8.303  -3.765  1.00  0.00     0.029 A 
ATOM     81  C   UNL     1       4.059   9.013  -2.270  1.00  0.00     0.075 A 
ATOM     82  C   UNL     1       5.173   8.910  -4.824  1.00  0.00     0.006 A 
ATOM     83  C   UNL     1       3.399   9.640  -3.322  1.00  0.00     0.131 A 
ATOM     84  C   UNL     1       3.952   9.561  -4.604  1.00  0.00     0.047 A 
BRANCH  83  85
ATOM     85  O   UNL     1       2.219  10.321  -3.235  1.00  0.00    -0.406 OA
BRANCH  85  86
ATOM     86  C   UNL     1       1.655  10.497  -1.943  1.00  0.00     0.573 C 
ATOM     87  F   UNL     1       1.348   9.310  -1.377  1.00  0.00    -0.132 F 
ATOM     88  F   UNL     1       2.501  11.170  -1.132  1.00  0.00    -0.132 F 
ATOM     89  F   UNL     1       0.518  11.217  -2.054  1.00  0.00    -0.132 F 
ENDBRANCH  85  86
ENDBRANCH  83  85
ENDBRANCH  72  79
ENDBRANCH  65  68
ENDBRANCH  63  64
ENDBRANCH   1  63
TORSDOF 14
