REMARK SMILES Cc1cccc(N2CCN(c3ncc(NC(=O)c4ccccc4F)cc3C(=O)NCCCNC(=O)c3ccc(-c4c5nc(c(-c6c(F)cccc6F)c6ccc([nH]6)c(-c6c(F)cccc6F)c6nc(c(-c7c(F)cccc7F)c7ccc4[nH]7)C=C6)C=C5)cc3)C[C@@H]2C)c1
REMARK SMILES IDX 31 1 30 2 29 3 27 4 28 5 26 7 11 8 12 9 13 10 25 11 14 12
REMARK SMILES IDX 10 13 7 14 8 15 91 16 9 17 90 18 92 19 6 20 1 21 2 22 3 23
REMARK SMILES IDX 93 24 4 25 5 26 15 27 16 28 17 30 18 31 19 32 23 33 20 34
REMARK SMILES IDX 22 35 24 36 21 37 32 38 33 39 34 40 35 42 36 43 37 44 89 45
REMARK SMILES IDX 38 46 88 47 39 48 40 49 41 50 82 51 42 52 87 53 81 54 83 55
REMARK SMILES IDX 43 56 86 57 80 58 79 59 44 61 70 62 53 63 69 64 54 65 57 66
REMARK SMILES IDX 68 67 84 68 55 69 56 70 67 72 85 73 58 74 45 75 46 76 51 77
REMARK SMILES IDX 47 78 48 79 50 80 52 81 49 82 71 83 72 84 77 85 73 86 74 87
REMARK SMILES IDX 76 88 78 89 75 90 59 91 60 92 65 93 61 94 62 95 64 96 66 97
REMARK SMILES IDX 63 98
REMARK H PARENT 29 6 15 29 33 41 83 60 57 71
REMARK Flexibility Score: inf
ROOT
ATOM      1  C   UNL     1      -7.327   7.471  -2.656  1.00  0.00     0.042 C 
ENDROOT
BRANCH   1   2
ATOM      2  C   UNL     1      -7.203   6.050  -2.094  1.00  0.00     0.118 C 
BRANCH   2   3
ATOM      3  N   UNL     1      -5.824   5.607  -2.180  1.00  0.00    -0.352 N 
ATOM      4  C   UNL     1      -4.733   5.982  -1.426  1.00  0.00     0.255 C 
ATOM      5  O   UNL     1      -3.654   6.008  -2.012  1.00  0.00    -0.269 OA
ATOM      6  H   UNL     1      -5.640   4.941  -2.881  1.00  0.00     0.163 HD
BRANCH   4   7
ATOM      7  C   UNL     1      -4.843   6.399  -0.003  1.00  0.00     0.084 A 
ATOM      8  C   UNL     1      -4.072   5.818   1.022  1.00  0.00     0.141 A 
ATOM      9  N   UNL     1      -4.206   6.249   2.310  1.00  0.00    -0.236 NA
ATOM     10  C   UNL     1      -5.083   7.244   2.598  1.00  0.00     0.139 A 
ATOM     11  C   UNL     1      -5.745   7.409   0.343  1.00  0.00     0.045 A 
ATOM     12  C   UNL     1      -5.889   7.841   1.650  1.00  0.00     0.060 A 
BRANCH   8  13
ATOM     13  N   UNL     1      -3.277   4.706   0.829  1.00  0.00    -0.352 N 
ATOM     14  N   UNL     1      -1.750   2.329   0.445  1.00  0.00    -0.365 N 
ATOM     15  C   UNL     1      -2.927   2.325   1.335  1.00  0.00     0.138 C 
ATOM     16  C   UNL     1      -1.685   3.407  -0.581  1.00  0.00     0.098 C 
ATOM     17  C   UNL     1      -3.198   3.726   1.923  1.00  0.00     0.139 C 
ATOM     18  C   UNL     1      -2.013   4.787   0.071  1.00  0.00     0.142 C 
ATOM     19  C   UNL     1      -2.633   3.087  -1.745  1.00  0.00     0.033 C 
BRANCH  14  20
ATOM     20  C   UNL     1      -1.073   1.141   0.214  1.00  0.00     0.037 A 
ATOM     21  C   UNL     1       2.548  -0.028  -0.133  1.00  0.00     0.044 C 
ATOM     22  C   UNL     1       1.050  -0.047  -0.078  1.00  0.00    -0.049 A 
ATOM     23  C   UNL     1       0.363  -1.262  -0.141  1.00  0.00     0.003 A 
ATOM     24  C   UNL     1       0.323   1.142   0.085  1.00  0.00     0.029 A 
ATOM     25  C   UNL     1      -1.025  -1.284  -0.043  1.00  0.00     0.002 A 
ATOM     26  C   UNL     1      -1.732  -0.092   0.139  1.00  0.00     0.026 A 
ENDBRANCH  14  20
ENDBRANCH   8  13
BRANCH  12  27
ATOM     27  N   UNL     1      -6.869   8.816   1.890  1.00  0.00    -0.320 N 
ATOM     28  C   UNL     1      -6.928   9.815   2.828  1.00  0.00     0.258 C 
ATOM     29  H   UNL     1      -7.644   8.776   1.284  1.00  0.00     0.170 HD
ATOM     30  O   UNL     1      -8.007  10.352   3.072  1.00  0.00    -0.269 OA
BRANCH  28  31
ATOM     31  C   UNL     1      -5.707  10.339   3.467  1.00  0.00     0.075 A 
ATOM     32  C   UNL     1      -5.786  10.777   4.794  1.00  0.00     0.017 A 
ATOM     33  C   UNL     1      -4.518  10.516   2.756  1.00  0.00     0.135 A 
ATOM     34  C   UNL     1      -4.661  11.325   5.413  1.00  0.00     0.001 A 
ATOM     35  C   UNL     1      -3.389  11.038   3.378  1.00  0.00     0.040 A 
ATOM     36  F   UNL     1      -4.436  10.226   1.449  1.00  0.00    -0.206 F 
ATOM     37  C   UNL     1      -3.459  11.439   4.711  1.00  0.00     0.003 A 
ENDBRANCH  28  31
ENDBRANCH  12  27
ENDBRANCH   4   7
ENDBRANCH   2   3
ENDBRANCH   1   2
BRANCH   1  38
ATOM     38  C   UNL     1      -7.378   7.528  -4.173  1.00  0.00     0.118 C 
BRANCH  38  39
ATOM     39  N   UNL     1      -8.673   7.954  -4.690  1.00  0.00    -0.352 N 
ATOM     40  C   UNL     1      -9.079   8.066  -6.012  1.00  0.00     0.251 C 
ATOM     41  H   UNL     1      -9.346   8.195  -4.013  1.00  0.00     0.163 HD
ATOM     42  O   UNL     1     -10.213   8.377  -6.295  1.00  0.00    -0.269 OA
BRANCH  40  43
ATOM     43  C   UNL     1      -8.117   7.650  -7.061  1.00  0.00     0.039 A 
ATOM     44  C   UNL     1      -8.508   6.604  -7.899  1.00  0.00     0.014 A 
ATOM     45  C   UNL     1      -6.789   8.064  -6.994  1.00  0.00     0.014 A 
ATOM     46  C   UNL     1      -7.529   5.793  -8.457  1.00  0.00     0.010 A 
ATOM     47  C   UNL     1      -5.817   7.209  -7.467  1.00  0.00     0.010 A 
ATOM     48  C   UNL     1      -6.196   6.035  -8.127  1.00  0.00    -0.014 A 
BRANCH  48  49
ATOM     49  C   UNL     1      -5.147   5.053  -8.354  1.00  0.00     0.031 A 
ATOM     50  C   UNL     1      -4.271   5.185  -9.527  1.00  0.00     0.074 A 
ATOM     51  C   UNL     1      -4.970   4.051  -7.467  1.00  0.00     0.049 A 
ATOM     52  N   UNL     1      -3.674   4.203 -10.109  1.00  0.00    -0.248 NA
ATOM     53  C   UNL     1      -4.051   6.467 -10.181  1.00  0.00     0.031 C 
ATOM     54  C   UNL     1      -3.867   3.097  -7.404  1.00  0.00     0.029 A 
ATOM     55  N   UNL     1      -5.909   3.560  -6.549  1.00  0.00    -0.354 N 
ATOM     56  C   UNL     1      -2.775   4.736 -11.006  1.00  0.00     0.074 A 
ATOM     57  C   UNL     1      -3.123   6.136 -11.082  1.00  0.00     0.031 C 
ATOM     58  C   UNL     1      -4.284   2.000  -6.752  1.00  0.00     0.029 A 
ATOM     59  C   UNL     1      -5.707   2.163  -6.506  1.00  0.00     0.049 A 
ATOM     60  H   UNL     1      -6.572   4.081  -6.040  1.00  0.00     0.167 HD
ATOM     61  C   UNL     1      -1.747   3.955 -11.451  1.00  0.00     0.037 A 
ATOM     62  C   UNL     1      -6.678   1.297  -6.917  1.00  0.00     0.037 A 
ATOM     63  C   UNL     1      -1.898   2.579 -10.969  1.00  0.00     0.049 A 
ATOM     64  C   UNL     1      -6.245   0.406  -8.058  1.00  0.00     0.074 A 
ATOM     65  C   UNL     1      -1.325   1.891  -9.910  1.00  0.00     0.029 A 
ATOM     66  N   UNL     1      -2.979   1.810 -11.394  1.00  0.00    -0.354 N 
ATOM     67  N   UNL     1      -5.257   0.680  -8.865  1.00  0.00    -0.248 NA
ATOM     68  C   UNL     1      -6.903  -0.855  -8.388  1.00  0.00     0.031 C 
ATOM     69  C   UNL     1      -2.105   0.735  -9.660  1.00  0.00     0.029 A 
ATOM     70  C   UNL     1      -3.139   0.704 -10.580  1.00  0.00     0.049 A 
ATOM     71  H   UNL     1      -3.550   2.026 -12.166  1.00  0.00     0.167 HD
ATOM     72  C   UNL     1      -5.147  -0.310  -9.809  1.00  0.00     0.074 A 
ATOM     73  C   UNL     1      -6.185  -1.259  -9.450  1.00  0.00     0.031 C 
ATOM     74  C   UNL     1      -4.215  -0.253 -10.808  1.00  0.00     0.037 A 
BRANCH  61  75
ATOM     75  C   UNL     1      -0.450   4.512 -12.015  1.00  0.00     0.057 A 
ATOM     76  C   UNL     1       0.758   3.796 -11.883  1.00  0.00     0.134 A 
ATOM     77  C   UNL     1      -0.295   5.772 -12.619  1.00  0.00     0.134 A 
ATOM     78  F   UNL     1       0.785   2.527 -11.458  1.00  0.00    -0.206 F 
ATOM     79  C   UNL     1       2.014   4.345 -12.185  1.00  0.00     0.040 A 
ATOM     80  C   UNL     1       0.955   6.355 -12.879  1.00  0.00     0.040 A 
ATOM     81  F   UNL     1      -1.342   6.478 -13.057  1.00  0.00    -0.206 F 
ATOM     82  C   UNL     1       2.121   5.647 -12.643  1.00  0.00     0.006 A 
ENDBRANCH  61  75
BRANCH  62  83
ATOM     83  C   UNL     1      -8.057   1.817  -6.714  1.00  0.00     0.057 A 
ATOM     84  C   UNL     1      -8.483   2.108  -5.404  1.00  0.00     0.134 A 
ATOM     85  C   UNL     1      -8.801   2.369  -7.760  1.00  0.00     0.134 A 
ATOM     86  F   UNL     1      -7.817   1.608  -4.351  1.00  0.00    -0.206 F 
ATOM     87  C   UNL     1      -9.520   3.009  -5.146  1.00  0.00     0.040 A 
ATOM     88  C   UNL     1      -9.854   3.258  -7.512  1.00  0.00     0.040 A 
ATOM     89  F   UNL     1      -8.454   2.150  -9.036  1.00  0.00    -0.206 F 
ATOM     90  C   UNL     1     -10.187   3.614  -6.205  1.00  0.00     0.006 A 
ENDBRANCH  62  83
BRANCH  74  91
ATOM     91  C   UNL     1      -4.154  -1.143 -12.033  1.00  0.00     0.057 A 
ATOM     92  C   UNL     1      -5.250  -1.827 -12.580  1.00  0.00     0.134 A 
ATOM     93  C   UNL     1      -2.967  -1.226 -12.801  1.00  0.00     0.134 A 
ATOM     94  F   UNL     1      -6.474  -1.742 -12.044  1.00  0.00    -0.206 F 
ATOM     95  C   UNL     1      -5.158  -2.591 -13.753  1.00  0.00     0.040 A 
ATOM     96  C   UNL     1      -2.880  -1.934 -14.003  1.00  0.00     0.040 A 
ATOM     97  F   UNL     1      -1.840  -0.599 -12.433  1.00  0.00    -0.206 F 
ATOM     98  C   UNL     1      -3.974  -2.638 -14.476  1.00  0.00     0.006 A 
ENDBRANCH  74  91
ENDBRANCH  48  49
ENDBRANCH  40  43
ENDBRANCH  38  39
ENDBRANCH   1  38
TORSDOF 14
