REMARK SMILES CS(=O)(=O)c1ccc(C2=NN(c3ccc(C(=O)NCCCNC(=O)c4ccc(-c5c6nc(c(-c7c(F)cccc7F)c7ccc([nH]7)c(-c7c(F)cccc7F)c7nc(c(-c8c(F)cccc8F)c8ccc5[nH]8)C=C7)C=C6)cc4)cc3)[C@H](c3ccc(Cl)cc3)C2)cc1
REMARK SMILES IDX 19 1 18 2 16 3 17 4 15 6 12 7 13 8 80 9 14 10 79 11 11 12
REMARK SMILES IDX 9 13 10 14 89 15 81 16 8 17 5 18 6 19 91 20 7 21 90 22 2 23
REMARK SMILES IDX 1 24 3 25 4 26 82 27 83 28 88 29 84 30 87 31 85 32 86 33
REMARK SMILES IDX 20 34 21 35 22 36 23 37 24 39 25 40 26 41 78 42 27 43 77 44
REMARK SMILES IDX 28 45 29 46 30 47 71 48 31 49 76 50 70 51 72 52 32 53 75 54
REMARK SMILES IDX 69 55 68 56 33 58 59 59 42 60 58 61 43 62 46 63 57 64 73 65
REMARK SMILES IDX 44 66 45 67 56 69 74 70 47 71 34 72 35 73 40 74 36 75 37 76
REMARK SMILES IDX 39 77 41 78 38 79 60 80 61 81 66 82 62 83 63 84 65 85 67 86
REMARK SMILES IDX 64 87 48 88 49 89 54 90 50 91 51 92 53 93 55 94 52 95
REMARK H PARENT 18 5 22 38 72 57 46 68
REMARK Flexibility Score: inf
ROOT
ATOM      1  C   UNL     1       1.639  -9.872 -11.429  1.00  0.00     0.118 C 
ENDROOT
BRANCH   1   2
ATOM      2  N   UNL     1       0.457  -9.160 -11.881  1.00  0.00    -0.352 N 
ATOM      3  C   UNL     1      -0.147  -8.023 -11.402  1.00  0.00     0.251 C 
ATOM      4  O   UNL     1      -1.100  -7.556 -12.023  1.00  0.00    -0.269 OA
ATOM      5  H   UNL     1       0.013  -9.560 -12.664  1.00  0.00     0.163 HD
BRANCH   3   6
ATOM      6  C   UNL     1       0.371  -7.310 -10.209  1.00  0.00     0.039 A 
ATOM      7  C   UNL     1       1.527  -5.856  -8.099  1.00  0.00     0.060 A 
ATOM      8  C   UNL     1       0.953  -5.191  -9.186  1.00  0.00     0.029 A 
ATOM      9  C   UNL     1       1.424  -7.247  -8.034  1.00  0.00     0.029 A 
ATOM     10  C   UNL     1       0.373  -5.911 -10.234  1.00  0.00     0.016 A 
ATOM     11  C   UNL     1       0.842  -7.970  -9.073  1.00  0.00     0.016 A 
BRANCH   7  12
ATOM     12  N   UNL     1       2.198  -5.174  -7.106  1.00  0.00    -0.257 N 
ATOM     13  C   UNL     1       2.321  -3.994  -5.357  1.00  0.00     0.071 C 
ATOM     14  N   UNL     1       1.541  -4.815  -5.985  1.00  0.00    -0.176 NA
ATOM     15  C   UNL     1       3.620  -3.673  -6.050  1.00  0.00     0.091 C 
ATOM     16  C   UNL     1       3.585  -4.714  -7.184  1.00  0.00     0.144 C 
BRANCH  13  17
ATOM     17  C   UNL     1       1.934  -3.397  -4.069  1.00  0.00    -0.002 A 
ATOM     18  C   UNL     1       1.038  -2.310  -1.669  1.00  0.00     0.067 A 
ATOM     19  C   UNL     1       0.754  -3.645  -1.975  1.00  0.00     0.021 A 
ATOM     20  C   UNL     1       1.772  -1.516  -2.556  1.00  0.00     0.021 A 
ATOM     21  C   UNL     1       1.193  -4.184  -3.182  1.00  0.00     0.011 A 
ATOM     22  C   UNL     1       2.229  -2.066  -3.760  1.00  0.00     0.011 A 
BRANCH  18  23
ATOM     23  S   UNL     1       0.416  -1.699  -0.120  1.00  0.00     0.175 S 
ATOM     24  C   UNL     1       1.016  -0.048   0.082  1.00  0.00     0.163 C 
ATOM     25  O   UNL     1       1.036  -2.511   0.911  1.00  0.00    -0.224 OA
ATOM     26  O   UNL     1      -1.024  -1.627  -0.258  1.00  0.00    -0.224 OA
ENDBRANCH  18  23
ENDBRANCH  13  17
BRANCH  16  27
ATOM     27  C   UNL     1       4.553  -5.897  -7.105  1.00  0.00    -0.023 A 
ATOM     28  C   UNL     1       5.245  -6.274  -5.942  1.00  0.00     0.007 A 
ATOM     29  C   UNL     1       4.735  -6.692  -8.258  1.00  0.00     0.007 A 
ATOM     30  C   UNL     1       6.088  -7.394  -5.937  1.00  0.00     0.021 A 
ATOM     31  C   UNL     1       5.550  -7.828  -8.245  1.00  0.00     0.021 A 
ATOM     32  C   UNL     1       6.229  -8.171  -7.083  1.00  0.00     0.041 A 
ATOM     33  Cl  UNL     1       7.237  -9.565  -7.060  1.00  0.00    -0.084 Cl
ENDBRANCH  16  27
ENDBRANCH   7  12
ENDBRANCH   3   6
ENDBRANCH   1   2
BRANCH   1  34
ATOM     34  C   UNL     1       1.263 -11.135 -10.658  1.00  0.00     0.042 C 
BRANCH  34  35
ATOM     35  C   UNL     1       0.745 -12.253 -11.552  1.00  0.00     0.118 C 
BRANCH  35  36
ATOM     36  N   UNL     1       1.797 -12.817 -12.383  1.00  0.00    -0.352 N 
ATOM     37  C   UNL     1       2.228 -14.114 -12.495  1.00  0.00     0.251 C 
ATOM     38  H   UNL     1       2.272 -12.169 -12.951  1.00  0.00     0.163 HD
ATOM     39  O   UNL     1       3.277 -14.351 -13.088  1.00  0.00    -0.269 OA
BRANCH  37  40
ATOM     40  C   UNL     1       1.446 -15.226 -11.911  1.00  0.00     0.039 A 
ATOM     41  C   UNL     1       2.134 -16.306 -11.348  1.00  0.00     0.014 A 
ATOM     42  C   UNL     1       0.050 -15.244 -11.968  1.00  0.00     0.014 A 
ATOM     43  C   UNL     1       1.423 -17.386 -10.823  1.00  0.00     0.010 A 
ATOM     44  C   UNL     1      -0.659 -16.281 -11.368  1.00  0.00     0.010 A 
ATOM     45  C   UNL     1       0.019 -17.376 -10.814  1.00  0.00    -0.014 A 
BRANCH  45  46
ATOM     46  C   UNL     1      -0.756 -18.523 -10.278  1.00  0.00     0.031 A 
ATOM     47  C   UNL     1      -1.643 -19.321 -11.196  1.00  0.00     0.074 A 
ATOM     48  C   UNL     1      -0.699 -18.818  -8.965  1.00  0.00     0.049 A 
ATOM     49  N   UNL     1      -2.450 -20.313 -10.913  1.00  0.00    -0.248 NA
ATOM     50  C   UNL     1      -1.646 -18.936 -12.617  1.00  0.00     0.031 C 
ATOM     51  C   UNL     1       0.093 -18.096  -7.968  1.00  0.00     0.029 A 
ATOM     52  N   UNL     1      -1.329 -19.799  -8.242  1.00  0.00    -0.354 N 
ATOM     53  C   UNL     1      -3.066 -20.654 -12.111  1.00  0.00     0.074 A 
ATOM     54  C   UNL     1      -2.584 -19.728 -13.113  1.00  0.00     0.031 C 
ATOM     55  C   UNL     1      -0.081 -18.672  -6.768  1.00  0.00     0.029 A 
ATOM     56  C   UNL     1      -1.026 -19.776  -6.902  1.00  0.00     0.049 A 
ATOM     57  H   UNL     1      -1.940 -20.457  -8.645  1.00  0.00     0.167 HD
ATOM     58  C   UNL     1      -3.934 -21.662 -12.361  1.00  0.00     0.037 A 
ATOM     59  C   UNL     1      -1.467 -20.554  -5.896  1.00  0.00     0.037 A 
ATOM     60  C   UNL     1      -4.389 -22.598 -11.367  1.00  0.00     0.049 A 
ATOM     61  C   UNL     1      -2.436 -21.665  -6.199  1.00  0.00     0.074 A 
ATOM     62  C   UNL     1      -5.229 -23.686 -11.527  1.00  0.00     0.029 A 
ATOM     63  N   UNL     1      -4.040 -22.556 -10.025  1.00  0.00    -0.354 N 
ATOM     64  N   UNL     1      -2.962 -22.014  -7.348  1.00  0.00    -0.248 NA
ATOM     65  C   UNL     1      -2.862 -22.498  -5.067  1.00  0.00     0.031 C 
ATOM     66  C   UNL     1      -5.425 -24.275 -10.274  1.00  0.00     0.029 A 
ATOM     67  C   UNL     1      -4.660 -23.589  -9.344  1.00  0.00     0.049 A 
ATOM     68  H   UNL     1      -3.440 -21.890  -9.618  1.00  0.00     0.167 HD
ATOM     69  C   UNL     1      -3.749 -23.128  -7.084  1.00  0.00     0.074 A 
ATOM     70  C   UNL     1      -3.622 -23.402  -5.668  1.00  0.00     0.031 C 
ATOM     71  C   UNL     1      -4.507 -23.860  -7.937  1.00  0.00     0.037 A 
BRANCH  58  72
ATOM     72  C   UNL     1      -4.447 -21.807 -13.766  1.00  0.00     0.057 A 
ATOM     73  C   UNL     1      -3.619 -22.222 -14.818  1.00  0.00     0.134 A 
ATOM     74  C   UNL     1      -5.795 -21.567 -14.064  1.00  0.00     0.134 A 
ATOM     75  F   UNL     1      -2.316 -22.458 -14.605  1.00  0.00    -0.206 F 
ATOM     76  C   UNL     1      -4.105 -22.365 -16.119  1.00  0.00     0.040 A 
ATOM     77  C   UNL     1      -6.299 -21.736 -15.354  1.00  0.00     0.040 A 
ATOM     78  F   UNL     1      -6.646 -21.174 -13.104  1.00  0.00    -0.206 F 
ATOM     79  C   UNL     1      -5.452 -22.130 -16.388  1.00  0.00     0.006 A 
ENDBRANCH  58  72
BRANCH  59  80
ATOM     80  C   UNL     1      -0.983 -20.329  -4.510  1.00  0.00     0.057 A 
ATOM     81  C   UNL     1      -0.157 -21.262  -3.871  1.00  0.00     0.134 A 
ATOM     82  C   UNL     1      -1.351 -19.191  -3.782  1.00  0.00     0.134 A 
ATOM     83  F   UNL     1       0.216 -22.381  -4.510  1.00  0.00    -0.206 F 
ATOM     84  C   UNL     1       0.263 -21.087  -2.552  1.00  0.00     0.040 A 
ATOM     85  C   UNL     1      -0.914 -18.988  -2.471  1.00  0.00     0.040 A 
ATOM     86  F   UNL     1      -2.132 -18.254  -4.338  1.00  0.00    -0.206 F 
ATOM     87  C   UNL     1      -0.113 -19.944  -1.849  1.00  0.00     0.006 A 
ENDBRANCH  59  80
BRANCH  71  88
ATOM     88  C   UNL     1      -5.208 -25.064  -7.377  1.00  0.00     0.057 A 
ATOM     89  C   UNL     1      -6.302 -24.953  -6.510  1.00  0.00     0.134 A 
ATOM     90  C   UNL     1      -4.802 -26.353  -7.744  1.00  0.00     0.134 A 
ATOM     91  F   UNL     1      -6.735 -23.748  -6.110  1.00  0.00    -0.206 F 
ATOM     92  C   UNL     1      -6.949 -26.083  -6.005  1.00  0.00     0.040 A 
ATOM     93  C   UNL     1      -5.459 -27.489  -7.271  1.00  0.00     0.040 A 
ATOM     94  F   UNL     1      -3.767 -26.530  -8.580  1.00  0.00    -0.206 F 
ATOM     95  C   UNL     1      -6.532 -27.355  -6.392  1.00  0.00     0.006 A 
ENDBRANCH  71  88
ENDBRANCH  45  46
ENDBRANCH  37  40
ENDBRANCH  35  36
ENDBRANCH  34  35
ENDBRANCH   1  34
TORSDOF 14
