REMARK SMILES O=C(NCCCNC(=O)[C@@H]1CC=CC[C@@H]1C(=O)Nc1ccc(Br)cc1Cl)c1ccc(-c2c3nc(c(-c4c(F)cccc4F)c4ccc([nH]4)c(-c4c(F)cccc4F)c4nc(c(-c5c(F)cccc5F)c5ccc2[nH]5)C=C4)C=C3)cc1
REMARK SMILES IDX 5 1 4 2 3 3 1 4 2 5 27 7 28 8 80 9 29 10 79 11 30 12 31 13
REMARK SMILES IDX 32 14 73 15 33 16 78 17 72 18 74 19 34 20 77 21 71 22 70 23
REMARK SMILES IDX 35 25 61 26 44 27 60 28 45 29 48 30 59 31 75 32 46 33 47 34
REMARK SMILES IDX 58 36 76 37 49 38 36 39 37 40 42 41 38 42 39 43 41 44 43 45
REMARK SMILES IDX 40 46 62 47 63 48 68 49 64 50 65 51 67 52 69 53 66 54 50 55
REMARK SMILES IDX 51 56 56 57 52 58 53 59 55 60 57 61 54 62 6 63 7 64 8 65
REMARK SMILES IDX 9 67 10 68 11 69 15 70 12 71 14 72 13 73 16 74 17 75 18 76
REMARK SMILES IDX 19 78 20 79 25 80 21 81 24 82 26 83 22 84 23 85
REMARK H PARENT 3 6 74 24 48 35 7 66 18 77
REMARK Flexibility Score: inf
ROOT
ATOM      1  C   UNL     1       7.558   7.682   0.863  1.00  0.00     0.042 C 
ENDROOT
BRANCH   1   2
ATOM      2  C   UNL     1       8.081   9.114   0.808  1.00  0.00     0.118 C 
BRANCH   2   3
ATOM      3  N   UNL     1       7.306  10.019   1.647  1.00  0.00    -0.352 N 
ATOM      4  O   UNL     1       6.798  11.204   3.492  1.00  0.00    -0.269 OA
ATOM      5  C   UNL     1       7.660  10.678   2.798  1.00  0.00     0.251 C 
ATOM      6  H   UNL     1       6.385  10.183   1.341  1.00  0.00     0.163 HD
BRANCH   5   7
ATOM      7  C   UNL     1       9.079  10.748   3.199  1.00  0.00     0.039 A 
ATOM      8  C   UNL     1      10.069  10.998   2.247  1.00  0.00     0.014 A 
ATOM      9  C   UNL     1       9.420  10.605   4.547  1.00  0.00     0.014 A 
ATOM     10  C   UNL     1      11.406  10.960   2.616  1.00  0.00     0.010 A 
ATOM     11  C   UNL     1      10.761  10.668   4.932  1.00  0.00     0.010 A 
ATOM     12  C   UNL     1      11.766  10.824   3.966  1.00  0.00    -0.014 A 
BRANCH  12  13
ATOM     13  C   UNL     1      13.196  10.941   4.343  1.00  0.00     0.031 A 
ATOM     14  C   UNL     1      13.937   9.790   4.958  1.00  0.00     0.074 A 
ATOM     15  C   UNL     1      13.828  12.105   4.097  1.00  0.00     0.049 A 
ATOM     16  N   UNL     1      15.191   9.726   5.331  1.00  0.00    -0.248 NA
ATOM     17  C   UNL     1      13.177   8.553   5.193  1.00  0.00     0.031 C 
ATOM     18  C   UNL     1      13.201  13.295   3.513  1.00  0.00     0.029 A 
ATOM     19  N   UNL     1      15.132  12.478   4.287  1.00  0.00    -0.354 N 
ATOM     20  C   UNL     1      15.367   8.453   5.857  1.00  0.00     0.074 A 
ATOM     21  C   UNL     1      14.084   7.786   5.783  1.00  0.00     0.031 C 
ATOM     22  C   UNL     1      14.130  14.247   3.351  1.00  0.00     0.029 A 
ATOM     23  C   UNL     1      15.398  13.764   3.883  1.00  0.00     0.049 A 
ATOM     24  H   UNL     1      15.813  11.883   4.676  1.00  0.00     0.167 HD
ATOM     25  C   UNL     1      16.500   7.894   6.348  1.00  0.00     0.037 A 
ATOM     26  C   UNL     1      16.530  14.485   3.954  1.00  0.00     0.037 A 
ATOM     27  C   UNL     1      17.773   8.568   6.413  1.00  0.00     0.049 A 
ATOM     28  C   UNL     1      17.756  13.852   4.541  1.00  0.00     0.074 A 
ATOM     29  C   UNL     1      18.986   8.076   6.863  1.00  0.00     0.029 A 
ATOM     30  N   UNL     1      17.995   9.882   6.026  1.00  0.00    -0.354 N 
ATOM     31  N   UNL     1      17.919  12.634   4.997  1.00  0.00    -0.248 NA
ATOM     32  C   UNL     1      18.956  14.694   4.626  1.00  0.00     0.031 C 
ATOM     33  C   UNL     1      19.928   9.108   6.801  1.00  0.00     0.029 A 
ATOM     34  C   UNL     1      19.318  10.226   6.254  1.00  0.00     0.049 A 
ATOM     35  H   UNL     1      17.313  10.481   5.645  1.00  0.00     0.167 HD
ATOM     36  C   UNL     1      19.243  12.556   5.404  1.00  0.00     0.074 A 
ATOM     37  C   UNL     1      19.844  13.843   5.120  1.00  0.00     0.031 C 
ATOM     38  C   UNL     1      19.901  11.512   5.965  1.00  0.00     0.037 A 
BRANCH  25  39
ATOM     39  C   UNL     1      16.412   6.490   6.877  1.00  0.00     0.057 A 
ATOM     40  C   UNL     1      16.234   5.387   6.032  1.00  0.00     0.134 A 
ATOM     41  C   UNL     1      16.559   6.234   8.247  1.00  0.00     0.134 A 
ATOM     42  F   UNL     1      16.076   5.560   4.711  1.00  0.00    -0.206 F 
ATOM     43  C   UNL     1      16.182   4.083   6.532  1.00  0.00     0.040 A 
ATOM     44  C   UNL     1      16.537   4.933   8.755  1.00  0.00     0.040 A 
ATOM     45  F   UNL     1      16.741   7.242   9.113  1.00  0.00    -0.206 F 
ATOM     46  C   UNL     1      16.342   3.854   7.897  1.00  0.00     0.006 A 
ENDBRANCH  25  39
BRANCH  26  47
ATOM     47  C   UNL     1      16.545  15.888   3.468  1.00  0.00     0.057 A 
ATOM     48  C   UNL     1      17.282  16.257   2.338  1.00  0.00     0.134 A 
ATOM     49  C   UNL     1      15.816  16.891   4.119  1.00  0.00     0.134 A 
ATOM     50  F   UNL     1      18.012  15.344   1.680  1.00  0.00    -0.206 F 
ATOM     51  C   UNL     1      17.311  17.576   1.883  1.00  0.00     0.040 A 
ATOM     52  C   UNL     1      15.810  18.207   3.657  1.00  0.00     0.040 A 
ATOM     53  F   UNL     1      15.079  16.600   5.201  1.00  0.00    -0.206 F 
ATOM     54  C   UNL     1      16.567  18.554   2.541  1.00  0.00     0.006 A 
ENDBRANCH  26  47
BRANCH  38  55
ATOM     55  C   UNL     1      21.357  11.712   6.273  1.00  0.00     0.057 A 
ATOM     56  C   UNL     1      21.787  12.547   7.312  1.00  0.00     0.134 A 
ATOM     57  C   UNL     1      22.339  11.041   5.533  1.00  0.00     0.134 A 
ATOM     58  F   UNL     1      20.898  13.231   8.048  1.00  0.00    -0.206 F 
ATOM     59  C   UNL     1      23.143  12.730   7.586  1.00  0.00     0.040 A 
ATOM     60  C   UNL     1      23.697  11.192   5.818  1.00  0.00     0.040 A 
ATOM     61  F   UNL     1      21.995  10.221   4.529  1.00  0.00    -0.206 F 
ATOM     62  C   UNL     1      24.102  12.045   6.842  1.00  0.00     0.006 A 
ENDBRANCH  38  55
ENDBRANCH  12  13
ENDBRANCH   5   7
ENDBRANCH   2   3
ENDBRANCH   1   2
BRANCH   1  63
ATOM     63  C   UNL     1       6.127   7.551   0.356  1.00  0.00     0.117 C 
BRANCH  63  64
ATOM     64  N   UNL     1       6.028   7.921  -1.042  1.00  0.00    -0.356 N 
ATOM     65  C   UNL     1       5.827   7.167  -2.153  1.00  0.00     0.224 C 
ATOM     66  H   UNL     1       6.122   8.886  -1.215  1.00  0.00     0.163 HD
ATOM     67  O   UNL     1       5.681   7.786  -3.208  1.00  0.00    -0.275 OA
BRANCH  65  68
ATOM     68  C   UNL     1       5.706   5.648  -2.060  1.00  0.00     0.095 C 
ATOM     69  C   UNL     1       6.903   4.940  -1.409  1.00  0.00     0.041 C 
ATOM     70  C   UNL     1       5.256   5.019  -3.398  1.00  0.00     0.095 C 
ATOM     71  C   UNL     1       7.008   3.474  -1.697  1.00  0.00    -0.030 C 
ATOM     72  C   UNL     1       5.099   3.496  -3.301  1.00  0.00     0.041 C 
ATOM     73  C   UNL     1       6.183   2.821  -2.524  1.00  0.00    -0.030 C 
BRANCH  70  74
ATOM     74  C   UNL     1       5.796   5.436  -4.782  1.00  0.00     0.228 C 
ATOM     75  O   UNL     1       5.007   5.393  -5.742  1.00  0.00    -0.274 OA
ATOM     76  N   UNL     1       7.054   5.845  -5.088  1.00  0.00    -0.324 N 
ATOM     77  H   UNL     1       7.166   6.152  -6.017  1.00  0.00     0.169 HD
BRANCH  76  78
ATOM     78  C   UNL     1       8.216   5.907  -4.321  1.00  0.00     0.060 A 
ATOM     79  C   UNL     1       8.660   7.170  -3.917  1.00  0.00     0.029 A 
ATOM     80  C   UNL     1       9.008   4.782  -4.053  1.00  0.00     0.065 A 
ATOM     81  C   UNL     1       9.778   7.291  -3.091  1.00  0.00     0.018 A 
ATOM     82  C   UNL     1      10.130   4.898  -3.226  1.00  0.00     0.038 A 
ATOM     83  Cl  UNL     1       8.688   3.250  -4.783  1.00  0.00    -0.082 Cl
ATOM     84  C   UNL     1      10.484   6.148  -2.719  1.00  0.00     0.019 A 
ATOM     85  Br  UNL     1      11.918   6.297  -1.498  1.00  0.00    -0.051 Br
ENDBRANCH  76  78
ENDBRANCH  70  74
ENDBRANCH  65  68
ENDBRANCH  63  64
ENDBRANCH   1  63
TORSDOF 12
