REMARK SMILES C[C@H](C(=O)NCCCNC(=O)c1ccc(-c2c3nc(c(-c4c(F)cccc4F)c4ccc([nH]4)c(-c4c(F)cccc4F)c4nc(c(-c5c(F)cccc5F)c5ccc2[nH]5)C=C4)C=C3)cc1)c1ccc2c(c1)[nH]c1ccc(Cl)cc12
REMARK SMILES IDX 7 1 6 2 5 3 3 4 4 5 2 7 1 8 66 9 67 10 71 11 68 12 70 13
REMARK SMILES IDX 69 14 72 15 79 16 73 17 78 19 74 20 76 21 75 22 77 23 8 24
REMARK SMILES IDX 9 25 10 26 11 28 12 29 13 30 65 31 14 32 64 33 15 34 16 35
REMARK SMILES IDX 17 36 58 37 18 38 63 39 57 40 59 41 19 42 62 43 56 44 55 45
REMARK SMILES IDX 20 47 46 48 29 49 45 50 30 51 33 52 44 53 60 54 31 55 32 56
REMARK SMILES IDX 43 58 61 59 34 60 21 61 22 62 27 63 23 64 24 65 26 66 28 67
REMARK SMILES IDX 25 68 47 69 48 70 53 71 49 72 50 73 52 74 54 75 51 76 35 77
REMARK SMILES IDX 36 78 41 79 37 80 38 81 40 82 42 83 39 84
REMARK H PARENT 5 6 72 18 9 27 59 46 33 57
REMARK Flexibility Score: inf
ROOT
ATOM      1  C   UNL     1      -1.018   2.652   1.221  1.00  0.00     0.042 C 
ENDROOT
BRANCH   1   2
ATOM      2  C   UNL     1       0.278   2.522   0.425  1.00  0.00     0.117 C 
BRANCH   2   3
ATOM      3  N   UNL     1       0.898   1.218   0.568  1.00  0.00    -0.356 N 
ATOM      4  C   UNL     1       0.967   0.180  -0.318  1.00  0.00     0.227 C 
ATOM      5  O   UNL     1       1.558  -0.840   0.043  1.00  0.00    -0.274 OA
ATOM      6  H   UNL     1       1.336   1.057   1.435  1.00  0.00     0.163 HD
BRANCH   4   7
ATOM      7  C   UNL     1       0.297   0.298  -1.694  1.00  0.00     0.105 C 
ATOM      8  C   UNL     1       1.024  -0.581  -2.717  1.00  0.00     0.023 C 
BRANCH   7   9
ATOM      9  C   UNL     1      -1.182  -0.056  -1.616  1.00  0.00    -0.034 A 
ATOM     10  C   UNL     1      -2.155   0.868  -2.021  1.00  0.00     0.005 A 
ATOM     11  C   UNL     1      -1.582  -1.308  -1.114  1.00  0.00     0.031 A 
ATOM     12  C   UNL     1      -3.523   0.578  -1.912  1.00  0.00     0.011 A 
ATOM     13  C   UNL     1      -2.950  -1.574  -1.002  1.00  0.00     0.047 A 
ATOM     14  C   UNL     1      -3.932  -0.663  -1.382  1.00  0.00     0.007 A 
ATOM     15  N   UNL     1      -3.593  -2.690  -0.523  1.00  0.00    -0.355 N 
ATOM     16  C   UNL     1      -5.202  -1.263  -1.101  1.00  0.00     0.009 A 
ATOM     17  C   UNL     1      -4.957  -2.517  -0.542  1.00  0.00     0.047 A 
ATOM     18  H   UNL     1      -3.138  -3.504  -0.209  1.00  0.00     0.167 HD
ATOM     19  C   UNL     1      -6.540  -0.844  -1.253  1.00  0.00     0.031 A 
ATOM     20  C   UNL     1      -5.976  -3.372  -0.106  1.00  0.00     0.028 A 
ATOM     21  C   UNL     1      -7.569  -1.689  -0.824  1.00  0.00     0.041 A 
ATOM     22  C   UNL     1      -7.294  -2.930  -0.253  1.00  0.00     0.022 A 
ATOM     23  Cl  UNL     1      -9.206  -1.182  -0.999  1.00  0.00    -0.084 Cl
ENDBRANCH   7   9
ENDBRANCH   4   7
ENDBRANCH   2   3
ENDBRANCH   1   2
BRANCH   1  24
ATOM     24  C   UNL     1      -0.854   2.551   2.736  1.00  0.00     0.118 C 
BRANCH  24  25
ATOM     25  N   UNL     1       0.012   3.586   3.284  1.00  0.00    -0.352 N 
ATOM     26  C   UNL     1      -0.205   4.530   4.255  1.00  0.00     0.251 C 
ATOM     27  H   UNL     1       0.913   3.612   2.888  1.00  0.00     0.163 HD
ATOM     28  O   UNL     1       0.641   5.404   4.428  1.00  0.00    -0.269 OA
BRANCH  26  29
ATOM     29  C   UNL     1      -1.433   4.536   5.085  1.00  0.00     0.039 A 
ATOM     30  C   UNL     1      -1.974   5.774   5.451  1.00  0.00     0.014 A 
ATOM     31  C   UNL     1      -2.018   3.361   5.566  1.00  0.00     0.014 A 
ATOM     32  C   UNL     1      -3.122   5.832   6.246  1.00  0.00     0.010 A 
ATOM     33  C   UNL     1      -3.204   3.417   6.302  1.00  0.00     0.010 A 
ATOM     34  C   UNL     1      -3.766   4.653   6.654  1.00  0.00    -0.014 A 
BRANCH  34  35
ATOM     35  C   UNL     1      -5.032   4.718   7.429  1.00  0.00     0.031 A 
ATOM     36  C   UNL     1      -5.096   4.231   8.851  1.00  0.00     0.074 A 
ATOM     37  C   UNL     1      -6.142   5.198   6.836  1.00  0.00     0.049 A 
ATOM     38  N   UNL     1      -6.111   4.237   9.680  1.00  0.00    -0.248 NA
ATOM     39  C   UNL     1      -3.870   3.641   9.408  1.00  0.00     0.031 C 
ATOM     40  C   UNL     1      -6.229   5.647   5.445  1.00  0.00     0.029 A 
ATOM     41  N   UNL     1      -7.408   5.393   7.328  1.00  0.00    -0.354 N 
ATOM     42  C   UNL     1      -5.649   3.650  10.851  1.00  0.00     0.074 A 
ATOM     43  C   UNL     1      -4.278   3.253  10.608  1.00  0.00     0.031 C 
ATOM     44  C   UNL     1      -7.471   6.095   5.205  1.00  0.00     0.029 A 
ATOM     45  C   UNL     1      -8.274   5.943   6.414  1.00  0.00     0.049 A 
ATOM     46  H   UNL     1      -7.671   5.160   8.248  1.00  0.00     0.167 HD
ATOM     47  C   UNL     1      -6.298   3.476  12.027  1.00  0.00     0.037 A 
ATOM     48  C   UNL     1      -9.567   6.295   6.538  1.00  0.00     0.037 A 
ATOM     49  C   UNL     1      -7.656   3.888  12.277  1.00  0.00     0.049 A 
ATOM     50  C   UNL     1     -10.258   6.112   7.859  1.00  0.00     0.074 A 
ATOM     51  C   UNL     1      -8.380   3.810  13.455  1.00  0.00     0.029 A 
ATOM     52  N   UNL     1      -8.496   4.454  11.330  1.00  0.00    -0.354 N 
ATOM     53  N   UNL     1      -9.784   5.625   8.979  1.00  0.00    -0.248 NA
ATOM     54  C   UNL     1     -11.663   6.538   7.934  1.00  0.00     0.031 C 
ATOM     55  C   UNL     1      -9.669   4.296  13.211  1.00  0.00     0.029 A 
ATOM     56  C   UNL     1      -9.736   4.713  11.892  1.00  0.00     0.049 A 
ATOM     57  H   UNL     1      -8.249   4.644  10.396  1.00  0.00     0.167 HD
ATOM     58  C   UNL     1     -10.824   5.702   9.897  1.00  0.00     0.074 A 
ATOM     59  C   UNL     1     -11.946   6.304   9.207  1.00  0.00     0.031 C 
ATOM     60  C   UNL     1     -10.847   5.307  11.193  1.00  0.00     0.037 A 
BRANCH  47  61
ATOM     61  C   UNL     1      -5.541   2.817  13.143  1.00  0.00     0.057 A 
ATOM     62  C   UNL     1      -4.504   3.475  13.818  1.00  0.00     0.134 A 
ATOM     63  C   UNL     1      -5.876   1.527  13.574  1.00  0.00     0.134 A 
ATOM     64  F   UNL     1      -4.128   4.708  13.448  1.00  0.00    -0.206 F 
ATOM     65  C   UNL     1      -3.811   2.865  14.865  1.00  0.00     0.040 A 
ATOM     66  C   UNL     1      -5.206   0.916  14.636  1.00  0.00     0.040 A 
ATOM     67  F   UNL     1      -6.864   0.844  12.977  1.00  0.00    -0.206 F 
ATOM     68  C   UNL     1      -4.166   1.583  15.281  1.00  0.00     0.006 A 
ENDBRANCH  47  61
BRANCH  48  69
ATOM     69  C   UNL     1     -10.284   6.893   5.386  1.00  0.00     0.057 A 
ATOM     70  C   UNL     1     -10.624   8.251   5.375  1.00  0.00     0.134 A 
ATOM     71  C   UNL     1     -10.645   6.127   4.272  1.00  0.00     0.134 A 
ATOM     72  F   UNL     1     -10.320   9.030   6.423  1.00  0.00    -0.206 F 
ATOM     73  C   UNL     1     -11.314   8.823   4.306  1.00  0.00     0.040 A 
ATOM     74  C   UNL     1     -11.315   6.691   3.185  1.00  0.00     0.040 A 
ATOM     75  F   UNL     1     -10.340   4.822   4.220  1.00  0.00    -0.206 F 
ATOM     76  C   UNL     1     -11.657   8.042   3.204  1.00  0.00     0.006 A 
ENDBRANCH  48  69
BRANCH  60  77
ATOM     77  C   UNL     1     -12.124   5.530  11.948  1.00  0.00     0.057 A 
ATOM     78  C   UNL     1     -13.267   4.757  11.707  1.00  0.00     0.134 A 
ATOM     79  C   UNL     1     -12.210   6.523  12.932  1.00  0.00     0.134 A 
ATOM     80  F   UNL     1     -13.254   3.800  10.766  1.00  0.00    -0.206 F 
ATOM     81  C   UNL     1     -14.459   4.982  12.397  1.00  0.00     0.040 A 
ATOM     82  C   UNL     1     -13.388   6.741  13.646  1.00  0.00     0.040 A 
ATOM     83  F   UNL     1     -11.149   7.294  13.216  1.00  0.00    -0.206 F 
ATOM     84  C   UNL     1     -14.520   5.975  13.374  1.00  0.00     0.006 A 
ENDBRANCH  60  77
ENDBRANCH  34  35
ENDBRANCH  26  29
ENDBRANCH  24  25
ENDBRANCH   1  24
TORSDOF 11
