REMARK SMILES Cc1nc(CCNc2nccc(-c3cc(C(=O)NCCCNC(=O)c4ccc(-c5c6nc(c(-c7c(F)cccc7F)c7ccc([nH]7)c(-c7c(F)cccc7F)c7nc(c(-c8c(F)cccc8F)c8ccc5[nH]8)C=C7)C=C6)cc4)ccn3)n2)cc(=O)[nH]1
REMARK SMILES IDX 16 1 17 2 18 3 15 5 13 6 14 7 81 8 80 9 79 10 12 11 8 12
REMARK SMILES IDX 9 13 82 14 10 15 11 16 7 17 6 19 5 20 4 21 1 22 2 23 3 24
REMARK SMILES IDX 86 25 84 26 83 28 85 29 19 30 20 31 21 32 22 33 23 34 24 36
REMARK SMILES IDX 25 37 26 38 78 39 27 40 77 41 28 42 29 43 30 44 71 45 31 46
REMARK SMILES IDX 76 47 70 48 72 49 32 50 75 51 69 52 68 53 33 55 59 56 42 57
REMARK SMILES IDX 58 58 43 59 46 60 57 61 73 62 44 63 45 64 56 66 74 67 47 68
REMARK SMILES IDX 34 69 35 70 40 71 36 72 37 73 39 74 41 75 38 76 60 77 61 78
REMARK SMILES IDX 66 79 62 80 63 81 65 82 67 83 64 84 48 85 49 86 54 87 50 88
REMARK SMILES IDX 51 89 53 90 55 91 52 92
REMARK H PARENT 18 4 7 18 86 27 22 35 72 54 46 65
REMARK Flexibility Score: inf
ROOT
ATOM      1  C   UNL     1       2.519  11.345   3.136  1.00  0.00     0.251 C 
ATOM      2  O   UNL     1       2.050  12.194   3.893  1.00  0.00    -0.269 OA
ATOM      3  N   UNL     1       2.968  11.764   1.910  1.00  0.00    -0.352 N 
ATOM      4  H   UNL     1       2.828  12.724   1.747  1.00  0.00     0.163 HD
ENDROOT
BRANCH   1   5
ATOM      5  C   UNL     1       2.631   9.942   3.611  1.00  0.00     0.043 A 
ATOM      6  C   UNL     1       2.935   7.587   3.311  1.00  0.00     0.090 A 
ATOM      7  C   UNL     1       2.676   8.838   2.769  1.00  0.00     0.044 A 
ATOM      8  N   UNL     1       3.048   7.381   4.645  1.00  0.00    -0.255 NA
ATOM      9  C   UNL     1       2.885   8.446   5.455  1.00  0.00     0.112 A 
ATOM     10  C   UNL     1       2.697   9.733   4.991  1.00  0.00     0.034 A 
BRANCH   6  11
ATOM     11  C   UNL     1       3.205   6.443   2.437  1.00  0.00     0.094 A 
ATOM     12  C   UNL     1       2.497   4.431   1.624  1.00  0.00     0.223 A 
ATOM     13  N   UNL     1       3.638   4.229   0.951  1.00  0.00    -0.222 NA
ATOM     14  N   UNL     1       2.221   5.529   2.328  1.00  0.00    -0.211 NA
ATOM     15  C   UNL     1       4.561   5.201   1.008  1.00  0.00     0.117 A 
ATOM     16  C   UNL     1       4.404   6.336   1.758  1.00  0.00     0.051 A 
BRANCH  12  17
ATOM     17  N   UNL     1       1.612   3.394   1.608  1.00  0.00    -0.354 N 
ATOM     18  H   UNL     1       1.941   2.477   1.747  1.00  0.00     0.163 HD
BRANCH  17  19
ATOM     19  C   UNL     1       0.197   3.614   1.391  1.00  0.00     0.122 C 
BRANCH  19  20
ATOM     20  C   UNL     1      -0.232   3.089   0.008  1.00  0.00     0.077 C 
BRANCH  20  21
ATOM     21  C   UNL     1      -0.127   1.580  -0.115  1.00  0.00     0.050 A 
ATOM     22  C   UNL     1      -2.460  -1.260   0.153  1.00  0.00     0.087 C 
ATOM     23  C   UNL     1      -1.231  -0.413   0.012  1.00  0.00     0.105 A 
ATOM     24  N   UNL     1      -1.296   0.878   0.076  1.00  0.00    -0.240 NA
ATOM     25  N   UNL     1      -0.070  -1.103  -0.192  1.00  0.00    -0.311 N 
ATOM     26  C   UNL     1       1.117  -0.470  -0.396  1.00  0.00     0.251 A 
ATOM     27  H   UNL     1      -0.093  -2.087  -0.191  1.00  0.00     0.171 HD
ATOM     28  C   UNL     1       1.044   0.995  -0.416  1.00  0.00     0.095 A 
ATOM     29  O   UNL     1       2.177  -1.063  -0.537  1.00  0.00    -0.270 OA
ENDBRANCH  20  21
ENDBRANCH  19  20
ENDBRANCH  17  19
ENDBRANCH  12  17
ENDBRANCH   6  11
ENDBRANCH   1   5
BRANCH   3  30
ATOM     30  C   UNL     1       3.608  11.073   0.804  1.00  0.00     0.118 C 
BRANCH  30  31
ATOM     31  C   UNL     1       2.594  10.728  -0.287  1.00  0.00     0.042 C 
BRANCH  31  32
ATOM     32  C   UNL     1       2.196  11.935  -1.132  1.00  0.00     0.118 C 
BRANCH  32  33
ATOM     33  N   UNL     1       3.305  12.407  -1.950  1.00  0.00    -0.352 N 
ATOM     34  C   UNL     1       3.406  12.536  -3.311  1.00  0.00     0.251 C 
ATOM     35  H   UNL     1       4.107  12.676  -1.447  1.00  0.00     0.163 HD
ATOM     36  O   UNL     1       4.510  12.713  -3.819  1.00  0.00    -0.269 OA
BRANCH  34  37
ATOM     37  C   UNL     1       2.205  12.459  -4.168  1.00  0.00     0.039 A 
ATOM     38  C   UNL     1       2.301  11.814  -5.404  1.00  0.00     0.014 A 
ATOM     39  C   UNL     1       1.003  13.061  -3.784  1.00  0.00     0.014 A 
ATOM     40  C   UNL     1       1.180  11.731  -6.232  1.00  0.00     0.010 A 
ATOM     41  C   UNL     1      -0.133  12.910  -4.575  1.00  0.00     0.010 A 
ATOM     42  C   UNL     1      -0.054  12.251  -5.810  1.00  0.00    -0.014 A 
BRANCH  42  43
ATOM     43  C   UNL     1      -1.272  12.116  -6.648  1.00  0.00     0.031 A 
ATOM     44  C   UNL     1      -1.958  13.338  -7.191  1.00  0.00     0.074 A 
ATOM     45  C   UNL     1      -1.793  10.893  -6.864  1.00  0.00     0.049 A 
ATOM     46  N   UNL     1      -3.068  13.426  -7.880  1.00  0.00    -0.248 NA
ATOM     47  C   UNL     1      -1.330  14.636  -6.899  1.00  0.00     0.031 C 
ATOM     48  C   UNL     1      -1.242   9.636  -6.354  1.00  0.00     0.029 A 
ATOM     49  N   UNL     1      -2.910  10.507  -7.562  1.00  0.00    -0.354 N 
ATOM     50  C   UNL     1      -3.276  14.783  -8.091  1.00  0.00     0.074 A 
ATOM     51  C   UNL     1      -2.209  15.485  -7.411  1.00  0.00     0.031 C 
ATOM     52  C   UNL     1      -2.009   8.617  -6.774  1.00  0.00     0.029 A 
ATOM     53  C   UNL     1      -3.127   9.150  -7.545  1.00  0.00     0.049 A 
ATOM     54  H   UNL     1      -3.499  11.142  -8.030  1.00  0.00     0.167 HD
ATOM     55  C   UNL     1      -4.255  15.388  -8.805  1.00  0.00     0.037 A 
ATOM     56  C   UNL     1      -4.122   8.420  -8.082  1.00  0.00     0.037 A 
ATOM     57  C   UNL     1      -5.305  14.683  -9.494  1.00  0.00     0.049 A 
ATOM     58  C   UNL     1      -5.206   9.117  -8.857  1.00  0.00     0.074 A 
ATOM     59  C   UNL     1      -6.311  15.199 -10.291  1.00  0.00     0.029 A 
ATOM     60  N   UNL     1      -5.484  13.307  -9.463  1.00  0.00    -0.354 N 
ATOM     61  N   UNL     1      -5.353  10.396  -9.105  1.00  0.00    -0.248 NA
ATOM     62  C   UNL     1      -6.259   8.268  -9.430  1.00  0.00     0.031 C 
ATOM     63  C   UNL     1      -7.130  14.142 -10.700  1.00  0.00     0.029 A 
ATOM     64  C   UNL     1      -6.601  12.960 -10.207  1.00  0.00     0.049 A 
ATOM     65  H   UNL     1      -4.904  12.672  -8.984  1.00  0.00     0.167 HD
ATOM     66  C   UNL     1      -6.495  10.502  -9.888  1.00  0.00     0.074 A 
ATOM     67  C   UNL     1      -6.993   9.157 -10.084  1.00  0.00     0.031 C 
ATOM     68  C   UNL     1      -7.079  11.614 -10.398  1.00  0.00     0.037 A 
BRANCH  55  69
ATOM     69  C   UNL     1      -4.238  16.889  -8.875  1.00  0.00     0.057 A 
ATOM     70  C   UNL     1      -3.248  17.585  -9.583  1.00  0.00     0.134 A 
ATOM     71  C   UNL     1      -5.241  17.647  -8.258  1.00  0.00     0.134 A 
ATOM     72  F   UNL     1      -2.252  16.922 -10.189  1.00  0.00    -0.206 F 
ATOM     73  C   UNL     1      -3.241  18.980  -9.649  1.00  0.00     0.040 A 
ATOM     74  C   UNL     1      -5.261  19.040  -8.342  1.00  0.00     0.040 A 
ATOM     75  F   UNL     1      -6.223  17.046  -7.570  1.00  0.00    -0.206 F 
ATOM     76  C   UNL     1      -4.254  19.711  -9.034  1.00  0.00     0.006 A 
ENDBRANCH  55  69
BRANCH  56  77
ATOM     77  C   UNL     1      -4.130   6.943  -7.923  1.00  0.00     0.057 A 
ATOM     78  C   UNL     1      -3.910   6.098  -9.017  1.00  0.00     0.134 A 
ATOM     79  C   UNL     1      -4.362   6.341  -6.681  1.00  0.00     0.134 A 
ATOM     80  F   UNL     1      -3.697   6.614 -10.237  1.00  0.00    -0.206 F 
ATOM     81  C   UNL     1      -3.943   4.709  -8.887  1.00  0.00     0.040 A 
ATOM     82  C   UNL     1      -4.371   4.954  -6.530  1.00  0.00     0.040 A 
ATOM     83  F   UNL     1      -4.570   7.095  -5.591  1.00  0.00    -0.206 F 
ATOM     84  C   UNL     1      -4.169   4.133  -7.639  1.00  0.00     0.006 A 
ENDBRANCH  56  77
BRANCH  68  85
ATOM     85  C   UNL     1      -8.299  11.419 -11.251  1.00  0.00     0.057 A 
ATOM     86  C   UNL     1      -9.530  11.030 -10.709  1.00  0.00     0.134 A 
ATOM     87  C   UNL     1      -8.248  11.662 -12.630  1.00  0.00     0.134 A 
ATOM     88  F   UNL     1      -9.643  10.769  -9.398  1.00  0.00    -0.206 F 
ATOM     89  C   UNL     1     -10.661  10.865 -11.511  1.00  0.00     0.040 A 
ATOM     90  C   UNL     1      -9.379  11.530 -13.437  1.00  0.00     0.040 A 
ATOM     91  F   UNL     1      -7.103  12.047 -13.213  1.00  0.00    -0.206 F 
ATOM     92  C   UNL     1     -10.588  11.123 -12.878  1.00  0.00     0.006 A 
ENDBRANCH  68  85
ENDBRANCH  42  43
ENDBRANCH  34  37
ENDBRANCH  32  33
ENDBRANCH  31  32
ENDBRANCH  30  31
ENDBRANCH   3  30
TORSDOF 15
