REMARK SMILES COc1cc([C@@H]2[NH2+][C@H](C(=O)NCCCNC(=O)c3ccc(-c4c5nc(c(-c6c(F)cccc6F)c6ccc([nH]6)c(-c6c(F)cccc6F)c6nc(c(-c7c(F)cccc7F)c7ccc4[nH]7)C=C6)C=C5)cc3)CS2)ccc1OCc1ccc(Cl)cc1
REMARK SMILES IDX 12 1 11 2 9 3 10 4 8 6 6 7 7 8 73 9 72 12 5 13 3 14 4 15
REMARK SMILES IDX 76 16 75 17 74 18 2 19 1 20 77 21 78 22 79 23 80 24 85 25
REMARK SMILES IDX 81 26 84 27 82 28 83 29 13 30 14 31 15 32 16 33 17 35 18 36
REMARK SMILES IDX 19 37 71 38 20 39 70 40 21 41 22 42 23 43 64 44 24 45 69 46
REMARK SMILES IDX 63 47 65 48 25 49 68 50 62 51 61 52 26 54 52 55 35 56 51 57
REMARK SMILES IDX 36 58 39 59 50 60 66 61 37 62 38 63 49 65 67 66 40 67 27 68
REMARK SMILES IDX 28 69 33 70 29 71 30 72 32 73 34 74 31 75 53 76 54 77 59 78
REMARK SMILES IDX 55 79 56 80 58 81 60 82 57 83 41 84 42 85 47 86 43 87 44 88
REMARK SMILES IDX 46 89 48 90 45 91
REMARK H PARENT 11 5 7 10 7 11 15 34 65 53 39 64
REMARK Flexibility Score: inf
ROOT
ATOM      1  C   UNL     1       3.462   4.053  -3.913  1.00  0.00     0.118 C 
ENDROOT
BRANCH   1   2
ATOM      2  N   UNL     1       3.522   4.523  -5.290  1.00  0.00    -0.351 N 
ATOM      3  C   UNL     1       2.590   5.096  -6.104  1.00  0.00     0.279 C 
ATOM      4  O   UNL     1       2.957   5.369  -7.253  1.00  0.00    -0.268 OA
ATOM      5  H   UNL     1       4.403   4.404  -5.714  1.00  0.00     0.163 HD
BRANCH   3   6
ATOM      6  C   UNL     1       1.158   5.455  -5.665  1.00  0.00     0.283 C 
ATOM      7  C   UNL     1      -0.609   4.746  -4.169  1.00  0.00     0.274 C 
ATOM      8  N   UNL     1       0.454   4.299  -5.084  1.00  0.00    -0.321 N 
ATOM      9  S   UNL     1      -0.573   6.557  -4.082  1.00  0.00    -0.088 SA
ATOM     10  H   UNL     1       0.039   3.748  -5.835  1.00  0.00     0.348 HD
ATOM     11  H   UNL     1       1.123   3.736  -4.561  1.00  0.00     0.348 HD
ATOM     12  C   UNL     1       1.116   6.642  -4.720  1.00  0.00     0.151 C 
BRANCH   7  13
ATOM     13  C   UNL     1      -0.357   4.022  -2.853  1.00  0.00     0.024 A 
ATOM     14  C   UNL     1      -0.064   1.821  -1.840  1.00  0.00     0.161 A 
ATOM     15  C   UNL     1      -0.692   2.655  -2.771  1.00  0.00     0.061 A 
ATOM     16  C   UNL     1       0.924   2.348  -1.007  1.00  0.00     0.161 A 
ATOM     17  C   UNL     1       1.132   3.727  -0.975  1.00  0.00     0.051 A 
ATOM     18  C   UNL     1       0.472   4.565  -1.862  1.00  0.00     0.015 A 
BRANCH  14  19
ATOM     19  O   UNL     1      -0.304   0.478  -1.946  1.00  0.00    -0.493 OA
ATOM     20  C   UNL     1      -1.459   0.110  -1.187  1.00  0.00     0.278 C 
ENDBRANCH  14  19
BRANCH  16  21
ATOM     21  O   UNL     1       1.870   1.675  -0.292  1.00  0.00    -0.485 OA
BRANCH  21  22
ATOM     22  C   UNL     1       1.508   0.473   0.356  1.00  0.00     0.265 C 
BRANCH  22  23
ATOM     23  C   UNL     1       0.749   0.677   1.639  1.00  0.00    -0.011 A 
ATOM     24  C   UNL     1       0.601   1.944   2.217  1.00  0.00     0.009 A 
ATOM     25  C   UNL     1       0.216  -0.435   2.301  1.00  0.00     0.009 A 
ATOM     26  C   UNL     1      -0.155   2.112   3.372  1.00  0.00     0.021 A 
ATOM     27  C   UNL     1      -0.527  -0.274   3.467  1.00  0.00     0.021 A 
ATOM     28  C   UNL     1      -0.731   1.003   3.982  1.00  0.00     0.041 A 
ATOM     29  Cl  UNL     1      -1.704   1.212   5.382  1.00  0.00    -0.084 Cl
ENDBRANCH  22  23
ENDBRANCH  21  22
ENDBRANCH  16  21
ENDBRANCH   7  13
ENDBRANCH   3   6
ENDBRANCH   1   2
BRANCH   1  30
ATOM     30  C   UNL     1       3.284   2.541  -3.824  1.00  0.00     0.042 C 
BRANCH  30  31
ATOM     31  C   UNL     1       4.395   1.736  -3.138  1.00  0.00     0.118 C 
BRANCH  31  32
ATOM     32  N   UNL     1       4.841   2.169  -1.819  1.00  0.00    -0.352 N 
ATOM     33  C   UNL     1       5.232   1.470  -0.692  1.00  0.00     0.251 C 
ATOM     34  H   UNL     1       4.871   3.147  -1.711  1.00  0.00     0.163 HD
ATOM     35  O   UNL     1       5.704   2.116   0.247  1.00  0.00    -0.269 OA
BRANCH  33  36
ATOM     36  C   UNL     1       5.031  -0.001  -0.515  1.00  0.00     0.039 A 
ATOM     37  C   UNL     1       4.802  -0.487   0.786  1.00  0.00     0.014 A 
ATOM     38  C   UNL     1       4.992  -0.909  -1.569  1.00  0.00     0.014 A 
ATOM     39  C   UNL     1       4.347  -1.801   0.996  1.00  0.00     0.010 A 
ATOM     40  C   UNL     1       4.491  -2.199  -1.375  1.00  0.00     0.010 A 
ATOM     41  C   UNL     1       4.129  -2.646  -0.097  1.00  0.00    -0.014 A 
BRANCH  41  42
ATOM     42  C   UNL     1       3.660  -4.045   0.068  1.00  0.00     0.031 A 
ATOM     43  C   UNL     1       4.675  -5.141   0.002  1.00  0.00     0.074 A 
ATOM     44  C   UNL     1       2.353  -4.354   0.173  1.00  0.00     0.049 A 
ATOM     45  N   UNL     1       4.496  -6.435   0.007  1.00  0.00    -0.248 NA
ATOM     46  C   UNL     1       6.075  -4.716  -0.146  1.00  0.00     0.031 C 
ATOM     47  C   UNL     1       1.262  -3.390   0.151  1.00  0.00     0.029 A 
ATOM     48  N   UNL     1       1.714  -5.565   0.303  1.00  0.00    -0.354 N 
ATOM     49  C   UNL     1       5.757  -6.979  -0.173  1.00  0.00     0.074 A 
ATOM     50  C   UNL     1       6.684  -5.877  -0.316  1.00  0.00     0.031 C 
ATOM     51  C   UNL     1       0.092  -4.029   0.321  1.00  0.00     0.029 A 
ATOM     52  C   UNL     1       0.344  -5.464   0.408  1.00  0.00     0.049 A 
ATOM     53  H   UNL     1       2.192  -6.425   0.319  1.00  0.00     0.167 HD
ATOM     54  C   UNL     1       6.114  -8.283  -0.215  1.00  0.00     0.037 A 
ATOM     55  C   UNL     1      -0.594  -6.423   0.545  1.00  0.00     0.037 A 
ATOM     56  C   UNL     1       5.195  -9.378  -0.077  1.00  0.00     0.049 A 
ATOM     57  C   UNL     1      -0.167  -7.869   0.530  1.00  0.00     0.074 A 
ATOM     58  C   UNL     1       5.465 -10.734  -0.079  1.00  0.00     0.029 A 
ATOM     59  N   UNL     1       3.824  -9.240   0.081  1.00  0.00    -0.354 N 
ATOM     60  N   UNL     1       1.039  -8.372   0.424  1.00  0.00    -0.248 NA
ATOM     61  C   UNL     1      -1.231  -8.880   0.630  1.00  0.00     0.031 C 
ATOM     62  C   UNL     1       4.251 -11.419   0.048  1.00  0.00     0.029 A 
ATOM     63  C   UNL     1       3.232 -10.488   0.168  1.00  0.00     0.049 A 
ATOM     64  H   UNL     1       3.343  -8.382   0.125  1.00  0.00     0.167 HD
ATOM     65  C   UNL     1       0.880  -9.752   0.456  1.00  0.00     0.074 A 
ATOM     66  C   UNL     1      -0.535 -10.008   0.619  1.00  0.00     0.031 C 
ATOM     67  C   UNL     1       1.821 -10.721   0.347  1.00  0.00     0.037 A 
BRANCH  54  68
ATOM     68  C   UNL     1       7.565  -8.568  -0.442  1.00  0.00     0.057 A 
ATOM     69  C   UNL     1       8.528  -8.301   0.540  1.00  0.00     0.134 A 
ATOM     70  C   UNL     1       8.010  -9.065  -1.672  1.00  0.00     0.134 A 
ATOM     71  F   UNL     1       8.164  -7.795   1.728  1.00  0.00    -0.206 F 
ATOM     72  C   UNL     1       9.888  -8.482   0.293  1.00  0.00     0.040 A 
ATOM     73  C   UNL     1       9.366  -9.277  -1.921  1.00  0.00     0.040 A 
ATOM     74  F   UNL     1       7.138  -9.334  -2.655  1.00  0.00    -0.206 F 
ATOM     75  C   UNL     1      10.310  -8.975  -0.941  1.00  0.00     0.006 A 
ENDBRANCH  54  68
BRANCH  55  76
ATOM     76  C   UNL     1      -2.032  -6.076   0.712  1.00  0.00     0.057 A 
ATOM     77  C   UNL     1      -2.694  -6.337   1.921  1.00  0.00     0.134 A 
ATOM     78  C   UNL     1      -2.795  -5.540  -0.331  1.00  0.00     0.134 A 
ATOM     79  F   UNL     1      -2.026  -6.875   2.952  1.00  0.00    -0.206 F 
ATOM     80  C   UNL     1      -4.062  -6.105   2.076  1.00  0.00     0.040 A 
ATOM     81  C   UNL     1      -4.160  -5.278  -0.181  1.00  0.00     0.040 A 
ATOM     82  F   UNL     1      -2.227  -5.263  -1.513  1.00  0.00    -0.206 F 
ATOM     83  C   UNL     1      -4.800  -5.571   1.022  1.00  0.00     0.006 A 
ENDBRANCH  55  76
BRANCH  67  84
ATOM     84  C   UNL     1       1.358 -12.145   0.431  1.00  0.00     0.057 A 
ATOM     85  C   UNL     1       0.674 -12.763  -0.623  1.00  0.00     0.134 A 
ATOM     86  C   UNL     1       1.656 -12.924   1.556  1.00  0.00     0.134 A 
ATOM     87  F   UNL     1       0.347 -12.067  -1.722  1.00  0.00    -0.206 F 
ATOM     88  C   UNL     1       0.291 -14.104  -0.556  1.00  0.00     0.040 A 
ATOM     89  C   UNL     1       1.300 -14.271   1.625  1.00  0.00     0.040 A 
ATOM     90  F   UNL     1       2.315 -12.393   2.597  1.00  0.00    -0.206 F 
ATOM     91  C   UNL     1       0.613 -14.864   0.567  1.00  0.00     0.006 A 
ENDBRANCH  67  84
ENDBRANCH  41  42
ENDBRANCH  33  36
ENDBRANCH  31  32
ENDBRANCH  30  31
ENDBRANCH   1  30
TORSDOF 15
