REMARK SMILES CC(C)[C@@H](NC(=O)[C@@](C)([NH3+])C(F)(F)F)C(=O)NCCCNC(=O)c1ccc(-c2c3nc(c(-c4c(F)cccc4F)c4ccc([nH]4)c(-c4c(F)cccc4F)c4nc(c(-c5c(F)cccc5F)c5ccc2[nH]5)C=C4)C=C3)cc1
REMARK SMILES IDX 18 1 17 2 15 3 16 4 4 6 2 7 1 8 3 9 5 10 6 11 7 13 8 14 9 15
REMARK SMILES IDX 10 16 11 20 12 21 13 22 14 23 19 24 20 25 21 26 22 27 23 29
REMARK SMILES IDX 24 30 25 31 77 32 26 33 76 34 27 35 28 36 29 37 70 38 30 39
REMARK SMILES IDX 75 40 69 41 71 42 31 43 74 44 68 45 67 46 32 48 58 49 41 50
REMARK SMILES IDX 57 51 42 52 45 53 56 54 72 55 43 56 44 57 55 59 73 60 46 61
REMARK SMILES IDX 33 62 34 63 39 64 35 65 36 66 38 67 40 68 37 69 59 70 60 71
REMARK SMILES IDX 65 72 61 73 62 74 64 75 66 76 63 77 47 78 48 79 53 80 49 81
REMARK SMILES IDX 50 82 52 83 54 84 51 85
REMARK H PARENT 17 5 5 12 10 17 10 18 10 19 21 28 71 47 45 58
REMARK Flexibility Score: inf
ROOT
ATOM      1  C   UNL     1       0.695  -3.232   2.049  1.00  0.00     0.117 C 
ENDROOT
BRANCH   1   2
ATOM      2  N   UNL     1       0.152  -2.249   2.974  1.00  0.00    -0.354 N 
ATOM      3  C   UNL     1      -0.709  -1.225   2.707  1.00  0.00     0.242 C 
ATOM      4  O   UNL     1      -1.283  -0.688   3.657  1.00  0.00    -0.273 OA
ATOM      5  H   UNL     1       0.443  -2.333   3.910  1.00  0.00     0.163 HD
BRANCH   3   6
ATOM      6  C   UNL     1      -0.878  -0.701   1.277  1.00  0.00     0.174 C 
BRANCH   6   7
ATOM      7  C   UNL     1       0.471  -0.024   0.853  1.00  0.00     0.015 C 
ATOM      8  C   UNL     1       0.399   0.659  -0.513  1.00  0.00     0.010 C 
ATOM      9  C   UNL     1       0.983   0.993   1.887  1.00  0.00     0.010 C 
ENDBRANCH   6   7
BRANCH   6  10
ATOM     10  N   UNL     1      -1.261  -1.791   0.363  1.00  0.00    -0.338 N 
ATOM     11  C   UNL     1      -2.371  -2.581   0.251  1.00  0.00     0.291 C 
ATOM     12  H   UNL     1      -0.572  -1.993  -0.310  1.00  0.00     0.164 HD
ATOM     13  O   UNL     1      -2.428  -3.187  -0.827  1.00  0.00    -0.267 OA
BRANCH  11  14
ATOM     14  C   UNL     1      -3.407  -2.850   1.378  1.00  0.00     0.267 C 
ATOM     15  C   UNL     1      -2.849  -3.787   2.463  1.00  0.00     0.100 C 
BRANCH  14  16
ATOM     16  N   UNL     1      -3.843  -1.566   2.022  1.00  0.00    -0.337 N 
ATOM     17  H   UNL     1      -3.035  -1.101   2.435  1.00  0.00     0.345 HD
ATOM     18  H   UNL     1      -4.529  -1.766   2.749  1.00  0.00     0.345 HD
ATOM     19  H   UNL     1      -4.262  -0.958   1.318  1.00  0.00     0.345 HD
ENDBRANCH  14  16
BRANCH  14  20
ATOM     20  C   UNL     1      -4.579  -3.643   0.712  1.00  0.00     0.453 C 
ATOM     21  F   UNL     1      -5.187  -2.966  -0.284  1.00  0.00    -0.164 F 
ATOM     22  F   UNL     1      -4.196  -4.853   0.243  1.00  0.00    -0.164 F 
ATOM     23  F   UNL     1      -5.540  -3.892   1.649  1.00  0.00    -0.164 F 
ENDBRANCH  14  20
ENDBRANCH  11  14
ENDBRANCH   6  10
ENDBRANCH   3   6
ENDBRANCH   1   2
BRANCH   1  24
ATOM     24  C   UNL     1       1.757  -4.094   2.695  1.00  0.00     0.042 C 
BRANCH  24  25
ATOM     25  C   UNL     1       1.219  -4.931   3.843  1.00  0.00     0.118 C 
BRANCH  25  26
ATOM     26  N   UNL     1       0.361  -6.029   3.420  1.00  0.00    -0.352 N 
ATOM     27  C   UNL     1       0.495  -7.375   3.688  1.00  0.00     0.251 C 
ATOM     28  H   UNL     1      -0.415  -5.778   2.869  1.00  0.00     0.163 HD
ATOM     29  O   UNL     1      -0.260  -8.196   3.193  1.00  0.00    -0.269 OA
BRANCH  27  30
ATOM     30  C   UNL     1       1.617  -7.805   4.546  1.00  0.00     0.039 A 
ATOM     31  C   UNL     1       2.517  -8.751   4.055  1.00  0.00     0.014 A 
ATOM     32  C   UNL     1       1.849  -7.160   5.763  1.00  0.00     0.014 A 
ATOM     33  C   UNL     1       3.712  -8.972   4.740  1.00  0.00     0.010 A 
ATOM     34  C   UNL     1       3.089  -7.292   6.371  1.00  0.00     0.010 A 
ATOM     35  C   UNL     1       4.034  -8.199   5.868  1.00  0.00    -0.014 A 
BRANCH  35  36
ATOM     36  C   UNL     1       5.352  -8.319   6.541  1.00  0.00     0.031 A 
ATOM     37  C   UNL     1       5.414  -8.703   7.993  1.00  0.00     0.074 A 
ATOM     38  C   UNL     1       6.481  -8.000   5.877  1.00  0.00     0.049 A 
ATOM     39  N   UNL     1       6.450  -8.768   8.789  1.00  0.00    -0.248 NA
ATOM     40  C   UNL     1       4.133  -9.008   8.652  1.00  0.00     0.031 C 
ATOM     41  C   UNL     1       6.551  -7.539   4.488  1.00  0.00     0.029 A 
ATOM     42  N   UNL     1       7.790  -8.008   6.287  1.00  0.00    -0.354 N 
ATOM     43  C   UNL     1       5.942  -9.087  10.041  1.00  0.00     0.074 A 
ATOM     44  C   UNL     1       4.503  -9.136   9.916  1.00  0.00     0.031 C 
ATOM     45  C   UNL     1       7.837  -7.345   4.152  1.00  0.00     0.029 A 
ATOM     46  C   UNL     1       8.679  -7.632   5.309  1.00  0.00     0.049 A 
ATOM     47  H   UNL     1       8.067  -8.259   7.198  1.00  0.00     0.167 HD
ATOM     48  C   UNL     1       6.613  -9.348  11.187  1.00  0.00     0.037 A 
ATOM     49  C   UNL     1      10.021  -7.534   5.341  1.00  0.00     0.037 A 
ATOM     50  C   UNL     1       8.046  -9.357  11.294  1.00  0.00     0.049 A 
ATOM     51  C   UNL     1      10.750  -7.878   6.610  1.00  0.00     0.074 A 
ATOM     52  C   UNL     1       8.828  -9.695  12.384  1.00  0.00     0.029 A 
ATOM     53  N   UNL     1       8.913  -9.018  10.266  1.00  0.00    -0.354 N 
ATOM     54  N   UNL     1      10.261  -8.252   7.767  1.00  0.00    -0.248 NA
ATOM     55  C   UNL     1      12.217  -7.793   6.576  1.00  0.00     0.031 C 
ATOM     56  C   UNL     1      10.170  -9.530  12.024  1.00  0.00     0.029 A 
ATOM     57  C   UNL     1      10.223  -9.126  10.700  1.00  0.00     0.049 A 
ATOM     58  H   UNL     1       8.638  -8.742   9.362  1.00  0.00     0.167 HD
ATOM     59  C   UNL     1      11.357  -8.469   8.591  1.00  0.00     0.074 A 
ATOM     60  C   UNL     1      12.537  -8.198   7.797  1.00  0.00     0.031 C 
ATOM     61  C   UNL     1      11.384  -8.857   9.890  1.00  0.00     0.037 A 
BRANCH  48  62
ATOM     62  C   UNL     1       5.795  -9.662  12.404  1.00  0.00     0.057 A 
ATOM     63  C   UNL     1       5.064 -10.853  12.518  1.00  0.00     0.134 A 
ATOM     64  C   UNL     1       5.734  -8.762  13.475  1.00  0.00     0.134 A 
ATOM     65  F   UNL     1       5.066 -11.749  11.519  1.00  0.00    -0.206 F 
ATOM     66  C   UNL     1       4.274 -11.122  13.636  1.00  0.00     0.040 A 
ATOM     67  C   UNL     1       4.970  -9.033  14.612  1.00  0.00     0.040 A 
ATOM     68  F   UNL     1       6.410  -7.605  13.433  1.00  0.00    -0.206 F 
ATOM     69  C   UNL     1       4.230 -10.212  14.690  1.00  0.00     0.006 A 
ENDBRANCH  48  62
BRANCH  49  70
ATOM     70  C   UNL     1      10.766  -7.134   4.121  1.00  0.00     0.057 A 
ATOM     71  C   UNL     1      11.522  -8.067   3.402  1.00  0.00     0.134 A 
ATOM     72  C   UNL     1      10.739  -5.819   3.642  1.00  0.00     0.134 A 
ATOM     73  F   UNL     1      11.600  -9.338   3.823  1.00  0.00    -0.206 F 
ATOM     74  C   UNL     1      12.237  -7.706   2.259  1.00  0.00     0.040 A 
ATOM     75  C   UNL     1      11.431  -5.448   2.487  1.00  0.00     0.040 A 
ATOM     76  F   UNL     1      10.025  -4.880   4.280  1.00  0.00    -0.206 F 
ATOM     77  C   UNL     1      12.188  -6.393   1.796  1.00  0.00     0.006 A 
ENDBRANCH  49  70
BRANCH  61  78
ATOM     78  C   UNL     1      12.731  -9.039  10.522  1.00  0.00     0.057 A 
ATOM     79  C   UNL     1      13.527  -7.946  10.884  1.00  0.00     0.134 A 
ATOM     80  C   UNL     1      13.213 -10.321  10.813  1.00  0.00     0.134 A 
ATOM     81  F   UNL     1      13.125  -6.694  10.620  1.00  0.00    -0.206 F 
ATOM     82  C   UNL     1      14.768  -8.123  11.499  1.00  0.00     0.040 A 
ATOM     83  C   UNL     1      14.441 -10.509  11.448  1.00  0.00     0.040 A 
ATOM     84  F   UNL     1      12.493 -11.408  10.498  1.00  0.00    -0.206 F 
ATOM     85  C   UNL     1      15.223  -9.408  11.789  1.00  0.00     0.006 A 
ENDBRANCH  61  78
ENDBRANCH  35  36
ENDBRANCH  27  30
ENDBRANCH  25  26
ENDBRANCH  24  25
ENDBRANCH   1  24
TORSDOF 15
