REMARK SMILES CC[C@@H](C)[C@@H](C(=O)NCCCNC(=O)c1ccc(-c2c3nc(c(-c4c(F)cccc4F)c4ccc([nH]4)c(-c4c(F)cccc4F)c4nc(c(-c5c(F)cccc5F)c5ccc2[nH]5)C=C4)C=C3)cc1)S(=O)(=O)c1ccc(OC)cc1
REMARK SMILES IDX 9 1 8 2 6 3 7 4 5 6 3 7 4 8 2 9 1 10 69 11 70 12 71 13 72 14
REMARK SMILES IDX 73 15 79 16 74 17 78 18 75 19 76 20 77 21 10 22 11 23 12 24
REMARK SMILES IDX 13 25 14 27 15 28 16 29 68 30 17 31 67 32 18 33 19 34 20 35
REMARK SMILES IDX 61 36 21 37 66 38 60 39 62 40 22 41 65 42 59 43 58 44 23 46
REMARK SMILES IDX 49 47 32 48 48 49 33 50 36 51 47 52 63 53 34 54 35 55 46 57
REMARK SMILES IDX 64 58 37 59 24 60 25 61 30 62 26 63 27 64 29 65 31 66 28 67
REMARK SMILES IDX 50 68 51 69 56 70 52 71 53 72 55 73 57 74 54 75 38 76 39 77
REMARK SMILES IDX 44 78 40 79 41 80 43 81 45 82 42 83
REMARK H PARENT 8 5 12 26 62 45 36 56
REMARK Flexibility Score: inf
ROOT
ATOM      1  C   UNL     1      -0.487  -2.188  -2.813  1.00  0.00     0.117 C 
ENDROOT
BRANCH   1   2
ATOM      2  N   UNL     1       0.651  -3.070  -2.591  1.00  0.00    -0.355 N 
ATOM      3  C   UNL     1       1.290  -3.484  -1.458  1.00  0.00     0.239 C 
ATOM      4  O   UNL     1       2.463  -3.824  -1.626  1.00  0.00    -0.274 OA
ATOM      5  H   UNL     1       1.033  -3.439  -3.419  1.00  0.00     0.163 HD
BRANCH   3   6
ATOM      6  C   UNL     1       0.617  -3.533  -0.082  1.00  0.00     0.205 C 
BRANCH   6   7
ATOM      7  C   UNL     1       0.877  -2.280   0.818  1.00  0.00     0.014 C 
ATOM      8  C   UNL     1       0.396  -2.439   2.266  1.00  0.00     0.009 C 
BRANCH   7   9
ATOM      9  C   UNL     1       0.242  -0.998   0.260  1.00  0.00     0.002 C 
ATOM     10  C   UNL     1       0.809   0.294   0.836  1.00  0.00     0.004 C 
ENDBRANCH   7   9
ENDBRANCH   6   7
BRANCH   6  11
ATOM     11  S   UNL     1       1.123  -5.135   0.638  1.00  0.00     0.190 S 
ATOM     12  O   UNL     1       0.584  -5.254   1.985  1.00  0.00    -0.223 OA
ATOM     13  O   UNL     1       0.755  -6.159  -0.324  1.00  0.00    -0.223 OA
BRANCH  11  14
ATOM     14  C   UNL     1       2.906  -5.223   0.830  1.00  0.00     0.068 A 
ATOM     15  C   UNL     1       3.560  -6.418   0.512  1.00  0.00     0.024 A 
ATOM     16  C   UNL     1       3.662  -4.132   1.256  1.00  0.00     0.024 A 
ATOM     17  C   UNL     1       4.959  -6.483   0.560  1.00  0.00     0.048 A 
ATOM     18  C   UNL     1       5.061  -4.183   1.246  1.00  0.00     0.048 A 
ATOM     19  C   UNL     1       5.717  -5.355   0.884  1.00  0.00     0.118 A 
BRANCH  19  20
ATOM     20  O   UNL     1       7.075  -5.520   0.844  1.00  0.00    -0.497 OA
ATOM     21  C   UNL     1       7.856  -4.328   0.842  1.00  0.00     0.278 C 
ENDBRANCH  19  20
ENDBRANCH  11  14
ENDBRANCH   6  11
ENDBRANCH   3   6
ENDBRANCH   1   2
BRANCH   1  22
ATOM     22  C   UNL     1      -0.003  -0.780  -3.206  1.00  0.00     0.042 C 
BRANCH  22  23
ATOM     23  C   UNL     1       0.570  -0.671  -4.613  1.00  0.00     0.118 C 
BRANCH  23  24
ATOM     24  N   UNL     1      -0.446  -0.351  -5.595  1.00  0.00    -0.352 N 
ATOM     25  C   UNL     1      -0.714   0.828  -6.249  1.00  0.00     0.251 C 
ATOM     26  H   UNL     1      -1.041  -1.099  -5.832  1.00  0.00     0.163 HD
ATOM     27  O   UNL     1      -1.771   0.932  -6.867  1.00  0.00    -0.269 OA
BRANCH  25  28
ATOM     28  C   UNL     1       0.224   1.981  -6.215  1.00  0.00     0.039 A 
ATOM     29  C   UNL     1      -0.314   3.274  -6.210  1.00  0.00     0.014 A 
ATOM     30  C   UNL     1       1.611   1.823  -6.268  1.00  0.00     0.014 A 
ATOM     31  C   UNL     1       0.530   4.391  -6.217  1.00  0.00     0.010 A 
ATOM     32  C   UNL     1       2.453   2.935  -6.182  1.00  0.00     0.010 A 
ATOM     33  C   UNL     1       1.924   4.234  -6.177  1.00  0.00    -0.014 A 
BRANCH  33  34
ATOM     34  C   UNL     1       2.834   5.413  -6.171  1.00  0.00     0.031 A 
ATOM     35  C   UNL     1       3.799   5.635  -7.309  1.00  0.00     0.074 A 
ATOM     36  C   UNL     1       2.825   6.268  -5.129  1.00  0.00     0.049 A 
ATOM     37  N   UNL     1       4.710   6.565  -7.454  1.00  0.00    -0.248 NA
ATOM     38  C   UNL     1       3.748   4.671  -8.421  1.00  0.00     0.031 C 
ATOM     39  C   UNL     1       1.969   6.155  -3.947  1.00  0.00     0.029 A 
ATOM     40  N   UNL     1       3.565   7.402  -4.892  1.00  0.00    -0.354 N 
ATOM     41  C   UNL     1       5.345   6.290  -8.660  1.00  0.00     0.074 A 
ATOM     42  C   UNL     1       4.755   5.077  -9.181  1.00  0.00     0.031 C 
ATOM     43  C   UNL     1       2.214   7.188  -3.124  1.00  0.00     0.029 A 
ATOM     44  C   UNL     1       3.271   8.015  -3.698  1.00  0.00     0.049 A 
ATOM     45  H   UNL     1       4.242   7.743  -5.520  1.00  0.00     0.167 HD
ATOM     46  C   UNL     1       6.313   6.997  -9.292  1.00  0.00     0.037 A 
ATOM     47  C   UNL     1       3.798   9.114  -3.124  1.00  0.00     0.037 A 
ATOM     48  C   UNL     1       6.881   8.222  -8.794  1.00  0.00     0.049 A 
ATOM     49  C   UNL     1       4.883   9.872  -3.841  1.00  0.00     0.074 A 
ATOM     50  C   UNL     1       7.833   9.035  -9.386  1.00  0.00     0.029 A 
ATOM     51  N   UNL     1       6.545   8.814  -7.586  1.00  0.00    -0.354 N 
ATOM     52  N   UNL     1       5.432   9.627  -5.006  1.00  0.00    -0.248 NA
ATOM     53  C   UNL     1       5.417  11.063  -3.165  1.00  0.00     0.031 C 
ATOM     54  C   UNL     1       8.103  10.097  -8.518  1.00  0.00     0.029 A 
ATOM     55  C   UNL     1       7.285   9.972  -7.407  1.00  0.00     0.049 A 
ATOM     56  H   UNL     1       5.881   8.463  -6.950  1.00  0.00     0.167 HD
ATOM     57  C   UNL     1       6.351  10.648  -5.215  1.00  0.00     0.074 A 
ATOM     58  C   UNL     1       6.273  11.524  -4.065  1.00  0.00     0.031 C 
ATOM     59  C   UNL     1       7.186  10.842  -6.265  1.00  0.00     0.037 A 
BRANCH  46  60
ATOM     60  C   UNL     1       6.814   6.472 -10.607  1.00  0.00     0.057 A 
ATOM     61  C   UNL     1       6.027   6.515 -11.765  1.00  0.00     0.134 A 
ATOM     62  C   UNL     1       8.115   5.968 -10.730  1.00  0.00     0.134 A 
ATOM     63  F   UNL     1       4.767   6.975 -11.715  1.00  0.00    -0.206 F 
ATOM     64  C   UNL     1       6.508   6.057 -12.993  1.00  0.00     0.040 A 
ATOM     65  C   UNL     1       8.617   5.533 -11.958  1.00  0.00     0.040 A 
ATOM     66  F   UNL     1       8.926   5.906  -9.663  1.00  0.00    -0.206 F 
ATOM     67  C   UNL     1       7.810   5.572 -13.093  1.00  0.00     0.006 A 
ENDBRANCH  46  60
BRANCH  47  68
ATOM     68  C   UNL     1       3.305   9.581  -1.802  1.00  0.00     0.057 A 
ATOM     69  C   UNL     1       2.592  10.780  -1.679  1.00  0.00     0.134 A 
ATOM     70  C   UNL     1       3.564   8.862  -0.629  1.00  0.00     0.134 A 
ATOM     71  F   UNL     1       2.331  11.524  -2.763  1.00  0.00    -0.206 F 
ATOM     72  C   UNL     1       2.180  11.261  -0.435  1.00  0.00     0.040 A 
ATOM     73  C   UNL     1       3.133   9.317   0.618  1.00  0.00     0.040 A 
ATOM     74  F   UNL     1       4.236   7.702  -0.679  1.00  0.00    -0.206 F 
ATOM     75  C   UNL     1       2.448  10.527   0.718  1.00  0.00     0.006 A 
ENDBRANCH  47  68
BRANCH  59  76
ATOM     76  C   UNL     1       8.050  12.069  -6.239  1.00  0.00     0.057 A 
ATOM     77  C   UNL     1       9.145  12.185  -5.374  1.00  0.00     0.134 A 
ATOM     78  C   UNL     1       7.804  13.131  -7.118  1.00  0.00     0.134 A 
ATOM     79  F   UNL     1       9.427  11.209  -4.498  1.00  0.00    -0.206 F 
ATOM     80  C   UNL     1       9.950  13.325  -5.367  1.00  0.00     0.040 A 
ATOM     81  C   UNL     1       8.618  14.264  -7.140  1.00  0.00     0.040 A 
ATOM     82  F   UNL     1       6.776  13.079  -7.979  1.00  0.00    -0.206 F 
ATOM     83  C   UNL     1       9.691  14.366  -6.258  1.00  0.00     0.006 A 
ENDBRANCH  59  76
ENDBRANCH  33  34
ENDBRANCH  25  28
ENDBRANCH  23  24
ENDBRANCH  22  23
ENDBRANCH   1  22
TORSDOF 15
