REMARK SMILES C[C@@H]1[C@@H](C(=O)NCCCNC(=O)c2ccc(-c3c4nc(c(-c5c(F)cccc5F)c5ccc([nH]5)c(-c5c(F)cccc5F)c5nc(c(-c6c(F)cccc6F)c6ccc3[nH]6)C=C5)C=C4)cc2)CCN1c1ccc(C(F)(F)F)cc1C#N
REMARK SMILES IDX 8 1 7 2 6 3 4 4 5 5 3 7 1 8 2 9 69 10 67 11 68 12 70 13
REMARK SMILES IDX 71 14 79 15 72 16 78 17 73 18 80 19 81 20 74 21 75 22 76 23
REMARK SMILES IDX 77 24 9 25 10 26 11 27 12 29 13 30 14 31 66 32 15 33 65 34
REMARK SMILES IDX 16 35 17 36 18 37 59 38 19 39 64 40 58 41 60 42 20 43 63 44
REMARK SMILES IDX 57 45 56 46 21 48 47 49 30 50 46 51 31 52 34 53 45 54 61 55
REMARK SMILES IDX 32 56 33 57 44 59 62 60 35 61 22 62 23 63 28 64 24 65 25 66
REMARK SMILES IDX 27 67 29 68 26 69 48 70 49 71 54 72 50 73 51 74 53 75 55 76
REMARK SMILES IDX 52 77 36 78 37 79 42 80 38 81 39 82 41 83 43 84 40 85
REMARK H PARENT 6 6 10 28 60 47 34 58
REMARK Flexibility Score: inf
ROOT
ATOM      1  C   UNL     1      -2.981   4.180  -1.194  1.00  0.00     0.042 C 
ENDROOT
BRANCH   1   2
ATOM      2  C   UNL     1      -2.638   2.755  -0.815  1.00  0.00     0.117 C 
BRANCH   2   3
ATOM      3  N   UNL     1      -1.900   2.041  -1.837  1.00  0.00    -0.356 N 
ATOM      4  C   UNL     1      -0.856   1.176  -1.710  1.00  0.00     0.225 C 
ATOM      5  O   UNL     1      -0.429   0.671  -2.748  1.00  0.00    -0.275 OA
ATOM      6  H   UNL     1      -2.197   2.207  -2.760  1.00  0.00     0.163 HD
BRANCH   4   7
ATOM      7  C   UNL     1      -0.213   0.955  -0.346  1.00  0.00     0.102 C 
ATOM      8  C   UNL     1       2.045   0.180   0.457  1.00  0.00     0.032 C 
ATOM      9  C   UNL     1       0.842  -0.186  -0.413  1.00  0.00     0.091 C 
ATOM     10  N   UNL     1       0.126  -1.359   0.140  1.00  0.00    -0.367 N 
ATOM     11  C   UNL     1      -1.162   0.468   0.755  1.00  0.00     0.037 C 
ATOM     12  C   UNL     1      -1.242  -1.021   0.505  1.00  0.00     0.118 C 
BRANCH  10  13
ATOM     13  C   UNL     1       0.377  -2.659  -0.264  1.00  0.00     0.055 A 
ATOM     14  C   UNL     1      -0.410  -3.259  -1.265  1.00  0.00     0.028 A 
ATOM     15  C   UNL     1       1.329  -3.467   0.384  1.00  0.00     0.076 A 
ATOM     16  C   UNL     1      -0.304  -4.620  -1.569  1.00  0.00     0.015 A 
ATOM     17  C   UNL     1       1.452  -4.830   0.060  1.00  0.00     0.034 A 
ATOM     18  C   UNL     1       0.622  -5.424  -0.900  1.00  0.00     0.057 A 
BRANCH  15  19
ATOM     19  C   UNL     1       2.146  -2.965   1.453  1.00  0.00     0.101 C 
ATOM     20  N   UNL     1       2.830  -2.610   2.322  1.00  0.00    -0.192 NA
ENDBRANCH  15  19
BRANCH  18  21
ATOM     21  C   UNL     1       0.684  -6.906  -1.177  1.00  0.00     0.416 C 
ATOM     22  F   UNL     1      -0.451  -7.550  -0.788  1.00  0.00    -0.166 F 
ATOM     23  F   UNL     1       0.842  -7.187  -2.499  1.00  0.00    -0.166 F 
ATOM     24  F   UNL     1       1.708  -7.533  -0.534  1.00  0.00    -0.166 F 
ENDBRANCH  18  21
ENDBRANCH  10  13
ENDBRANCH   4   7
ENDBRANCH   2   3
ENDBRANCH   1   2
BRANCH   1  25
ATOM     25  C   UNL     1      -3.740   4.323  -2.500  1.00  0.00     0.118 C 
BRANCH  25  26
ATOM     26  N   UNL     1      -5.059   3.706  -2.476  1.00  0.00    -0.352 N 
ATOM     27  C   UNL     1      -6.310   4.279  -2.501  1.00  0.00     0.251 C 
ATOM     28  H   UNL     1      -5.056   2.722  -2.437  1.00  0.00     0.163 HD
ATOM     29  O   UNL     1      -7.305   3.584  -2.324  1.00  0.00    -0.269 OA
BRANCH  27  30
ATOM     30  C   UNL     1      -6.453   5.739  -2.695  1.00  0.00     0.039 A 
ATOM     31  C   UNL     1      -7.371   6.442  -1.912  1.00  0.00     0.014 A 
ATOM     32  C   UNL     1      -5.667   6.419  -3.625  1.00  0.00     0.014 A 
ATOM     33  C   UNL     1      -7.426   7.835  -1.996  1.00  0.00     0.010 A 
ATOM     34  C   UNL     1      -5.630   7.808  -3.613  1.00  0.00     0.010 A 
ATOM     35  C   UNL     1      -6.516   8.534  -2.806  1.00  0.00    -0.014 A 
BRANCH  35  36
ATOM     36  C   UNL     1      -6.480  10.019  -2.839  1.00  0.00     0.031 A 
ATOM     37  C   UNL     1      -6.708  10.749  -4.136  1.00  0.00     0.074 A 
ATOM     38  C   UNL     1      -6.176  10.708  -1.721  1.00  0.00     0.049 A 
ATOM     39  N   UNL     1      -6.641  12.032  -4.386  1.00  0.00    -0.248 NA
ATOM     40  C   UNL     1      -7.018   9.926  -5.317  1.00  0.00     0.031 C 
ATOM     41  C   UNL     1      -5.881  10.118  -0.413  1.00  0.00     0.029 A 
ATOM     42  N   UNL     1      -6.055  12.059  -1.508  1.00  0.00    -0.354 N 
ATOM     43  C   UNL     1      -6.886  12.165  -5.747  1.00  0.00     0.074 A 
ATOM     44  C   UNL     1      -7.031  10.831  -6.284  1.00  0.00     0.031 C 
ATOM     45  C   UNL     1      -5.651  11.101   0.472  1.00  0.00     0.029 A 
ATOM     46  C   UNL     1      -5.731  12.387  -0.213  1.00  0.00     0.049 A 
ATOM     47  H   UNL     1      -6.188  12.730  -2.216  1.00  0.00     0.167 HD
ATOM     48  C   UNL     1      -7.012  13.296  -6.480  1.00  0.00     0.037 A 
ATOM     49  C   UNL     1      -5.516  13.588   0.356  1.00  0.00     0.037 A 
ATOM     50  C   UNL     1      -6.889  14.623  -5.940  1.00  0.00     0.049 A 
ATOM     51  C   UNL     1      -5.638  14.829  -0.485  1.00  0.00     0.074 A 
ATOM     52  C   UNL     1      -7.052  15.835  -6.587  1.00  0.00     0.029 A 
ATOM     53  N   UNL     1      -6.569  14.913  -4.622  1.00  0.00    -0.354 N 
ATOM     54  N   UNL     1      -5.940  14.942  -1.756  1.00  0.00    -0.248 NA
ATOM     55  C   UNL     1      -5.396  16.112   0.190  1.00  0.00     0.031 C 
ATOM     56  C   UNL     1      -6.775  16.858  -5.675  1.00  0.00     0.029 A 
ATOM     57  C   UNL     1      -6.503  16.285  -4.443  1.00  0.00     0.049 A 
ATOM     58  H   UNL     1      -6.412  14.243  -3.918  1.00  0.00     0.167 HD
ATOM     59  C   UNL     1      -5.957  16.305  -2.024  1.00  0.00     0.074 A 
ATOM     60  C   UNL     1      -5.649  16.979  -0.780  1.00  0.00     0.031 C 
ATOM     61  C   UNL     1      -6.205  16.941  -3.195  1.00  0.00     0.037 A 
BRANCH  48  62
ATOM     62  C   UNL     1      -7.301  13.143  -7.947  1.00  0.00     0.057 A 
ATOM     63  C   UNL     1      -8.527  12.647  -8.413  1.00  0.00     0.134 A 
ATOM     64  C   UNL     1      -6.355  13.524  -8.907  1.00  0.00     0.134 A 
ATOM     65  F   UNL     1      -9.473  12.251  -7.548  1.00  0.00    -0.206 F 
ATOM     66  C   UNL     1      -8.789  12.508  -9.777  1.00  0.00     0.040 A 
ATOM     67  C   UNL     1      -6.618  13.420 -10.274  1.00  0.00     0.040 A 
ATOM     68  F   UNL     1      -5.162  14.012  -8.533  1.00  0.00    -0.206 F 
ATOM     69  C   UNL     1      -7.835  12.903 -10.712  1.00  0.00     0.006 A 
ENDBRANCH  48  62
BRANCH  49  70
ATOM     70  C   UNL     1      -5.183  13.682   1.802  1.00  0.00     0.057 A 
ATOM     71  C   UNL     1      -6.080  14.252   2.713  1.00  0.00     0.134 A 
ATOM     72  C   UNL     1      -3.960  13.222   2.305  1.00  0.00     0.134 A 
ATOM     73  F   UNL     1      -7.261  14.727   2.291  1.00  0.00    -0.206 F 
ATOM     74  C   UNL     1      -5.764  14.386   4.067  1.00  0.00     0.040 A 
ATOM     75  C   UNL     1      -3.643  13.322   3.661  1.00  0.00     0.040 A 
ATOM     76  F   UNL     1      -3.060  12.656   1.487  1.00  0.00    -0.206 F 
ATOM     77  C   UNL     1      -4.542  13.915   4.544  1.00  0.00     0.006 A 
ENDBRANCH  49  70
BRANCH  61  78
ATOM     78  C   UNL     1      -6.201  18.443  -3.178  1.00  0.00     0.057 A 
ATOM     79  C   UNL     1      -5.022  19.183  -3.023  1.00  0.00     0.134 A 
ATOM     80  C   UNL     1      -7.392  19.158  -3.362  1.00  0.00     0.134 A 
ATOM     81  F   UNL     1      -3.849  18.560  -2.831  1.00  0.00    -0.206 F 
ATOM     82  C   UNL     1      -5.031  20.578  -3.025  1.00  0.00     0.040 A 
ATOM     83  C   UNL     1      -7.409  20.553  -3.398  1.00  0.00     0.040 A 
ATOM     84  F   UNL     1      -8.556  18.512  -3.528  1.00  0.00    -0.206 F 
ATOM     85  C   UNL     1      -6.226  21.267  -3.221  1.00  0.00     0.006 A 
ENDBRANCH  61  78
ENDBRANCH  35  36
ENDBRANCH  27  30
ENDBRANCH  25  26
ENDBRANCH   1  25
TORSDOF 13
