REMARK SMILES N#CCOc1ccc2[nH]cc([C@H](C(=O)NCCCNC(=O)c3ccc(-c4c5nc(c(-c6c(F)cccc6F)c6ccc([nH]6)c(-c6c(F)cccc6F)c6nc(c(-c7c(F)cccc7F)c7ccc4[nH]7)C=C6)C=C5)cc3)[NH+]3CC[NH+]([C@@H]4CCS(=O)(=O)C4)CC3)c2c1
REMARK SMILES IDX 16 1 15 2 13 3 14 4 12 6 11 7 5 8 6 9 90 10 7 11 89 12 8 13
REMARK SMILES IDX 9 14 10 15 4 17 3 18 2 19 1 20 76 21 77 22 88 23 78 25 87 26
REMARK SMILES IDX 79 27 80 29 81 30 86 31 82 32 83 33 84 34 85 35 17 36 18 37
REMARK SMILES IDX 19 38 20 39 21 41 22 42 23 43 75 44 24 45 74 46 25 47 26 48
REMARK SMILES IDX 27 49 68 50 28 51 73 52 67 53 69 54 29 55 72 56 66 57 65 58
REMARK SMILES IDX 30 60 56 61 39 62 55 63 40 64 43 65 54 66 70 67 41 68 42 69
REMARK SMILES IDX 53 71 71 72 44 73 31 74 32 75 37 76 33 77 34 78 36 79 38 80
REMARK SMILES IDX 35 81 57 82 58 83 63 84 59 85 60 86 62 87 64 88 61 89 45 90
REMARK SMILES IDX 46 91 51 92 47 93 48 94 50 95 52 96 49 97
REMARK H PARENT 15 5 9 16 76 24 79 28 19 40 69 59 43 70
REMARK Flexibility Score: inf
ROOT
ATOM      1  C   UNL     1       6.259  -3.816  -0.954  1.00  0.00     0.118 C 
ENDROOT
BRANCH   1   2
ATOM      2  N   UNL     1       5.257  -4.213  -1.912  1.00  0.00    -0.351 N 
ATOM      3  C   UNL     1       5.326  -4.324  -3.263  1.00  0.00     0.283 C 
ATOM      4  O   UNL     1       4.243  -4.559  -3.801  1.00  0.00    -0.268 OA
ATOM      5  H   UNL     1       4.382  -4.439  -1.524  1.00  0.00     0.163 HD
BRANCH   3   6
ATOM      6  C   UNL     1       6.700  -4.269  -3.986  1.00  0.00     0.308 C 
BRANCH   6   7
ATOM      7  C   UNL     1       7.531  -5.490  -3.668  1.00  0.00     0.045 A 
ATOM      8  C   UNL     1       5.443  -8.367  -2.314  1.00  0.00     0.121 A 
ATOM      9  C   UNL     1       6.548  -9.156  -1.982  1.00  0.00     0.048 A 
ATOM     10  C   UNL     1       5.697  -7.216  -3.023  1.00  0.00     0.057 A 
ATOM     11  C   UNL     1       7.878  -8.791  -2.281  1.00  0.00     0.030 A 
ATOM     12  C   UNL     1       7.005  -6.736  -3.212  1.00  0.00     0.013 A 
ATOM     13  C   UNL     1       8.075  -7.548  -2.868  1.00  0.00     0.046 A 
ATOM     14  N   UNL     1       9.220  -6.889  -3.240  1.00  0.00    -0.361 N 
ATOM     15  C   UNL     1       8.908  -5.633  -3.698  1.00  0.00     0.094 A 
ATOM     16  H   UNL     1      10.130  -7.261  -3.186  1.00  0.00     0.166 HD
BRANCH   8  17
ATOM     17  O   UNL     1       4.088  -8.536  -2.125  1.00  0.00    -0.479 OA
BRANCH  17  18
ATOM     18  C   UNL     1       3.582  -9.179  -0.939  1.00  0.00     0.349 C 
BRANCH  18  19
ATOM     19  C   UNL     1       4.303 -10.516  -0.879  1.00  0.00     0.104 C 
ATOM     20  N   UNL     1       4.902 -11.625  -0.829  1.00  0.00    -0.195 NA
ENDBRANCH  18  19
ENDBRANCH  17  18
ENDBRANCH   8  17
ENDBRANCH   6   7
BRANCH   6  21
ATOM     21  N   UNL     1       6.612  -4.067  -5.444  1.00  0.00    -0.312 N 
ATOM     22  C   UNL     1       6.187  -5.209  -6.267  1.00  0.00     0.325 C 
ATOM     23  C   UNL     1       5.927  -2.815  -5.784  1.00  0.00     0.325 C 
ATOM     24  H   UNL     1       7.590  -3.982  -5.721  1.00  0.00     0.349 HD
ATOM     25  C   UNL     1       4.731  -5.245  -6.786  1.00  0.00     0.324 C 
ATOM     26  C   UNL     1       4.450  -2.919  -6.207  1.00  0.00     0.324 C 
ATOM     27  N   UNL     1       4.160  -3.954  -7.193  1.00  0.00    -0.322 N 
ATOM     28  H   UNL     1       3.144  -4.037  -7.160  1.00  0.00     0.348 HD
BRANCH  27  29
ATOM     29  C   UNL     1       4.232  -3.631  -8.616  1.00  0.00     0.200 C 
ATOM     30  C   UNL     1       5.601  -3.504  -9.306  1.00  0.00     0.082 C 
ATOM     31  C   UNL     1       3.420  -2.386  -9.002  1.00  0.00     0.201 C 
ATOM     32  C   UNL     1       6.055  -2.054  -9.329  1.00  0.00     0.143 C 
ATOM     33  S   UNL     1       4.589  -1.058  -9.225  1.00  0.00     0.156 S 
ATOM     34  O   UNL     1       4.670  -0.258  -8.021  1.00  0.00    -0.229 OA
ATOM     35  O   UNL     1       4.351  -0.450 -10.520  1.00  0.00    -0.229 OA
ENDBRANCH  27  29
ENDBRANCH   6  21
ENDBRANCH   3   6
ENDBRANCH   1   2
BRANCH   1  36
ATOM     36  C   UNL     1       5.846  -2.498  -0.321  1.00  0.00     0.042 C 
BRANCH  36  37
ATOM     37  C   UNL     1       4.398  -2.489   0.162  1.00  0.00     0.118 C 
BRANCH  37  38
ATOM     38  N   UNL     1       4.096  -3.597   1.063  1.00  0.00    -0.352 N 
ATOM     39  C   UNL     1       3.606  -3.554   2.343  1.00  0.00     0.251 C 
ATOM     40  H   UNL     1       4.267  -4.497   0.703  1.00  0.00     0.163 HD
ATOM     41  O   UNL     1       3.569  -4.563   3.037  1.00  0.00    -0.269 OA
BRANCH  39  42
ATOM     42  C   UNL     1       3.150  -2.258   2.873  1.00  0.00     0.039 A 
ATOM     43  C   UNL     1       3.642  -1.812   4.098  1.00  0.00     0.014 A 
ATOM     44  C   UNL     1       2.293  -1.461   2.108  1.00  0.00     0.014 A 
ATOM     45  C   UNL     1       3.320  -0.528   4.532  1.00  0.00     0.010 A 
ATOM     46  C   UNL     1       2.058  -0.151   2.494  1.00  0.00     0.010 A 
ATOM     47  C   UNL     1       2.556   0.325   3.717  1.00  0.00    -0.014 A 
BRANCH  47  48
ATOM     48  C   UNL     1       2.240   1.711   4.135  1.00  0.00     0.031 A 
ATOM     49  C   UNL     1       0.807   2.118   4.338  1.00  0.00     0.074 A 
ATOM     50  C   UNL     1       3.231   2.613   4.270  1.00  0.00     0.049 A 
ATOM     51  N   UNL     1       0.316   3.292   4.639  1.00  0.00    -0.248 NA
ATOM     52  C   UNL     1      -0.212   1.072   4.145  1.00  0.00     0.031 C 
ATOM     53  C   UNL     1       4.655   2.351   4.048  1.00  0.00     0.029 A 
ATOM     54  N   UNL     1       3.189   3.939   4.620  1.00  0.00    -0.354 N 
ATOM     55  C   UNL     1      -1.064   3.128   4.655  1.00  0.00     0.074 A 
ATOM     56  C   UNL     1      -1.335   1.762   4.268  1.00  0.00     0.031 C 
ATOM     57  C   UNL     1       5.352   3.472   4.296  1.00  0.00     0.029 A 
ATOM     58  C   UNL     1       4.424   4.540   4.652  1.00  0.00     0.049 A 
ATOM     59  H   UNL     1       2.353   4.415   4.828  1.00  0.00     0.167 HD
ATOM     60  C   UNL     1      -2.018   4.027   4.991  1.00  0.00     0.037 A 
ATOM     61  C   UNL     1       4.766   5.812   4.931  1.00  0.00     0.037 A 
ATOM     62  C   UNL     1      -1.740   5.378   5.397  1.00  0.00     0.049 A 
ATOM     63  C   UNL     1       3.686   6.795   5.292  1.00  0.00     0.074 A 
ATOM     64  C   UNL     1      -2.628   6.354   5.812  1.00  0.00     0.029 A 
ATOM     65  N   UNL     1      -0.474   5.946   5.435  1.00  0.00    -0.354 N 
ATOM     66  N   UNL     1       2.390   6.609   5.375  1.00  0.00    -0.248 NA
ATOM     67  C   UNL     1       4.116   8.164   5.608  1.00  0.00     0.031 C 
ATOM     68  C   UNL     1      -1.907   7.527   6.049  1.00  0.00     0.029 A 
ATOM     69  C   UNL     1      -0.561   7.265   5.844  1.00  0.00     0.049 A 
ATOM     70  H   UNL     1       0.362   5.479   5.205  1.00  0.00     0.167 HD
ATOM     71  C   UNL     1       1.855   7.824   5.786  1.00  0.00     0.074 A 
ATOM     72  C   UNL     1       2.969   8.735   5.947  1.00  0.00     0.031 C 
ATOM     73  C   UNL     1       0.560   8.155   6.012  1.00  0.00     0.037 A 
BRANCH  60  74
ATOM     74  C   UNL     1      -3.448   3.573   4.934  1.00  0.00     0.057 A 
ATOM     75  C   UNL     1      -3.961   2.622   5.828  1.00  0.00     0.134 A 
ATOM     76  C   UNL     1      -4.331   4.109   3.989  1.00  0.00     0.134 A 
ATOM     77  F   UNL     1      -3.166   2.057   6.749  1.00  0.00    -0.206 F 
ATOM     78  C   UNL     1      -5.290   2.201   5.765  1.00  0.00     0.040 A 
ATOM     79  C   UNL     1      -5.671   3.720   3.936  1.00  0.00     0.040 A 
ATOM     80  F   UNL     1      -3.909   5.026   3.104  1.00  0.00    -0.206 F 
ATOM     81  C   UNL     1      -6.151   2.756   4.821  1.00  0.00     0.006 A 
ENDBRANCH  60  74
BRANCH  61  82
ATOM     82  C   UNL     1       6.192   6.226   4.904  1.00  0.00     0.057 A 
ATOM     83  C   UNL     1       6.867   6.572   6.081  1.00  0.00     0.134 A 
ATOM     84  C   UNL     1       6.912   6.298   3.705  1.00  0.00     0.134 A 
ATOM     85  F   UNL     1       6.228   6.539   7.260  1.00  0.00    -0.206 F 
ATOM     86  C   UNL     1       8.195   7.001   6.065  1.00  0.00     0.040 A 
ATOM     87  C   UNL     1       8.249   6.697   3.677  1.00  0.00     0.040 A 
ATOM     88  F   UNL     1       6.328   5.968   2.544  1.00  0.00    -0.206 F 
ATOM     89  C   UNL     1       8.892   7.059   4.859  1.00  0.00     0.006 A 
ENDBRANCH  61  82
BRANCH  73  90
ATOM     90  C   UNL     1       0.281   9.544   6.508  1.00  0.00     0.057 A 
ATOM     91  C   UNL     1       0.424  10.671   5.690  1.00  0.00     0.134 A 
ATOM     92  C   UNL     1      -0.181   9.748   7.816  1.00  0.00     0.134 A 
ATOM     93  F   UNL     1       0.873  10.546   4.432  1.00  0.00    -0.206 F 
ATOM     94  C   UNL     1       0.145  11.954   6.163  1.00  0.00     0.040 A 
ATOM     95  C   UNL     1      -0.494  11.023   8.289  1.00  0.00     0.040 A 
ATOM     96  F   UNL     1      -0.352   8.711   8.649  1.00  0.00    -0.206 F 
ATOM     97  C   UNL     1      -0.324  12.132   7.463  1.00  0.00     0.006 A 
ENDBRANCH  73  90
ENDBRANCH  47  48
ENDBRANCH  39  42
ENDBRANCH  37  38
ENDBRANCH  36  37
ENDBRANCH   1  36
TORSDOF 16
