REMARK SMILES COc1cc2c(cc1OC)[C@H](C(=O)NCCCNC(=O)c1ccc(-c3c4nc(c(-c5c(F)cccc5F)c5ccc([nH]5)c(-c5c(F)cccc5F)c5nc(c(-c6c(F)cccc6F)c6ccc3[nH]6)C=C5)C=C4)cc1)[C@H](c1cccc(Cl)c1)N(C)C2=O
REMARK SMILES IDX 16 1 15 2 14 3 12 4 13 5 11 7 3 8 4 9 8 10 5 11 7 12 6 13
REMARK SMILES IDX 85 14 83 15 86 16 75 17 84 18 2 19 1 20 9 21 10 22 76 23
REMARK SMILES IDX 77 24 82 25 78 26 80 27 79 28 81 29 17 30 18 31 19 32 20 34
REMARK SMILES IDX 21 35 22 36 74 37 23 38 73 39 24 40 25 41 26 42 67 43 27 44
REMARK SMILES IDX 72 45 66 46 68 47 28 48 71 49 65 50 64 51 29 53 55 54 38 55
REMARK SMILES IDX 54 56 39 57 42 58 53 59 69 60 40 61 41 62 52 64 70 65 43 66
REMARK SMILES IDX 30 67 31 68 36 69 32 70 33 71 35 72 37 73 34 74 56 75 57 76
REMARK SMILES IDX 62 77 58 78 59 79 61 80 63 81 60 82 44 83 45 84 50 85 46 86
REMARK SMILES IDX 47 87 49 88 51 89 48 90
REMARK H PARENT 14 6 18 33 68 52 42 63
REMARK Flexibility Score: inf
ROOT
ATOM      1  C   UNL     1      -1.823   4.189   3.115  1.00  0.00     0.042 C 
ENDROOT
BRANCH   1   2
ATOM      2  C   UNL     1      -0.569   5.056   3.246  1.00  0.00     0.117 C 
BRANCH   2   3
ATOM      3  N   UNL     1      -0.183   5.142   4.645  1.00  0.00    -0.355 N 
ATOM      4  C   UNL     1       0.743   4.494   5.396  1.00  0.00     0.230 C 
ATOM      5  O   UNL     1       0.703   4.769   6.605  1.00  0.00    -0.274 OA
ATOM      6  H   UNL     1      -0.700   5.809   5.152  1.00  0.00     0.163 HD
BRANCH   4   7
ATOM      7  C   UNL     1       1.881   3.609   4.895  1.00  0.00     0.136 C 
ATOM      8  C   UNL     1       1.580   1.353   1.229  1.00  0.00     0.161 A 
ATOM      9  C   UNL     1       2.826   1.718   1.734  1.00  0.00     0.064 A 
ATOM     10  C   UNL     1       0.439   1.509   2.020  1.00  0.00     0.161 A 
ATOM     11  C   UNL     1       2.908   2.345   2.982  1.00  0.00     0.048 A 
ATOM     12  C   UNL     1       0.553   2.101   3.285  1.00  0.00     0.056 A 
ATOM     13  C   UNL     1       1.747   2.696   3.692  1.00  0.00    -0.016 A 
ATOM     14  C   UNL     1       4.249   2.567   3.601  1.00  0.00     0.254 C 
ATOM     15  N   UNL     1       4.314   3.532   4.602  1.00  0.00    -0.333 N 
ATOM     16  O   UNL     1       5.212   1.909   3.229  1.00  0.00    -0.269 OA
ATOM     17  C   UNL     1       3.191   4.464   4.803  1.00  0.00     0.132 C 
ATOM     18  C   UNL     1       5.566   3.749   5.301  1.00  0.00     0.147 C 
BRANCH   8  19
ATOM     19  O   UNL     1       1.519   0.911  -0.063  1.00  0.00    -0.493 OA
ATOM     20  C   UNL     1       1.555  -0.512  -0.126  1.00  0.00     0.278 C 
ENDBRANCH   8  19
BRANCH  10  21
ATOM     21  O   UNL     1      -0.828   1.113   1.681  1.00  0.00    -0.493 OA
ATOM     22  C   UNL     1      -1.230   1.452   0.353  1.00  0.00     0.278 C 
ENDBRANCH  10  21
BRANCH  17  23
ATOM     23  C   UNL     1       3.208   5.611   3.772  1.00  0.00    -0.023 A 
ATOM     24  C   UNL     1       2.472   6.785   4.009  1.00  0.00     0.006 A 
ATOM     25  C   UNL     1       3.965   5.562   2.583  1.00  0.00     0.026 A 
ATOM     26  C   UNL     1       2.418   7.817   3.064  1.00  0.00     0.002 A 
ATOM     27  C   UNL     1       3.922   6.599   1.648  1.00  0.00     0.041 A 
ATOM     28  C   UNL     1       3.135   7.719   1.875  1.00  0.00     0.020 A 
ATOM     29  Cl  UNL     1       4.856   6.484   0.207  1.00  0.00    -0.084 Cl
ENDBRANCH  17  23
ENDBRANCH   4   7
ENDBRANCH   2   3
ENDBRANCH   1   2
BRANCH   1  30
ATOM     30  C   UNL     1      -3.113   4.979   2.984  1.00  0.00     0.118 C 
BRANCH  30  31
ATOM     31  N   UNL     1      -3.330   5.438   1.621  1.00  0.00    -0.352 N 
ATOM     32  C   UNL     1      -3.997   4.897   0.548  1.00  0.00     0.251 C 
ATOM     33  H   UNL     1      -2.915   6.310   1.429  1.00  0.00     0.163 HD
ATOM     34  O   UNL     1      -3.802   5.403  -0.557  1.00  0.00    -0.269 OA
BRANCH  32  35
ATOM     35  C   UNL     1      -4.915   3.731   0.651  1.00  0.00     0.039 A 
ATOM     36  C   UNL     1      -5.117   2.944  -0.494  1.00  0.00     0.014 A 
ATOM     37  C   UNL     1      -5.650   3.432   1.796  1.00  0.00     0.014 A 
ATOM     38  C   UNL     1      -6.005   1.861  -0.471  1.00  0.00     0.010 A 
ATOM     39  C   UNL     1      -6.436   2.281   1.859  1.00  0.00     0.010 A 
ATOM     40  C   UNL     1      -6.652   1.498   0.718  1.00  0.00    -0.014 A 
BRANCH  40  41
ATOM     41  C   UNL     1      -7.593   0.346   0.784  1.00  0.00     0.031 A 
ATOM     42  C   UNL     1      -9.024   0.556   1.211  1.00  0.00     0.074 A 
ATOM     43  C   UNL     1      -7.148  -0.902   0.540  1.00  0.00     0.049 A 
ATOM     44  N   UNL     1      -9.965  -0.328   1.433  1.00  0.00    -0.248 NA
ATOM     45  C   UNL     1      -9.441   1.945   1.465  1.00  0.00     0.031 C 
ATOM     46  C   UNL     1      -5.774  -1.255   0.181  1.00  0.00     0.029 A 
ATOM     47  N   UNL     1      -7.804  -2.108   0.573  1.00  0.00    -0.354 N 
ATOM     48  C   UNL     1     -11.064   0.393   1.886  1.00  0.00     0.074 A 
ATOM     49  C   UNL     1     -10.653   1.777   1.968  1.00  0.00     0.031 C 
ATOM     50  C   UNL     1      -5.694  -2.583   0.005  1.00  0.00     0.029 A 
ATOM     51  C   UNL     1      -6.997  -3.180   0.279  1.00  0.00     0.049 A 
ATOM     52  H   UNL     1      -8.760  -2.195   0.788  1.00  0.00     0.167 HD
ATOM     53  C   UNL     1     -12.311  -0.048   2.180  1.00  0.00     0.037 A 
ATOM     54  C   UNL     1      -7.272  -4.498   0.242  1.00  0.00     0.037 A 
ATOM     55  C   UNL     1     -12.730  -1.419   2.055  1.00  0.00     0.049 A 
ATOM     56  C   UNL     1      -8.668  -4.967   0.537  1.00  0.00     0.074 A 
ATOM     57  C   UNL     1     -13.990  -1.959   2.244  1.00  0.00     0.029 A 
ATOM     58  N   UNL     1     -11.893  -2.470   1.709  1.00  0.00    -0.354 N 
ATOM     59  N   UNL     1      -9.718  -4.265   0.890  1.00  0.00    -0.248 NA
ATOM     60  C   UNL     1      -8.921  -6.410   0.420  1.00  0.00     0.031 C 
ATOM     61  C   UNL     1     -13.905  -3.343   2.057  1.00  0.00     0.029 A 
ATOM     62  C   UNL     1     -12.603  -3.659   1.701  1.00  0.00     0.049 A 
ATOM     63  H   UNL     1     -10.935  -2.383   1.499  1.00  0.00     0.167 HD
ATOM     64  C   UNL     1     -10.759  -5.175   1.020  1.00  0.00     0.074 A 
ATOM     65  C   UNL     1     -10.217  -6.478   0.691  1.00  0.00     0.031 C 
ATOM     66  C   UNL     1     -12.048  -4.950   1.377  1.00  0.00     0.037 A 
BRANCH  53  67
ATOM     67  C   UNL     1     -13.304   0.971   2.668  1.00  0.00     0.057 A 
ATOM     68  C   UNL     1     -13.790   1.994   1.841  1.00  0.00     0.134 A 
ATOM     69  C   UNL     1     -13.774   0.936   3.987  1.00  0.00     0.134 A 
ATOM     70  F   UNL     1     -13.374   2.094   0.569  1.00  0.00    -0.206 F 
ATOM     71  C   UNL     1     -14.663   2.972   2.320  1.00  0.00     0.040 A 
ATOM     72  C   UNL     1     -14.675   1.890   4.469  1.00  0.00     0.040 A 
ATOM     73  F   UNL     1     -13.363  -0.020   4.834  1.00  0.00    -0.206 F 
ATOM     74  C   UNL     1     -15.110   2.920   3.638  1.00  0.00     0.006 A 
ENDBRANCH  53  67
BRANCH  54  75
ATOM     75  C   UNL     1      -6.198  -5.456  -0.121  1.00  0.00     0.057 A 
ATOM     76  C   UNL     1      -6.186  -6.089  -1.369  1.00  0.00     0.134 A 
ATOM     77  C   UNL     1      -5.137  -5.727   0.751  1.00  0.00     0.134 A 
ATOM     78  F   UNL     1      -7.184  -5.880  -2.240  1.00  0.00    -0.206 F 
ATOM     79  C   UNL     1      -5.160  -6.960  -1.736  1.00  0.00     0.040 A 
ATOM     80  C   UNL     1      -4.092  -6.578   0.388  1.00  0.00     0.040 A 
ATOM     81  F   UNL     1      -5.085  -5.143   1.957  1.00  0.00    -0.206 F 
ATOM     82  C   UNL     1      -4.104  -7.200  -0.859  1.00  0.00     0.006 A 
ENDBRANCH  54  75
BRANCH  66  83
ATOM     83  C   UNL     1     -12.967  -6.136   1.412  1.00  0.00     0.057 A 
ATOM     84  C   UNL     1     -12.882  -7.109   2.416  1.00  0.00     0.134 A 
ATOM     85  C   UNL     1     -13.978  -6.282   0.453  1.00  0.00     0.134 A 
ATOM     86  F   UNL     1     -11.928  -7.033   3.356  1.00  0.00    -0.206 F 
ATOM     87  C   UNL     1     -13.756  -8.197   2.453  1.00  0.00     0.040 A 
ATOM     88  C   UNL     1     -14.875  -7.351   0.495  1.00  0.00     0.040 A 
ATOM     89  F   UNL     1     -14.120  -5.381  -0.530  1.00  0.00    -0.206 F 
ATOM     90  C   UNL     1     -14.761  -8.315   1.494  1.00  0.00     0.006 A 
ENDBRANCH  66  83
ENDBRANCH  40  41
ENDBRANCH  32  35
ENDBRANCH  30  31
ENDBRANCH   1  30
TORSDOF 13
