REMARK SMILES C[N@H+]1Cc2ccccc2C[C@@H]1C(=O)NCCC(=O)NCC(=O)NCCCNC(=O)c1ccc(-c2c3nc(c(-c4c(F)cccc4F)c4ccc([nH]4)c(-c4c(F)cccc4F)c4nc(c(-c5c(F)cccc5F)c5ccc2[nH]5)C=C4)C=C3)cc1
REMARK SMILES IDX 21 1 22 2 23 3 20 5 19 6 17 7 18 8 16 10 15 11 14 12 12 13
REMARK SMILES IDX 13 14 11 16 1 17 2 18 3 19 4 21 10 22 5 23 9 24 6 25 8 26
REMARK SMILES IDX 7 27 24 28 25 29 26 30 27 31 28 32 29 34 30 35 31 36 83 37
REMARK SMILES IDX 32 38 82 39 33 40 34 41 35 42 76 43 36 44 81 45 75 46 77 47
REMARK SMILES IDX 37 48 80 49 74 50 73 51 38 53 64 54 47 55 63 56 48 57 51 58
REMARK SMILES IDX 62 59 78 60 49 61 50 62 61 64 79 65 52 66 39 67 40 68 45 69
REMARK SMILES IDX 41 70 42 71 44 72 46 73 43 74 65 75 66 76 71 77 67 78 68 79
REMARK SMILES IDX 70 80 72 81 69 82 53 83 54 84 59 85 55 86 56 87 58 88 60 89
REMARK SMILES IDX 57 90
REMARK H PARENT 23 4 19 9 14 15 2 20 27 33 77 52 51 63
REMARK Flexibility Score: inf
ROOT
ATOM      1  C   UNL     1      -6.314   3.771   0.259  1.00  0.00     0.239 C 
ATOM      2  O   UNL     1      -7.280   3.116  -0.147  1.00  0.00    -0.273 OA
ATOM      3  N   UNL     1      -5.842   3.442   1.494  1.00  0.00    -0.355 N 
ATOM      4  H   UNL     1      -6.366   2.735   1.935  1.00  0.00     0.163 HD
ENDROOT
BRANCH   1   5
ATOM      5  C   UNL     1      -5.605   4.756  -0.691  1.00  0.00     0.216 C 
BRANCH   5   6
ATOM      6  N   UNL     1      -4.918   5.876  -0.074  1.00  0.00    -0.347 N 
ATOM      7  C   UNL     1      -3.595   6.195  -0.043  1.00  0.00     0.222 C 
ATOM      8  O   UNL     1      -3.248   7.157   0.644  1.00  0.00    -0.275 OA
ATOM      9  H   UNL     1      -5.505   6.509   0.400  1.00  0.00     0.164 HD
BRANCH   7  10
ATOM     10  C   UNL     1      -2.570   5.364  -0.787  1.00  0.00     0.121 C 
BRANCH  10  11
ATOM     11  C   UNL     1      -1.979   4.233   0.061  1.00  0.00     0.126 C 
BRANCH  11  12
ATOM     12  N   UNL     1      -2.809   3.034   0.033  1.00  0.00    -0.350 N 
ATOM     13  C   UNL     1      -2.705   1.926  -0.745  1.00  0.00     0.278 C 
ATOM     14  O   UNL     1      -3.715   1.649  -1.405  1.00  0.00    -0.268 OA
ATOM     15  H   UNL     1      -3.556   3.026   0.674  1.00  0.00     0.163 HD
BRANCH  13  16
ATOM     16  C   UNL     1      -1.511   0.952  -0.670  1.00  0.00     0.278 C 
ATOM     17  C   UNL     1      -3.138  -0.809  -0.004  1.00  0.00     0.333 C 
ATOM     18  N   UNL     1      -1.809  -0.228   0.208  1.00  0.00    -0.323 N 
ATOM     19  C   UNL     1      -0.794  -1.276  -0.047  1.00  0.00     0.299 C 
ATOM     20  H   UNL     1      -1.784   0.110   1.170  1.00  0.00     0.348 HD
ATOM     21  C   UNL     1       0.633  -0.778   0.004  1.00  0.00     0.010 A 
ATOM     22  C   UNL     1      -0.206   1.588  -0.174  1.00  0.00     0.111 C 
ATOM     23  C   UNL     1       1.691  -1.695   0.057  1.00  0.00     0.010 A 
ATOM     24  C   UNL     1       0.920   0.593  -0.071  1.00  0.00    -0.033 A 
ATOM     25  C   UNL     1       3.013  -1.248   0.075  1.00  0.00     0.001 A 
ATOM     26  C   UNL     1       2.247   1.037  -0.020  1.00  0.00     0.004 A 
ATOM     27  C   UNL     1       3.290   0.116   0.048  1.00  0.00     0.000 A 
ENDBRANCH  13  16
ENDBRANCH  11  12
ENDBRANCH  10  11
ENDBRANCH   7  10
ENDBRANCH   5   6
ENDBRANCH   1   5
BRANCH   3  28
ATOM     28  C   UNL     1      -4.728   3.916   2.301  1.00  0.00     0.117 C 
BRANCH  28  29
ATOM     29  C   UNL     1      -5.163   4.588   3.587  1.00  0.00     0.042 C 
BRANCH  29  30
ATOM     30  C   UNL     1      -5.633   3.589   4.631  1.00  0.00     0.118 C 
BRANCH  30  31
ATOM     31  N   UNL     1      -4.546   2.771   5.166  1.00  0.00    -0.352 N 
ATOM     32  C   UNL     1      -3.942   2.772   6.401  1.00  0.00     0.251 C 
ATOM     33  H   UNL     1      -4.186   2.106   4.535  1.00  0.00     0.163 HD
ATOM     34  O   UNL     1      -2.928   2.105   6.585  1.00  0.00    -0.269 OA
BRANCH  32  35
ATOM     35  C   UNL     1      -4.484   3.599   7.500  1.00  0.00     0.039 A 
ATOM     36  C   UNL     1      -3.603   4.285   8.340  1.00  0.00     0.014 A 
ATOM     37  C   UNL     1      -5.860   3.711   7.698  1.00  0.00     0.014 A 
ATOM     38  C   UNL     1      -4.105   5.161   9.304  1.00  0.00     0.010 A 
ATOM     39  C   UNL     1      -6.355   4.672   8.567  1.00  0.00     0.010 A 
ATOM     40  C   UNL     1      -5.485   5.408   9.384  1.00  0.00    -0.014 A 
BRANCH  40  41
ATOM     41  C   UNL     1      -6.055   6.418  10.312  1.00  0.00     0.031 A 
ATOM     42  C   UNL     1      -7.079   6.002  11.334  1.00  0.00     0.074 A 
ATOM     43  C   UNL     1      -5.737   7.719  10.165  1.00  0.00     0.049 A 
ATOM     44  N   UNL     1      -7.813   6.746  12.122  1.00  0.00    -0.248 NA
ATOM     45  C   UNL     1      -7.348   4.559  11.452  1.00  0.00     0.031 C 
ATOM     46  C   UNL     1      -4.810   8.263   9.170  1.00  0.00     0.029 A 
ATOM     47  N   UNL     1      -6.177   8.827  10.845  1.00  0.00    -0.354 N 
ATOM     48  C   UNL     1      -8.649   5.867  12.798  1.00  0.00     0.074 A 
ATOM     49  C   UNL     1      -8.374   4.542  12.289  1.00  0.00     0.031 C 
ATOM     50  C   UNL     1      -4.733   9.594   9.320  1.00  0.00     0.029 A 
ATOM     51  C   UNL     1      -5.634  10.005  10.391  1.00  0.00     0.049 A 
ATOM     52  H   UNL     1      -6.821   8.782  11.589  1.00  0.00     0.167 HD
ATOM     53  C   UNL     1      -9.545   6.134  13.777  1.00  0.00     0.037 A 
ATOM     54  C   UNL     1      -5.848  11.274  10.786  1.00  0.00     0.037 A 
ATOM     55  C   UNL     1      -9.778   7.444  14.322  1.00  0.00     0.049 A 
ATOM     56  C   UNL     1      -6.817  11.541  11.903  1.00  0.00     0.074 A 
ATOM     57  C   UNL     1     -10.611   7.810  15.364  1.00  0.00     0.029 A 
ATOM     58  N   UNL     1      -9.163   8.603  13.873  1.00  0.00    -0.354 N 
ATOM     59  N   UNL     1      -7.560  10.693  12.571  1.00  0.00    -0.248 NA
ATOM     60  C   UNL     1      -6.974  12.940  12.323  1.00  0.00     0.031 C 
ATOM     61  C   UNL     1     -10.520   9.197  15.528  1.00  0.00     0.029 A 
ATOM     62  C   UNL     1      -9.604   9.687  14.612  1.00  0.00     0.049 A 
ATOM     63  H   UNL     1      -8.510   8.648  13.137  1.00  0.00     0.167 HD
ATOM     64  C   UNL     1      -8.256  11.450  13.504  1.00  0.00     0.074 A 
ATOM     65  C   UNL     1      -7.835  12.825  13.325  1.00  0.00     0.031 C 
ATOM     66  C   UNL     1      -9.165  11.045  14.424  1.00  0.00     0.037 A 
BRANCH  53  67
ATOM     67  C   UNL     1     -10.322   4.977  14.333  1.00  0.00     0.057 A 
ATOM     68  C   UNL     1      -9.716   3.996  15.130  1.00  0.00     0.134 A 
ATOM     69  C   UNL     1     -11.695   4.851  14.086  1.00  0.00     0.134 A 
ATOM     70  F   UNL     1      -8.401   4.051  15.391  1.00  0.00    -0.206 F 
ATOM     71  C   UNL     1     -10.439   2.915  15.634  1.00  0.00     0.040 A 
ATOM     72  C   UNL     1     -12.435   3.788  14.608  1.00  0.00     0.040 A 
ATOM     73  F   UNL     1     -12.339   5.757  13.336  1.00  0.00    -0.206 F 
ATOM     74  C   UNL     1     -11.805   2.812  15.379  1.00  0.00     0.006 A 
ENDBRANCH  53  67
BRANCH  54  75
ATOM     75  C   UNL     1      -5.110  12.386  10.139  1.00  0.00     0.057 A 
ATOM     76  C   UNL     1      -4.091  13.065  10.818  1.00  0.00     0.134 A 
ATOM     77  C   UNL     1      -5.402  12.799   8.833  1.00  0.00     0.134 A 
ATOM     78  F   UNL     1      -3.779  12.726  12.077  1.00  0.00    -0.206 F 
ATOM     79  C   UNL     1      -3.400  14.125  10.229  1.00  0.00     0.040 A 
ATOM     80  C   UNL     1      -4.704  13.843   8.224  1.00  0.00     0.040 A 
ATOM     81  F   UNL     1      -6.362  12.183   8.127  1.00  0.00    -0.206 F 
ATOM     82  C   UNL     1      -3.704  14.514   8.926  1.00  0.00     0.006 A 
ENDBRANCH  54  75
BRANCH  66  83
ATOM     83  C   UNL     1      -9.739  12.095  15.325  1.00  0.00     0.057 A 
ATOM     84  C   UNL     1     -10.693  13.014  14.871  1.00  0.00     0.134 A 
ATOM     85  C   UNL     1      -9.365  12.158  16.674  1.00  0.00     0.134 A 
ATOM     86  F   UNL     1     -11.082  13.011  13.587  1.00  0.00    -0.206 F 
ATOM     87  C   UNL     1     -11.244  13.971  15.724  1.00  0.00     0.040 A 
ATOM     88  C   UNL     1      -9.925  13.096  17.541  1.00  0.00     0.040 A 
ATOM     89  F   UNL     1      -8.461  11.301  17.171  1.00  0.00    -0.206 F 
ATOM     90  C   UNL     1     -10.865  14.009  17.065  1.00  0.00     0.006 A 
ENDBRANCH  66  83
ENDBRANCH  40  41
ENDBRANCH  32  35
ENDBRANCH  30  31
ENDBRANCH  29  30
ENDBRANCH  28  29
ENDBRANCH   3  28
TORSDOF 15
