REMARK SMILES CN(C)c1ccc(CCC(=O)N2C[C@@H](C(=O)NCCCNC(=O)c3ccc(-c4c5nc(c(-c6c(F)cccc6F)c6ccc([nH]6)c(-c6c(F)cccc6F)c6nc(c(-c7c(F)cccc7F)c7ccc4[nH]7)C=C6)C=C5)cc3)[C@H](c3cccnc3)C2)cc1
REMARK SMILES IDX 15 1 16 2 17 3 14 5 12 6 13 7 85 8 78 9 10 10 11 11 9 12
REMARK SMILES IDX 8 13 7 14 4 15 5 16 87 17 6 18 86 19 2 20 1 21 3 22 79 23
REMARK SMILES IDX 80 24 84 25 81 26 83 27 82 28 18 29 19 30 20 31 21 32 22 33
REMARK SMILES IDX 23 35 24 36 25 37 77 38 26 39 76 40 27 41 28 42 29 43 70 44
REMARK SMILES IDX 30 45 75 46 69 47 71 48 31 49 74 50 68 51 67 52 32 54 58 55
REMARK SMILES IDX 41 56 57 57 42 58 45 59 56 60 72 61 43 62 44 63 55 65 73 66
REMARK SMILES IDX 46 67 33 68 34 69 39 70 35 71 36 72 38 73 40 74 37 75 59 76
REMARK SMILES IDX 60 77 65 78 61 79 62 80 64 81 66 82 63 83 47 84 48 85 53 86
REMARK SMILES IDX 49 87 50 88 52 89 54 90 51 91
REMARK H PARENT 17 4 21 34 71 53 45 64
REMARK Flexibility Score: inf
ROOT
ATOM      1  C   UNL     1      -0.841  -0.693   3.772  1.00  0.00     0.225 C 
ATOM      2  O   UNL     1      -0.099   0.262   3.523  1.00  0.00    -0.275 OA
ATOM      3  N   UNL     1      -1.879  -0.917   2.926  1.00  0.00    -0.356 N 
ATOM      4  H   UNL     1      -1.682  -0.754   1.975  1.00  0.00     0.163 HD
ENDROOT
BRANCH   1   5
ATOM      5  C   UNL     1      -0.494  -1.612   4.920  1.00  0.00     0.107 C 
ATOM      6  N   UNL     1      -0.211  -3.886   5.379  1.00  0.00    -0.341 N 
ATOM      7  C   UNL     1      -0.131  -2.935   4.322  1.00  0.00     0.133 C 
ATOM      8  C   UNL     1      -1.062  -3.386   6.457  1.00  0.00     0.128 C 
ATOM      9  C   UNL     1      -1.463  -1.923   6.066  1.00  0.00     0.054 C 
BRANCH   6  10
ATOM     10  C   UNL     1       0.366  -5.136   5.330  1.00  0.00     0.222 C 
ATOM     11  O   UNL     1       0.007  -6.036   6.092  1.00  0.00    -0.275 OA
BRANCH  10  12
ATOM     12  C   UNL     1       1.584  -5.336   4.403  1.00  0.00     0.105 C 
BRANCH  12  13
ATOM     13  C   UNL     1       1.364  -5.573   2.894  1.00  0.00     0.045 C 
BRANCH  13  14
ATOM     14  C   UNL     1       1.286  -4.346   2.000  1.00  0.00    -0.047 A 
ATOM     15  C   UNL     1       0.959  -1.895   0.576  1.00  0.00     0.036 A 
ATOM     16  C   UNL     1      -0.014  -2.899   0.527  1.00  0.00     0.026 A 
ATOM     17  C   UNL     1       2.134  -2.168   1.288  1.00  0.00     0.026 A 
ATOM     18  C   UNL     1       0.145  -4.109   1.221  1.00  0.00     0.006 A 
ATOM     19  C   UNL     1       2.309  -3.384   1.971  1.00  0.00     0.006 A 
BRANCH  15  20
ATOM     20  N   UNL     1       0.757  -0.701  -0.120  1.00  0.00    -0.378 N 
ATOM     21  C   UNL     1       1.443  -0.629  -1.403  1.00  0.00     0.143 C 
ATOM     22  C   UNL     1       0.714   0.539   0.651  1.00  0.00     0.143 C 
ENDBRANCH  15  20
ENDBRANCH  13  14
ENDBRANCH  12  13
ENDBRANCH  10  12
ENDBRANCH   6  10
BRANCH   9  23
ATOM     23  C   UNL     1      -1.365  -0.829   7.120  1.00  0.00    -0.024 A 
ATOM     24  C   UNL     1      -1.338   0.526   6.736  1.00  0.00     0.007 A 
ATOM     25  C   UNL     1      -1.287  -1.069   8.486  1.00  0.00     0.115 A 
ATOM     26  C   UNL     1      -1.155   1.538   7.669  1.00  0.00     0.020 A 
ATOM     27  N   UNL     1      -1.127  -0.102   9.424  1.00  0.00    -0.264 NA
ATOM     28  C   UNL     1      -1.045   1.175   8.993  1.00  0.00     0.111 A 
ENDBRANCH   9  23
ENDBRANCH   1   5
BRANCH   3  29
ATOM     29  C   UNL     1      -3.231  -1.358   3.203  1.00  0.00     0.117 C 
BRANCH  29  30
ATOM     30  C   UNL     1      -4.044  -0.212   3.811  1.00  0.00     0.042 C 
BRANCH  30  31
ATOM     31  C   UNL     1      -4.168   1.008   2.891  1.00  0.00     0.118 C 
BRANCH  31  32
ATOM     32  N   UNL     1      -5.156   0.803   1.845  1.00  0.00    -0.352 N 
ATOM     33  C   UNL     1      -6.359   1.434   1.639  1.00  0.00     0.251 C 
ATOM     34  H   UNL     1      -4.929   0.109   1.185  1.00  0.00     0.163 HD
ATOM     35  O   UNL     1      -7.161   0.960   0.842  1.00  0.00    -0.269 OA
BRANCH  33  36
ATOM     36  C   UNL     1      -6.706   2.671   2.378  1.00  0.00     0.039 A 
ATOM     37  C   UNL     1      -7.999   2.800   2.894  1.00  0.00     0.014 A 
ATOM     38  C   UNL     1      -5.796   3.724   2.512  1.00  0.00     0.014 A 
ATOM     39  C   UNL     1      -8.361   3.957   3.591  1.00  0.00     0.010 A 
ATOM     40  C   UNL     1      -6.141   4.856   3.255  1.00  0.00     0.010 A 
ATOM     41  C   UNL     1      -7.426   4.983   3.804  1.00  0.00    -0.014 A 
BRANCH  41  42
ATOM     42  C   UNL     1      -7.774   6.175   4.622  1.00  0.00     0.031 A 
ATOM     43  C   UNL     1      -7.850   7.542   4.001  1.00  0.00     0.074 A 
ATOM     44  C   UNL     1      -7.969   6.033   5.948  1.00  0.00     0.049 A 
ATOM     45  N   UNL     1      -8.082   8.698   4.573  1.00  0.00    -0.248 NA
ATOM     46  C   UNL     1      -7.618   7.625   2.551  1.00  0.00     0.031 C 
ATOM     47  C   UNL     1      -7.887   4.770   6.683  1.00  0.00     0.029 A 
ATOM     48  N   UNL     1      -8.264   6.963   6.915  1.00  0.00    -0.354 N 
ATOM     49  C   UNL     1      -8.013   9.645   3.559  1.00  0.00     0.074 A 
ATOM     50  C   UNL     1      -7.679   8.934   2.342  1.00  0.00     0.031 C 
ATOM     51  C   UNL     1      -8.140   5.001   7.981  1.00  0.00     0.029 A 
ATOM     52  C   UNL     1      -8.366   6.430   8.177  1.00  0.00     0.049 A 
ATOM     53  H   UNL     1      -8.390   7.920   6.721  1.00  0.00     0.167 HD
ATOM     54  C   UNL     1      -8.224  10.982   3.631  1.00  0.00     0.037 A 
ATOM     55  C   UNL     1      -8.602   7.024   9.362  1.00  0.00     0.037 A 
ATOM     56  C   UNL     1      -8.578  11.689   4.835  1.00  0.00     0.049 A 
ATOM     57  C   UNL     1      -8.818   8.510   9.417  1.00  0.00     0.074 A 
ATOM     58  C   UNL     1      -8.878  13.032   4.989  1.00  0.00     0.029 A 
ATOM     59  N   UNL     1      -8.672  11.114   6.093  1.00  0.00    -0.354 N 
ATOM     60  N   UNL     1      -8.813   9.382   8.438  1.00  0.00    -0.248 NA
ATOM     61  C   UNL     1      -9.073   9.093  10.742  1.00  0.00     0.031 C 
ATOM     62  C   UNL     1      -9.112  13.277   6.346  1.00  0.00     0.029 A 
ATOM     63  C   UNL     1      -8.999  12.079   7.032  1.00  0.00     0.049 A 
ATOM     64  H   UNL     1      -8.529  10.160   6.290  1.00  0.00     0.167 HD
ATOM     65  C   UNL     1      -9.082  10.611   9.025  1.00  0.00     0.074 A 
ATOM     66  C   UNL     1      -9.261  10.371  10.441  1.00  0.00     0.031 C 
ATOM     67  C   UNL     1      -9.170  11.831   8.440  1.00  0.00     0.037 A 
BRANCH  54  68
ATOM     68  C   UNL     1      -8.078  11.776   2.365  1.00  0.00     0.057 A 
ATOM     69  C   UNL     1      -9.024  11.701   1.335  1.00  0.00     0.134 A 
ATOM     70  C   UNL     1      -7.006  12.661   2.196  1.00  0.00     0.134 A 
ATOM     71  F   UNL     1     -10.070  10.867   1.431  1.00  0.00    -0.206 F 
ATOM     72  C   UNL     1      -8.897  12.462   0.171  1.00  0.00     0.040 A 
ATOM     73  C   UNL     1      -6.882  13.445   1.048  1.00  0.00     0.040 A 
ATOM     74  F   UNL     1      -6.070  12.788   3.148  1.00  0.00    -0.206 F 
ATOM     75  C   UNL     1      -7.827  13.343   0.029  1.00  0.00     0.006 A 
ENDBRANCH  54  68
BRANCH  55  76
ATOM     76  C   UNL     1      -8.656   6.207  10.599  1.00  0.00     0.057 A 
ATOM     77  C   UNL     1      -9.868   5.979  11.259  1.00  0.00     0.134 A 
ATOM     78  C   UNL     1      -7.502   5.638  11.149  1.00  0.00     0.134 A 
ATOM     79  F   UNL     1     -11.004   6.516  10.790  1.00  0.00    -0.206 F 
ATOM     80  C   UNL     1      -9.930   5.225  12.432  1.00  0.00     0.040 A 
ATOM     81  C   UNL     1      -7.552   4.862  12.308  1.00  0.00     0.040 A 
ATOM     82  F   UNL     1      -6.311   5.817  10.559  1.00  0.00    -0.206 F 
ATOM     83  C   UNL     1      -8.768   4.660  12.956  1.00  0.00     0.006 A 
ENDBRANCH  55  76
BRANCH  67  84
ATOM     84  C   UNL     1      -9.490  12.995   9.330  1.00  0.00     0.057 A 
ATOM     85  C   UNL     1      -8.544  13.527  10.215  1.00  0.00     0.134 A 
ATOM     86  C   UNL     1     -10.748  13.609   9.282  1.00  0.00     0.134 A 
ATOM     87  F   UNL     1      -7.325  12.975  10.319  1.00  0.00    -0.206 F 
ATOM     88  C   UNL     1      -8.844  14.616  11.035  1.00  0.00     0.040 A 
ATOM     89  C   UNL     1     -11.052  14.713  10.080  1.00  0.00     0.040 A 
ATOM     90  F   UNL     1     -11.698  13.152   8.451  1.00  0.00    -0.206 F 
ATOM     91  C   UNL     1     -10.100  15.216  10.964  1.00  0.00     0.006 A 
ENDBRANCH  67  84
ENDBRANCH  41  42
ENDBRANCH  33  36
ENDBRANCH  31  32
ENDBRANCH  30  31
ENDBRANCH  29  30
ENDBRANCH   3  29
TORSDOF 16
