REMARK SMILES COc1cccc(C(=O)N2[C@@H](C(=O)NCCCNC(=O)c3ccc(-c4c5nc(c(-c6c(F)cccc6F)c6ccc([nH]6)c(-c6c(F)cccc6F)c6nc(c(-c7c(F)cccc7F)c7ccc4[nH]7)C=C6)C=C5)cc3)CS[C@@H]2c2ccccc2Cl)c1
REMARK SMILES IDX 15 1 14 2 12 3 13 4 11 6 10 7 77 8 75 9 76 10 8 11 9 12 7 13
REMARK SMILES IDX 3 14 4 15 85 16 5 17 6 18 2 19 1 20 78 21 79 22 83 23 80 24
REMARK SMILES IDX 82 25 84 26 81 27 16 28 17 29 18 30 19 31 20 33 21 34 22 35
REMARK SMILES IDX 74 36 23 37 73 38 24 39 25 40 26 41 67 42 27 43 72 44 66 45
REMARK SMILES IDX 68 46 28 47 71 48 65 49 64 50 29 52 55 53 38 54 54 55 39 56
REMARK SMILES IDX 42 57 53 58 69 59 40 60 41 61 52 63 70 64 43 65 30 66 31 67
REMARK SMILES IDX 36 68 32 69 33 70 35 71 37 72 34 73 56 74 57 75 62 76 58 77
REMARK SMILES IDX 59 78 61 79 63 80 60 81 44 82 45 83 50 84 46 85 47 86 49 87
REMARK SMILES IDX 51 88 48 89
REMARK H PARENT 14 5 18 32 68 51 42 62
REMARK Flexibility Score: inf
ROOT
ATOM      1  C   UNL     1       2.957  -2.073  -2.794  1.00  0.00     0.117 C 
ENDROOT
BRANCH   1   2
ATOM      2  N   UNL     1       4.015  -2.243  -3.745  1.00  0.00    -0.354 N 
ATOM      3  C   UNL     1       5.203  -2.882  -3.533  1.00  0.00     0.243 C 
ATOM      4  O   UNL     1       5.961  -2.959  -4.509  1.00  0.00    -0.273 OA
ATOM      5  H   UNL     1       3.871  -1.861  -4.641  1.00  0.00     0.163 HD
BRANCH   3   6
ATOM      6  C   UNL     1       5.736  -3.239  -2.114  1.00  0.00     0.186 C 
ATOM      7  N   UNL     1       4.858  -3.660  -0.986  1.00  0.00    -0.310 N 
ATOM      8  C   UNL     1       5.363  -3.286   0.326  1.00  0.00     0.176 C 
ATOM      9  C   UNL     1       6.501  -1.975  -1.656  1.00  0.00     0.107 C 
ATOM     10  S   UNL     1       5.837  -1.538  -0.023  1.00  0.00    -0.129 SA
BRANCH   7  11
ATOM     11  C   UNL     1       3.781  -4.510  -1.208  1.00  0.00     0.255 C 
ATOM     12  O   UNL     1       3.773  -5.272  -2.175  1.00  0.00    -0.269 OA
BRANCH  11  13
ATOM     13  C   UNL     1       2.464  -4.290  -0.478  1.00  0.00     0.043 A 
ATOM     14  C   UNL     1       0.815  -2.836   0.595  1.00  0.00     0.119 A 
ATOM     15  C   UNL     1      -0.201  -3.732   0.282  1.00  0.00     0.046 A 
ATOM     16  C   UNL     1       2.137  -3.112   0.226  1.00  0.00     0.060 A 
ATOM     17  C   UNL     1       0.101  -4.903  -0.408  1.00  0.00     0.005 A 
ATOM     18  C   UNL     1       1.422  -5.183  -0.778  1.00  0.00     0.014 A 
BRANCH  14  19
ATOM     19  O   UNL     1       0.472  -1.736   1.334  1.00  0.00    -0.497 OA
ATOM     20  C   UNL     1       0.742  -0.498   0.679  1.00  0.00     0.278 C 
ENDBRANCH  14  19
ENDBRANCH  11  13
ENDBRANCH   7  11
BRANCH   8  21
ATOM     21  C   UNL     1       6.563  -4.035   0.920  1.00  0.00     0.003 A 
ATOM     22  C   UNL     1       7.148  -3.446   2.076  1.00  0.00     0.008 A 
ATOM     23  C   UNL     1       7.141  -5.239   0.483  1.00  0.00     0.047 A 
ATOM     24  C   UNL     1       8.302  -3.951   2.678  1.00  0.00     0.001 A 
ATOM     25  C   UNL     1       8.319  -5.729   1.075  1.00  0.00     0.021 A 
ATOM     26  Cl  UNL     1       6.480  -6.274  -0.726  1.00  0.00    -0.084 Cl
ATOM     27  C   UNL     1       8.907  -5.081   2.157  1.00  0.00     0.002 A 
ENDBRANCH   8  21
ENDBRANCH   3   6
ENDBRANCH   1   2
BRANCH   1  28
ATOM     28  C   UNL     1       2.199  -0.777  -2.887  1.00  0.00     0.042 C 
BRANCH  28  29
ATOM     29  C   UNL     1       1.123  -0.774  -3.947  1.00  0.00     0.118 C 
BRANCH  29  30
ATOM     30  N   UNL     1       0.054  -1.744  -3.710  1.00  0.00    -0.352 N 
ATOM     31  C   UNL     1      -1.258  -1.619  -3.319  1.00  0.00     0.251 C 
ATOM     32  H   UNL     1       0.331  -2.677  -3.861  1.00  0.00     0.163 HD
ATOM     33  O   UNL     1      -1.913  -2.639  -3.099  1.00  0.00    -0.269 OA
BRANCH  31  34
ATOM     34  C   UNL     1      -1.897  -0.297  -3.124  1.00  0.00     0.039 A 
ATOM     35  C   UNL     1      -2.940  -0.166  -2.200  1.00  0.00     0.014 A 
ATOM     36  C   UNL     1      -1.510   0.817  -3.860  1.00  0.00     0.014 A 
ATOM     37  C   UNL     1      -3.534   1.083  -1.986  1.00  0.00     0.010 A 
ATOM     38  C   UNL     1      -1.961   2.081  -3.515  1.00  0.00     0.010 A 
ATOM     39  C   UNL     1      -3.022   2.227  -2.617  1.00  0.00    -0.014 A 
BRANCH  39  40
ATOM     40  C   UNL     1      -3.628   3.573  -2.450  1.00  0.00     0.031 A 
ATOM     41  C   UNL     1      -4.108   4.327  -3.670  1.00  0.00     0.074 A 
ATOM     42  C   UNL     1      -3.687   4.145  -1.233  1.00  0.00     0.049 A 
ATOM     43  N   UNL     1      -4.551   5.555  -3.766  1.00  0.00    -0.248 NA
ATOM     44  C   UNL     1      -4.029   3.626  -4.964  1.00  0.00     0.031 C 
ATOM     45  C   UNL     1      -3.205   3.548   0.015  1.00  0.00     0.029 A 
ATOM     46  N   UNL     1      -4.178   5.366  -0.847  1.00  0.00    -0.354 N 
ATOM     47  C   UNL     1      -4.769   5.772  -5.122  1.00  0.00     0.074 A 
ATOM     48  C   UNL     1      -4.324   4.590  -5.820  1.00  0.00     0.031 C 
ATOM     49  C   UNL     1      -3.466   4.385   1.033  1.00  0.00     0.029 A 
ATOM     50  C   UNL     1      -4.093   5.592   0.506  1.00  0.00     0.049 A 
ATOM     51  H   UNL     1      -4.556   6.019  -1.479  1.00  0.00     0.167 HD
ATOM     52  C   UNL     1      -5.334   6.839  -5.734  1.00  0.00     0.037 A 
ATOM     53  C   UNL     1      -4.482   6.655   1.234  1.00  0.00     0.037 A 
ATOM     54  C   UNL     1      -5.835   7.989  -5.033  1.00  0.00     0.049 A 
ATOM     55  C   UNL     1      -5.127   7.820   0.532  1.00  0.00     0.074 A 
ATOM     56  C   UNL     1      -6.475   9.103  -5.545  1.00  0.00     0.029 A 
ATOM     57  N   UNL     1      -5.765   8.160  -3.659  1.00  0.00    -0.354 N 
ATOM     58  N   UNL     1      -5.375   7.987  -0.745  1.00  0.00    -0.248 NA
ATOM     59  C   UNL     1      -5.558   8.940   1.379  1.00  0.00     0.031 C 
ATOM     60  C   UNL     1      -6.764   9.965  -4.482  1.00  0.00     0.029 A 
ATOM     61  C   UNL     1      -6.346   9.365  -3.305  1.00  0.00     0.049 A 
ATOM     62  H   UNL     1      -5.362   7.520  -3.029  1.00  0.00     0.167 HD
ATOM     63  C   UNL     1      -6.022   9.211  -0.849  1.00  0.00     0.074 A 
ATOM     64  C   UNL     1      -6.146   9.732   0.496  1.00  0.00     0.031 C 
ATOM     65  C   UNL     1      -6.472   9.852  -1.956  1.00  0.00     0.037 A 
BRANCH  52  66
ATOM     66  C   UNL     1      -5.470   6.790  -7.230  1.00  0.00     0.057 A 
ATOM     67  C   UNL     1      -6.347   5.897  -7.863  1.00  0.00     0.134 A 
ATOM     68  C   UNL     1      -4.733   7.654  -8.048  1.00  0.00     0.134 A 
ATOM     69  F   UNL     1      -7.071   5.028  -7.141  1.00  0.00    -0.206 F 
ATOM     70  C   UNL     1      -6.463   5.845  -9.253  1.00  0.00     0.040 A 
ATOM     71  C   UNL     1      -4.864   7.634  -9.438  1.00  0.00     0.040 A 
ATOM     72  F   UNL     1      -3.876   8.536  -7.511  1.00  0.00    -0.206 F 
ATOM     73  C   UNL     1      -5.725   6.722 -10.044  1.00  0.00     0.006 A 
ENDBRANCH  52  66
BRANCH  53  74
ATOM     74  C   UNL     1      -4.316   6.659   2.710  1.00  0.00     0.057 A 
ATOM     75  C   UNL     1      -5.430   6.614   3.558  1.00  0.00     0.134 A 
ATOM     76  C   UNL     1      -3.055   6.745   3.309  1.00  0.00     0.134 A 
ATOM     77  F   UNL     1      -6.667   6.548   3.044  1.00  0.00    -0.206 F 
ATOM     78  C   UNL     1      -5.299   6.692   4.945  1.00  0.00     0.040 A 
ATOM     79  C   UNL     1      -2.907   6.793   4.697  1.00  0.00     0.040 A 
ATOM     80  F   UNL     1      -1.946   6.778   2.555  1.00  0.00    -0.206 F 
ATOM     81  C   UNL     1      -4.032   6.780   5.518  1.00  0.00     0.006 A 
ENDBRANCH  53  74
BRANCH  65  82
ATOM     82  C   UNL     1      -7.181  11.158  -1.745  1.00  0.00     0.057 A 
ATOM     83  C   UNL     1      -6.503  12.313  -1.337  1.00  0.00     0.134 A 
ATOM     84  C   UNL     1      -8.560  11.260  -1.969  1.00  0.00     0.134 A 
ATOM     85  F   UNL     1      -5.184  12.278  -1.095  1.00  0.00    -0.206 F 
ATOM     86  C   UNL     1      -7.178  13.515  -1.121  1.00  0.00     0.040 A 
ATOM     87  C   UNL     1      -9.240  12.464  -1.787  1.00  0.00     0.040 A 
ATOM     88  F   UNL     1      -9.267  10.194  -2.374  1.00  0.00    -0.206 F 
ATOM     89  C   UNL     1      -8.550  13.593  -1.351  1.00  0.00     0.006 A 
ENDBRANCH  65  82
ENDBRANCH  39  40
ENDBRANCH  31  34
ENDBRANCH  29  30
ENDBRANCH  28  29
ENDBRANCH   1  28
TORSDOF 14
