REMARK SMILES COC(=O)c1ccc([C@H]2CC(=O)Nc3c(C(=O)NCCCNC(=O)c4ccc(-c5c6nc(c(-c7c(F)cccc7F)c7ccc([nH]7)c(-c7c(F)cccc7F)c7nc(c(-c8c(F)cccc8F)c8ccc5[nH]8)C=C7)C=C6)cc4)cn(-c4ccccc4)c32)cc1
REMARK SMILES IDX 19 1 18 2 16 3 17 4 15 6 9 7 10 8 87 9 11 10 14 11 80 12
REMARK SMILES IDX 12 13 13 14 79 15 8 17 5 18 6 19 89 20 7 21 88 22 3 23 4 24
REMARK SMILES IDX 2 25 1 26 81 27 82 28 86 29 83 30 85 31 84 32 20 33 21 34
REMARK SMILES IDX 22 35 23 36 24 38 25 39 26 40 78 41 27 42 77 43 28 44 29 45
REMARK SMILES IDX 30 46 71 47 31 48 76 49 70 50 72 51 32 52 75 53 69 54 68 55
REMARK SMILES IDX 33 57 59 58 42 59 58 60 43 61 46 62 57 63 73 64 44 65 45 66
REMARK SMILES IDX 56 68 74 69 47 70 34 71 35 72 40 73 36 74 37 75 39 76 41 77
REMARK SMILES IDX 38 78 60 79 61 80 66 81 62 82 63 83 65 84 67 85 64 86 48 87
REMARK SMILES IDX 49 88 54 89 50 90 51 91 53 92 55 93 52 94
REMARK H PARENT 18 5 13 16 22 37 72 56 46 67
REMARK Flexibility Score: inf
ROOT
ATOM      1  C   UNL     1      -6.106   6.753   2.552  1.00  0.00     0.118 C 
ENDROOT
BRANCH   1   2
ATOM      2  N   UNL     1      -5.646   8.086   2.252  1.00  0.00    -0.352 N 
ATOM      3  C   UNL     1      -4.423   8.692   2.338  1.00  0.00     0.254 C 
ATOM      4  O   UNL     1      -4.387   9.840   1.883  1.00  0.00    -0.269 OA
ATOM      5  H   UNL     1      -6.356   8.681   1.918  1.00  0.00     0.163 HD
BRANCH   3   6
ATOM      6  C   UNL     1      -3.216   8.091   2.929  1.00  0.00     0.081 A 
ATOM      7  C   UNL     1      -0.895   6.141   5.120  1.00  0.00     0.078 C 
ATOM      8  C   UNL     1      -1.944   5.329   5.888  1.00  0.00     0.115 C 
ATOM      9  C   UNL     1      -1.556   7.048   4.109  1.00  0.00     0.055 A 
ATOM     10  C   UNL     1      -3.119   4.930   5.042  1.00  0.00     0.225 C 
ATOM     11  C   UNL     1      -2.871   6.942   3.707  1.00  0.00     0.076 A 
ATOM     12  N   UNL     1      -0.982   8.082   3.395  1.00  0.00    -0.317 N 
ATOM     13  O   UNL     1      -3.760   3.901   5.250  1.00  0.00    -0.275 OA
ATOM     14  N   UNL     1      -3.551   5.820   4.104  1.00  0.00    -0.324 N 
ATOM     15  C   UNL     1      -2.008   8.785   2.814  1.00  0.00     0.107 A 
ATOM     16  H   UNL     1      -4.421   5.643   3.678  1.00  0.00     0.170 HD
BRANCH   7  17
ATOM     17  C   UNL     1      -0.009   6.820   6.160  1.00  0.00    -0.038 A 
ATOM     18  C   UNL     1       1.863   8.040   7.864  1.00  0.00     0.060 A 
ATOM     19  C   UNL     1       1.898   6.658   7.655  1.00  0.00     0.016 A 
ATOM     20  C   UNL     1       0.826   8.795   7.307  1.00  0.00     0.016 A 
ATOM     21  C   UNL     1       0.975   6.054   6.803  1.00  0.00     0.005 A 
ATOM     22  C   UNL     1      -0.128   8.178   6.497  1.00  0.00     0.005 A 
BRANCH  18  23
ATOM     23  C   UNL     1       2.969   8.663   8.625  1.00  0.00     0.337 C 
ATOM     24  O   UNL     1       3.966   8.043   8.996  1.00  0.00    -0.246 OA
BRANCH  23  25
ATOM     25  O   UNL     1       2.746   9.983   8.809  1.00  0.00    -0.465 OA
ATOM     26  C   UNL     1       3.816  10.667   9.461  1.00  0.00     0.282 C 
ENDBRANCH  23  25
ENDBRANCH  18  23
ENDBRANCH   7  17
BRANCH  12  27
ATOM     27  C   UNL     1       0.386   8.441   3.359  1.00  0.00     0.045 A 
ATOM     28  C   UNL     1       1.362   7.445   3.234  1.00  0.00     0.026 A 
ATOM     29  C   UNL     1       0.753   9.770   3.597  1.00  0.00     0.026 A 
ATOM     30  C   UNL     1       2.702   7.765   3.436  1.00  0.00     0.002 A 
ATOM     31  C   UNL     1       2.094  10.074   3.829  1.00  0.00     0.002 A 
ATOM     32  C   UNL     1       3.063   9.070   3.765  1.00  0.00     0.000 A 
ENDBRANCH  12  27
ENDBRANCH   3   6
ENDBRANCH   1   2
BRANCH   1  33
ATOM     33  C   UNL     1      -6.463   6.581   4.039  1.00  0.00     0.042 C 
BRANCH  33  34
ATOM     34  C   UNL     1      -7.955   6.643   4.279  1.00  0.00     0.118 C 
BRANCH  34  35
ATOM     35  N   UNL     1      -8.626   5.450   3.729  1.00  0.00    -0.352 N 
ATOM     36  C   UNL     1      -9.972   5.199   3.529  1.00  0.00     0.251 C 
ATOM     37  H   UNL     1      -8.023   4.719   3.462  1.00  0.00     0.163 HD
ATOM     38  O   UNL     1     -10.390   4.056   3.393  1.00  0.00    -0.269 OA
BRANCH  36  39
ATOM     39  C   UNL     1     -10.889   6.343   3.473  1.00  0.00     0.039 A 
ATOM     40  C   UNL     1     -12.175   6.333   4.020  1.00  0.00     0.014 A 
ATOM     41  C   UNL     1     -10.360   7.500   2.931  1.00  0.00     0.014 A 
ATOM     42  C   UNL     1     -12.889   7.529   4.030  1.00  0.00     0.010 A 
ATOM     43  C   UNL     1     -10.877   8.683   3.338  1.00  0.00     0.010 A 
ATOM     44  C   UNL     1     -12.213   8.703   3.675  1.00  0.00    -0.014 A 
BRANCH  44  45
ATOM     45  C   UNL     1     -12.794  10.030   3.707  1.00  0.00     0.031 A 
ATOM     46  C   UNL     1     -13.185  10.454   5.066  1.00  0.00     0.074 A 
ATOM     47  C   UNL     1     -12.681  10.878   2.657  1.00  0.00     0.049 A 
ATOM     48  N   UNL     1     -14.379  10.515   5.547  1.00  0.00    -0.248 NA
ATOM     49  C   UNL     1     -12.124  10.614   6.075  1.00  0.00     0.031 C 
ATOM     50  C   UNL     1     -11.981  10.680   1.377  1.00  0.00     0.029 A 
ATOM     51  N   UNL     1     -13.101  12.168   2.559  1.00  0.00    -0.354 N 
ATOM     52  C   UNL     1     -14.225  10.986   6.846  1.00  0.00     0.074 A 
ATOM     53  C   UNL     1     -12.848  10.758   7.187  1.00  0.00     0.031 C 
ATOM     54  C   UNL     1     -11.845  11.865   0.738  1.00  0.00     0.029 A 
ATOM     55  C   UNL     1     -12.581  12.873   1.473  1.00  0.00     0.049 A 
ATOM     56  H   UNL     1     -13.724  12.572   3.205  1.00  0.00     0.167 HD
ATOM     57  C   UNL     1     -15.160  11.809   7.396  1.00  0.00     0.037 A 
ATOM     58  C   UNL     1     -12.742  14.202   1.239  1.00  0.00     0.037 A 
ATOM     59  C   UNL     1     -16.363  11.813   6.592  1.00  0.00     0.049 A 
ATOM     60  C   UNL     1     -13.903  14.643   2.059  1.00  0.00     0.074 A 
ATOM     61  C   UNL     1     -17.256  10.846   6.172  1.00  0.00     0.029 A 
ATOM     62  N   UNL     1     -16.545  12.884   5.747  1.00  0.00    -0.354 N 
ATOM     63  N   UNL     1     -15.129  14.253   1.836  1.00  0.00    -0.248 NA
ATOM     64  C   UNL     1     -13.627  15.092   3.416  1.00  0.00     0.031 C 
ATOM     65  C   UNL     1     -17.569  11.194   4.824  1.00  0.00     0.029 A 
ATOM     66  C   UNL     1     -16.931  12.399   4.525  1.00  0.00     0.049 A 
ATOM     67  H   UNL     1     -16.420  13.832   5.981  1.00  0.00     0.167 HD
ATOM     68  C   UNL     1     -15.651  13.990   3.095  1.00  0.00     0.074 A 
ATOM     69  C   UNL     1     -14.700  14.589   4.034  1.00  0.00     0.031 C 
ATOM     70  C   UNL     1     -16.626  13.049   3.271  1.00  0.00     0.037 A 
BRANCH  57  71
ATOM     71  C   UNL     1     -14.864  12.920   8.377  1.00  0.00     0.057 A 
ATOM     72  C   UNL     1     -15.947  13.640   8.914  1.00  0.00     0.134 A 
ATOM     73  C   UNL     1     -13.599  13.504   8.593  1.00  0.00     0.134 A 
ATOM     74  F   UNL     1     -17.205  13.189   8.788  1.00  0.00    -0.206 F 
ATOM     75  C   UNL     1     -15.793  14.893   9.517  1.00  0.00     0.040 A 
ATOM     76  C   UNL     1     -13.430  14.731   9.240  1.00  0.00     0.040 A 
ATOM     77  F   UNL     1     -12.464  12.987   8.113  1.00  0.00    -0.206 F 
ATOM     78  C   UNL     1     -14.531  15.450   9.670  1.00  0.00     0.006 A 
ENDBRANCH  57  71
BRANCH  58  79
ATOM     79  C   UNL     1     -11.803  15.169   0.621  1.00  0.00     0.057 A 
ATOM     80  C   UNL     1     -12.233  16.434   0.191  1.00  0.00     0.134 A 
ATOM     81  C   UNL     1     -10.411  14.991   0.703  1.00  0.00     0.134 A 
ATOM     82  F   UNL     1     -13.542  16.718   0.117  1.00  0.00    -0.206 F 
ATOM     83  C   UNL     1     -11.334  17.468  -0.112  1.00  0.00     0.040 A 
ATOM     84  C   UNL     1      -9.503  16.013   0.402  1.00  0.00     0.040 A 
ATOM     85  F   UNL     1      -9.888  13.847   1.167  1.00  0.00    -0.206 F 
ATOM     86  C   UNL     1      -9.963  17.263   0.007  1.00  0.00     0.006 A 
ENDBRANCH  58  79
BRANCH  70  87
ATOM     87  C   UNL     1     -17.286  12.478   2.043  1.00  0.00     0.057 A 
ATOM     88  C   UNL     1     -16.632  11.688   1.085  1.00  0.00     0.134 A 
ATOM     89  C   UNL     1     -18.675  12.588   1.925  1.00  0.00     0.134 A 
ATOM     90  F   UNL     1     -15.319  11.446   1.165  1.00  0.00    -0.206 F 
ATOM     91  C   UNL     1     -17.324  11.063   0.042  1.00  0.00     0.040 A 
ATOM     92  C   UNL     1     -19.383  11.944   0.908  1.00  0.00     0.040 A 
ATOM     93  F   UNL     1     -19.376  13.281   2.836  1.00  0.00    -0.206 F 
ATOM     94  C   UNL     1     -18.707  11.184  -0.043  1.00  0.00     0.006 A 
ENDBRANCH  70  87
ENDBRANCH  44  45
ENDBRANCH  36  39
ENDBRANCH  34  35
ENDBRANCH  33  34
ENDBRANCH   1  33
TORSDOF 14
