REMARK SMILES CCOc1cc(OCC)cc(-c2ccc([C@@H](C)C(=O)NCCCNC(=O)c3ccc(-c4c5nc(c(-c6c(F)cccc6F)c6ccc([nH]6)c(-c6c(F)cccc6F)c6nc(c(-c7c(F)cccc7F)c7ccc4[nH]7)C=C6)C=C5)cc3)cc2F)c1
REMARK SMILES IDX 21 1 20 2 18 3 19 4 16 6 17 7 15 8 12 9 13 10 82 11 14 12
REMARK SMILES IDX 81 13 83 14 11 15 4 16 5 17 84 18 6 19 10 20 3 21 2 22 1 23
REMARK SMILES IDX 7 24 8 25 9 26 22 27 23 28 24 29 25 30 26 32 27 33 28 34
REMARK SMILES IDX 80 35 29 36 79 37 30 38 31 39 32 40 73 41 33 42 78 43 72 44
REMARK SMILES IDX 74 45 34 46 77 47 71 48 70 49 35 51 61 52 44 53 60 54 45 55
REMARK SMILES IDX 48 56 59 57 75 58 46 59 47 60 58 62 76 63 49 64 36 65 37 66
REMARK SMILES IDX 42 67 38 68 39 69 41 70 43 71 40 72 62 73 63 74 68 75 64 76
REMARK SMILES IDX 65 77 67 78 69 79 66 80 50 81 51 82 56 83 52 84 53 85 55 86
REMARK SMILES IDX 57 87 54 88
REMARK H PARENT 20 5 24 31 74 50 48 61
REMARK Flexibility Score: inf
ROOT
ATOM      1  C   UNL     1       9.429   2.231  -0.650  1.00  0.00     0.117 C 
ENDROOT
BRANCH   1   2
ATOM      2  N   UNL     1       8.635   3.422  -0.420  1.00  0.00    -0.356 N 
ATOM      3  C   UNL     1       7.949   3.876   0.664  1.00  0.00     0.227 C 
ATOM      4  O   UNL     1       7.303   4.918   0.495  1.00  0.00    -0.274 OA
ATOM      5  H   UNL     1       8.583   4.019  -1.200  1.00  0.00     0.163 HD
BRANCH   3   6
ATOM      6  C   UNL     1       7.929   3.182   2.035  1.00  0.00     0.105 C 
ATOM      7  C   UNL     1       9.300   2.985   2.678  1.00  0.00     0.023 C 
BRANCH   6   8
ATOM      8  C   UNL     1       7.021   1.966   2.073  1.00  0.00    -0.033 A 
ATOM      9  C   UNL     1       5.217  -0.242   1.964  1.00  0.00     0.018 A 
ATOM     10  C   UNL     1       6.556  -0.358   1.554  1.00  0.00     0.012 A 
ATOM     11  C   UNL     1       4.817   1.004   2.461  1.00  0.00     0.131 A 
ATOM     12  C   UNL     1       7.450   0.707   1.655  1.00  0.00     0.005 A 
ATOM     13  C   UNL     1       5.690   2.095   2.496  1.00  0.00     0.044 A 
ATOM     14  F   UNL     1       3.570   1.188   2.920  1.00  0.00    -0.206 F 
BRANCH   9  15
ATOM     15  C   UNL     1       4.315  -1.404   1.843  1.00  0.00    -0.008 A 
ATOM     16  C   UNL     1       2.172  -2.400   1.267  1.00  0.00     0.123 A 
ATOM     17  C   UNL     1       2.698  -3.679   1.457  1.00  0.00     0.092 A 
ATOM     18  C   UNL     1       2.971  -1.275   1.475  1.00  0.00     0.055 A 
ATOM     19  C   UNL     1       4.026  -3.839   1.856  1.00  0.00     0.123 A 
ATOM     20  C   UNL     1       4.808  -2.703   2.059  1.00  0.00     0.055 A 
BRANCH  16  21
ATOM     21  O   UNL     1       0.832  -2.283   1.014  1.00  0.00    -0.494 OA
BRANCH  21  22
ATOM     22  C   UNL     1       0.508  -1.685  -0.249  1.00  0.00     0.226 C 
ATOM     23  C   UNL     1       0.443  -0.165  -0.194  1.00  0.00     0.049 C 
ENDBRANCH  21  22
ENDBRANCH  16  21
BRANCH  19  24
ATOM     24  O   UNL     1       4.472  -5.126   1.996  1.00  0.00    -0.494 OA
BRANCH  24  25
ATOM     25  C   UNL     1       5.733  -5.330   2.646  1.00  0.00     0.226 C 
ATOM     26  C   UNL     1       6.896  -5.264   1.665  1.00  0.00     0.049 C 
ENDBRANCH  24  25
ENDBRANCH  19  24
ENDBRANCH   9  15
ENDBRANCH   6   8
ENDBRANCH   3   6
ENDBRANCH   1   2
BRANCH   1  27
ATOM     27  C   UNL     1       8.647   1.152  -1.397  1.00  0.00     0.042 C 
BRANCH  27  28
ATOM     28  C   UNL     1       8.616   1.354  -2.905  1.00  0.00     0.118 C 
BRANCH  28  29
ATOM     29  N   UNL     1       9.920   1.129  -3.516  1.00  0.00    -0.352 N 
ATOM     30  C   UNL     1      10.319   0.190  -4.437  1.00  0.00     0.251 C 
ATOM     31  H   UNL     1      10.627   1.747  -3.222  1.00  0.00     0.163 HD
ATOM     32  O   UNL     1      11.516   0.030  -4.654  1.00  0.00    -0.269 OA
BRANCH  30  33
ATOM     33  C   UNL     1       9.323  -0.634  -5.157  1.00  0.00     0.039 A 
ATOM     34  C   UNL     1       9.615  -1.976  -5.420  1.00  0.00     0.014 A 
ATOM     35  C   UNL     1       8.123  -0.082  -5.611  1.00  0.00     0.014 A 
ATOM     36  C   UNL     1       8.680  -2.776  -6.083  1.00  0.00     0.010 A 
ATOM     37  C   UNL     1       7.157  -0.899  -6.188  1.00  0.00     0.010 A 
ATOM     38  C   UNL     1       7.430  -2.251  -6.444  1.00  0.00    -0.014 A 
BRANCH  38  39
ATOM     39  C   UNL     1       6.398  -3.079  -7.118  1.00  0.00     0.031 A 
ATOM     40  C   UNL     1       5.925  -2.704  -8.498  1.00  0.00     0.074 A 
ATOM     41  C   UNL     1       5.829  -4.110  -6.464  1.00  0.00     0.049 A 
ATOM     42  N   UNL     1       4.950  -3.213  -9.207  1.00  0.00    -0.248 NA
ATOM     43  C   UNL     1       6.622  -1.586  -9.156  1.00  0.00     0.031 C 
ATOM     44  C   UNL     1       6.175  -4.552  -5.112  1.00  0.00     0.029 A 
ATOM     45  N   UNL     1       4.824  -4.965  -6.844  1.00  0.00    -0.354 N 
ATOM     46  C   UNL     1       4.898  -2.460 -10.373  1.00  0.00     0.074 A 
ATOM     47  C   UNL     1       5.907  -1.431 -10.260  1.00  0.00     0.031 C 
ATOM     48  C   UNL     1       5.411  -5.607  -4.784  1.00  0.00     0.029 A 
ATOM     49  C   UNL     1       4.488  -5.886  -5.880  1.00  0.00     0.049 A 
ATOM     50  H   UNL     1       4.384  -4.922  -7.724  1.00  0.00     0.167 HD
ATOM     51  C   UNL     1       4.093  -2.623 -11.450  1.00  0.00     0.037 A 
ATOM     52  C   UNL     1       3.534  -6.836  -5.877  1.00  0.00     0.037 A 
ATOM     53  C   UNL     1       3.119  -3.675 -11.574  1.00  0.00     0.049 A 
ATOM     54  C   UNL     1       2.647  -6.988  -7.083  1.00  0.00     0.074 A 
ATOM     55  C   UNL     1       2.307  -3.971 -12.654  1.00  0.00     0.029 A 
ATOM     56  N   UNL     1       2.827  -4.601 -10.585  1.00  0.00    -0.354 N 
ATOM     57  N   UNL     1       2.654  -6.312  -8.206  1.00  0.00    -0.248 NA
ATOM     58  C   UNL     1       1.618  -8.036  -7.021  1.00  0.00     0.031 C 
ATOM     59  C   UNL     1       1.484  -5.044 -12.299  1.00  0.00     0.029 A 
ATOM     60  C   UNL     1       1.827  -5.454 -11.020  1.00  0.00     0.049 A 
ATOM     61  H   UNL     1       3.264  -4.646  -9.704  1.00  0.00     0.167 HD
ATOM     62  C   UNL     1       1.665  -6.880  -8.999  1.00  0.00     0.074 A 
ATOM     63  C   UNL     1       1.081  -7.959  -8.230  1.00  0.00     0.031 C 
ATOM     64  C   UNL     1       1.277  -6.541 -10.252  1.00  0.00     0.037 A 
BRANCH  51  65
ATOM     65  C   UNL     1       4.228  -1.646 -12.581  1.00  0.00     0.057 A 
ATOM     66  C   UNL     1       5.353  -1.625 -13.415  1.00  0.00     0.134 A 
ATOM     67  C   UNL     1       3.192  -0.749 -12.873  1.00  0.00     0.134 A 
ATOM     68  F   UNL     1       6.386  -2.449 -13.185  1.00  0.00    -0.206 F 
ATOM     69  C   UNL     1       5.453  -0.733 -14.485  1.00  0.00     0.040 A 
ATOM     70  C   UNL     1       3.267   0.127 -13.958  1.00  0.00     0.040 A 
ATOM     71  F   UNL     1       2.083  -0.719 -12.119  1.00  0.00    -0.206 F 
ATOM     72  C   UNL     1       4.403   0.140 -14.764  1.00  0.00     0.006 A 
ENDBRANCH  51  65
BRANCH  52  73
ATOM     73  C   UNL     1       3.371  -7.734  -4.704  1.00  0.00     0.057 A 
ATOM     74  C   UNL     1       3.662  -9.101  -4.799  1.00  0.00     0.134 A 
ATOM     75  C   UNL     1       2.895  -7.263  -3.475  1.00  0.00     0.134 A 
ATOM     76  F   UNL     1       4.106  -9.617  -5.955  1.00  0.00    -0.206 F 
ATOM     77  C   UNL     1       3.457  -9.970  -3.727  1.00  0.00     0.040 A 
ATOM     78  C   UNL     1       2.714  -8.115  -2.385  1.00  0.00     0.040 A 
ATOM     79  F   UNL     1       2.603  -5.963  -3.316  1.00  0.00    -0.206 F 
ATOM     80  C   UNL     1       2.984  -9.476  -2.513  1.00  0.00     0.006 A 
ENDBRANCH  52  73
BRANCH  64  81
ATOM     81  C   UNL     1       0.215  -7.380 -10.901  1.00  0.00     0.057 A 
ATOM     82  C   UNL     1      -1.126  -7.324 -10.503  1.00  0.00     0.134 A 
ATOM     83  C   UNL     1       0.535  -8.213 -11.981  1.00  0.00     0.134 A 
ATOM     84  F   UNL     1      -1.496  -6.555  -9.468  1.00  0.00    -0.206 F 
ATOM     85  C   UNL     1      -2.108  -8.080 -11.145  1.00  0.00     0.040 A 
ATOM     86  C   UNL     1      -0.442  -8.951 -12.650  1.00  0.00     0.040 A 
ATOM     87  F   UNL     1       1.800  -8.306 -12.419  1.00  0.00    -0.206 F 
ATOM     88  C   UNL     1      -1.768  -8.889 -12.228  1.00  0.00     0.006 A 
ENDBRANCH  64  81
ENDBRANCH  38  39
ENDBRANCH  30  33
ENDBRANCH  28  29
ENDBRANCH  27  28
ENDBRANCH   1  27
TORSDOF 16
