REMARK SMILES CCc1cccc(CC)c1NC(=O)C[C@@](C)(C(=O)NCCCNC(=O)c1ccc(-c2c3nc(c(-c4c(F)cccc4F)c4ccc([nH]4)c(-c4c(F)cccc4F)c4nc(c(-c5c(F)cccc5F)c5ccc2[nH]5)C=C4)C=C3)cc1)c1ccccc1
REMARK SMILES IDX 20 1 19 2 17 3 18 4 15 6 16 7 14 8 12 9 11 10 13 12 10 13
REMARK SMILES IDX 3 14 4 15 5 16 7 17 6 18 2 19 1 20 8 21 9 22 80 23 81 24
REMARK SMILES IDX 85 25 82 26 84 27 83 28 21 29 22 30 23 31 24 32 25 34 26 35
REMARK SMILES IDX 27 36 79 37 28 38 78 39 29 40 30 41 31 42 72 43 32 44 77 45
REMARK SMILES IDX 71 46 73 47 33 48 76 49 70 50 69 51 34 53 60 54 43 55 59 56
REMARK SMILES IDX 44 57 47 58 58 59 74 60 45 61 46 62 57 64 75 65 48 66 35 67
REMARK SMILES IDX 36 68 41 69 37 70 38 71 40 72 42 73 39 74 61 75 62 76 67 77
REMARK SMILES IDX 63 78 64 79 66 80 68 81 65 82 49 83 50 84 55 85 51 86 52 87
REMARK SMILES IDX 54 88 56 89 53 90
REMARK H PARENT 19 5 11 11 23 33 73 52 47 63
REMARK Flexibility Score: inf
ROOT
ATOM      1  C   UNL     1       2.518  -2.945   7.037  1.00  0.00     0.117 C 
ENDROOT
BRANCH   1   2
ATOM      2  N   UNL     1       1.712  -1.796   7.425  1.00  0.00    -0.355 N 
ATOM      3  C   UNL     1       0.827  -0.870   7.012  1.00  0.00     0.230 C 
ATOM      4  O   UNL     1       0.325  -0.349   8.027  1.00  0.00    -0.274 OA
ATOM      5  H   UNL     1       1.885  -1.628   8.379  1.00  0.00     0.163 HD
BRANCH   3   6
ATOM      6  C   UNL     1       0.411  -0.344   5.558  1.00  0.00     0.080 C 
ATOM      7  C   UNL     1      -0.571  -1.212   4.747  1.00  0.00     0.027 C 
BRANCH   6   8
ATOM      8  C   UNL     1       1.722  -0.103   4.758  1.00  0.00     0.121 C 
BRANCH   8   9
ATOM      9  C   UNL     1       1.651   0.126   3.258  1.00  0.00     0.225 C 
ATOM     10  N   UNL     1       1.510  -0.729   2.219  1.00  0.00    -0.326 N 
ATOM     11  H   UNL     1       1.432  -0.157   1.422  1.00  0.00     0.169 HD
ATOM     12  O   UNL     1       1.773   1.309   2.881  1.00  0.00    -0.275 OA
BRANCH  10  13
ATOM     13  C   UNL     1       1.419  -2.063   1.733  1.00  0.00     0.047 A 
ATOM     14  C   UNL     1       1.134  -2.199   0.327  1.00  0.00    -0.024 A 
ATOM     15  C   UNL     1       1.134  -3.489  -0.279  1.00  0.00     0.006 A 
ATOM     16  C   UNL     1       1.409  -4.639   0.427  1.00  0.00     0.001 A 
ATOM     17  C   UNL     1       1.610  -3.273   2.447  1.00  0.00    -0.024 A 
ATOM     18  C   UNL     1       1.641  -4.525   1.775  1.00  0.00     0.006 A 
BRANCH  14  19
ATOM     19  C   UNL     1       0.619  -1.144  -0.663  1.00  0.00     0.034 C 
ATOM     20  C   UNL     1       0.982   0.331  -0.627  1.00  0.00     0.009 C 
ENDBRANCH  14  19
BRANCH  17  21
ATOM     21  C   UNL     1       1.700  -3.469   3.926  1.00  0.00     0.034 C 
ATOM     22  C   UNL     1       0.469  -4.216   4.479  1.00  0.00     0.009 C 
ENDBRANCH  17  21
ENDBRANCH  10  13
ENDBRANCH   8   9
ENDBRANCH   6   8
BRANCH   6  23
ATOM     23  C   UNL     1      -0.515   0.914   5.813  1.00  0.00    -0.032 A 
ATOM     24  C   UNL     1      -0.256   2.214   5.373  1.00  0.00     0.005 A 
ATOM     25  C   UNL     1      -1.745   0.697   6.500  1.00  0.00     0.005 A 
ATOM     26  C   UNL     1      -1.195   3.237   5.596  1.00  0.00     0.000 A 
ATOM     27  C   UNL     1      -2.674   1.710   6.718  1.00  0.00     0.000 A 
ATOM     28  C   UNL     1      -2.399   2.985   6.258  1.00  0.00     0.000 A 
ENDBRANCH   6  23
ENDBRANCH   3   6
ENDBRANCH   1   2
BRANCH   1  29
ATOM     29  C   UNL     1       3.941  -2.653   6.571  1.00  0.00     0.042 C 
BRANCH  29  30
ATOM     30  C   UNL     1       4.943  -3.683   7.103  1.00  0.00     0.118 C 
BRANCH  30  31
ATOM     31  N   UNL     1       4.724  -5.061   6.680  1.00  0.00    -0.352 N 
ATOM     32  C   UNL     1       5.625  -6.114   6.696  1.00  0.00     0.251 C 
ATOM     33  H   UNL     1       3.824  -5.270   6.342  1.00  0.00     0.163 HD
ATOM     34  O   UNL     1       5.304  -7.207   6.259  1.00  0.00    -0.269 OA
BRANCH  32  35
ATOM     35  C   UNL     1       7.005  -5.890   7.199  1.00  0.00     0.039 A 
ATOM     36  C   UNL     1       8.090  -6.366   6.457  1.00  0.00     0.014 A 
ATOM     37  C   UNL     1       7.230  -5.175   8.375  1.00  0.00     0.014 A 
ATOM     38  C   UNL     1       9.394  -6.034   6.840  1.00  0.00     0.010 A 
ATOM     39  C   UNL     1       8.517  -4.762   8.699  1.00  0.00     0.010 A 
ATOM     40  C   UNL     1       9.615  -5.183   7.934  1.00  0.00    -0.014 A 
BRANCH  40  41
ATOM     41  C   UNL     1      10.975  -4.715   8.313  1.00  0.00     0.031 A 
ATOM     42  C   UNL     1      11.518  -5.020   9.683  1.00  0.00     0.074 A 
ATOM     43  C   UNL     1      11.669  -3.921   7.475  1.00  0.00     0.049 A 
ATOM     44  N   UNL     1      12.607  -4.582  10.261  1.00  0.00    -0.248 NA
ATOM     45  C   UNL     1      10.697  -5.894  10.536  1.00  0.00     0.031 C 
ATOM     46  C   UNL     1      11.221  -3.485   6.151  1.00  0.00     0.029 A 
ATOM     47  N   UNL     1      12.895  -3.321   7.623  1.00  0.00    -0.354 N 
ATOM     48  C   UNL     1      12.579  -5.093  11.552  1.00  0.00     0.074 A 
ATOM     49  C   UNL     1      11.337  -5.821  11.692  1.00  0.00     0.031 C 
ATOM     50  C   UNL     1      12.167  -2.708   5.599  1.00  0.00     0.029 A 
ATOM     51  C   UNL     1      13.273  -2.563   6.540  1.00  0.00     0.049 A 
ATOM     52  H   UNL     1      13.451  -3.423   8.429  1.00  0.00     0.167 HD
ATOM     53  C   UNL     1      13.515  -4.992  12.526  1.00  0.00     0.037 A 
ATOM     54  C   UNL     1      14.384  -1.833   6.332  1.00  0.00     0.037 A 
ATOM     55  C   UNL     1      14.773  -4.314  12.364  1.00  0.00     0.049 A 
ATOM     56  C   UNL     1      15.442  -1.789   7.398  1.00  0.00     0.074 A 
ATOM     57  C   UNL     1      15.827  -4.220  13.256  1.00  0.00     0.029 A 
ATOM     58  N   UNL     1      15.150  -3.620  11.223  1.00  0.00    -0.354 N 
ATOM     59  N   UNL     1      15.433  -2.333   8.591  1.00  0.00    -0.248 NA
ATOM     60  C   UNL     1      16.667  -1.040   7.087  1.00  0.00     0.031 C 
ATOM     61  C   UNL     1      16.832  -3.448  12.663  1.00  0.00     0.029 A 
ATOM     62  C   UNL     1      16.419  -3.091  11.389  1.00  0.00     0.049 A 
ATOM     63  H   UNL     1      14.597  -3.519  10.415  1.00  0.00     0.167 HD
ATOM     64  C   UNL     1      16.656  -2.011   9.165  1.00  0.00     0.074 A 
ATOM     65  C   UNL     1      17.387  -1.236   8.183  1.00  0.00     0.031 C 
ATOM     66  C   UNL     1      17.130  -2.327  10.395  1.00  0.00     0.037 A 
BRANCH  53  67
ATOM     67  C   UNL     1      13.207  -5.647  13.843  1.00  0.00     0.057 A 
ATOM     68  C   UNL     1      13.137  -7.041  13.976  1.00  0.00     0.134 A 
ATOM     69  C   UNL     1      12.960  -4.878  14.987  1.00  0.00     0.134 A 
ATOM     70  F   UNL     1      13.348  -7.837  12.916  1.00  0.00    -0.206 F 
ATOM     71  C   UNL     1      12.787  -7.644  15.185  1.00  0.00     0.040 A 
ATOM     72  C   UNL     1      12.640  -5.471  16.210  1.00  0.00     0.040 A 
ATOM     73  F   UNL     1      13.018  -3.539  14.934  1.00  0.00    -0.206 F 
ATOM     74  C   UNL     1      12.540  -6.858  16.308  1.00  0.00     0.006 A 
ENDBRANCH  53  67
BRANCH  54  75
ATOM     75  C   UNL     1      14.570  -1.128   5.039  1.00  0.00     0.057 A 
ATOM     76  C   UNL     1      15.475  -1.606   4.085  1.00  0.00     0.134 A 
ATOM     77  C   UNL     1      13.832   0.016   4.713  1.00  0.00     0.134 A 
ATOM     78  F   UNL     1      16.222  -2.689   4.346  1.00  0.00    -0.206 F 
ATOM     79  C   UNL     1      15.649  -0.967   2.856  1.00  0.00     0.040 A 
ATOM     80  C   UNL     1      13.980   0.653   3.480  1.00  0.00     0.040 A 
ATOM     81  F   UNL     1      12.941   0.516   5.581  1.00  0.00    -0.206 F 
ATOM     82  C   UNL     1      14.894   0.164   2.548  1.00  0.00     0.006 A 
ENDBRANCH  54  75
BRANCH  66  83
ATOM     83  C   UNL     1      18.512  -1.857  10.736  1.00  0.00     0.057 A 
ATOM     84  C   UNL     1      18.781  -0.517  11.037  1.00  0.00     0.134 A 
ATOM     85  C   UNL     1      19.575  -2.766  10.809  1.00  0.00     0.134 A 
ATOM     86  F   UNL     1      17.807   0.404  10.972  1.00  0.00    -0.206 F 
ATOM     87  C   UNL     1      20.065  -0.093  11.383  1.00  0.00     0.040 A 
ATOM     88  C   UNL     1      20.857  -2.358  11.176  1.00  0.00     0.040 A 
ATOM     89  F   UNL     1      19.379  -4.066  10.540  1.00  0.00    -0.206 F 
ATOM     90  C   UNL     1      21.106  -1.017  11.460  1.00  0.00     0.006 A 
ENDBRANCH  66  83
ENDBRANCH  40  41
ENDBRANCH  32  35
ENDBRANCH  30  31
ENDBRANCH  29  30
ENDBRANCH   1  29
TORSDOF 16
