REMARK SMILES C=CCN(CC(=O)NCCCNC(=O)c1ccc(-c2c3nc(c(-c4c(F)cccc4F)c4ccc([nH]4)c(-c4c(F)cccc4F)c4nc(c(-c5c(F)cccc5F)c5ccc2[nH]5)C=C4)C=C3)cc1)C(=O)c1cc(OC)ccc1Br
REMARK SMILES IDX 9 1 8 2 6 3 7 4 5 6 4 7 3 8 2 9 1 10 69 11 70 12 71 13 72 14
REMARK SMILES IDX 78 15 73 16 77 17 79 18 76 19 74 20 75 21 10 22 11 23 12 24
REMARK SMILES IDX 13 25 14 27 15 28 16 29 68 30 17 31 67 32 18 33 19 34 20 35
REMARK SMILES IDX 61 36 21 37 66 38 60 39 62 40 22 41 65 42 59 43 58 44 23 46
REMARK SMILES IDX 49 47 32 48 48 49 33 50 36 51 47 52 63 53 34 54 35 55 46 57
REMARK SMILES IDX 64 58 37 59 24 60 25 61 30 62 26 63 27 64 29 65 31 66 28 67
REMARK SMILES IDX 50 68 51 69 56 70 52 71 53 72 55 73 57 74 54 75 38 76 39 77
REMARK SMILES IDX 44 78 40 79 41 80 43 81 45 82 42 83
REMARK H PARENT 8 5 12 26 62 45 36 56
REMARK Flexibility Score: inf
ROOT
ATOM      1  C   UNL     1      -4.461  -1.222  -0.625  1.00  0.00     0.117 C 
ENDROOT
BRANCH   1   2
ATOM      2  N   UNL     1      -4.730  -1.191  -2.049  1.00  0.00    -0.354 N 
ATOM      3  C   UNL     1      -3.901  -1.294  -3.127  1.00  0.00     0.239 C 
ATOM      4  O   UNL     1      -4.438  -1.498  -4.222  1.00  0.00    -0.273 OA
ATOM      5  H   UNL     1      -5.680  -1.074  -2.279  1.00  0.00     0.163 HD
BRANCH   3   6
ATOM      6  C   UNL     1      -2.366  -1.287  -3.015  1.00  0.00     0.220 C 
BRANCH   6   7
ATOM      7  N   UNL     1      -1.767  -0.142  -2.316  1.00  0.00    -0.326 N 
BRANCH   7   8
ATOM      8  C   UNL     1      -1.111  -0.396  -1.038  1.00  0.00     0.147 C 
BRANCH   8   9
ATOM      9  C   UNL     1       0.351  -0.660  -1.238  1.00  0.00    -0.014 C 
ATOM     10  C   UNL     1       1.308  -0.061  -0.514  1.00  0.00     0.006 C 
ENDBRANCH   8   9
ENDBRANCH   7   8
BRANCH   7  11
ATOM     11  C   UNL     1      -1.669   1.145  -2.857  1.00  0.00     0.255 C 
ATOM     12  O   UNL     1      -1.189   2.102  -2.244  1.00  0.00    -0.269 OA
BRANCH  11  13
ATOM     13  C   UNL     1      -2.098   1.397  -4.249  1.00  0.00     0.057 A 
ATOM     14  C   UNL     1      -1.099   1.448  -5.233  1.00  0.00     0.061 A 
ATOM     15  C   UNL     1      -3.413   1.722  -4.593  1.00  0.00     0.031 A 
ATOM     16  C   UNL     1      -1.434   1.772  -6.551  1.00  0.00     0.119 A 
ATOM     17  C   UNL     1      -3.759   1.911  -5.933  1.00  0.00     0.020 A 
ATOM     18  Br  UNL     1      -4.756   2.089  -3.317  1.00  0.00    -0.050 Br
ATOM     19  C   UNL     1      -2.771   1.922  -6.914  1.00  0.00     0.047 A 
BRANCH  16  20
ATOM     20  O   UNL     1      -0.395   1.940  -7.427  1.00  0.00    -0.497 OA
ATOM     21  C   UNL     1      -0.600   3.011  -8.353  1.00  0.00     0.278 C 
ENDBRANCH  16  20
ENDBRANCH  11  13
ENDBRANCH   7  11
ENDBRANCH   6   7
ENDBRANCH   3   6
ENDBRANCH   1   2
BRANCH   1  22
ATOM     22  C   UNL     1      -4.322   0.152   0.025  1.00  0.00     0.042 C 
BRANCH  22  23
ATOM     23  C   UNL     1      -5.583   1.011   0.050  1.00  0.00     0.118 C 
BRANCH  23  24
ATOM     24  N   UNL     1      -6.640   0.490   0.895  1.00  0.00    -0.352 N 
ATOM     25  C   UNL     1      -7.392   1.091   1.869  1.00  0.00     0.251 C 
ATOM     26  H   UNL     1      -6.853  -0.460   0.744  1.00  0.00     0.163 HD
ATOM     27  O   UNL     1      -8.229   0.403   2.466  1.00  0.00    -0.269 OA
BRANCH  25  28
ATOM     28  C   UNL     1      -7.221   2.512   2.263  1.00  0.00     0.039 A 
ATOM     29  C   UNL     1      -7.361   2.824   3.621  1.00  0.00     0.014 A 
ATOM     30  C   UNL     1      -6.999   3.547   1.349  1.00  0.00     0.014 A 
ATOM     31  C   UNL     1      -7.238   4.143   4.065  1.00  0.00     0.010 A 
ATOM     32  C   UNL     1      -6.813   4.860   1.800  1.00  0.00     0.010 A 
ATOM     33  C   UNL     1      -6.940   5.173   3.162  1.00  0.00    -0.014 A 
BRANCH  33  34
ATOM     34  C   UNL     1      -6.778   6.571   3.646  1.00  0.00     0.031 A 
ATOM     35  C   UNL     1      -7.775   7.635   3.273  1.00  0.00     0.074 A 
ATOM     36  C   UNL     1      -5.724   6.892   4.423  1.00  0.00     0.049 A 
ATOM     37  N   UNL     1      -7.802   8.899   3.615  1.00  0.00    -0.248 NA
ATOM     38  C   UNL     1      -8.879   7.229   2.391  1.00  0.00     0.031 C 
ATOM     39  C   UNL     1      -4.663   5.970   4.830  1.00  0.00     0.029 A 
ATOM     40  N   UNL     1      -5.375   8.083   5.011  1.00  0.00    -0.354 N 
ATOM     41  C   UNL     1      -8.914   9.441   2.982  1.00  0.00     0.074 A 
ATOM     42  C   UNL     1      -9.513   8.378   2.204  1.00  0.00     0.031 C 
ATOM     43  C   UNL     1      -3.796   6.622   5.622  1.00  0.00     0.029 A 
ATOM     44  C   UNL     1      -4.224   8.012   5.758  1.00  0.00     0.049 A 
ATOM     45  H   UNL     1      -5.899   8.909   4.907  1.00  0.00     0.167 HD
ATOM     46  C   UNL     1      -9.404  10.702   3.056  1.00  0.00     0.037 A 
ATOM     47  C   UNL     1      -3.587   8.957   6.474  1.00  0.00     0.037 A 
ATOM     48  C   UNL     1      -8.831  11.757   3.850  1.00  0.00     0.049 A 
ATOM     49  C   UNL     1      -4.154  10.346   6.546  1.00  0.00     0.074 A 
ATOM     50  C   UNL     1      -9.295  13.050   4.031  1.00  0.00     0.029 A 
ATOM     51  N   UNL     1      -7.668  11.642   4.595  1.00  0.00    -0.354 N 
ATOM     52  N   UNL     1      -5.241  10.824   5.992  1.00  0.00    -0.248 NA
ATOM     53  C   UNL     1      -3.409  11.326   7.350  1.00  0.00     0.031 C 
ATOM     54  C   UNL     1      -8.395  13.726   4.863  1.00  0.00     0.029 A 
ATOM     55  C   UNL     1      -7.390  12.845   5.224  1.00  0.00     0.049 A 
ATOM     56  H   UNL     1      -7.121  10.827   4.666  1.00  0.00     0.167 HD
ATOM     57  C   UNL     1      -5.320  12.150   6.394  1.00  0.00     0.074 A 
ATOM     58  C   UNL     1      -4.181  12.399   7.252  1.00  0.00     0.031 C 
ATOM     59  C   UNL     1      -6.255  13.080   6.078  1.00  0.00     0.037 A 
BRANCH  46  60
ATOM     60  C   UNL     1     -10.636  11.009   2.258  1.00  0.00     0.057 A 
ATOM     61  C   UNL     1     -11.897  10.536   2.640  1.00  0.00     0.134 A 
ATOM     62  C   UNL     1     -10.566  11.818   1.116  1.00  0.00     0.134 A 
ATOM     63  F   UNL     1     -12.029   9.748   3.719  1.00  0.00    -0.206 F 
ATOM     64  C   UNL     1     -13.044  10.836   1.903  1.00  0.00     0.040 A 
ATOM     65  C   UNL     1     -11.709  12.143   0.383  1.00  0.00     0.040 A 
ATOM     66  F   UNL     1      -9.390  12.310   0.700  1.00  0.00    -0.206 F 
ATOM     67  C   UNL     1     -12.952  11.647   0.774  1.00  0.00     0.006 A 
ENDBRANCH  46  60
BRANCH  47  68
ATOM     68  C   UNL     1      -2.344   8.616   7.208  1.00  0.00     0.057 A 
ATOM     69  C   UNL     1      -2.337   8.511   8.604  1.00  0.00     0.134 A 
ATOM     70  C   UNL     1      -1.135   8.400   6.537  1.00  0.00     0.134 A 
ATOM     71  F   UNL     1      -3.461   8.728   9.302  1.00  0.00    -0.206 F 
ATOM     72  C   UNL     1      -1.168   8.218   9.308  1.00  0.00     0.040 A 
ATOM     73  C   UNL     1       0.037   8.087   7.227  1.00  0.00     0.040 A 
ATOM     74  F   UNL     1      -1.079   8.486   5.200  1.00  0.00    -0.206 F 
ATOM     75  C   UNL     1       0.023   8.001   8.618  1.00  0.00     0.006 A 
ENDBRANCH  47  68
BRANCH  59  76
ATOM     76  C   UNL     1      -6.094  14.443   6.681  1.00  0.00     0.057 A 
ATOM     77  C   UNL     1      -5.127  15.342   6.217  1.00  0.00     0.134 A 
ATOM     78  C   UNL     1      -6.933  14.869   7.718  1.00  0.00     0.134 A 
ATOM     79  F   UNL     1      -4.284  14.988   5.235  1.00  0.00    -0.206 F 
ATOM     80  C   UNL     1      -4.987  16.614   6.776  1.00  0.00     0.040 A 
ATOM     81  C   UNL     1      -6.816  16.145   8.272  1.00  0.00     0.040 A 
ATOM     82  F   UNL     1      -7.883  14.056   8.204  1.00  0.00    -0.206 F 
ATOM     83  C   UNL     1      -5.837  17.019   7.803  1.00  0.00     0.006 A 
ENDBRANCH  59  76
ENDBRANCH  33  34
ENDBRANCH  25  28
ENDBRANCH  23  24
ENDBRANCH  22  23
ENDBRANCH   1  22
TORSDOF 16
