REMARK SMILES CC1(C)O[C@@H]2C[C@@H]3[C@H]4CCC5=CC(=O)C=C[C@@]5(C)[C@]4(F)[C@H](O)C[C@]3(C)[C@]2(C(=O)NCCCNC(=O)c2ccc(-c3c4nc(c(-c5c(F)cccc5F)c5ccc([nH]5)c(-c5c(F)cccc5F)c5nc(c(-c6c(F)cccc6F)c6ccc3[nH]6)C=C5)C=C4)cc2)O1
REMARK SMILES IDX 31 1 30 2 29 3 27 4 28 5 26 7 1 8 2 9 4 10 90 11 3 12 5 13
REMARK SMILES IDX 6 14 24 15 7 16 23 17 25 18 8 19 21 20 9 21 19 22 10 23
REMARK SMILES IDX 17 24 20 25 11 26 16 27 18 28 12 29 15 30 13 31 14 32 22 33
REMARK SMILES IDX 32 35 33 36 34 37 35 39 36 40 37 41 89 42 38 43 88 44 39 45
REMARK SMILES IDX 40 46 41 47 82 48 42 49 87 50 81 51 83 52 43 53 86 54 80 55
REMARK SMILES IDX 79 56 44 58 70 59 53 60 69 61 54 62 57 63 68 64 84 65 55 66
REMARK SMILES IDX 56 67 67 69 85 70 58 71 45 72 46 73 51 74 47 75 48 76 50 77
REMARK SMILES IDX 52 78 49 79 71 80 72 81 77 82 73 83 74 84 76 85 78 86 75 87
REMARK SMILES IDX 59 88 60 89 65 90 61 91 62 92 64 93 66 94 63 95
REMARK H PARENT 29 6 22 34 33 38 83 57 57 68
REMARK Flexibility Score: inf
ROOT
ATOM      1  C   UNL     1       0.295   4.117   4.268  1.00  0.00     0.042 C 
ENDROOT
BRANCH   1   2
ATOM      2  C   UNL     1       0.581   5.067   3.114  1.00  0.00     0.117 C 
BRANCH   2   3
ATOM      3  N   UNL     1       1.769   4.646   2.416  1.00  0.00    -0.353 N 
ATOM      4  C   UNL     1       1.941   3.864   1.330  1.00  0.00     0.255 C 
ATOM      5  O   UNL     1       3.106   3.472   1.164  1.00  0.00    -0.272 OA
ATOM      6  H   UNL     1       2.607   4.990   2.801  1.00  0.00     0.163 HD
BRANCH   4   7
ATOM      7  C   UNL     1       0.860   3.581   0.278  1.00  0.00     0.181 C 
ATOM      8  C   UNL     1       0.910   0.361   1.140  1.00  0.00     0.075 C 
ATOM      9  C   UNL     1       0.292   1.301   0.113  1.00  0.00     0.164 C 
ATOM     10  O   UNL     1      -0.852   1.947   0.681  1.00  0.00    -0.344 OA
ATOM     11  O   UNL     1       1.280   2.279  -0.246  1.00  0.00    -0.331 OA
ATOM     12  C   UNL     1      -0.153   0.501  -1.123  1.00  0.00     0.075 C 
ATOM     13  C   UNL     1      -0.665   3.360   0.527  1.00  0.00     0.164 C 
ATOM     14  C   UNL     1      -1.415   3.874  -0.793  1.00  0.00     0.040 C 
ATOM     15  C   UNL     1       0.867   4.684  -0.870  1.00  0.00     0.014 C 
ATOM     16  C   UNL     1      -0.225   4.028  -1.759  1.00  0.00     0.008 C 
ATOM     17  C   UNL     1       2.162   5.036  -1.634  1.00  0.00     0.046 C 
ATOM     18  C   UNL     1       0.433   6.055  -0.254  1.00  0.00     0.015 C 
ATOM     19  C   UNL     1       0.098   3.485  -3.170  1.00  0.00     0.035 C 
ATOM     20  C   UNL     1       2.518   4.198  -2.853  1.00  0.00     0.154 C 
ATOM     21  C   UNL     1      -1.115   3.317  -4.072  1.00  0.00     0.012 C 
ATOM     22  C   UNL     1       1.330   4.072  -3.866  1.00  0.00     0.152 C 
ATOM     23  C   UNL     1      -0.765   2.262  -5.118  1.00  0.00     0.032 C 
ATOM     24  C   UNL     1       1.676   3.210  -5.171  1.00  0.00     0.044 C 
ATOM     25  F   UNL     1       0.976   5.343  -4.251  1.00  0.00    -0.239 F 
ATOM     26  C   UNL     1       0.443   2.662  -5.919  1.00  0.00    -0.053 C 
ATOM     27  C   UNL     1       2.512   4.031  -6.154  1.00  0.00    -0.009 C 
ATOM     28  C   UNL     1       2.559   1.966  -4.838  1.00  0.00     0.024 C 
ATOM     29  C   UNL     1       0.475   2.422  -7.244  1.00  0.00     0.052 C 
ATOM     30  C   UNL     1       2.688   3.616  -7.421  1.00  0.00     0.048 C 
ATOM     31  C   UNL     1       1.708   2.683  -8.022  1.00  0.00     0.178 C 
ATOM     32  O   UNL     1       1.880   2.197  -9.131  1.00  0.00    -0.290 OA
BRANCH  20  33
ATOM     33  O   UNL     1       3.001   2.950  -2.373  1.00  0.00    -0.390 OA
ATOM     34  H   UNL     1       2.310   2.515  -1.850  1.00  0.00     0.211 HD
ENDBRANCH  20  33
ENDBRANCH   4   7
ENDBRANCH   2   3
ENDBRANCH   1   2
BRANCH   1  35
ATOM     35  C   UNL     1       1.337   4.248   5.375  1.00  0.00     0.118 C 
BRANCH  35  36
ATOM     36  N   UNL     1       1.342   5.594   5.945  1.00  0.00    -0.352 N 
ATOM     37  C   UNL     1       0.938   6.005   7.183  1.00  0.00     0.251 C 
ATOM     38  H   UNL     1       1.684   6.303   5.354  1.00  0.00     0.163 HD
ATOM     39  O   UNL     1       0.696   7.199   7.394  1.00  0.00    -0.269 OA
BRANCH  37  40
ATOM     40  C   UNL     1       0.794   5.015   8.259  1.00  0.00     0.039 A 
ATOM     41  C   UNL     1      -0.327   5.055   9.089  1.00  0.00     0.014 A 
ATOM     42  C   UNL     1       1.772   4.030   8.425  1.00  0.00     0.014 A 
ATOM     43  C   UNL     1      -0.507   4.051  10.039  1.00  0.00     0.010 A 
ATOM     44  C   UNL     1       1.548   2.985   9.309  1.00  0.00     0.010 A 
ATOM     45  C   UNL     1       0.404   2.984  10.119  1.00  0.00    -0.014 A 
BRANCH  45  46
ATOM     46  C   UNL     1       0.168   1.833  11.022  1.00  0.00     0.031 A 
ATOM     47  C   UNL     1       1.143   1.527  12.121  1.00  0.00     0.074 A 
ATOM     48  C   UNL     1      -0.877   1.017  10.786  1.00  0.00     0.049 A 
ATOM     49  N   UNL     1       1.167   0.509  12.942  1.00  0.00    -0.248 NA
ATOM     50  C   UNL     1       2.255   2.475  12.304  1.00  0.00     0.031 C 
ATOM     51  C   UNL     1      -1.857   1.186   9.710  1.00  0.00     0.029 A 
ATOM     52  N   UNL     1      -1.278  -0.130  11.422  1.00  0.00    -0.354 N 
ATOM     53  C   UNL     1       2.295   0.691  13.732  1.00  0.00     0.074 A 
ATOM     54  C   UNL     1       2.963   1.880  13.253  1.00  0.00     0.031 C 
ATOM     55  C   UNL     1      -2.753   0.189   9.771  1.00  0.00     0.029 A 
ATOM     56  C   UNL     1      -2.385  -0.714  10.855  1.00  0.00     0.049 A 
ATOM     57  H   UNL     1      -0.816  -0.499  12.209  1.00  0.00     0.167 HD
ATOM     58  C   UNL     1       2.718  -0.055  14.779  1.00  0.00     0.037 A 
ATOM     59  C   UNL     1      -3.017  -1.862  11.162  1.00  0.00     0.037 A 
ATOM     60  C   UNL     1       2.041  -1.233  15.253  1.00  0.00     0.049 A 
ATOM     61  C   UNL     1      -2.506  -2.692  12.306  1.00  0.00     0.074 A 
ATOM     62  C   UNL     1       2.355  -2.029  16.340  1.00  0.00     0.029 A 
ATOM     63  N   UNL     1       0.916  -1.789  14.661  1.00  0.00    -0.354 N 
ATOM     64  N   UNL     1      -1.484  -2.467  13.097  1.00  0.00    -0.248 NA
ATOM     65  C   UNL     1      -3.232  -3.934  12.602  1.00  0.00     0.031 C 
ATOM     66  C   UNL     1       1.453  -3.097  16.373  1.00  0.00     0.029 A 
ATOM     67  C   UNL     1       0.544  -2.937  15.339  1.00  0.00     0.049 A 
ATOM     68  H   UNL     1       0.451  -1.421  13.874  1.00  0.00     0.167 HD
ATOM     69  C   UNL     1      -1.454  -3.528  13.991  1.00  0.00     0.074 A 
ATOM     70  C   UNL     1      -2.575  -4.384  13.661  1.00  0.00     0.031 C 
ATOM     71  C   UNL     1      -0.575  -3.777  14.992  1.00  0.00     0.037 A 
BRANCH  58  72
ATOM     72  C   UNL     1       3.968   0.385  15.484  1.00  0.00     0.057 A 
ATOM     73  C   UNL     1       4.006   1.555  16.256  1.00  0.00     0.134 A 
ATOM     74  C   UNL     1       5.136  -0.386  15.424  1.00  0.00     0.134 A 
ATOM     75  F   UNL     1       2.926   2.345  16.347  1.00  0.00    -0.206 F 
ATOM     76  C   UNL     1       5.167   1.954  16.920  1.00  0.00     0.040 A 
ATOM     77  C   UNL     1       6.294  -0.012  16.108  1.00  0.00     0.040 A 
ATOM     78  F   UNL     1       5.168  -1.520  14.707  1.00  0.00    -0.206 F 
ATOM     79  C   UNL     1       6.313   1.165  16.853  1.00  0.00     0.006 A 
ENDBRANCH  58  72
BRANCH  59  80
ATOM     80  C   UNL     1      -4.196  -2.296  10.370  1.00  0.00     0.057 A 
ATOM     81  C   UNL     1      -5.478  -2.321  10.932  1.00  0.00     0.134 A 
ATOM     82  C   UNL     1      -4.070  -2.702   9.035  1.00  0.00     0.134 A 
ATOM     83  F   UNL     1      -5.661  -1.959  12.210  1.00  0.00    -0.206 F 
ATOM     84  C   UNL     1      -6.587  -2.754  10.204  1.00  0.00     0.040 A 
ATOM     85  C   UNL     1      -5.175  -3.110   8.287  1.00  0.00     0.040 A 
ATOM     86  F   UNL     1      -2.872  -2.692   8.434  1.00  0.00    -0.206 F 
ATOM     87  C   UNL     1      -6.438  -3.146   8.875  1.00  0.00     0.006 A 
ENDBRANCH  59  80
BRANCH  71  88
ATOM     88  C   UNL     1      -0.796  -5.016  15.809  1.00  0.00     0.057 A 
ATOM     89  C   UNL     1      -0.543  -6.293  15.291  1.00  0.00     0.134 A 
ATOM     90  C   UNL     1      -1.212  -4.929  17.143  1.00  0.00     0.134 A 
ATOM     91  F   UNL     1      -0.156  -6.445  14.016  1.00  0.00    -0.206 F 
ATOM     92  C   UNL     1      -0.713  -7.440  16.068  1.00  0.00     0.040 A 
ATOM     93  C   UNL     1      -1.357  -6.066  17.938  1.00  0.00     0.040 A 
ATOM     94  F   UNL     1      -1.462  -3.735  17.703  1.00  0.00    -0.206 F 
ATOM     95  C   UNL     1      -1.111  -7.327  17.398  1.00  0.00     0.006 A 
ENDBRANCH  71  88
ENDBRANCH  45  46
ENDBRANCH  37  40
ENDBRANCH  35  36
ENDBRANCH   1  35
TORSDOF 11
