REMARK SMILES C/C(=N\NC(N)=S)c1nnn(-c2ccc(C(=O)NCCCNC(=O)c3ccc(-c4c5nc(c(-c6c(F)cccc6F)c6ccc([nH]6)c(-c6c(F)cccc6F)c6nc(c(-c7c(F)cccc7F)c7ccc4[nH]7)C=C6)C=C5)cc3)cc2)c1C
REMARK SMILES IDX 16 1 17 2 18 3 15 5 12 6 13 7 80 8 14 9 79 10 11 11 8 12
REMARK SMILES IDX 9 13 81 14 10 15 82 16 2 17 1 18 3 19 4 20 5 22 7 23 6 24
REMARK SMILES IDX 19 27 20 28 21 29 22 30 23 31 24 33 25 34 26 35 78 36 27 37
REMARK SMILES IDX 77 38 28 39 29 40 30 41 71 42 31 43 76 44 70 45 72 46 32 47
REMARK SMILES IDX 75 48 69 49 68 50 33 52 59 53 42 54 58 55 43 56 46 57 57 58
REMARK SMILES IDX 73 59 44 60 45 61 56 63 74 64 47 65 34 66 35 67 40 68 36 69
REMARK SMILES IDX 37 70 39 71 41 72 38 73 60 74 61 75 66 76 62 77 63 78 65 79
REMARK SMILES IDX 67 80 64 81 48 82 49 83 54 84 50 85 51 86 53 87 55 88 52 89
REMARK H PARENT 18 4 4 21 6 25 6 26 22 32 72 51 46 62
REMARK Flexibility Score: inf
ROOT
ATOM      1  C   UNL     1       6.878  -4.315   5.705  1.00  0.00     0.251 C 
ATOM      2  O   UNL     1       6.955  -5.532   5.865  1.00  0.00    -0.269 OA
ATOM      3  N   UNL     1       8.036  -3.574   5.798  1.00  0.00    -0.352 N 
ATOM      4  H   UNL     1       8.820  -4.089   6.097  1.00  0.00     0.163 HD
ENDROOT
BRANCH   1   5
ATOM      5  C   UNL     1       5.561  -3.708   5.360  1.00  0.00     0.039 A 
ATOM      6  C   UNL     1       3.194  -2.583   4.413  1.00  0.00     0.067 A 
ATOM      7  C   UNL     1       3.396  -3.958   4.271  1.00  0.00     0.029 A 
ATOM      8  C   UNL     1       4.089  -1.796   5.126  1.00  0.00     0.029 A 
ATOM      9  C   UNL     1       4.599  -4.511   4.723  1.00  0.00     0.016 A 
ATOM     10  C   UNL     1       5.240  -2.378   5.636  1.00  0.00     0.016 A 
BRANCH   6  11
ATOM     11  N   UNL     1       2.140  -1.950   3.739  1.00  0.00    -0.217 N 
ATOM     12  C   UNL     1       0.949  -0.783   2.355  1.00  0.00     0.132 A 
ATOM     13  N   UNL     1       0.121  -1.628   3.047  1.00  0.00    -0.128 NA
ATOM     14  C   UNL     1       2.252  -0.967   2.772  1.00  0.00     0.071 A 
ATOM     15  N   UNL     1       0.869  -2.381   3.840  1.00  0.00    -0.061 NA
ATOM     16  C   UNL     1       3.531  -0.471   2.207  1.00  0.00     0.069 C 
BRANCH  12  17
ATOM     17  C   UNL     1       0.497  -0.077   1.173  1.00  0.00     0.087 C 
ATOM     18  C   UNL     1       0.486  -0.901  -0.086  1.00  0.00     0.071 C 
ATOM     19  N   UNL     1       0.130   1.158   1.347  1.00  0.00    -0.176 NA
BRANCH  19  20
ATOM     20  N   UNL     1      -0.411   1.896   0.333  1.00  0.00    -0.254 N 
ATOM     21  H   UNL     1      -1.336   2.199   0.477  1.00  0.00     0.193 HD
BRANCH  20  22
ATOM     22  C   UNL     1       0.157   2.277  -0.866  1.00  0.00     0.184 C 
ATOM     23  S   UNL     1       1.668   1.953  -1.478  1.00  0.00    -0.040 S 
BRANCH  22  24
ATOM     24  N   UNL     1      -0.701   3.035  -1.619  1.00  0.00    -0.375 N 
ATOM     25  H   UNL     1      -1.602   3.241  -1.280  1.00  0.00     0.159 HD
ATOM     26  H   UNL     1      -0.416   3.373  -2.499  1.00  0.00     0.159 HD
ENDBRANCH  22  24
ENDBRANCH  20  22
ENDBRANCH  19  20
ENDBRANCH  12  17
ENDBRANCH   6  11
ENDBRANCH   1   5
BRANCH   3  27
ATOM     27  C   UNL     1       8.313  -2.166   5.534  1.00  0.00     0.118 C 
BRANCH  27  28
ATOM     28  C   UNL     1       8.239  -1.308   6.806  1.00  0.00     0.042 C 
BRANCH  28  29
ATOM     29  C   UNL     1       9.542  -1.291   7.576  1.00  0.00     0.118 C 
BRANCH  29  30
ATOM     30  N   UNL     1      10.583  -0.512   6.903  1.00  0.00    -0.352 N 
ATOM     31  C   UNL     1      11.899  -0.319   7.290  1.00  0.00     0.251 C 
ATOM     32  H   UNL     1      10.312  -0.068   6.067  1.00  0.00     0.163 HD
ATOM     33  O   UNL     1      12.556   0.605   6.851  1.00  0.00    -0.269 OA
BRANCH  31  34
ATOM     34  C   UNL     1      12.486  -1.268   8.252  1.00  0.00     0.039 A 
ATOM     35  C   UNL     1      13.341  -0.853   9.278  1.00  0.00     0.014 A 
ATOM     36  C   UNL     1      12.116  -2.600   8.130  1.00  0.00     0.014 A 
ATOM     37  C   UNL     1      13.754  -1.788  10.226  1.00  0.00     0.010 A 
ATOM     38  C   UNL     1      12.330  -3.450   9.174  1.00  0.00     0.010 A 
ATOM     39  C   UNL     1      13.228  -3.085  10.170  1.00  0.00    -0.014 A 
BRANCH  39  40
ATOM     40  C   UNL     1      13.512  -4.090  11.185  1.00  0.00     0.031 A 
ATOM     41  C   UNL     1      13.094  -3.713  12.563  1.00  0.00     0.074 A 
ATOM     42  C   UNL     1      13.827  -5.356  10.827  1.00  0.00     0.049 A 
ATOM     43  N   UNL     1      13.834  -3.586  13.615  1.00  0.00    -0.248 NA
ATOM     44  C   UNL     1      11.696  -3.292  12.771  1.00  0.00     0.031 C 
ATOM     45  C   UNL     1      13.936  -5.911   9.467  1.00  0.00     0.029 A 
ATOM     46  N   UNL     1      13.970  -6.463  11.601  1.00  0.00    -0.354 N 
ATOM     47  C   UNL     1      12.959  -3.296  14.662  1.00  0.00     0.074 A 
ATOM     48  C   UNL     1      11.716  -2.915  14.050  1.00  0.00     0.031 C 
ATOM     49  C   UNL     1      13.867  -7.258   9.516  1.00  0.00     0.029 A 
ATOM     50  C   UNL     1      13.895  -7.668  10.905  1.00  0.00     0.049 A 
ATOM     51  H   UNL     1      14.114  -6.418  12.574  1.00  0.00     0.167 HD
ATOM     52  C   UNL     1      13.248  -3.673  15.940  1.00  0.00     0.037 A 
ATOM     53  C   UNL     1      13.827  -8.911  11.443  1.00  0.00     0.037 A 
ATOM     54  C   UNL     1      14.652  -3.981  16.076  1.00  0.00     0.049 A 
ATOM     55  C   UNL     1      14.271  -8.799  12.854  1.00  0.00     0.074 A 
ATOM     56  C   UNL     1      15.827  -3.286  15.862  1.00  0.00     0.029 A 
ATOM     57  N   UNL     1      15.011  -5.306  16.126  1.00  0.00    -0.354 N 
ATOM     58  N   UNL     1      15.495  -8.515  13.206  1.00  0.00    -0.248 NA
ATOM     59  C   UNL     1      13.254  -8.528  13.857  1.00  0.00     0.031 C 
ATOM     60  C   UNL     1      16.723  -4.245  15.302  1.00  0.00     0.029 A 
ATOM     61  C   UNL     1      16.074  -5.479  15.280  1.00  0.00     0.049 A 
ATOM     62  H   UNL     1      14.581  -6.005  16.670  1.00  0.00     0.167 HD
ATOM     63  C   UNL     1      15.361  -7.640  14.273  1.00  0.00     0.074 A 
ATOM     64  C   UNL     1      13.962  -7.754  14.685  1.00  0.00     0.031 C 
ATOM     65  C   UNL     1      16.308  -6.688  14.524  1.00  0.00     0.037 A 
BRANCH  52  66
ATOM     66  C   UNL     1      12.222  -4.172  16.939  1.00  0.00     0.057 A 
ATOM     67  C   UNL     1      12.653  -4.508  18.238  1.00  0.00     0.134 A 
ATOM     68  C   UNL     1      10.927  -4.628  16.614  1.00  0.00     0.134 A 
ATOM     69  F   UNL     1      13.859  -4.124  18.684  1.00  0.00    -0.206 F 
ATOM     70  C   UNL     1      11.909  -5.331  19.092  1.00  0.00     0.040 A 
ATOM     71  C   UNL     1      10.154  -5.408  17.480  1.00  0.00     0.040 A 
ATOM     72  F   UNL     1      10.366  -4.435  15.416  1.00  0.00    -0.206 F 
ATOM     73  C   UNL     1      10.661  -5.798  18.707  1.00  0.00     0.006 A 
ENDBRANCH  52  66
BRANCH  53  74
ATOM     74  C   UNL     1      13.151 -10.118  10.917  1.00  0.00     0.057 A 
ATOM     75  C   UNL     1      13.452 -11.393  11.415  1.00  0.00     0.134 A 
ATOM     76  C   UNL     1      12.005 -10.028  10.107  1.00  0.00     0.134 A 
ATOM     77  F   UNL     1      14.504 -11.575  12.227  1.00  0.00    -0.206 F 
ATOM     78  C   UNL     1      12.647 -12.509  11.148  1.00  0.00     0.040 A 
ATOM     79  C   UNL     1      11.195 -11.135   9.826  1.00  0.00     0.040 A 
ATOM     80  F   UNL     1      11.582  -8.847   9.634  1.00  0.00    -0.206 F 
ATOM     81  C   UNL     1      11.507 -12.379  10.360  1.00  0.00     0.006 A 
ENDBRANCH  53  74
BRANCH  65  82
ATOM     82  C   UNL     1      17.608  -6.771  13.769  1.00  0.00     0.057 A 
ATOM     83  C   UNL     1      17.724  -6.623  12.378  1.00  0.00     0.134 A 
ATOM     84  C   UNL     1      18.800  -6.845  14.494  1.00  0.00     0.134 A 
ATOM     85  F   UNL     1      16.647  -6.444  11.607  1.00  0.00    -0.206 F 
ATOM     86  C   UNL     1      18.966  -6.593  11.736  1.00  0.00     0.040 A 
ATOM     87  C   UNL     1      20.049  -6.782  13.870  1.00  0.00     0.040 A 
ATOM     88  F   UNL     1      18.772  -6.928  15.834  1.00  0.00    -0.206 F 
ATOM     89  C   UNL     1      20.135  -6.666  12.485  1.00  0.00     0.006 A 
ENDBRANCH  65  82
ENDBRANCH  39  40
ENDBRANCH  31  34
ENDBRANCH  29  30
ENDBRANCH  28  29
ENDBRANCH  27  28
ENDBRANCH   3  27
TORSDOF 15
