REMARK SMILES CCC1(CC)CCN(c2ccc(/C=C/C(=O)NCCCNC(=O)c3ccc(-c4c5nc(c(-c6c(F)cccc6F)c6ccc([nH]6)c(-c6c(F)cccc6F)c6nc(c(-c7c(F)cccc7F)c7ccc4[nH]7)C=C6)C=C5)cc3)cc2F)C1
REMARK SMILES IDX 18 1 17 2 15 3 16 4 14 6 13 7 12 8 9 9 10 10 79 11 11 12
REMARK SMILES IDX 78 13 80 14 8 15 3 16 6 17 81 18 7 19 2 20 1 21 4 22 5 23
REMARK SMILES IDX 19 24 20 25 21 26 22 27 23 29 24 30 25 31 77 32 26 33 76 34
REMARK SMILES IDX 27 35 28 36 29 37 70 38 30 39 75 40 69 41 71 42 31 43 74 44
REMARK SMILES IDX 68 45 67 46 32 48 58 49 41 50 57 51 42 52 45 53 56 54 72 55
REMARK SMILES IDX 43 56 44 57 55 59 73 60 46 61 33 62 34 63 39 64 35 65 36 66
REMARK SMILES IDX 38 67 40 68 37 69 59 70 60 71 65 72 61 73 62 74 64 75 66 76
REMARK SMILES IDX 63 77 47 78 48 79 53 80 49 81 50 82 52 83 54 84 51 85
REMARK H PARENT 17 5 21 28 71 47 45 58
REMARK Flexibility Score: inf
ROOT
ATOM      1  C   UNL     1       7.256 -10.437   2.825  1.00  0.00     0.118 C 
ENDROOT
BRANCH   1   2
ATOM      2  N   UNL     1       6.474 -11.402   2.072  1.00  0.00    -0.352 N 
ATOM      3  C   UNL     1       5.438 -11.222   1.210  1.00  0.00     0.244 C 
ATOM      4  O   UNL     1       4.987 -12.182   0.591  1.00  0.00    -0.270 OA
ATOM      5  H   UNL     1       6.737 -12.341   2.209  1.00  0.00     0.163 HD
BRANCH   3   6
ATOM      6  C   UNL     1       4.910  -9.869   0.939  1.00  0.00     0.072 C 
ATOM      7  C   UNL     1       4.536  -9.005   1.894  1.00  0.00     0.014 C 
BRANCH   7   8
ATOM      8  C   UNL     1       4.017  -7.666   1.599  1.00  0.00    -0.022 A 
ATOM      9  C   UNL     1       3.029  -5.044   1.103  1.00  0.00     0.073 A 
ATOM     10  C   UNL     1       2.567  -6.148   0.374  1.00  0.00     0.029 A 
ATOM     11  C   UNL     1       3.979  -5.299   2.105  1.00  0.00     0.147 A 
ATOM     12  C   UNL     1       3.054  -7.440   0.611  1.00  0.00     0.010 A 
ATOM     13  C   UNL     1       4.464  -6.583   2.358  1.00  0.00     0.049 A 
ATOM     14  F   UNL     1       4.415  -4.306   2.898  1.00  0.00    -0.205 F 
BRANCH   9  15
ATOM     15  N   UNL     1       2.499  -3.793   0.838  1.00  0.00    -0.369 N 
ATOM     16  C   UNL     1       0.990  -2.003   1.345  1.00  0.00    -0.011 C 
ATOM     17  C   UNL     1       2.433  -1.627   1.736  1.00  0.00     0.030 C 
ATOM     18  C   UNL     1       1.111  -3.554   1.253  1.00  0.00     0.123 C 
ATOM     19  C   UNL     1       3.294  -2.570   0.903  1.00  0.00     0.117 C 
BRANCH  16  20
ATOM     20  C   UNL     1       0.545  -1.454  -0.044  1.00  0.00     0.005 C 
ATOM     21  C   UNL     1       0.998  -0.045  -0.406  1.00  0.00     0.004 C 
ENDBRANCH  16  20
BRANCH  16  22
ATOM     22  C   UNL     1      -0.020  -1.649   2.465  1.00  0.00     0.005 C 
ATOM     23  C   UNL     1      -0.201  -0.169   2.760  1.00  0.00     0.004 C 
ENDBRANCH  16  22
ENDBRANCH   9  15
ENDBRANCH   7   8
ENDBRANCH   3   6
ENDBRANCH   1   2
BRANCH   1  24
ATOM     24  C   UNL     1       6.956 -10.515   4.320  1.00  0.00     0.042 C 
BRANCH  24  25
ATOM     25  C   UNL     1       7.504 -11.772   4.992  1.00  0.00     0.118 C 
BRANCH  25  26
ATOM     26  N   UNL     1       8.958 -11.777   5.045  1.00  0.00    -0.352 N 
ATOM     27  C   UNL     1       9.807 -11.910   6.113  1.00  0.00     0.251 C 
ATOM     28  H   UNL     1       9.403 -11.669   4.174  1.00  0.00     0.163 HD
ATOM     29  O   UNL     1      11.003 -11.677   5.959  1.00  0.00    -0.269 OA
BRANCH  27  30
ATOM     30  C   UNL     1       9.309 -12.322   7.445  1.00  0.00     0.039 A 
ATOM     31  C   UNL     1       9.886 -11.741   8.579  1.00  0.00     0.014 A 
ATOM     32  C   UNL     1       8.344 -13.322   7.593  1.00  0.00     0.014 A 
ATOM     33  C   UNL     1       9.473 -12.136   9.854  1.00  0.00     0.010 A 
ATOM     34  C   UNL     1       7.884 -13.668   8.864  1.00  0.00     0.010 A 
ATOM     35  C   UNL     1       8.455 -13.090  10.007  1.00  0.00    -0.014 A 
BRANCH  35  36
ATOM     36  C   UNL     1       8.002 -13.510  11.357  1.00  0.00     0.031 A 
ATOM     37  C   UNL     1       8.242 -14.916  11.835  1.00  0.00     0.074 A 
ATOM     38  C   UNL     1       7.355 -12.631  12.147  1.00  0.00     0.049 A 
ATOM     39  N   UNL     1       7.892 -15.476  12.965  1.00  0.00    -0.248 NA
ATOM     40  C   UNL     1       8.950 -15.819  10.913  1.00  0.00     0.031 C 
ATOM     41  C   UNL     1       7.037 -11.248  11.789  1.00  0.00     0.029 A 
ATOM     42  N   UNL     1       6.853 -12.770  13.416  1.00  0.00    -0.354 N 
ATOM     43  C   UNL     1       8.328 -16.793  12.887  1.00  0.00     0.074 A 
ATOM     44  C   UNL     1       8.922 -16.965  11.579  1.00  0.00     0.031 C 
ATOM     45  C   UNL     1       6.428 -10.655  12.827  1.00  0.00     0.029 A 
ATOM     46  C   UNL     1       6.282 -11.623  13.911  1.00  0.00     0.049 A 
ATOM     47  H   UNL     1       6.898 -13.612  13.925  1.00  0.00     0.167 HD
ATOM     48  C   UNL     1       8.263 -17.764  13.829  1.00  0.00     0.037 A 
ATOM     49  C   UNL     1       5.711 -11.376  15.105  1.00  0.00     0.037 A 
ATOM     50  C   UNL     1       7.696 -17.585  15.139  1.00  0.00     0.049 A 
ATOM     51  C   UNL     1       5.651 -12.470  16.133  1.00  0.00     0.074 A 
ATOM     52  C   UNL     1       7.606 -18.503  16.172  1.00  0.00     0.029 A 
ATOM     53  N   UNL     1       7.132 -16.406  15.602  1.00  0.00    -0.354 N 
ATOM     54  N   UNL     1       6.091 -13.703  16.054  1.00  0.00    -0.248 NA
ATOM     55  C   UNL     1       5.022 -12.138  17.420  1.00  0.00     0.031 C 
ATOM     56  C   UNL     1       6.962 -17.887  17.249  1.00  0.00     0.029 A 
ATOM     57  C   UNL     1       6.689 -16.574  16.903  1.00  0.00     0.049 A 
ATOM     58  H   UNL     1       7.058 -15.573  15.082  1.00  0.00     0.167 HD
ATOM     59  C   UNL     1       5.818 -14.284  17.285  1.00  0.00     0.074 A 
ATOM     60  C   UNL     1       5.184 -13.267  18.097  1.00  0.00     0.031 C 
ATOM     61  C   UNL     1       6.071 -15.548  17.703  1.00  0.00     0.037 A 
BRANCH  48  62
ATOM     62  C   UNL     1       8.836 -19.107  13.483  1.00  0.00     0.057 A 
ATOM     63  C   UNL     1       8.004 -20.218  13.299  1.00  0.00     0.134 A 
ATOM     64  C   UNL     1      10.219 -19.311  13.389  1.00  0.00     0.134 A 
ATOM     65  F   UNL     1       6.671 -20.094  13.382  1.00  0.00    -0.206 F 
ATOM     66  C   UNL     1       8.528 -21.487  13.043  1.00  0.00     0.040 A 
ATOM     67  C   UNL     1      10.754 -20.569  13.108  1.00  0.00     0.040 A 
ATOM     68  F   UNL     1      11.069 -18.285  13.543  1.00  0.00    -0.206 F 
ATOM     69  C   UNL     1       9.907 -21.664  12.943  1.00  0.00     0.006 A 
ENDBRANCH  48  62
BRANCH  49  70
ATOM     70  C   UNL     1       5.197 -10.018  15.409  1.00  0.00     0.057 A 
ATOM     71  C   UNL     1       4.043  -9.514  14.798  1.00  0.00     0.134 A 
ATOM     72  C   UNL     1       5.867  -9.184  16.312  1.00  0.00     0.134 A 
ATOM     73  F   UNL     1       3.361 -10.262  13.919  1.00  0.00    -0.206 F 
ATOM     74  C   UNL     1       3.581  -8.224  15.065  1.00  0.00     0.040 A 
ATOM     75  C   UNL     1       5.404  -7.901  16.604  1.00  0.00     0.040 A 
ATOM     76  F   UNL     1       6.969  -9.619  16.941  1.00  0.00    -0.206 F 
ATOM     77  C   UNL     1       4.260  -7.415  15.974  1.00  0.00     0.006 A 
ENDBRANCH  49  70
BRANCH  61  78
ATOM     78  C   UNL     1       5.696 -15.898  19.112  1.00  0.00     0.057 A 
ATOM     79  C   UNL     1       6.686 -16.098  20.082  1.00  0.00     0.134 A 
ATOM     80  C   UNL     1       4.364 -16.097  19.493  1.00  0.00     0.134 A 
ATOM     81  F   UNL     1       7.982 -15.933  19.778  1.00  0.00    -0.206 F 
ATOM     82  C   UNL     1       6.364 -16.493  21.381  1.00  0.00     0.040 A 
ATOM     83  C   UNL     1       4.028 -16.468  20.796  1.00  0.00     0.040 A 
ATOM     84  F   UNL     1       3.370 -15.911  18.612  1.00  0.00    -0.206 F 
ATOM     85  C   UNL     1       5.031 -16.675  21.742  1.00  0.00     0.006 A 
ENDBRANCH  61  78
ENDBRANCH  35  36
ENDBRANCH  27  30
ENDBRANCH  25  26
ENDBRANCH  24  25
ENDBRANCH   1  24
TORSDOF 14
