REMARK SMILES CCNC(=O)c1ccc(N(CC(=O)NCCCNC(=O)c2ccc(-c3c4nc(c(-c5c(F)cccc5F)c5ccc([nH]5)c(-c5c(F)cccc5F)c5nc(c(-c6c(F)cccc6F)c6ccc3[nH]6)C=C5)C=C4)cc2)C(C)(C)C)nn1
REMARK SMILES IDX 15 1 14 2 12 3 13 4 11 6 10 7 9 8 6 9 7 10 80 11 8 12 79 13
REMARK SMILES IDX 4 14 3 15 5 17 2 18 1 19 75 20 76 21 77 22 78 23 16 24 17 25
REMARK SMILES IDX 18 26 19 27 20 29 21 30 22 31 74 32 23 33 73 34 24 35 25 36
REMARK SMILES IDX 26 37 67 38 27 39 72 40 66 41 68 42 28 43 71 44 65 45 64 46
REMARK SMILES IDX 29 48 55 49 38 50 54 51 39 52 42 53 53 54 69 55 40 56 41 57
REMARK SMILES IDX 52 59 70 60 43 61 30 62 31 63 36 64 32 65 33 66 35 67 37 68
REMARK SMILES IDX 34 69 56 70 57 71 62 72 58 73 59 74 61 75 63 76 60 77 44 78
REMARK SMILES IDX 45 79 50 80 46 81 47 82 49 83 51 84 48 85
REMARK H PARENT 14 5 3 16 18 28 68 47 42 58
REMARK Flexibility Score: inf
ROOT
ATOM      1  C   UNL     1      -4.837  -1.729  -1.972  1.00  0.00     0.117 C 
ENDROOT
BRANCH   1   2
ATOM      2  N   UNL     1      -6.266  -1.505  -1.905  1.00  0.00    -0.354 N 
ATOM      3  C   UNL     1      -7.000  -0.450  -2.361  1.00  0.00     0.239 C 
ATOM      4  O   UNL     1      -8.229  -0.578  -2.345  1.00  0.00    -0.273 OA
ATOM      5  H   UNL     1      -6.784  -2.219  -1.466  1.00  0.00     0.163 HD
BRANCH   3   6
ATOM      6  C   UNL     1      -6.340   0.822  -2.918  1.00  0.00     0.218 C 
BRANCH   6   7
ATOM      7  N   UNL     1      -5.620   1.653  -1.904  1.00  0.00    -0.341 N 
BRANCH   7   8
ATOM      8  C   UNL     1      -4.255   1.819  -2.167  1.00  0.00     0.152 A 
ATOM      9  C   UNL     1      -1.506   1.880  -2.689  1.00  0.00     0.150 A 
ATOM     10  C   UNL     1      -2.018   2.678  -1.691  1.00  0.00     0.040 A 
ATOM     11  N   UNL     1      -2.316   1.135  -3.449  1.00  0.00    -0.143 NA
ATOM     12  C   UNL     1      -3.393   2.620  -1.424  1.00  0.00     0.051 A 
ATOM     13  N   UNL     1      -3.683   1.133  -3.182  1.00  0.00    -0.132 NA
BRANCH   9  14
ATOM     14  C   UNL     1      -0.052   1.780  -2.954  1.00  0.00     0.271 C 
ATOM     15  N   UNL     1       0.826   1.513  -1.925  1.00  0.00    -0.351 N 
ATOM     16  H   UNL     1       1.779   1.561  -2.166  1.00  0.00     0.163 HD
ATOM     17  O   UNL     1       0.387   1.940  -4.092  1.00  0.00    -0.267 OA
BRANCH  15  18
ATOM     18  C   UNL     1       0.555   1.172  -0.539  1.00  0.00     0.113 C 
ATOM     19  C   UNL     1       1.244  -0.120  -0.142  1.00  0.00     0.027 C 
ENDBRANCH  15  18
ENDBRANCH   9  14
ENDBRANCH   7   8
BRANCH   7  20
ATOM     20  C   UNL     1      -6.401   2.404  -0.862  1.00  0.00     0.034 C 
ATOM     21  C   UNL     1      -5.928   2.006   0.553  1.00  0.00     0.034 C 
ATOM     22  C   UNL     1      -6.328   3.928  -1.105  1.00  0.00     0.034 C 
ATOM     23  C   UNL     1      -7.920   2.091  -0.867  1.00  0.00     0.034 C 
ENDBRANCH   7  20
ENDBRANCH   6   7
ENDBRANCH   3   6
ENDBRANCH   1   2
BRANCH   1  24
ATOM     24  C   UNL     1      -4.130  -1.462  -0.647  1.00  0.00     0.042 C 
BRANCH  24  25
ATOM     25  C   UNL     1      -4.546  -2.400   0.485  1.00  0.00     0.118 C 
BRANCH  25  26
ATOM     26  N   UNL     1      -4.172  -3.784   0.234  1.00  0.00    -0.352 N 
ATOM     27  C   UNL     1      -3.445  -4.663   0.991  1.00  0.00     0.251 C 
ATOM     28  H   UNL     1      -4.494  -4.147  -0.623  1.00  0.00     0.163 HD
ATOM     29  O   UNL     1      -3.101  -5.738   0.498  1.00  0.00    -0.269 OA
BRANCH  27  30
ATOM     30  C   UNL     1      -3.057  -4.350   2.385  1.00  0.00     0.039 A 
ATOM     31  C   UNL     1      -1.790  -4.747   2.826  1.00  0.00     0.014 A 
ATOM     32  C   UNL     1      -3.945  -3.748   3.280  1.00  0.00     0.014 A 
ATOM     33  C   UNL     1      -1.400  -4.509   4.146  1.00  0.00     0.010 A 
ATOM     34  C   UNL     1      -3.535  -3.458   4.583  1.00  0.00     0.010 A 
ATOM     35  C   UNL     1      -2.263  -3.846   5.032  1.00  0.00    -0.014 A 
BRANCH  35  36
ATOM     36  C   UNL     1      -1.852  -3.573   6.432  1.00  0.00     0.031 A 
ATOM     37  C   UNL     1      -2.545  -4.258   7.577  1.00  0.00     0.074 A 
ATOM     38  C   UNL     1      -0.881  -2.672   6.678  1.00  0.00     0.049 A 
ATOM     39  N   UNL     1      -2.352  -4.116   8.865  1.00  0.00    -0.248 NA
ATOM     40  C   UNL     1      -3.614  -5.208   7.232  1.00  0.00     0.031 C 
ATOM     41  C   UNL     1      -0.162  -1.905   5.659  1.00  0.00     0.029 A 
ATOM     42  N   UNL     1      -0.340  -2.242   7.863  1.00  0.00    -0.354 N 
ATOM     43  C   UNL     1      -3.284  -4.941   9.481  1.00  0.00     0.074 A 
ATOM     44  C   UNL     1      -4.069  -5.550   8.428  1.00  0.00     0.031 C 
ATOM     45  C   UNL     1       0.737  -1.111   6.263  1.00  0.00     0.029 A 
ATOM     46  C   UNL     1       0.641  -1.294   7.708  1.00  0.00     0.049 A 
ATOM     47  H   UNL     1      -0.627  -2.582   8.741  1.00  0.00     0.167 HD
ATOM     48  C   UNL     1      -3.459  -5.185  10.802  1.00  0.00     0.037 A 
ATOM     49  C   UNL     1       1.379  -0.643   8.627  1.00  0.00     0.037 A 
ATOM     50  C   UNL     1      -2.654  -4.610  11.849  1.00  0.00     0.049 A 
ATOM     51  C   UNL     1       1.189  -0.954  10.084  1.00  0.00     0.074 A 
ATOM     52  C   UNL     1      -2.708  -4.853  13.211  1.00  0.00     0.029 A 
ATOM     53  N   UNL     1      -1.648  -3.678  11.648  1.00  0.00    -0.354 N 
ATOM     54  N   UNL     1       0.349  -1.787  10.647  1.00  0.00    -0.248 NA
ATOM     55  C   UNL     1       2.056  -0.240  11.033  1.00  0.00     0.031 C 
ATOM     56  C   UNL     1      -1.755  -4.042  13.838  1.00  0.00     0.029 A 
ATOM     57  C   UNL     1      -1.085  -3.322  12.863  1.00  0.00     0.049 A 
ATOM     58  H   UNL     1      -1.375  -3.321  10.773  1.00  0.00     0.167 HD
ATOM     59  C   UNL     1       0.600  -1.717  12.011  1.00  0.00     0.074 A 
ATOM     60  C   UNL     1       1.680  -0.768  12.190  1.00  0.00     0.031 C 
ATOM     61  C   UNL     1      -0.009  -2.379  13.024  1.00  0.00     0.037 A 
BRANCH  48  62
ATOM     62  C   UNL     1      -4.566  -6.120  11.191  1.00  0.00     0.057 A 
ATOM     63  C   UNL     1      -4.480  -7.500  10.966  1.00  0.00     0.134 A 
ATOM     64  C   UNL     1      -5.718  -5.639  11.826  1.00  0.00     0.134 A 
ATOM     65  F   UNL     1      -3.408  -8.023  10.352  1.00  0.00    -0.206 F 
ATOM     66  C   UNL     1      -5.512  -8.365  11.334  1.00  0.00     0.040 A 
ATOM     67  C   UNL     1      -6.746  -6.497  12.220  1.00  0.00     0.040 A 
ATOM     68  F   UNL     1      -5.861  -4.329  12.077  1.00  0.00    -0.206 F 
ATOM     69  C   UNL     1      -6.647  -7.864  11.969  1.00  0.00     0.006 A 
ENDBRANCH  48  62
BRANCH  49  70
ATOM     70  C   UNL     1       2.392   0.348   8.190  1.00  0.00     0.057 A 
ATOM     71  C   UNL     1       3.760   0.060   8.263  1.00  0.00     0.134 A 
ATOM     72  C   UNL     1       2.020   1.599   7.687  1.00  0.00     0.134 A 
ATOM     73  F   UNL     1       4.176  -1.117   8.752  1.00  0.00    -0.206 F 
ATOM     74  C   UNL     1       4.723   0.988   7.864  1.00  0.00     0.040 A 
ATOM     75  C   UNL     1       2.972   2.529   7.266  1.00  0.00     0.040 A 
ATOM     76  F   UNL     1       0.724   1.930   7.583  1.00  0.00    -0.206 F 
ATOM     77  C   UNL     1       4.329   2.225   7.359  1.00  0.00     0.006 A 
ENDBRANCH  49  70
BRANCH  61  78
ATOM     78  C   UNL     1       0.495  -2.118  14.412  1.00  0.00     0.057 A 
ATOM     79  C   UNL     1       0.207  -0.926  15.088  1.00  0.00     0.134 A 
ATOM     80  C   UNL     1       1.249  -3.084  15.091  1.00  0.00     0.134 A 
ATOM     81  F   UNL     1      -0.498   0.043  14.487  1.00  0.00    -0.206 F 
ATOM     82  C   UNL     1       0.669  -0.696  16.385  1.00  0.00     0.040 A 
ATOM     83  C   UNL     1       1.698  -2.874  16.395  1.00  0.00     0.040 A 
ATOM     84  F   UNL     1       1.553  -4.250  14.500  1.00  0.00    -0.206 F 
ATOM     85  C   UNL     1       1.412  -1.674  17.044  1.00  0.00     0.006 A 
ENDBRANCH  61  78
ENDBRANCH  35  36
ENDBRANCH  27  30
ENDBRANCH  25  26
ENDBRANCH  24  25
ENDBRANCH   1  24
TORSDOF 15
