REMARK SMILES CCOc1cc(C(=O)N2CCC(C(=O)NCCCNC(=O)c3ccc(-c4c5nc(c(-c6c(F)cccc6F)c6ccc([nH]6)c(-c6c(F)cccc6F)c6nc(c(-c7c(F)cccc7F)c7ccc4[nH]7)C=C6)C=C5)cc3)(c3ccccc3)CC2)ccc1OC
REMARK SMILES IDX 16 1 15 2 13 3 14 4 12 6 7 7 8 8 9 9 10 10 83 11 11 12 82 13
REMARK SMILES IDX 6 14 4 15 5 16 86 17 85 18 84 19 3 20 2 21 1 22 87 23 88 24
REMARK SMILES IDX 76 25 77 26 81 27 78 28 80 29 79 30 17 31 18 32 19 33 20 34
REMARK SMILES IDX 21 36 22 37 23 38 75 39 24 40 74 41 25 42 26 43 27 44 68 45
REMARK SMILES IDX 28 46 73 47 67 48 69 49 29 50 72 51 66 52 65 53 30 55 56 56
REMARK SMILES IDX 39 57 55 58 40 59 43 60 54 61 70 62 41 63 42 64 53 66 71 67
REMARK SMILES IDX 44 68 31 69 32 70 37 71 33 72 34 73 36 74 38 75 35 76 57 77
REMARK SMILES IDX 58 78 63 79 59 80 60 81 62 82 64 83 61 84 45 85 46 86 51 87
REMARK SMILES IDX 47 88 48 89 50 90 52 91 49 92
REMARK H PARENT 15 5 19 35 69 54 43 65
REMARK Flexibility Score: inf
ROOT
ATOM      1  C   UNL     1       5.773   5.741   7.602  1.00  0.00     0.117 C 
ENDROOT
BRANCH   1   2
ATOM      2  N   UNL     1       7.173   6.139   7.626  1.00  0.00    -0.355 N 
ATOM      3  C   UNL     1       8.305   5.644   7.041  1.00  0.00     0.230 C 
ATOM      4  O   UNL     1       9.323   6.236   7.406  1.00  0.00    -0.274 OA
ATOM      5  H   UNL     1       7.340   6.934   8.182  1.00  0.00     0.163 HD
BRANCH   3   6
ATOM      6  C   UNL     1       8.276   4.434   6.033  1.00  0.00     0.077 C 
ATOM      7  C   UNL     1       4.827   1.970   4.932  1.00  0.00     0.253 C 
ATOM      8  O   UNL     1       4.217   1.402   5.835  1.00  0.00    -0.269 OA
ATOM      9  N   UNL     1       5.988   2.735   5.166  1.00  0.00    -0.339 N 
ATOM     10  C   UNL     1       6.914   2.198   6.149  1.00  0.00     0.121 C 
ATOM     11  C   UNL     1       6.481   3.758   4.246  1.00  0.00     0.121 C 
ATOM     12  C   UNL     1       7.782   3.220   6.865  1.00  0.00     0.043 C 
ATOM     13  C   UNL     1       7.315   4.862   4.883  1.00  0.00     0.043 C 
BRANCH   7  14
ATOM     14  C   UNL     1       4.375   1.733   3.527  1.00  0.00     0.043 A 
ATOM     15  C   UNL     1       2.620   1.326   1.887  1.00  0.00     0.161 A 
ATOM     16  C   UNL     1       3.016   1.583   3.215  1.00  0.00     0.064 A 
ATOM     17  C   UNL     1       3.572   1.288   0.860  1.00  0.00     0.160 A 
ATOM     18  C   UNL     1       4.924   1.344   1.203  1.00  0.00     0.051 A 
ATOM     19  C   UNL     1       5.322   1.517   2.525  1.00  0.00     0.018 A 
BRANCH  15  20
ATOM     20  O   UNL     1       1.287   1.168   1.613  1.00  0.00    -0.490 OA
BRANCH  20  21
ATOM     21  C   UNL     1       0.785  -0.110   2.033  1.00  0.00     0.226 C 
ATOM     22  C   UNL     1       0.067  -0.765   0.862  1.00  0.00     0.049 C 
ENDBRANCH  20  21
ENDBRANCH  15  20
BRANCH  17  23
ATOM     23  O   UNL     1       3.392   1.161  -0.487  1.00  0.00    -0.493 OA
ATOM     24  C   UNL     1       2.107   1.380  -1.044  1.00  0.00     0.278 C 
ENDBRANCH  17  23
ENDBRANCH   7  14
BRANCH   6  25
ATOM     25  C   UNL     1       9.652   4.046   5.374  1.00  0.00    -0.032 A 
ATOM     26  C   UNL     1      10.871   4.699   5.630  1.00  0.00     0.005 A 
ATOM     27  C   UNL     1       9.721   2.985   4.443  1.00  0.00     0.005 A 
ATOM     28  C   UNL     1      12.066   4.331   4.993  1.00  0.00     0.000 A 
ATOM     29  C   UNL     1      10.908   2.619   3.797  1.00  0.00     0.000 A 
ATOM     30  C   UNL     1      12.085   3.296   4.071  1.00  0.00     0.000 A 
ENDBRANCH   6  25
ENDBRANCH   3   6
ENDBRANCH   1   2
BRANCH   1  31
ATOM     31  C   UNL     1       5.283   5.270   8.965  1.00  0.00     0.042 C 
BRANCH  31  32
ATOM     32  C   UNL     1       5.451   6.289  10.082  1.00  0.00     0.118 C 
BRANCH  32  33
ATOM     33  N   UNL     1       4.693   7.510   9.853  1.00  0.00    -0.352 N 
ATOM     34  C   UNL     1       3.670   8.067  10.577  1.00  0.00     0.251 C 
ATOM     35  H   UNL     1       4.956   8.016   9.050  1.00  0.00     0.163 HD
ATOM     36  O   UNL     1       3.040   9.008  10.105  1.00  0.00    -0.269 OA
BRANCH  34  37
ATOM     37  C   UNL     1       3.310   7.538  11.912  1.00  0.00     0.039 A 
ATOM     38  C   UNL     1       1.959   7.481  12.266  1.00  0.00     0.014 A 
ATOM     39  C   UNL     1       4.286   7.145  12.831  1.00  0.00     0.014 A 
ATOM     40  C   UNL     1       1.589   6.992  13.521  1.00  0.00     0.010 A 
ATOM     41  C   UNL     1       3.913   6.569  14.042  1.00  0.00     0.010 A 
ATOM     42  C   UNL     1       2.562   6.511  14.412  1.00  0.00    -0.014 A 
BRANCH  42  43
ATOM     43  C   UNL     1       2.180   5.980  15.745  1.00  0.00     0.031 A 
ATOM     44  C   UNL     1       2.651   6.667  16.998  1.00  0.00     0.074 A 
ATOM     45  C   UNL     1       1.448   4.854  15.830  1.00  0.00     0.049 A 
ATOM     46  N   UNL     1       2.432   6.349  18.249  1.00  0.00    -0.248 NA
ATOM     47  C   UNL     1       3.510   7.849  16.825  1.00  0.00     0.031 C 
ATOM     48  C   UNL     1       0.991   4.052  14.693  1.00  0.00     0.029 A 
ATOM     49  N   UNL     1       0.965   4.183  16.925  1.00  0.00    -0.354 N 
ATOM     50  C   UNL     1       3.143   7.273  19.005  1.00  0.00     0.074 A 
ATOM     51  C   UNL     1       3.845   8.129  18.075  1.00  0.00     0.031 C 
ATOM     52  C   UNL     1       0.273   3.013  15.149  1.00  0.00     0.029 A 
ATOM     53  C   UNL     1       0.240   3.060  16.607  1.00  0.00     0.049 A 
ATOM     54  H   UNL     1       1.122   4.479  17.851  1.00  0.00     0.167 HD
ATOM     55  C   UNL     1       3.187   7.413  20.351  1.00  0.00     0.037 A 
ATOM     56  C   UNL     1      -0.384   2.171  17.402  1.00  0.00     0.037 A 
ATOM     57  C   UNL     1       2.457   6.584  21.273  1.00  0.00     0.049 A 
ATOM     58  C   UNL     1      -0.365   2.376  18.890  1.00  0.00     0.074 A 
ATOM     59  C   UNL     1       2.364   6.698  22.649  1.00  0.00     0.029 A 
ATOM     60  N   UNL     1       1.695   5.484  20.910  1.00  0.00    -0.354 N 
ATOM     61  N   UNL     1       0.233   3.311  19.588  1.00  0.00    -0.248 NA
ATOM     62  C   UNL     1      -1.125   1.414  19.700  1.00  0.00     0.031 C 
ATOM     63  C   UNL     1       1.581   5.640  23.123  1.00  0.00     0.029 A 
ATOM     64  C   UNL     1       1.145   4.896  22.038  1.00  0.00     0.049 A 
ATOM     65  H   UNL     1       1.564   5.167  19.987  1.00  0.00     0.167 HD
ATOM     66  C   UNL     1      -0.094   3.063  20.915  1.00  0.00     0.074 A 
ATOM     67  C   UNL     1      -0.959   1.901  20.922  1.00  0.00     0.031 C 
ATOM     68  C   UNL     1       0.288   3.738  22.028  1.00  0.00     0.037 A 
BRANCH  55  69
ATOM     69  C   UNL     1       4.056   8.508  20.903  1.00  0.00     0.057 A 
ATOM     70  C   UNL     1       3.740   9.863  20.737  1.00  0.00     0.134 A 
ATOM     71  C   UNL     1       5.220   8.202  21.619  1.00  0.00     0.134 A 
ATOM     72  F   UNL     1       2.646  10.226  20.049  1.00  0.00    -0.206 F 
ATOM     73  C   UNL     1       4.566  10.874  21.231  1.00  0.00     0.040 A 
ATOM     74  C   UNL     1       6.039   9.203  22.145  1.00  0.00     0.040 A 
ATOM     75  F   UNL     1       5.581   6.926  21.822  1.00  0.00    -0.206 F 
ATOM     76  C   UNL     1       5.718  10.544  21.942  1.00  0.00     0.006 A 
ENDBRANCH  55  69
BRANCH  56  77
ATOM     77  C   UNL     1      -1.111   1.028  16.796  1.00  0.00     0.057 A 
ATOM     78  C   UNL     1      -2.510   0.983  16.788  1.00  0.00     0.134 A 
ATOM     79  C   UNL     1      -0.427  -0.035  16.196  1.00  0.00     0.134 A 
ATOM     80  F   UNL     1      -3.220   1.966  17.361  1.00  0.00    -0.206 F 
ATOM     81  C   UNL     1      -3.203  -0.086  16.218  1.00  0.00     0.040 A 
ATOM     82  C   UNL     1      -1.107  -1.099  15.601  1.00  0.00     0.040 A 
ATOM     83  F   UNL     1       0.914  -0.045  16.163  1.00  0.00    -0.206 F 
ATOM     84  C   UNL     1      -2.501  -1.128  15.616  1.00  0.00     0.006 A 
ENDBRANCH  56  77
BRANCH  68  85
ATOM     85  C   UNL     1      -0.251   3.250  23.341  1.00  0.00     0.057 A 
ATOM     86  C   UNL     1       0.190   2.055  23.924  1.00  0.00     0.134 A 
ATOM     87  C   UNL     1      -1.204   3.999  24.043  1.00  0.00     0.134 A 
ATOM     88  F   UNL     1       1.093   1.285  23.298  1.00  0.00    -0.206 F 
ATOM     89  C   UNL     1      -0.319   1.608  25.145  1.00  0.00     0.040 A 
ATOM     90  C   UNL     1      -1.700   3.577  25.276  1.00  0.00     0.040 A 
ATOM     91  F   UNL     1      -1.662   5.158  23.545  1.00  0.00    -0.206 F 
ATOM     92  C   UNL     1      -1.264   2.373  25.827  1.00  0.00     0.006 A 
ENDBRANCH  68  85
ENDBRANCH  42  43
ENDBRANCH  34  37
ENDBRANCH  32  33
ENDBRANCH  31  32
ENDBRANCH   1  31
TORSDOF 15
