REMARK SMILES Cc1n[nH]c(C[N@H+]2CCC[C@H](c3cccc(C(=O)NCCCNC(=O)c4ccc(-c5c6nc(c(-c7c(F)cccc7F)c7ccc([nH]7)c(-c7c(F)cccc7F)c7nc(c(-c8c(F)cccc8F)c8ccc5[nH]8)C=C7)C=C6)cc4)c3)C2)n1
REMARK SMILES IDX 20 1 19 2 17 3 18 4 16 6 12 7 13 8 80 9 14 10 15 11 11 12
REMARK SMILES IDX 7 13 8 14 81 15 9 17 10 18 6 19 5 20 1 21 2 22 3 23 82 24
REMARK SMILES IDX 4 25 21 27 22 28 23 29 24 30 25 32 26 33 27 34 79 35 28 36
REMARK SMILES IDX 78 37 29 38 30 39 31 40 72 41 32 42 77 43 71 44 73 45 33 46
REMARK SMILES IDX 76 47 70 48 69 49 34 51 60 52 43 53 59 54 44 55 47 56 58 57
REMARK SMILES IDX 74 58 45 59 46 60 57 62 75 63 48 64 35 65 36 66 41 67 37 68
REMARK SMILES IDX 38 69 40 70 42 71 39 72 61 73 62 74 67 75 63 76 64 77 66 78
REMARK SMILES IDX 68 79 65 80 49 81 50 82 55 83 51 84 52 85 54 86 56 87 53 88
REMARK H PARENT 19 5 7 16 4 26 23 31 73 50 47 61
REMARK Flexibility Score: inf
ROOT
ATOM      1  C   UNL     1      -5.240  -1.722   8.140  1.00  0.00     0.118 C 
ENDROOT
BRANCH   1   2
ATOM      2  N   UNL     1      -6.585  -2.222   7.889  1.00  0.00    -0.352 N 
ATOM      3  C   UNL     1      -7.186  -2.826   6.809  1.00  0.00     0.251 C 
ATOM      4  O   UNL     1      -8.332  -3.247   6.979  1.00  0.00    -0.269 OA
ATOM      5  H   UNL     1      -7.192  -2.102   8.655  1.00  0.00     0.163 HD
BRANCH   3   6
ATOM      6  C   UNL     1      -6.543  -3.010   5.473  1.00  0.00     0.040 A 
ATOM      7  C   UNL     1      -4.725  -2.652   3.857  1.00  0.00    -0.039 A 
ATOM      8  C   UNL     1      -5.403  -3.451   2.934  1.00  0.00     0.004 A 
ATOM      9  C   UNL     1      -5.347  -2.407   5.091  1.00  0.00     0.018 A 
ATOM     10  C   UNL     1      -6.636  -4.020   3.262  1.00  0.00     0.001 A 
ATOM     11  C   UNL     1      -7.191  -3.816   4.528  1.00  0.00     0.014 A 
BRANCH   7  12
ATOM     12  C   UNL     1      -3.370  -1.995   3.614  1.00  0.00     0.074 C 
ATOM     13  N   UNL     1      -2.262  -3.634   2.074  1.00  0.00    -0.328 N 
ATOM     14  C   UNL     1      -1.257  -3.984   3.084  1.00  0.00     0.262 C 
ATOM     15  C   UNL     1      -2.733  -2.243   2.236  1.00  0.00     0.270 C 
ATOM     16  H   UNL     1      -3.055  -4.254   2.237  1.00  0.00     0.348 HD
ATOM     17  C   UNL     1      -1.789  -3.777   4.503  1.00  0.00     0.062 C 
ATOM     18  C   UNL     1      -2.322  -2.359   4.695  1.00  0.00     0.020 C 
BRANCH  13  19
ATOM     19  C   UNL     1      -1.812  -3.897   0.694  1.00  0.00     0.340 C 
BRANCH  19  20
ATOM     20  C   UNL     1      -0.685  -3.032   0.239  1.00  0.00     0.179 A 
ATOM     21  C   UNL     1       1.095  -0.033  -0.228  1.00  0.00     0.092 C 
ATOM     22  C   UNL     1       0.626  -1.429  -0.146  1.00  0.00     0.147 A 
ATOM     23  N   UNL     1       1.442  -2.489  -0.180  1.00  0.00    -0.159 NA
ATOM     24  N   UNL     1      -0.692  -1.728   0.052  1.00  0.00    -0.211 NA
ATOM     25  N   UNL     1       0.583  -3.497   0.044  1.00  0.00    -0.258 N 
ATOM     26  H   UNL     1       0.835  -4.448   0.064  1.00  0.00     0.192 HD
ENDBRANCH  19  20
ENDBRANCH  13  19
ENDBRANCH   7  12
ENDBRANCH   3   6
ENDBRANCH   1   2
BRANCH   1  27
ATOM     27  C   UNL     1      -5.066  -0.250   7.732  1.00  0.00     0.042 C 
BRANCH  27  28
ATOM     28  C   UNL     1      -5.415   0.713   8.855  1.00  0.00     0.118 C 
BRANCH  28  29
ATOM     29  N   UNL     1      -4.466   0.615   9.964  1.00  0.00    -0.352 N 
ATOM     30  C   UNL     1      -4.556   1.115  11.247  1.00  0.00     0.251 C 
ATOM     31  H   UNL     1      -3.639   0.118   9.765  1.00  0.00     0.163 HD
ATOM     32  O   UNL     1      -3.564   1.215  11.946  1.00  0.00    -0.269 OA
BRANCH  30  33
ATOM     33  C   UNL     1      -5.871   1.548  11.751  1.00  0.00     0.039 A 
ATOM     34  C   UNL     1      -5.989   2.738  12.473  1.00  0.00     0.014 A 
ATOM     35  C   UNL     1      -6.991   0.779  11.449  1.00  0.00     0.014 A 
ATOM     36  C   UNL     1      -7.260   3.204  12.793  1.00  0.00     0.010 A 
ATOM     37  C   UNL     1      -8.245   1.309  11.636  1.00  0.00     0.010 A 
ATOM     38  C   UNL     1      -8.388   2.504  12.335  1.00  0.00    -0.014 A 
BRANCH  38  39
ATOM     39  C   UNL     1      -9.716   3.101  12.447  1.00  0.00     0.031 A 
ATOM     40  C   UNL     1      -9.821   4.475  11.880  1.00  0.00     0.074 A 
ATOM     41  C   UNL     1     -10.814   2.411  12.821  1.00  0.00     0.049 A 
ATOM     42  N   UNL     1     -10.039   5.574  12.521  1.00  0.00    -0.248 NA
ATOM     43  C   UNL     1      -9.508   4.674  10.454  1.00  0.00     0.031 C 
ATOM     44  C   UNL     1     -10.930   0.978  13.109  1.00  0.00     0.029 A 
ATOM     45  N   UNL     1     -12.104   2.837  12.916  1.00  0.00    -0.354 N 
ATOM     46  C   UNL     1     -10.106   6.579  11.558  1.00  0.00     0.074 A 
ATOM     47  C   UNL     1      -9.587   6.003  10.346  1.00  0.00     0.031 C 
ATOM     48  C   UNL     1     -12.232   0.619  13.108  1.00  0.00     0.029 A 
ATOM     49  C   UNL     1     -13.045   1.815  12.987  1.00  0.00     0.049 A 
ATOM     50  H   UNL     1     -12.350   3.790  12.934  1.00  0.00     0.167 HD
ATOM     51  C   UNL     1     -10.820   7.716  11.787  1.00  0.00     0.037 A 
ATOM     52  C   UNL     1     -14.394   1.943  12.925  1.00  0.00     0.037 A 
ATOM     53  C   UNL     1     -11.113   7.863  13.193  1.00  0.00     0.049 A 
ATOM     54  C   UNL     1     -14.714   3.356  13.244  1.00  0.00     0.074 A 
ATOM     55  C   UNL     1     -10.352   7.937  14.345  1.00  0.00     0.029 A 
ATOM     56  N   UNL     1     -12.389   7.568  13.609  1.00  0.00    -0.354 N 
ATOM     57  N   UNL     1     -14.572   3.883  14.426  1.00  0.00    -0.248 NA
ATOM     58  C   UNL     1     -14.777   4.303  12.141  1.00  0.00     0.031 C 
ATOM     59  C   UNL     1     -11.090   7.202  15.319  1.00  0.00     0.029 A 
ATOM     60  C   UNL     1     -12.288   6.793  14.733  1.00  0.00     0.049 A 
ATOM     61  H   UNL     1     -13.223   7.861  13.177  1.00  0.00     0.167 HD
ATOM     62  C   UNL     1     -14.067   5.151  14.182  1.00  0.00     0.074 A 
ATOM     63  C   UNL     1     -14.319   5.393  12.762  1.00  0.00     0.031 C 
ATOM     64  C   UNL     1     -13.231   5.755  15.075  1.00  0.00     0.037 A 
BRANCH  51  65
ATOM     65  C   UNL     1     -11.607   8.470  10.735  1.00  0.00     0.057 A 
ATOM     66  C   UNL     1     -12.271   9.657  11.107  1.00  0.00     0.134 A 
ATOM     67  C   UNL     1     -12.001   7.937   9.492  1.00  0.00     0.134 A 
ATOM     68  F   UNL     1     -11.985  10.274  12.263  1.00  0.00    -0.206 F 
ATOM     69  C   UNL     1     -13.322  10.200  10.358  1.00  0.00     0.040 A 
ATOM     70  C   UNL     1     -13.014   8.502   8.711  1.00  0.00     0.040 A 
ATOM     71  F   UNL     1     -11.509   6.794   9.005  1.00  0.00    -0.206 F 
ATOM     72  C   UNL     1     -13.707   9.613   9.161  1.00  0.00     0.006 A 
ENDBRANCH  51  65
BRANCH  52  73
ATOM     73  C   UNL     1     -15.416   1.007  12.400  1.00  0.00     0.057 A 
ATOM     74  C   UNL     1     -16.781   1.218  12.650  1.00  0.00     0.134 A 
ATOM     75  C   UNL     1     -15.114   0.055  11.412  1.00  0.00     0.134 A 
ATOM     76  F   UNL     1     -17.177   2.125  13.556  1.00  0.00    -0.206 F 
ATOM     77  C   UNL     1     -17.785   0.557  11.930  1.00  0.00     0.040 A 
ATOM     78  C   UNL     1     -16.106  -0.619  10.691  1.00  0.00     0.040 A 
ATOM     79  F   UNL     1     -13.847  -0.189  11.046  1.00  0.00    -0.206 F 
ATOM     80  C   UNL     1     -17.448  -0.354  10.935  1.00  0.00     0.006 A 
ENDBRANCH  52  73
BRANCH  64  81
ATOM     81  C   UNL     1     -13.102   5.150  16.446  1.00  0.00     0.057 A 
ATOM     82  C   UNL     1     -12.607   3.862  16.703  1.00  0.00     0.134 A 
ATOM     83  C   UNL     1     -13.351   5.964  17.557  1.00  0.00     0.134 A 
ATOM     84  F   UNL     1     -12.244   3.043  15.710  1.00  0.00    -0.206 F 
ATOM     85  C   UNL     1     -12.415   3.393  18.007  1.00  0.00     0.040 A 
ATOM     86  C   UNL     1     -13.128   5.521  18.862  1.00  0.00     0.040 A 
ATOM     87  F   UNL     1     -13.773   7.227  17.388  1.00  0.00    -0.206 F 
ATOM     88  C   UNL     1     -12.668   4.227  19.091  1.00  0.00     0.006 A 
ENDBRANCH  64  81
ENDBRANCH  38  39
ENDBRANCH  30  33
ENDBRANCH  28  29
ENDBRANCH  27  28
ENDBRANCH   1  27
TORSDOF 13
