REMARK SMILES CCN(C(=O)Cc1c(C(=O)NCCCNC(=O)c2ccc(-c3c4nc(c(-c5c(F)cccc5F)c5ccc([nH]5)c(-c5c(F)cccc5F)c5nc(c(-c6c(F)cccc6F)c6ccc3[nH]6)C=C5)C=C4)cc2)[nH]c2ccccc12)c1cccc(C)c1
REMARK SMILES IDX 12 1 11 2 9 3 10 4 8 6 7 7 78 8 72 9 73 10 77 11 74 13 76 14
REMARK SMILES IDX 75 15 6 16 4 17 5 18 3 19 2 20 1 21 79 22 80 23 85 24 81 25
REMARK SMILES IDX 83 26 82 27 84 28 13 29 14 30 15 31 16 32 17 34 18 35 19 36
REMARK SMILES IDX 71 37 20 38 70 39 21 40 22 41 23 42 64 43 24 44 69 45 63 46
REMARK SMILES IDX 65 47 25 48 68 49 62 50 61 51 26 53 52 54 35 55 51 56 36 57
REMARK SMILES IDX 39 58 50 59 66 60 37 61 38 62 49 64 67 65 40 66 27 67 28 68
REMARK SMILES IDX 33 69 29 70 30 71 32 72 34 73 31 74 53 75 54 76 59 77 55 78
REMARK SMILES IDX 56 79 58 80 60 81 57 82 41 83 42 84 47 85 43 86 44 87 46 88
REMARK SMILES IDX 48 89 45 90
REMARK H PARENT 11 5 72 12 15 33 65 52 39 63
REMARK Flexibility Score: inf
ROOT
ATOM      1  C   UNL     1      -1.754  -2.678  -0.117  1.00  0.00     0.118 C 
ENDROOT
BRANCH   1   2
ATOM      2  N   UNL     1      -1.910  -1.610   0.858  1.00  0.00    -0.351 N 
ATOM      3  C   UNL     1      -2.053  -0.247   0.807  1.00  0.00     0.268 C 
ATOM      4  O   UNL     1      -2.077   0.308   1.907  1.00  0.00    -0.268 OA
ATOM      5  H   UNL     1      -1.914  -1.949   1.782  1.00  0.00     0.163 HD
BRANCH   3   6
ATOM      6  C   UNL     1      -2.139   0.498  -0.436  1.00  0.00     0.109 A 
ATOM      7  C   UNL     1      -1.857   1.857  -0.659  1.00  0.00    -0.000 A 
ATOM      8  C   UNL     1      -2.249   2.165  -2.007  1.00  0.00     0.004 A 
ATOM      9  N   UNL     1      -2.639   0.018  -1.624  1.00  0.00    -0.350 N 
ATOM     10  C   UNL     1      -2.699   0.988  -2.590  1.00  0.00     0.046 A 
ATOM     11  C   UNL     1      -2.289   3.347  -2.777  1.00  0.00     0.010 A 
ATOM     12  H   UNL     1      -2.921  -0.915  -1.764  1.00  0.00     0.167 HD
ATOM     13  C   UNL     1      -3.154   0.912  -3.912  1.00  0.00     0.027 A 
ATOM     14  C   UNL     1      -2.766   3.300  -4.093  1.00  0.00     0.001 A 
ATOM     15  C   UNL     1      -3.181   2.095  -4.654  1.00  0.00     0.002 A 
BRANCH   7  16
ATOM     16  C   UNL     1      -1.336   2.887   0.317  1.00  0.00     0.139 C 
BRANCH  16  17
ATOM     17  C   UNL     1       0.080   3.381  -0.009  1.00  0.00     0.231 C 
ATOM     18  O   UNL     1       0.210   4.446  -0.627  1.00  0.00    -0.274 OA
BRANCH  17  19
ATOM     19  N   UNL     1       1.173   2.605   0.390  1.00  0.00    -0.312 N 
BRANCH  19  20
ATOM     20  C   UNL     1       1.088   1.434   1.274  1.00  0.00     0.122 C 
ATOM     21  C   UNL     1       1.236   0.105   0.562  1.00  0.00     0.028 C 
ENDBRANCH  19  20
BRANCH  19  22
ATOM     22  C   UNL     1       2.506   3.046   0.130  1.00  0.00     0.044 A 
ATOM     23  C   UNL     1       2.970   4.248   0.666  1.00  0.00     0.026 A 
ATOM     24  C   UNL     1       3.409   2.189  -0.512  1.00  0.00     0.029 A 
ATOM     25  C   UNL     1       4.334   4.549   0.620  1.00  0.00     0.002 A 
ATOM     26  C   UNL     1       4.779   2.471  -0.548  1.00  0.00    -0.049 A 
ATOM     27  C   UNL     1       5.236   3.658   0.030  1.00  0.00     0.003 A 
ATOM     28  C   UNL     1       5.734   1.514  -1.196  1.00  0.00     0.044 C 
ENDBRANCH  19  22
ENDBRANCH  17  19
ENDBRANCH  16  17
ENDBRANCH   7  16
ENDBRANCH   3   6
ENDBRANCH   1   2
BRANCH   1  29
ATOM     29  C   UNL     1      -0.303  -3.040  -0.429  1.00  0.00     0.042 C 
BRANCH  29  30
ATOM     30  C   UNL     1       0.513  -3.541   0.763  1.00  0.00     0.118 C 
BRANCH  30  31
ATOM     31  N   UNL     1      -0.045  -4.737   1.372  1.00  0.00    -0.352 N 
ATOM     32  C   UNL     1       0.372  -6.043   1.367  1.00  0.00     0.251 C 
ATOM     33  H   UNL     1      -0.873  -4.581   1.881  1.00  0.00     0.163 HD
ATOM     34  O   UNL     1      -0.387  -6.906   1.803  1.00  0.00    -0.269 OA
BRANCH  32  35
ATOM     35  C   UNL     1       1.698  -6.442   0.843  1.00  0.00     0.039 A 
ATOM     36  C   UNL     1       1.788  -7.638   0.120  1.00  0.00     0.014 A 
ATOM     37  C   UNL     1       2.859  -5.719   1.126  1.00  0.00     0.014 A 
ATOM     38  C   UNL     1       3.024  -8.079  -0.360  1.00  0.00     0.010 A 
ATOM     39  C   UNL     1       4.085  -6.128   0.595  1.00  0.00     0.010 A 
ATOM     40  C   UNL     1       4.181  -7.314  -0.149  1.00  0.00    -0.014 A 
BRANCH  40  41
ATOM     41  C   UNL     1       5.492  -7.741  -0.702  1.00  0.00     0.031 A 
ATOM     42  C   UNL     1       6.618  -8.134   0.215  1.00  0.00     0.074 A 
ATOM     43  C   UNL     1       5.689  -7.725  -2.034  1.00  0.00     0.049 A 
ATOM     44  N   UNL     1       7.851  -8.462  -0.083  1.00  0.00    -0.248 NA
ATOM     45  C   UNL     1       6.326  -8.138   1.656  1.00  0.00     0.031 C 
ATOM     46  C   UNL     1       4.691  -7.334  -3.031  1.00  0.00     0.029 A 
ATOM     47  N   UNL     1       6.800  -8.034  -2.779  1.00  0.00    -0.354 N 
ATOM     48  C   UNL     1       8.485  -8.693   1.131  1.00  0.00     0.074 A 
ATOM     49  C   UNL     1       7.512  -8.430   2.171  1.00  0.00     0.031 C 
ATOM     50  C   UNL     1       5.229  -7.441  -4.256  1.00  0.00     0.029 A 
ATOM     51  C   UNL     1       6.618  -7.873  -4.130  1.00  0.00     0.049 A 
ATOM     52  H   UNL     1       7.647  -8.341  -2.381  1.00  0.00     0.167 HD
ATOM     53  C   UNL     1       9.757  -9.101   1.359  1.00  0.00     0.037 A 
ATOM     54  C   UNL     1       7.475  -8.045  -5.154  1.00  0.00     0.037 A 
ATOM     55  C   UNL     1      10.717  -9.391   0.326  1.00  0.00     0.049 A 
ATOM     56  C   UNL     1       8.881  -8.495  -4.876  1.00  0.00     0.074 A 
ATOM     57  C   UNL     1      12.009  -9.870   0.459  1.00  0.00     0.029 A 
ATOM     58  N   UNL     1      10.490  -9.227  -1.032  1.00  0.00    -0.354 N 
ATOM     59  N   UNL     1       9.450  -8.760  -3.725  1.00  0.00    -0.248 NA
ATOM     60  C   UNL     1       9.762  -8.673  -6.039  1.00  0.00     0.031 C 
ATOM     61  C   UNL     1      12.576  -9.963  -0.817  1.00  0.00     0.029 A 
ATOM     62  C   UNL     1      11.624  -9.578  -1.746  1.00  0.00     0.049 A 
ATOM     63  H   UNL     1       9.647  -8.909  -1.429  1.00  0.00     0.167 HD
ATOM     64  C   UNL     1      10.746  -9.157  -4.026  1.00  0.00     0.074 A 
ATOM     65  C   UNL     1      10.876  -9.109  -5.467  1.00  0.00     0.031 C 
ATOM     66  C   UNL     1      11.739  -9.528  -3.181  1.00  0.00     0.037 A 
BRANCH  53  67
ATOM     67  C   UNL     1      10.185  -9.259   2.789  1.00  0.00     0.057 A 
ATOM     68  C   UNL     1       9.720 -10.313   3.586  1.00  0.00     0.134 A 
ATOM     69  C   UNL     1      11.097  -8.367   3.366  1.00  0.00     0.134 A 
ATOM     70  F   UNL     1       8.836 -11.197   3.097  1.00  0.00    -0.206 F 
ATOM     71  C   UNL     1      10.126 -10.459   4.914  1.00  0.00     0.040 A 
ATOM     72  C   UNL     1      11.529  -8.515   4.685  1.00  0.00     0.040 A 
ATOM     73  F   UNL     1      11.588  -7.340   2.655  1.00  0.00    -0.206 F 
ATOM     74  C   UNL     1      11.038  -9.560   5.465  1.00  0.00     0.006 A 
ENDBRANCH  53  67
BRANCH  54  75
ATOM     75  C   UNL     1       7.019  -7.808  -6.545  1.00  0.00     0.057 A 
ATOM     76  C   UNL     1       6.808  -8.875  -7.425  1.00  0.00     0.134 A 
ATOM     77  C   UNL     1       6.778  -6.515  -7.026  1.00  0.00     0.134 A 
ATOM     78  F   UNL     1       7.040 -10.134  -7.025  1.00  0.00    -0.206 F 
ATOM     79  C   UNL     1       6.385  -8.667  -8.738  1.00  0.00     0.040 A 
ATOM     80  C   UNL     1       6.334  -6.293  -8.330  1.00  0.00     0.040 A 
ATOM     81  F   UNL     1       6.955  -5.452  -6.228  1.00  0.00    -0.206 F 
ATOM     82  C   UNL     1       6.141  -7.372  -9.192  1.00  0.00     0.006 A 
ENDBRANCH  54  75
BRANCH  66  83
ATOM     83  C   UNL     1      13.044  -9.936  -3.797  1.00  0.00     0.057 A 
ATOM     84  C   UNL     1      13.930  -8.996  -4.337  1.00  0.00     0.134 A 
ATOM     85  C   UNL     1      13.432 -11.282  -3.819  1.00  0.00     0.134 A 
ATOM     86  F   UNL     1      13.609  -7.694  -4.360  1.00  0.00    -0.206 F 
ATOM     87  C   UNL     1      15.150  -9.382  -4.895  1.00  0.00     0.040 A 
ATOM     88  C   UNL     1      14.659 -11.677  -4.354  1.00  0.00     0.040 A 
ATOM     89  F   UNL     1      12.631 -12.230  -3.312  1.00  0.00    -0.206 F 
ATOM     90  C   UNL     1      15.520 -10.726  -4.898  1.00  0.00     0.006 A 
ENDBRANCH  66  83
ENDBRANCH  40  41
ENDBRANCH  32  35
ENDBRANCH  30  31
ENDBRANCH  29  30
ENDBRANCH   1  29
TORSDOF 15
