REMARK SMILES O=C(NCCCNC(=O)[C@H]1Cc2c([nH]c3ccccc23)[C@H](c2c[nH]c3ccccc23)[NH2+]1)c1ccc(-c2c3nc(c(-c4c(F)cccc4F)c4ccc([nH]4)c(-c4c(F)cccc4F)c4nc(c(-c5c(F)cccc5F)c5ccc2[nH]5)C=C4)C=C3)cc1
REMARK SMILES IDX 4 1 3 2 1 3 2 4 32 6 33 7 85 8 34 9 84 10 35 11 36 12 37 13
REMARK SMILES IDX 78 14 38 15 83 16 77 17 79 18 39 19 82 20 76 21 75 22 40 24
REMARK SMILES IDX 66 25 49 26 65 27 50 28 53 29 64 30 80 31 51 32 52 33 63 35
REMARK SMILES IDX 81 36 54 37 41 38 42 39 47 40 43 41 44 42 46 43 48 44 45 45
REMARK SMILES IDX 67 46 68 47 73 48 69 49 70 50 72 51 74 52 71 53 55 54 56 55
REMARK SMILES IDX 61 56 57 57 58 58 60 59 62 60 59 61 5 62 6 63 7 64 8 65 9 67
REMARK SMILES IDX 10 68 11 69 31 70 12 71 21 72 13 75 20 76 14 77 15 78 19 79
REMARK SMILES IDX 16 81 18 82 17 83 22 84 23 85 30 86 24 87 25 88 29 89 26 91
REMARK SMILES IDX 28 92 27 93
REMARK H PARENT 3 5 79 23 53 34 7 66 31 73 31 74 14 80 24 90
REMARK Flexibility Score: inf
ROOT
ATOM      1  C   UNL     1       4.481   1.004   0.889  1.00  0.00     0.118 C 
ENDROOT
BRANCH   1   2
ATOM      2  N   UNL     1       3.053   0.687   0.880  1.00  0.00    -0.352 N 
ATOM      3  O   UNL     1       1.152  -0.201   0.054  1.00  0.00    -0.269 OA
ATOM      4  C   UNL     1       2.369  -0.270   0.174  1.00  0.00     0.251 C 
ATOM      5  H   UNL     1       2.498   1.245   1.472  1.00  0.00     0.163 HD
BRANCH   4   6
ATOM      6  C   UNL     1       3.117  -1.389  -0.425  1.00  0.00     0.039 A 
ATOM      7  C   UNL     1       4.194  -1.938   0.271  1.00  0.00     0.014 A 
ATOM      8  C   UNL     1       2.728  -1.916  -1.658  1.00  0.00     0.014 A 
ATOM      9  C   UNL     1       4.988  -2.892  -0.332  1.00  0.00     0.010 A 
ATOM     10  C   UNL     1       3.444  -2.983  -2.202  1.00  0.00     0.010 A 
ATOM     11  C   UNL     1       4.583  -3.470  -1.543  1.00  0.00    -0.014 A 
BRANCH  11  12
ATOM     12  C   UNL     1       5.297  -4.683  -1.997  1.00  0.00     0.031 A 
ATOM     13  C   UNL     1       6.053  -4.709  -3.288  1.00  0.00     0.074 A 
ATOM     14  C   UNL     1       5.271  -5.756  -1.181  1.00  0.00     0.049 A 
ATOM     15  N   UNL     1       6.733  -5.694  -3.813  1.00  0.00    -0.248 NA
ATOM     16  C   UNL     1       6.044  -3.483  -4.101  1.00  0.00     0.031 C 
ATOM     17  C   UNL     1       4.549  -5.827   0.097  1.00  0.00     0.029 A 
ATOM     18  N   UNL     1       5.878  -6.979  -1.281  1.00  0.00    -0.354 N 
ATOM     19  C   UNL     1       7.214  -5.220  -5.025  1.00  0.00     0.074 A 
ATOM     20  C   UNL     1       6.737  -3.861  -5.168  1.00  0.00     0.031 C 
ATOM     21  C   UNL     1       4.801  -7.004   0.684  1.00  0.00     0.029 A 
ATOM     22  C   UNL     1       5.618  -7.805  -0.214  1.00  0.00     0.049 A 
ATOM     23  H   UNL     1       6.444  -7.241  -2.042  1.00  0.00     0.167 HD
ATOM     24  C   UNL     1       7.982  -5.872  -5.929  1.00  0.00     0.037 A 
ATOM     25  C   UNL     1       5.966  -9.085   0.002  1.00  0.00     0.037 A 
ATOM     26  C   UNL     1       8.459  -7.221  -5.756  1.00  0.00     0.049 A 
ATOM     27  C   UNL     1       6.786  -9.782  -1.041  1.00  0.00     0.074 A 
ATOM     28  C   UNL     1       9.284  -7.954  -6.591  1.00  0.00     0.029 A 
ATOM     29  N   UNL     1       8.146  -8.042  -4.682  1.00  0.00    -0.354 N 
ATOM     30  N   UNL     1       7.273  -9.307  -2.162  1.00  0.00    -0.248 NA
ATOM     31  C   UNL     1       7.098 -11.195  -0.796  1.00  0.00     0.031 C 
ATOM     32  C   UNL     1       9.420  -9.237  -6.054  1.00  0.00     0.029 A 
ATOM     33  C   UNL     1       8.731  -9.286  -4.853  1.00  0.00     0.049 A 
ATOM     34  H   UNL     1       7.590  -7.779  -3.913  1.00  0.00     0.167 HD
ATOM     35  C   UNL     1       7.960 -10.357  -2.750  1.00  0.00     0.074 A 
ATOM     36  C   UNL     1       7.854 -11.483  -1.844  1.00  0.00     0.031 C 
ATOM     37  C   UNL     1       8.612 -10.392  -3.937  1.00  0.00     0.037 A 
BRANCH  24  38
ATOM     38  C   UNL     1       8.343  -5.158  -7.199  1.00  0.00     0.057 A 
ATOM     39  C   UNL     1       9.284  -4.122  -7.228  1.00  0.00     0.134 A 
ATOM     40  C   UNL     1       7.808  -5.581  -8.423  1.00  0.00     0.134 A 
ATOM     41  F   UNL     1       9.826  -3.662  -6.091  1.00  0.00    -0.206 F 
ATOM     42  C   UNL     1       9.678  -3.529  -8.431  1.00  0.00     0.040 A 
ATOM     43  C   UNL     1       8.211  -5.013  -9.633  1.00  0.00     0.040 A 
ATOM     44  F   UNL     1       6.905  -6.572  -8.466  1.00  0.00    -0.206 F 
ATOM     45  C   UNL     1       9.150  -3.983  -9.638  1.00  0.00     0.006 A 
ENDBRANCH  24  38
BRANCH  25  46
ATOM     46  C   UNL     1       5.497  -9.794   1.218  1.00  0.00     0.057 A 
ATOM     47  C   UNL     1       6.395 -10.249   2.189  1.00  0.00     0.134 A 
ATOM     48  C   UNL     1       4.136 -10.054   1.428  1.00  0.00     0.134 A 
ATOM     49  F   UNL     1       7.712 -10.042   2.040  1.00  0.00    -0.206 F 
ATOM     50  C   UNL     1       5.962 -10.964   3.306  1.00  0.00     0.040 A 
ATOM     51  C   UNL     1       3.685 -10.735   2.558  1.00  0.00     0.040 A 
ATOM     52  F   UNL     1       3.220  -9.634   0.542  1.00  0.00    -0.206 F 
ATOM     53  C   UNL     1       4.602 -11.205   3.495  1.00  0.00     0.006 A 
ENDBRANCH  25  46
BRANCH  37  54
ATOM     54  C   UNL     1       9.280 -11.684  -4.301  1.00  0.00     0.057 A 
ATOM     55  C   UNL     1       8.542 -12.821  -4.656  1.00  0.00     0.134 A 
ATOM     56  C   UNL     1      10.676 -11.786  -4.312  1.00  0.00     0.134 A 
ATOM     57  F   UNL     1       7.201 -12.792  -4.646  1.00  0.00    -0.206 F 
ATOM     58  C   UNL     1       9.171 -14.023  -4.980  1.00  0.00     0.040 A 
ATOM     59  C   UNL     1      11.316 -12.973  -4.666  1.00  0.00     0.040 A 
ATOM     60  F   UNL     1      11.440 -10.732  -3.989  1.00  0.00    -0.206 F 
ATOM     61  C   UNL     1      10.562 -14.099  -4.993  1.00  0.00     0.006 A 
ENDBRANCH  37  54
ENDBRANCH  11  12
ENDBRANCH   4   6
ENDBRANCH   1   2
BRANCH   1  62
ATOM     62  C   UNL     1       4.764   2.289   0.138  1.00  0.00     0.042 C 
BRANCH  62  63
ATOM     63  C   UNL     1       4.121   3.470   0.838  1.00  0.00     0.118 C 
BRANCH  63  64
ATOM     64  N   UNL     1       4.940   3.959   1.938  1.00  0.00    -0.351 N 
ATOM     65  C   UNL     1       5.729   5.044   2.149  1.00  0.00     0.278 C 
ATOM     66  H   UNL     1       4.917   3.357   2.717  1.00  0.00     0.163 HD
ATOM     67  O   UNL     1       6.277   5.083   3.262  1.00  0.00    -0.268 OA
BRANCH  65  68
ATOM     68  C   UNL     1       6.004   6.176   1.127  1.00  0.00     0.277 C 
ATOM     69  C   UNL     1       5.153   6.102  -0.130  1.00  0.00     0.114 C 
ATOM     70  N   UNL     1       5.828   7.485   1.833  1.00  0.00    -0.324 N 
ATOM     71  C   UNL     1       5.231   7.325  -0.932  1.00  0.00    -0.006 A 
ATOM     72  C   UNL     1       6.167   8.677   1.033  1.00  0.00     0.264 C 
ATOM     73  H   UNL     1       6.424   7.480   2.661  1.00  0.00     0.347 HD
ATOM     74  H   UNL     1       4.834   7.561   2.048  1.00  0.00     0.347 HD
ATOM     75  C   UNL     1       5.653   8.507  -0.375  1.00  0.00     0.083 A 
ATOM     76  C   UNL     1       4.806   7.547  -2.255  1.00  0.00     0.003 A 
ATOM     77  N   UNL     1       5.451   9.478  -1.324  1.00  0.00    -0.353 N 
ATOM     78  C   UNL     1       4.939   8.915  -2.482  1.00  0.00     0.046 A 
ATOM     79  C   UNL     1       4.283   6.713  -3.261  1.00  0.00     0.010 A 
ATOM     80  H   UNL     1       5.643  10.436  -1.200  1.00  0.00     0.166 HD
ATOM     81  C   UNL     1       4.562   9.494  -3.700  1.00  0.00     0.026 A 
ATOM     82  C   UNL     1       3.912   7.276  -4.481  1.00  0.00     0.001 A 
ATOM     83  C   UNL     1       4.049   8.646  -4.693  1.00  0.00     0.002 A 
BRANCH  72  84
ATOM     84  C   UNL     1       7.638   9.057   1.069  1.00  0.00     0.041 A 
ATOM     85  C   UNL     1       8.100  10.261   0.547  1.00  0.00     0.093 A 
ATOM     86  C   UNL     1       8.815   8.394   1.602  1.00  0.00     0.009 A 
ATOM     87  N   UNL     1       9.459  10.303   0.637  1.00  0.00    -0.361 N 
ATOM     88  C   UNL     1       9.925   9.178   1.265  1.00  0.00     0.046 A 
ATOM     89  C   UNL     1       9.081   7.209   2.330  1.00  0.00     0.011 A 
ATOM     90  H   UNL     1      10.023  11.035   0.299  1.00  0.00     0.166 HD
ATOM     91  C   UNL     1      11.248   8.817   1.556  1.00  0.00     0.026 A 
ATOM     92  C   UNL     1      10.397   6.832   2.632  1.00  0.00     0.001 A 
ATOM     93  C   UNL     1      11.467   7.622   2.238  1.00  0.00     0.002 A 
ENDBRANCH  72  84
ENDBRANCH  65  68
ENDBRANCH  63  64
ENDBRANCH  62  63
ENDBRANCH   1  62
TORSDOF 11
