REMARK SMILES C/C(=N\NC(N)=O)c1nnn(-c2ccc(C(=O)NCCCNC(=O)c3ccc(-c4c5nc(c(-c6c(F)cccc6F)c6ccc([nH]6)c(-c6c(F)cccc6F)c6nc(c(-c7c(F)cccc7F)c7ccc4[nH]7)C=C6)C=C5)cc3)cc2)c1C
REMARK SMILES IDX 19 1 18 2 16 3 17 4 15 6 12 7 13 8 80 9 14 10 79 11 11 12
REMARK SMILES IDX 8 13 9 14 81 15 10 16 82 17 2 18 1 19 3 20 4 21 5 22 6 24
REMARK SMILES IDX 7 25 20 28 21 29 22 30 23 31 24 33 25 34 26 35 78 36 27 37
REMARK SMILES IDX 77 38 28 39 29 40 30 41 71 42 31 43 76 44 70 45 72 46 32 47
REMARK SMILES IDX 75 48 69 49 68 50 33 52 59 53 42 54 58 55 43 56 46 57 57 58
REMARK SMILES IDX 73 59 44 60 45 61 56 63 74 64 47 65 34 66 35 67 40 68 36 69
REMARK SMILES IDX 37 70 39 71 41 72 38 73 60 74 61 75 66 76 62 77 63 78 65 79
REMARK SMILES IDX 67 80 64 81 48 82 49 83 54 84 50 85 51 86 53 87 55 88 52 89
REMARK H PARENT 18 5 4 23 6 26 6 27 22 32 72 51 46 62
REMARK Flexibility Score: inf
ROOT
ATOM      1  C   UNL     1       8.012   6.178  -0.586  1.00  0.00     0.118 C 
ENDROOT
BRANCH   1   2
ATOM      2  N   UNL     1       7.646   7.177   0.412  1.00  0.00    -0.352 N 
ATOM      3  C   UNL     1       6.451   7.453   1.041  1.00  0.00     0.251 C 
ATOM      4  O   UNL     1       6.455   8.278   1.954  1.00  0.00    -0.269 OA
ATOM      5  H   UNL     1       8.389   7.761   0.688  1.00  0.00     0.163 HD
BRANCH   3   6
ATOM      6  C   UNL     1       5.179   6.753   0.698  1.00  0.00     0.039 A 
ATOM      7  C   UNL     1       2.900   5.214   0.236  1.00  0.00     0.067 A 
ATOM      8  C   UNL     1       3.034   5.875   1.458  1.00  0.00     0.029 A 
ATOM      9  C   UNL     1       3.817   5.414  -0.791  1.00  0.00     0.029 A 
ATOM     10  C   UNL     1       4.195   6.623   1.694  1.00  0.00     0.016 A 
ATOM     11  C   UNL     1       4.923   6.221  -0.566  1.00  0.00     0.016 A 
BRANCH   7  12
ATOM     12  N   UNL     1       1.897   4.252   0.052  1.00  0.00    -0.217 N 
ATOM     13  C   UNL     1       0.790   2.429  -0.338  1.00  0.00     0.132 A 
ATOM     14  N   UNL     1      -0.099   3.440  -0.077  1.00  0.00    -0.128 NA
ATOM     15  C   UNL     1       2.080   2.914  -0.244  1.00  0.00     0.071 A 
ATOM     16  N   UNL     1       0.593   4.527   0.240  1.00  0.00    -0.061 NA
ATOM     17  C   UNL     1       3.394   2.227  -0.262  1.00  0.00     0.069 C 
BRANCH  13  18
ATOM     18  C   UNL     1       0.380   1.042  -0.463  1.00  0.00     0.087 C 
ATOM     19  C   UNL     1       0.629   0.182   0.748  1.00  0.00     0.071 C 
ATOM     20  N   UNL     1      -0.185   0.723  -1.590  1.00  0.00    -0.174 NA
BRANCH  20  21
ATOM     21  N   UNL     1      -0.618  -0.541  -1.875  1.00  0.00    -0.229 N 
ATOM     22  C   UNL     1       0.005  -1.734  -1.584  1.00  0.00     0.332 C 
ATOM     23  H   UNL     1      -1.480  -0.608  -2.347  1.00  0.00     0.195 HD
ATOM     24  N   UNL     1      -0.734  -2.812  -1.972  1.00  0.00    -0.350 N 
ATOM     25  O   UNL     1       1.085  -1.899  -1.033  1.00  0.00    -0.247 OA
ATOM     26  H   UNL     1      -1.603  -2.679  -2.415  1.00  0.00     0.161 HD
ATOM     27  H   UNL     1      -0.399  -3.723  -1.809  1.00  0.00     0.161 HD
ENDBRANCH  20  21
ENDBRANCH  13  18
ENDBRANCH   7  12
ENDBRANCH   3   6
ENDBRANCH   1   2
BRANCH   1  28
ATOM     28  C   UNL     1       7.955   6.733  -2.018  1.00  0.00     0.042 C 
BRANCH  28  29
ATOM     29  C   UNL     1       9.238   7.423  -2.436  1.00  0.00     0.118 C 
BRANCH  29  30
ATOM     30  N   UNL     1      10.334   6.480  -2.662  1.00  0.00    -0.352 N 
ATOM     31  C   UNL     1      11.660   6.757  -2.956  1.00  0.00     0.251 C 
ATOM     32  H   UNL     1      10.100   5.526  -2.597  1.00  0.00     0.163 HD
ATOM     33  O   UNL     1      12.381   5.918  -3.462  1.00  0.00    -0.269 OA
BRANCH  31  34
ATOM     34  C   UNL     1      12.176   8.100  -2.640  1.00  0.00     0.039 A 
ATOM     35  C   UNL     1      13.046   8.778  -3.499  1.00  0.00     0.014 A 
ATOM     36  C   UNL     1      11.723   8.694  -1.469  1.00  0.00     0.014 A 
ATOM     37  C   UNL     1      13.388  10.095  -3.202  1.00  0.00     0.010 A 
ATOM     38  C   UNL     1      11.883  10.038  -1.297  1.00  0.00     0.010 A 
ATOM     39  C   UNL     1      12.786  10.721  -2.102  1.00  0.00    -0.014 A 
BRANCH  39  40
ATOM     40  C   UNL     1      13.011  12.126  -1.791  1.00  0.00     0.031 A 
ATOM     41  C   UNL     1      12.608  13.077  -2.862  1.00  0.00     0.074 A 
ATOM     42  C   UNL     1      13.272  12.529  -0.528  1.00  0.00     0.049 A 
ATOM     43  N   UNL     1      13.358  13.881  -3.540  1.00  0.00    -0.248 NA
ATOM     44  C   UNL     1      11.209  13.039  -3.323  1.00  0.00     0.031 C 
ATOM     45  C   UNL     1      13.330  11.712   0.695  1.00  0.00     0.029 A 
ATOM     46  N   UNL     1      13.408  13.790  -0.040  1.00  0.00    -0.354 N 
ATOM     47  C   UNL     1      12.493  14.609  -4.356  1.00  0.00     0.074 A 
ATOM     48  C   UNL     1      11.236  13.910  -4.334  1.00  0.00     0.031 C 
ATOM     49  C   UNL     1      13.236  12.509   1.780  1.00  0.00     0.029 A 
ATOM     50  C   UNL     1      13.303  13.888   1.343  1.00  0.00     0.049 A 
ATOM     51  H   UNL     1      13.567  14.570  -0.619  1.00  0.00     0.167 HD
ATOM     52  C   UNL     1      12.803  15.873  -4.761  1.00  0.00     0.037 A 
ATOM     53  C   UNL     1      13.245  15.030   2.069  1.00  0.00     0.037 A 
ATOM     54  C   UNL     1      14.207  16.146  -4.571  1.00  0.00     0.049 A 
ATOM     55  C   UNL     1      13.738  16.127   1.201  1.00  0.00     0.074 A 
ATOM     56  C   UNL     1      15.382  15.575  -5.020  1.00  0.00     0.029 A 
ATOM     57  N   UNL     1      14.562  16.924  -3.496  1.00  0.00    -0.354 N 
ATOM     58  N   UNL     1      14.972  16.234   0.793  1.00  0.00    -0.248 NA
ATOM     59  C   UNL     1      12.755  16.851   0.411  1.00  0.00     0.031 C 
ATOM     60  C   UNL     1      16.272  15.640  -3.906  1.00  0.00     0.029 A 
ATOM     61  C   UNL     1      15.615  16.308  -2.871  1.00  0.00     0.049 A 
ATOM     62  H   UNL     1      14.138  17.770  -3.225  1.00  0.00     0.167 HD
ATOM     63  C   UNL     1      14.874  16.663  -0.522  1.00  0.00     0.074 A 
ATOM     64  C   UNL     1      13.492  17.118  -0.670  1.00  0.00     0.031 C 
ATOM     65  C   UNL     1      15.829  16.335  -1.442  1.00  0.00     0.037 A 
BRANCH  52  66
ATOM     66  C   UNL     1      11.794  16.986  -4.946  1.00  0.00     0.057 A 
ATOM     67  C   UNL     1      12.230  18.220  -5.466  1.00  0.00     0.134 A 
ATOM     68  C   UNL     1      10.506  17.008  -4.372  1.00  0.00     0.134 A 
ATOM     69  F   UNL     1      13.439  18.340  -6.034  1.00  0.00    -0.206 F 
ATOM     70  C   UNL     1      11.482  19.398  -5.342  1.00  0.00     0.040 A 
ATOM     71  C   UNL     1       9.728  18.167  -4.292  1.00  0.00     0.040 A 
ATOM     72  F   UNL     1       9.965  15.946  -3.766  1.00  0.00    -0.206 F 
ATOM     73  C   UNL     1      10.229  19.376  -4.744  1.00  0.00     0.006 A 
ENDBRANCH  52  66
BRANCH  53  74
ATOM     74  C   UNL     1      12.534  15.285   3.341  1.00  0.00     0.057 A 
ATOM     75  C   UNL     1      12.850  16.396   4.135  1.00  0.00     0.134 A 
ATOM     76  C   UNL     1      11.347  14.607   3.669  1.00  0.00     0.134 A 
ATOM     77  F   UNL     1      13.943  17.127   3.877  1.00  0.00    -0.206 F 
ATOM     78  C   UNL     1      12.018  16.827   5.177  1.00  0.00     0.040 A 
ATOM     79  C   UNL     1      10.510  15.023   4.710  1.00  0.00     0.040 A 
ATOM     80  F   UNL     1      10.915  13.573   2.932  1.00  0.00    -0.206 F 
ATOM     81  C   UNL     1      10.837  16.147   5.459  1.00  0.00     0.006 A 
ENDBRANCH  53  74
BRANCH  65  82
ATOM     82  C   UNL     1      17.112  15.729  -0.939  1.00  0.00     0.057 A 
ATOM     83  C   UNL     1      17.200  14.486  -0.293  1.00  0.00     0.134 A 
ATOM     84  C   UNL     1      18.320  16.357  -1.257  1.00  0.00     0.134 A 
ATOM     85  F   UNL     1      16.108  13.758  -0.035  1.00  0.00    -0.206 F 
ATOM     86  C   UNL     1      18.428  13.918   0.058  1.00  0.00     0.040 A 
ATOM     87  C   UNL     1      19.555  15.786  -0.943  1.00  0.00     0.040 A 
ATOM     88  F   UNL     1      18.320  17.521  -1.925  1.00  0.00    -0.206 F 
ATOM     89  C   UNL     1      19.613  14.566  -0.274  1.00  0.00     0.006 A 
ENDBRANCH  65  82
ENDBRANCH  39  40
ENDBRANCH  31  34
ENDBRANCH  29  30
ENDBRANCH  28  29
ENDBRANCH   1  28
TORSDOF 13
