REMARK SMILES Cc1c(Br)c(C)c2c(c1Br)O[C@H](C(F)(F)F)C(C(=O)NCCCNC(=O)c1ccc(-c3c4nc(c(-c5c(F)cccc5F)c5ccc([nH]5)c(-c5c(F)cccc5F)c5nc(c(-c6c(F)cccc6F)c6ccc3[nH]6)C=C5)C=C4)cc1)=C2
REMARK SMILES IDX 22 1 21 2 20 3 18 4 19 5 17 7 1 8 2 9 3 10 9 11 4 12 5 13
REMARK SMILES IDX 8 14 10 15 6 16 7 17 11 18 81 19 12 20 13 21 14 22 15 23
REMARK SMILES IDX 16 24 23 25 24 26 25 27 26 29 27 30 28 31 80 32 29 33 79 34
REMARK SMILES IDX 30 35 31 36 32 37 73 38 33 39 78 40 72 41 74 42 34 43 77 44
REMARK SMILES IDX 71 45 70 46 35 48 61 49 44 50 60 51 45 52 48 53 59 54 75 55
REMARK SMILES IDX 46 56 47 57 58 59 76 60 49 61 36 62 37 63 42 64 38 65 39 66
REMARK SMILES IDX 41 67 43 68 40 69 62 70 63 71 68 72 64 73 65 74 67 75 69 76
REMARK SMILES IDX 66 77 50 78 51 79 56 80 52 81 53 82 55 83 57 84 54 85
REMARK H PARENT 20 6 24 28 74 47 48 58
REMARK Flexibility Score: inf
ROOT
ATOM      1  C   UNL     1      -1.847  -6.091  -7.114  1.00  0.00     0.042 C 
ENDROOT
BRANCH   1   2
ATOM      2  C   UNL     1      -0.664  -5.164  -7.345  1.00  0.00     0.118 C 
BRANCH   2   3
ATOM      3  N   UNL     1      -1.094  -3.818  -7.693  1.00  0.00    -0.352 N 
ATOM      4  C   UNL     1      -1.129  -2.603  -7.100  1.00  0.00     0.251 C 
ATOM      5  O   UNL     1      -1.607  -1.695  -7.788  1.00  0.00    -0.270 OA
ATOM      6  H   UNL     1      -1.457  -3.782  -8.608  1.00  0.00     0.163 HD
BRANCH   4   7
ATOM      7  C   UNL     1      -0.644  -2.311  -5.721  1.00  0.00     0.067 C 
ATOM      8  C   UNL     1       1.031   0.161   0.110  1.00  0.00     0.047 C 
ATOM      9  C   UNL     1       0.536  -0.106  -1.292  1.00  0.00    -0.019 A 
ATOM     10  C   UNL     1       0.163   0.938  -2.178  1.00  0.00     0.025 A 
ATOM     11  C   UNL     1       0.493  -1.427  -1.774  1.00  0.00     0.064 A 
ATOM     12  Br  UNL     1       0.312   2.757  -1.580  1.00  0.00    -0.050 Br
ATOM     13  C   UNL     1      -0.296   0.669  -3.496  1.00  0.00    -0.026 A 
ATOM     14  C   UNL     1       0.049  -1.703  -3.074  1.00  0.00     0.142 A 
ATOM     15  Br  UNL     1       1.088  -2.899  -0.697  1.00  0.00    -0.046 Br
ATOM     16  C   UNL     1      -0.722   1.765  -4.450  1.00  0.00     0.046 C 
ATOM     17  C   UNL     1      -0.353  -0.675  -3.936  1.00  0.00     0.022 A 
ATOM     18  O   UNL     1      -0.026  -3.020  -3.442  1.00  0.00    -0.474 OA
ATOM     19  C   UNL     1      -0.838  -1.058  -5.271  1.00  0.00     0.026 C 
ATOM     20  C   UNL     1       0.050  -3.311  -4.854  1.00  0.00     0.314 C 
BRANCH  20  21
ATOM     21  C   UNL     1       1.514  -3.554  -5.266  1.00  0.00     0.429 C 
ATOM     22  F   UNL     1       1.967  -4.717  -4.734  1.00  0.00    -0.167 F 
ATOM     23  F   UNL     1       1.665  -3.664  -6.608  1.00  0.00    -0.167 F 
ATOM     24  F   UNL     1       2.343  -2.568  -4.859  1.00  0.00    -0.167 F 
ENDBRANCH  20  21
ENDBRANCH   4   7
ENDBRANCH   2   3
ENDBRANCH   1   2
BRANCH   1  25
ATOM     25  C   UNL     1      -2.467  -6.556  -8.424  1.00  0.00     0.118 C 
BRANCH  25  26
ATOM     26  N   UNL     1      -1.532  -7.358  -9.209  1.00  0.00    -0.352 N 
ATOM     27  C   UNL     1      -1.485  -8.712  -9.414  1.00  0.00     0.251 C 
ATOM     28  H   UNL     1      -0.824  -6.846  -9.662  1.00  0.00     0.163 HD
ATOM     29  O   UNL     1      -0.461  -9.232  -9.857  1.00  0.00    -0.269 OA
BRANCH  27  30
ATOM     30  C   UNL     1      -2.661  -9.544  -9.107  1.00  0.00     0.039 A 
ATOM     31  C   UNL     1      -2.483 -10.805  -8.531  1.00  0.00     0.014 A 
ATOM     32  C   UNL     1      -3.944  -9.085  -9.415  1.00  0.00     0.014 A 
ATOM     33  C   UNL     1      -3.600 -11.577  -8.212  1.00  0.00     0.010 A 
ATOM     34  C   UNL     1      -5.053  -9.804  -9.000  1.00  0.00     0.010 A 
ATOM     35  C   UNL     1      -4.893 -11.067  -8.415  1.00  0.00    -0.014 A 
BRANCH  35  36
ATOM     36  C   UNL     1      -6.098 -11.854  -8.069  1.00  0.00     0.031 A 
ATOM     37  C   UNL     1      -7.055 -12.262  -9.155  1.00  0.00     0.074 A 
ATOM     38  C   UNL     1      -6.356 -12.148  -6.781  1.00  0.00     0.049 A 
ATOM     39  N   UNL     1      -8.197 -12.892  -9.055  1.00  0.00    -0.248 NA
ATOM     40  C   UNL     1      -6.696 -11.889 -10.534  1.00  0.00     0.031 C 
ATOM     41  C   UNL     1      -5.518 -11.767  -5.642  1.00  0.00     0.029 A 
ATOM     42  N   UNL     1      -7.397 -12.836  -6.213  1.00  0.00    -0.354 N 
ATOM     43  C   UNL     1      -8.690 -12.981 -10.350  1.00  0.00     0.074 A 
ATOM     44  C   UNL     1      -7.765 -12.280 -11.210  1.00  0.00     0.031 C 
ATOM     45  C   UNL     1      -6.058 -12.261  -4.516  1.00  0.00     0.029 A 
ATOM     46  C   UNL     1      -7.298 -12.955  -4.848  1.00  0.00     0.049 A 
ATOM     47  H   UNL     1      -8.144 -13.209  -6.734  1.00  0.00     0.167 HD
ATOM     48  C   UNL     1      -9.796 -13.625 -10.788  1.00  0.00     0.037 A 
ATOM     49  C   UNL     1      -8.118 -13.558  -3.967  1.00  0.00     0.037 A 
ATOM     50  C   UNL     1     -10.695 -14.346  -9.929  1.00  0.00     0.049 A 
ATOM     51  C   UNL     1      -9.357 -14.242  -4.475  1.00  0.00     0.074 A 
ATOM     52  C   UNL     1     -11.820 -15.071 -10.276  1.00  0.00     0.029 A 
ATOM     53  N   UNL     1     -10.566 -14.436  -8.551  1.00  0.00    -0.354 N 
ATOM     54  N   UNL     1      -9.784 -14.366  -5.709  1.00  0.00    -0.248 NA
ATOM     55  C   UNL     1     -10.228 -14.868  -3.472  1.00  0.00     0.031 C 
ATOM     56  C   UNL     1     -12.399 -15.561  -9.103  1.00  0.00     0.029 A 
ATOM     57  C   UNL     1     -11.606 -15.185  -8.029  1.00  0.00     0.049 A 
ATOM     58  H   UNL     1      -9.843 -14.028  -8.022  1.00  0.00     0.167 HD
ATOM     59  C   UNL     1     -10.959 -15.102  -5.634  1.00  0.00     0.074 A 
ATOM     60  C   UNL     1     -11.167 -15.412  -4.234  1.00  0.00     0.031 C 
ATOM     61  C   UNL     1     -11.792 -15.485  -6.632  1.00  0.00     0.037 A 
BRANCH  48  62
ATOM     62  C   UNL     1     -10.080 -13.599 -12.261  1.00  0.00     0.057 A 
ATOM     63  C   UNL     1      -9.281 -14.297 -13.176  1.00  0.00     0.134 A 
ATOM     64  C   UNL     1     -11.191 -12.912 -12.767  1.00  0.00     0.134 A 
ATOM     65  F   UNL     1      -8.192 -14.962 -12.760  1.00  0.00    -0.206 F 
ATOM     66  C   UNL     1      -9.565 -14.298 -14.543  1.00  0.00     0.040 A 
ATOM     67  C   UNL     1     -11.502 -12.930 -14.127  1.00  0.00     0.040 A 
ATOM     68  F   UNL     1     -12.000 -12.226 -11.946  1.00  0.00    -0.206 F 
ATOM     69  C   UNL     1     -10.685 -13.622 -15.020  1.00  0.00     0.006 A 
ENDBRANCH  48  62
BRANCH  49  70
ATOM     70  C   UNL     1      -7.768 -13.576  -2.524  1.00  0.00     0.057 A 
ATOM     71  C   UNL     1      -7.382 -14.764  -1.894  1.00  0.00     0.134 A 
ATOM     72  C   UNL     1      -7.788 -12.412  -1.746  1.00  0.00     0.134 A 
ATOM     73  F   UNL     1      -7.357 -15.915  -2.582  1.00  0.00    -0.206 F 
ATOM     74  C   UNL     1      -7.039 -14.798  -0.541  1.00  0.00     0.040 A 
ATOM     75  C   UNL     1      -7.423 -12.426  -0.399  1.00  0.00     0.040 A 
ATOM     76  F   UNL     1      -8.140 -11.238  -2.292  1.00  0.00    -0.206 F 
ATOM     77  C   UNL     1      -7.052 -13.624   0.208  1.00  0.00     0.006 A 
ENDBRANCH  49  70
BRANCH  61  78
ATOM     78  C   UNL     1     -13.000 -16.291  -6.257  1.00  0.00     0.057 A 
ATOM     79  C   UNL     1     -14.096 -15.711  -5.606  1.00  0.00     0.134 A 
ATOM     80  C   UNL     1     -13.104 -17.638  -6.627  1.00  0.00     0.134 A 
ATOM     81  F   UNL     1     -14.055 -14.428  -5.216  1.00  0.00    -0.206 F 
ATOM     82  C   UNL     1     -15.249 -16.446  -5.326  1.00  0.00     0.040 A 
ATOM     83  C   UNL     1     -14.262 -18.375  -6.379  1.00  0.00     0.040 A 
ATOM     84  F   UNL     1     -12.094 -18.249  -7.265  1.00  0.00    -0.206 F 
ATOM     85  C   UNL     1     -15.338 -17.779  -5.724  1.00  0.00     0.006 A 
ENDBRANCH  61  78
ENDBRANCH  35  36
ENDBRANCH  27  30
ENDBRANCH  25  26
ENDBRANCH   1  25
TORSDOF 11
