REMARK SMILES Cc1cc(C)nc(N2CCCC[C@H]2C(=O)NCCCNC(=O)c2ccc(-c3c4nc(c(-c5c(F)cccc5F)c5ccc([nH]5)c(-c5c(F)cccc5F)c5nc(c(-c6c(F)cccc6F)c6ccc3[nH]6)C=C5)C=C4)cc2)n1
REMARK SMILES IDX 18 1 17 2 16 3 14 4 15 5 13 7 8 8 9 9 10 10 12 11 11 12 7 13
REMARK SMILES IDX 1 14 2 15 3 16 77 17 4 18 5 19 6 20 19 21 20 22 21 23 22 25
REMARK SMILES IDX 23 26 24 27 76 28 25 29 75 30 26 31 27 32 28 33 69 34 29 35
REMARK SMILES IDX 74 36 68 37 70 38 30 39 73 40 67 41 66 42 31 44 57 45 40 46
REMARK SMILES IDX 56 47 41 48 44 49 55 50 71 51 42 52 43 53 54 55 72 56 45 57
REMARK SMILES IDX 32 58 33 59 38 60 34 61 35 62 37 63 39 64 36 65 58 66 59 67
REMARK SMILES IDX 64 68 60 69 61 70 63 71 65 72 62 73 46 74 47 75 52 76 48 77
REMARK SMILES IDX 49 78 51 79 53 80 50 81
REMARK H PARENT 16 6 20 24 70 43 44 54
REMARK Flexibility Score: inf
ROOT
ATOM      1  C   UNL     1       3.881  -0.561   1.639  1.00  0.00     0.042 C 
ENDROOT
BRANCH   1   2
ATOM      2  C   UNL     1       2.902  -1.446   0.916  1.00  0.00     0.117 C 
BRANCH   2   3
ATOM      3  N   UNL     1       3.133  -2.854   1.072  1.00  0.00    -0.354 N 
ATOM      4  C   UNL     1       2.169  -3.822   1.095  1.00  0.00     0.242 C 
ATOM      5  O   UNL     1       2.572  -4.987   1.046  1.00  0.00    -0.273 OA
ATOM      6  H   UNL     1       4.068  -3.148   1.171  1.00  0.00     0.163 HD
BRANCH   4   7
ATOM      7  C   UNL     1       0.660  -3.434   1.224  1.00  0.00     0.174 C 
ATOM      8  N   UNL     1       0.065  -2.995  -0.044  1.00  0.00    -0.329 N 
ATOM      9  C   UNL     1      -0.042  -3.940  -1.131  1.00  0.00     0.120 C 
ATOM     10  C   UNL     1      -0.829  -5.166  -0.657  1.00  0.00     0.022 C 
ATOM     11  C   UNL     1      -0.141  -4.647   1.731  1.00  0.00     0.035 C 
ATOM     12  C   UNL     1      -0.314  -5.735   0.665  1.00  0.00     0.004 C 
BRANCH   8  13
ATOM     13  C   UNL     1      -0.222  -1.675  -0.279  1.00  0.00     0.226 A 
ATOM     14  C   UNL     1       1.748   1.309  -1.103  1.00  0.00     0.067 C 
ATOM     15  C   UNL     1       0.559   0.444  -0.797  1.00  0.00     0.043 A 
ATOM     16  C   UNL     1      -0.635   1.014  -0.436  1.00  0.00     0.047 A 
ATOM     17  N   UNL     1       0.745  -0.893  -0.779  1.00  0.00    -0.218 NA
ATOM     18  C   UNL     1      -1.626   0.138  -0.047  1.00  0.00     0.043 A 
ATOM     19  C   UNL     1      -2.987   0.677   0.276  1.00  0.00     0.067 C 
ATOM     20  N   UNL     1      -1.419  -1.194   0.083  1.00  0.00    -0.218 NA
ENDBRANCH   8  13
ENDBRANCH   4   7
ENDBRANCH   2   3
ENDBRANCH   1   2
BRANCH   1  21
ATOM     21  C   UNL     1       5.252  -0.544   0.997  1.00  0.00     0.118 C 
BRANCH  21  22
ATOM     22  N   UNL     1       5.259  -0.009  -0.365  1.00  0.00    -0.352 N 
ATOM     23  C   UNL     1       5.793   1.143  -0.889  1.00  0.00     0.251 C 
ATOM     24  H   UNL     1       4.798  -0.576  -1.024  1.00  0.00     0.163 HD
ATOM     25  O   UNL     1       5.528   1.466  -2.046  1.00  0.00    -0.269 OA
BRANCH  23  26
ATOM     26  C   UNL     1       6.651   2.020  -0.065  1.00  0.00     0.039 A 
ATOM     27  C   UNL     1       6.616   3.404  -0.258  1.00  0.00     0.014 A 
ATOM     28  C   UNL     1       7.489   1.484   0.908  1.00  0.00     0.014 A 
ATOM     29  C   UNL     1       7.362   4.237   0.579  1.00  0.00     0.010 A 
ATOM     30  C   UNL     1       8.076   2.312   1.849  1.00  0.00     0.010 A 
ATOM     31  C   UNL     1       8.063   3.698   1.669  1.00  0.00    -0.014 A 
BRANCH  31  32
ATOM     32  C   UNL     1       8.852   4.542   2.599  1.00  0.00     0.031 A 
ATOM     33  C   UNL     1      10.321   4.263   2.796  1.00  0.00     0.074 A 
ATOM     34  C   UNL     1       8.238   5.491   3.329  1.00  0.00     0.049 A 
ATOM     35  N   UNL     1      11.166   4.817   3.626  1.00  0.00    -0.248 NA
ATOM     36  C   UNL     1      10.905   3.174   1.993  1.00  0.00     0.031 C 
ATOM     37  C   UNL     1       6.806   5.796   3.296  1.00  0.00     0.029 A 
ATOM     38  N   UNL     1       8.742   6.368   4.254  1.00  0.00    -0.354 N 
ATOM     39  C   UNL     1      12.359   4.121   3.467  1.00  0.00     0.074 A 
ATOM     40  C   UNL     1      12.105   3.049   2.534  1.00  0.00     0.031 C 
ATOM     41  C   UNL     1       6.553   6.811   4.136  1.00  0.00     0.029 A 
ATOM     42  C   UNL     1       7.795   7.202   4.794  1.00  0.00     0.049 A 
ATOM     43  H   UNL     1       9.694   6.397   4.507  1.00  0.00     0.167 HD
ATOM     44  C   UNL     1      13.570   4.373   4.016  1.00  0.00     0.037 A 
ATOM     45  C   UNL     1       7.917   8.172   5.719  1.00  0.00     0.037 A 
ATOM     46  C   UNL     1      13.824   5.471   4.909  1.00  0.00     0.049 A 
ATOM     47  C   UNL     1       9.277   8.475   6.280  1.00  0.00     0.074 A 
ATOM     48  C   UNL     1      15.026   5.880   5.455  1.00  0.00     0.029 A 
ATOM     49  N   UNL     1      12.849   6.336   5.386  1.00  0.00    -0.354 N 
ATOM     50  N   UNL     1      10.419   7.872   6.050  1.00  0.00    -0.248 NA
ATOM     51  C   UNL     1       9.370   9.604   7.214  1.00  0.00     0.031 C 
ATOM     52  C   UNL     1      14.770   6.960   6.307  1.00  0.00     0.029 A 
ATOM     53  C   UNL     1      13.418   7.263   6.242  1.00  0.00     0.049 A 
ATOM     54  H   UNL     1      11.894   6.296   5.151  1.00  0.00     0.167 HD
ATOM     55  C   UNL     1      11.371   8.560   6.791  1.00  0.00     0.074 A 
ATOM     56  C   UNL     1      10.672   9.638   7.462  1.00  0.00     0.031 C 
ATOM     57  C   UNL     1      12.702   8.325   6.905  1.00  0.00     0.037 A 
BRANCH  44  58
ATOM     58  C   UNL     1      14.696   3.443   3.658  1.00  0.00     0.057 A 
ATOM     59  C   UNL     1      15.204   3.349   2.353  1.00  0.00     0.134 A 
ATOM     60  C   UNL     1      15.271   2.612   4.629  1.00  0.00     0.134 A 
ATOM     61  F   UNL     1      14.692   4.104   1.369  1.00  0.00    -0.206 F 
ATOM     62  C   UNL     1      16.200   2.430   2.017  1.00  0.00     0.040 A 
ATOM     63  C   UNL     1      16.294   1.716   4.313  1.00  0.00     0.040 A 
ATOM     64  F   UNL     1      14.842   2.650   5.899  1.00  0.00    -0.206 F 
ATOM     65  C   UNL     1      16.751   1.613   3.001  1.00  0.00     0.006 A 
ENDBRANCH  44  58
BRANCH  45  66
ATOM     66  C   UNL     1       6.718   8.945   6.131  1.00  0.00     0.057 A 
ATOM     67  C   UNL     1       6.544  10.277   5.740  1.00  0.00     0.134 A 
ATOM     68  C   UNL     1       5.701   8.359   6.894  1.00  0.00     0.134 A 
ATOM     69  F   UNL     1       7.489  10.898   5.018  1.00  0.00    -0.206 F 
ATOM     70  C   UNL     1       5.409  11.004   6.103  1.00  0.00     0.040 A 
ATOM     71  C   UNL     1       4.548   9.065   7.242  1.00  0.00     0.040 A 
ATOM     72  F   UNL     1       5.800   7.081   7.287  1.00  0.00    -0.206 F 
ATOM     73  C   UNL     1       4.403  10.394   6.850  1.00  0.00     0.006 A 
ENDBRANCH  45  66
BRANCH  57  74
ATOM     74  C   UNL     1      13.492   9.270   7.764  1.00  0.00     0.057 A 
ATOM     75  C   UNL     1      13.362   9.292   9.158  1.00  0.00     0.134 A 
ATOM     76  C   UNL     1      14.418  10.148   7.186  1.00  0.00     0.134 A 
ATOM     77  F   UNL     1      12.486   8.483   9.773  1.00  0.00    -0.206 F 
ATOM     78  C   UNL     1      14.102  10.177   9.944  1.00  0.00     0.040 A 
ATOM     79  C   UNL     1      15.186  11.014   7.964  1.00  0.00     0.040 A 
ATOM     80  F   UNL     1      14.600  10.170   5.857  1.00  0.00    -0.206 F 
ATOM     81  C   UNL     1      15.022  11.037   9.347  1.00  0.00     0.006 A 
ENDBRANCH  57  74
ENDBRANCH  31  32
ENDBRANCH  23  26
ENDBRANCH  21  22
ENDBRANCH   1  21
TORSDOF 11
