REMARK SMILES C[C@@](NC(=O)c1cc(Br)c[nH]1)(C(=O)NCCCNC(=O)c1ccc(-c2c3nc(c(-c4c(F)cccc4F)c4ccc([nH]4)c(-c4c(F)cccc4F)c4nc(c(-c5c(F)cccc5F)c5ccc2[nH]5)C=C4)C=C3)cc1)C(F)(F)F
REMARK SMILES IDX 16 1 15 2 14 3 12 4 13 5 2 7 1 8 3 9 4 10 5 12 6 13 7 14
REMARK SMILES IDX 11 15 8 16 10 17 9 19 75 20 76 21 77 22 78 23 17 24 18 25
REMARK SMILES IDX 19 26 20 28 21 29 22 30 74 31 23 32 73 33 24 34 25 35 26 36
REMARK SMILES IDX 67 37 27 38 72 39 66 40 68 41 28 42 71 43 65 44 64 45 29 47
REMARK SMILES IDX 55 48 38 49 54 50 39 51 42 52 53 53 69 54 40 55 41 56 52 58
REMARK SMILES IDX 70 59 43 60 30 61 31 62 36 63 32 64 33 65 35 66 37 67 34 68
REMARK SMILES IDX 56 69 57 70 62 71 58 72 59 73 61 74 63 75 60 76 44 77 45 78
REMARK SMILES IDX 50 79 46 80 47 81 49 82 51 83 48 84
REMARK H PARENT 14 6 3 11 11 18 18 27 68 46 42 57
REMARK Flexibility Score: inf
ROOT
ATOM      1  C   UNL     1      -1.290   2.407   1.933  1.00  0.00     0.042 C 
ENDROOT
BRANCH   1   2
ATOM      2  C   UNL     1      -0.903   0.938   1.987  1.00  0.00     0.117 C 
BRANCH   2   3
ATOM      3  N   UNL     1      -1.361   0.215   0.811  1.00  0.00    -0.354 N 
ATOM      4  C   UNL     1      -0.827  -0.849   0.147  1.00  0.00     0.254 C 
ATOM      5  O   UNL     1      -1.483  -1.268  -0.811  1.00  0.00    -0.272 OA
ATOM      6  H   UNL     1      -2.203   0.553   0.428  1.00  0.00     0.163 HD
BRANCH   4   7
ATOM      7  C   UNL     1       0.567  -1.404   0.476  1.00  0.00     0.212 C 
ATOM      8  C   UNL     1       1.591  -0.379  -0.063  1.00  0.00     0.056 C 
BRANCH   7   9
ATOM      9  N   UNL     1       0.830  -1.592   1.935  1.00  0.00    -0.329 N 
ATOM     10  C   UNL     1       0.133  -2.261   2.910  1.00  0.00     0.268 C 
ATOM     11  H   UNL     1       1.653  -1.157   2.256  1.00  0.00     0.165 HD
ATOM     12  O   UNL     1       0.753  -2.542   3.934  1.00  0.00    -0.268 OA
BRANCH  10  13
ATOM     13  C   UNL     1      -1.294  -2.434   2.798  1.00  0.00     0.105 A 
ATOM     14  C   UNL     1      -2.245  -1.984   3.708  1.00  0.00     0.049 A 
ATOM     15  N   UNL     1      -1.990  -3.106   1.815  1.00  0.00    -0.356 N 
ATOM     16  C   UNL     1      -3.511  -2.237   3.159  1.00  0.00     0.036 A 
ATOM     17  C   UNL     1      -3.341  -2.925   1.988  1.00  0.00     0.098 A 
ATOM     18  H   UNL     1      -1.580  -3.636   1.094  1.00  0.00     0.166 HD
ATOM     19  Br  UNL     1      -5.124  -1.676   3.922  1.00  0.00    -0.049 Br
ENDBRANCH  10  13
ENDBRANCH   7   9
BRANCH   7  20
ATOM     20  C   UNL     1       0.769  -2.713  -0.316  1.00  0.00     0.420 C 
ATOM     21  F   UNL     1       0.723  -2.545  -1.654  1.00  0.00    -0.168 F 
ATOM     22  F   UNL     1       1.997  -3.231  -0.038  1.00  0.00    -0.168 F 
ATOM     23  F   UNL     1      -0.131  -3.665   0.023  1.00  0.00    -0.168 F 
ENDBRANCH   7  20
ENDBRANCH   4   7
ENDBRANCH   2   3
ENDBRANCH   1   2
BRANCH   1  24
ATOM     24  C   UNL     1      -2.794   2.652   1.979  1.00  0.00     0.118 C 
BRANCH  24  25
ATOM     25  N   UNL     1      -3.392   2.336   3.270  1.00  0.00    -0.352 N 
ATOM     26  C   UNL     1      -4.106   3.157   4.113  1.00  0.00     0.251 C 
ATOM     27  H   UNL     1      -3.269   1.410   3.581  1.00  0.00     0.163 HD
ATOM     28  O   UNL     1      -4.425   2.780   5.235  1.00  0.00    -0.269 OA
BRANCH  26  29
ATOM     29  C   UNL     1      -4.451   4.521   3.663  1.00  0.00     0.039 A 
ATOM     30  C   UNL     1      -4.123   5.608   4.476  1.00  0.00     0.014 A 
ATOM     31  C   UNL     1      -5.032   4.723   2.409  1.00  0.00     0.014 A 
ATOM     32  C   UNL     1      -4.286   6.905   3.986  1.00  0.00     0.010 A 
ATOM     33  C   UNL     1      -5.119   6.010   1.893  1.00  0.00     0.010 A 
ATOM     34  C   UNL     1      -4.733   7.113   2.671  1.00  0.00    -0.014 A 
BRANCH  34  35
ATOM     35  C   UNL     1      -4.781   8.470   2.071  1.00  0.00     0.031 A 
ATOM     36  C   UNL     1      -6.094   9.050   1.627  1.00  0.00     0.074 A 
ATOM     37  C   UNL     1      -3.634   9.136   1.834  1.00  0.00     0.049 A 
ATOM     38  N   UNL     1      -6.328  10.154   0.966  1.00  0.00    -0.248 NA
ATOM     39  C   UNL     1      -7.300   8.266   1.939  1.00  0.00     0.031 C 
ATOM     40  C   UNL     1      -2.290   8.658   2.166  1.00  0.00     0.029 A 
ATOM     41  N   UNL     1      -3.414  10.353   1.240  1.00  0.00    -0.354 N 
ATOM     42  C   UNL     1      -7.701  10.183   0.758  1.00  0.00     0.074 A 
ATOM     43  C   UNL     1      -8.242   8.968   1.328  1.00  0.00     0.031 C 
ATOM     44  C   UNL     1      -1.389   9.580   1.788  1.00  0.00     0.029 A 
ATOM     45  C   UNL     1      -2.086  10.694   1.155  1.00  0.00     0.049 A 
ATOM     46  H   UNL     1      -4.140  10.928   0.905  1.00  0.00     0.167 HD
ATOM     47  C   UNL     1      -8.445  11.145   0.164  1.00  0.00     0.037 A 
ATOM     48  C   UNL     1      -1.496  11.778   0.617  1.00  0.00     0.037 A 
ATOM     49  C   UNL     1      -7.914  12.373  -0.362  1.00  0.00     0.049 A 
ATOM     50  C   UNL     1      -2.347  12.841  -0.017  1.00  0.00     0.074 A 
ATOM     51  C   UNL     1      -8.597  13.445  -0.909  1.00  0.00     0.029 A 
ATOM     52  N   UNL     1      -6.566  12.694  -0.401  1.00  0.00    -0.354 N 
ATOM     53  N   UNL     1      -3.649  12.882  -0.156  1.00  0.00    -0.248 NA
ATOM     54  C   UNL     1      -1.645  14.008  -0.572  1.00  0.00     0.031 C 
ATOM     55  C   UNL     1      -7.659  14.405  -1.305  1.00  0.00     0.029 A 
ATOM     56  C   UNL     1      -6.395  13.942  -0.978  1.00  0.00     0.049 A 
ATOM     57  H   UNL     1      -5.838  12.121  -0.068  1.00  0.00     0.167 HD
ATOM     58  C   UNL     1      -3.925  14.081  -0.797  1.00  0.00     0.074 A 
ATOM     59  C   UNL     1      -2.656  14.746  -1.008  1.00  0.00     0.031 C 
ATOM     60  C   UNL     1      -5.123  14.586  -1.179  1.00  0.00     0.037 A 
BRANCH  47  61
ATOM     61  C   UNL     1      -9.922  10.906   0.064  1.00  0.00     0.057 A 
ATOM     62  C   UNL     1     -10.757  10.983   1.186  1.00  0.00     0.134 A 
ATOM     63  C   UNL     1     -10.517  10.615  -1.169  1.00  0.00     0.134 A 
ATOM     64  F   UNL     1     -10.244  11.242   2.398  1.00  0.00    -0.206 F 
ATOM     65  C   UNL     1     -12.130  10.755   1.089  1.00  0.00     0.040 A 
ATOM     66  C   UNL     1     -11.893  10.408  -1.283  1.00  0.00     0.040 A 
ATOM     67  F   UNL     1      -9.773  10.530  -2.282  1.00  0.00    -0.206 F 
ATOM     68  C   UNL     1     -12.702  10.471  -0.150  1.00  0.00     0.006 A 
ENDBRANCH  47  61
BRANCH  48  69
ATOM     69  C   UNL     1      -0.022  11.923   0.671  1.00  0.00     0.057 A 
ATOM     70  C   UNL     1       0.577  12.842   1.541  1.00  0.00     0.134 A 
ATOM     71  C   UNL     1       0.821  11.155  -0.140  1.00  0.00     0.134 A 
ATOM     72  F   UNL     1      -0.183  13.618   2.328  1.00  0.00    -0.206 F 
ATOM     73  C   UNL     1       1.962  13.003   1.593  1.00  0.00     0.040 A 
ATOM     74  C   UNL     1       2.209  11.293  -0.085  1.00  0.00     0.040 A 
ATOM     75  F   UNL     1       0.307  10.254  -0.989  1.00  0.00    -0.206 F 
ATOM     76  C   UNL     1       2.783  12.223   0.781  1.00  0.00     0.006 A 
ENDBRANCH  48  69
BRANCH  60  77
ATOM     77  C   UNL     1      -5.115  15.926  -1.848  1.00  0.00     0.057 A 
ATOM     78  C   UNL     1      -4.715  16.076  -3.181  1.00  0.00     0.134 A 
ATOM     79  C   UNL     1      -5.546  17.069  -1.164  1.00  0.00     0.134 A 
ATOM     80  F   UNL     1      -4.278  15.020  -3.884  1.00  0.00    -0.206 F 
ATOM     81  C   UNL     1      -4.730  17.323  -3.808  1.00  0.00     0.040 A 
ATOM     82  C   UNL     1      -5.583  18.317  -1.785  1.00  0.00     0.040 A 
ATOM     83  F   UNL     1      -5.946  16.988   0.114  1.00  0.00    -0.206 F 
ATOM     84  C   UNL     1      -5.170  18.447  -3.110  1.00  0.00     0.006 A 
ENDBRANCH  60  77
ENDBRANCH  34  35
ENDBRANCH  26  29
ENDBRANCH  24  25
ENDBRANCH   1  24
TORSDOF 13
