REMARK SMILES C[C@@H](O)[C@@H](NC(=O)CCOc1ccc(Br)cc1)C(=O)NCCCNC(=O)c1ccc(-c2c3nc(c(-c4c(F)cccc4F)c4ccc([nH]4)c(-c4c(F)cccc4F)c4nc(c(-c5c(F)cccc5F)c5ccc2[nH]5)C=C4)C=C3)cc1
REMARK SMILES IDX 18 1 19 2 20 3 4 5 2 6 1 7 3 8 5 10 6 11 7 13 8 14 9 15
REMARK SMILES IDX 10 16 11 17 12 18 17 19 13 20 16 21 14 22 15 23 21 24 22 25
REMARK SMILES IDX 23 26 24 27 25 28 26 30 27 31 28 32 80 33 29 34 79 35 30 36
REMARK SMILES IDX 31 37 32 38 73 39 33 40 78 41 72 42 74 43 34 44 77 45 71 46
REMARK SMILES IDX 70 47 35 49 61 50 44 51 60 52 45 53 48 54 59 55 75 56 46 57
REMARK SMILES IDX 47 58 58 60 76 61 49 62 36 63 37 64 42 65 38 66 39 67 41 68
REMARK SMILES IDX 43 69 40 70 62 71 63 72 68 73 64 74 65 75 67 76 69 77 66 78
REMARK SMILES IDX 50 79 51 80 56 81 52 82 53 83 55 84 57 85 54 86
REMARK H PARENT 20 4 3 9 5 12 24 29 74 48 48 59
REMARK Flexibility Score: inf
ROOT
ATOM      1  C   UNL     1      -1.531   3.607   0.767  1.00  0.00     0.245 C 
ATOM      2  O   UNL     1      -2.513   4.308   0.490  1.00  0.00    -0.273 OA
ATOM      3  N   UNL     1      -0.754   4.054   1.800  1.00  0.00    -0.354 N 
ATOM      4  H   UNL     1      -0.725   5.030   1.921  1.00  0.00     0.163 HD
ENDROOT
BRANCH   1   5
ATOM      5  C   UNL     1      -1.306   2.252   0.043  1.00  0.00     0.199 C 
BRANCH   5   6
ATOM      6  C   UNL     1       0.162   1.876  -0.309  1.00  0.00     0.143 C 
ATOM      7  C   UNL     1       0.274   0.606  -1.153  1.00  0.00     0.041 C 
BRANCH   6   8
ATOM      8  O   UNL     1       0.746   2.946  -1.067  1.00  0.00    -0.391 OA
ATOM      9  H   UNL     1       0.257   3.060  -1.896  1.00  0.00     0.211 HD
ENDBRANCH   6   8
ENDBRANCH   5   6
BRANCH   5  10
ATOM     10  N   UNL     1      -2.213   1.123   0.348  1.00  0.00    -0.342 N 
ATOM     11  C   UNL     1      -2.715   0.542   1.462  1.00  0.00     0.224 C 
ATOM     12  H   UNL     1      -2.534   0.681  -0.471  1.00  0.00     0.164 HD
ATOM     13  O   UNL     1      -3.252  -0.562   1.335  1.00  0.00    -0.275 OA
BRANCH  11  14
ATOM     14  C   UNL     1      -2.733   1.230   2.796  1.00  0.00     0.141 C 
BRANCH  14  15
ATOM     15  C   UNL     1      -1.970   0.463   3.872  1.00  0.00     0.239 C 
BRANCH  15  16
ATOM     16  O   UNL     1      -0.552   0.504   3.687  1.00  0.00    -0.493 OA
BRANCH  16  17
ATOM     17  C   UNL     1       0.068  -0.473   2.963  1.00  0.00     0.119 A 
ATOM     18  C   UNL     1      -0.513  -1.652   2.503  1.00  0.00     0.047 A 
ATOM     19  C   UNL     1       1.411  -0.218   2.663  1.00  0.00     0.047 A 
ATOM     20  C   UNL     1       0.221  -2.539   1.711  1.00  0.00     0.019 A 
ATOM     21  C   UNL     1       2.148  -1.095   1.865  1.00  0.00     0.019 A 
ATOM     22  C   UNL     1       1.544  -2.252   1.386  1.00  0.00     0.018 A 
ATOM     23  Br  UNL     1       2.518  -3.435   0.282  1.00  0.00    -0.051 Br
ENDBRANCH  16  17
ENDBRANCH  15  16
ENDBRANCH  14  15
ENDBRANCH  11  14
ENDBRANCH   5  10
ENDBRANCH   1   5
BRANCH   3  24
ATOM     24  C   UNL     1       0.029   3.280   2.735  1.00  0.00     0.117 C 
BRANCH  24  25
ATOM     25  C   UNL     1       1.210   4.008   3.337  1.00  0.00     0.042 C 
BRANCH  25  26
ATOM     26  C   UNL     1       0.800   5.029   4.387  1.00  0.00     0.118 C 
BRANCH  26  27
ATOM     27  N   UNL     1       0.161   4.450   5.570  1.00  0.00    -0.352 N 
ATOM     28  C   UNL     1       0.492   4.527   6.907  1.00  0.00     0.251 C 
ATOM     29  H   UNL     1      -0.643   3.914   5.379  1.00  0.00     0.163 HD
ATOM     30  O   UNL     1      -0.142   3.891   7.735  1.00  0.00    -0.269 OA
BRANCH  28  31
ATOM     31  C   UNL     1       1.653   5.342   7.326  1.00  0.00     0.039 A 
ATOM     32  C   UNL     1       2.547   4.829   8.269  1.00  0.00     0.014 A 
ATOM     33  C   UNL     1       1.897   6.576   6.731  1.00  0.00     0.014 A 
ATOM     34  C   UNL     1       3.751   5.498   8.510  1.00  0.00     0.010 A 
ATOM     35  C   UNL     1       3.151   7.153   6.855  1.00  0.00     0.010 A 
ATOM     36  C   UNL     1       4.095   6.626   7.748  1.00  0.00    -0.014 A 
BRANCH  36  37
ATOM     37  C   UNL     1       5.422   7.288   7.854  1.00  0.00     0.031 A 
ATOM     38  C   UNL     1       5.496   8.765   8.140  1.00  0.00     0.074 A 
ATOM     39  C   UNL     1       6.548   6.598   7.578  1.00  0.00     0.049 A 
ATOM     40  N   UNL     1       6.526   9.570   8.092  1.00  0.00    -0.248 NA
ATOM     41  C   UNL     1       4.226   9.440   8.462  1.00  0.00     0.031 C 
ATOM     42  C   UNL     1       6.615   5.181   7.212  1.00  0.00     0.029 A 
ATOM     43  N   UNL     1       7.859   7.005   7.550  1.00  0.00    -0.354 N 
ATOM     44  C   UNL     1       6.019  10.843   8.325  1.00  0.00     0.074 A 
ATOM     45  C   UNL     1       4.584  10.714   8.440  1.00  0.00     0.031 C 
ATOM     46  C   UNL     1       7.899   4.829   7.040  1.00  0.00     0.029 A 
ATOM     47  C   UNL     1       8.744   6.001   7.235  1.00  0.00     0.049 A 
ATOM     48  H   UNL     1       8.139   7.930   7.737  1.00  0.00     0.167 HD
ATOM     49  C   UNL     1       6.688  12.011   8.471  1.00  0.00     0.037 A 
ATOM     50  C   UNL     1      10.085   6.026   7.117  1.00  0.00     0.037 A 
ATOM     51  C   UNL     1       8.120  12.122   8.435  1.00  0.00     0.049 A 
ATOM     52  C   UNL     1      10.813   7.323   7.340  1.00  0.00     0.074 A 
ATOM     53  C   UNL     1       8.906  13.238   8.657  1.00  0.00     0.029 A 
ATOM     54  N   UNL     1       8.983  11.067   8.177  1.00  0.00    -0.354 N 
ATOM     55  N   UNL     1      10.325   8.507   7.619  1.00  0.00    -0.248 NA
ATOM     56  C   UNL     1      12.278   7.285   7.235  1.00  0.00     0.031 C 
ATOM     57  C   UNL     1      10.245  12.864   8.508  1.00  0.00     0.029 A 
ATOM     58  C   UNL     1      10.294  11.507   8.230  1.00  0.00     0.049 A 
ATOM     59  H   UNL     1       8.704  10.143   7.984  1.00  0.00     0.167 HD
ATOM     60  C   UNL     1      11.422   9.348   7.753  1.00  0.00     0.074 A 
ATOM     61  C   UNL     1      12.601   8.535   7.537  1.00  0.00     0.031 C 
ATOM     62  C   UNL     1      11.452  10.675   8.028  1.00  0.00     0.037 A 
BRANCH  49  63
ATOM     63  C   UNL     1       5.871  13.248   8.710  1.00  0.00     0.057 A 
ATOM     64  C   UNL     1       5.157  13.444   9.901  1.00  0.00     0.134 A 
ATOM     65  C   UNL     1       5.796  14.256   7.741  1.00  0.00     0.134 A 
ATOM     66  F   UNL     1       5.173  12.511  10.865  1.00  0.00    -0.206 F 
ATOM     67  C   UNL     1       4.367  14.576  10.102  1.00  0.00     0.040 A 
ATOM     68  C   UNL     1       5.035  15.409   7.945  1.00  0.00     0.040 A 
ATOM     69  F   UNL     1       6.459  14.138   6.581  1.00  0.00    -0.206 F 
ATOM     70  C   UNL     1       4.308  15.566   9.124  1.00  0.00     0.006 A 
ENDBRANCH  49  63
BRANCH  50  71
ATOM     71  C   UNL     1      10.832   4.778   6.819  1.00  0.00     0.057 A 
ATOM     72  C   UNL     1      11.622   4.166   7.800  1.00  0.00     0.134 A 
ATOM     73  C   UNL     1      10.786   4.171   5.559  1.00  0.00     0.134 A 
ATOM     74  F   UNL     1      11.720   4.710   9.022  1.00  0.00    -0.206 F 
ATOM     75  C   UNL     1      12.356   3.009   7.535  1.00  0.00     0.040 A 
ATOM     76  C   UNL     1      11.496   2.999   5.286  1.00  0.00     0.040 A 
ATOM     77  F   UNL     1      10.040   4.700   4.578  1.00  0.00    -0.206 F 
ATOM     78  C   UNL     1      12.290   2.420   6.274  1.00  0.00     0.006 A 
ENDBRANCH  50  71
BRANCH  62  79
ATOM     79  C   UNL     1      12.800  11.319   8.151  1.00  0.00     0.057 A 
ATOM     80  C   UNL     1      13.598  11.579   7.031  1.00  0.00     0.134 A 
ATOM     81  C   UNL     1      13.281  11.726   9.402  1.00  0.00     0.134 A 
ATOM     82  F   UNL     1      13.197  11.201   5.807  1.00  0.00    -0.206 F 
ATOM     83  C   UNL     1      14.839  12.206   7.153  1.00  0.00     0.040 A 
ATOM     84  C   UNL     1      14.508  12.375   9.533  1.00  0.00     0.040 A 
ATOM     85  F   UNL     1      12.559  11.512  10.512  1.00  0.00    -0.206 F 
ATOM     86  C   UNL     1      15.293  12.613   8.406  1.00  0.00     0.006 A 
ENDBRANCH  62  79
ENDBRANCH  36  37
ENDBRANCH  28  31
ENDBRANCH  26  27
ENDBRANCH  25  26
ENDBRANCH  24  25
ENDBRANCH   3  24
TORSDOF 17
