REMARK SMILES CCc1cc(C(=O)c2[nH]c3cc(Cl)ccc3c2CC(=O)NCCCNC(=O)c2ccc(-c3c4nc(c(-c5c(F)cccc5F)c5ccc([nH]5)c(-c5c(F)cccc5F)c5nc(c(-c6c(F)cccc6F)c6ccc3[nH]6)C=C5)C=C4)cc2)ncc1Cl
REMARK SMILES IDX 22 1 21 2 19 3 20 4 18 6 17 7 8 8 9 9 10 10 16 12 11 13
REMARK SMILES IDX 15 14 12 15 14 16 13 17 6 18 7 19 5 20 3 21 4 22 84 23 83 24
REMARK SMILES IDX 85 25 82 26 2 27 1 28 23 29 24 30 25 31 26 32 27 34 28 35
REMARK SMILES IDX 29 36 81 37 30 38 80 39 31 40 32 41 33 42 74 43 34 44 79 45
REMARK SMILES IDX 73 46 75 47 35 48 78 49 72 50 71 51 36 53 62 54 45 55 61 56
REMARK SMILES IDX 46 57 49 58 60 59 76 60 47 61 48 62 59 64 77 65 50 66 37 67
REMARK SMILES IDX 38 68 43 69 39 70 40 71 42 72 44 73 41 74 63 75 64 76 69 77
REMARK SMILES IDX 65 78 66 79 68 80 70 81 67 82 51 83 52 84 57 85 53 86 54 87
REMARK SMILES IDX 56 88 58 89 55 90
REMARK H PARENT 21 5 9 11 25 33 75 52 49 63
REMARK Flexibility Score: inf
ROOT
ATOM      1  C   UNL     1      -1.087  10.325  -0.283  1.00  0.00     0.117 C 
ENDROOT
BRANCH   1   2
ATOM      2  N   UNL     1      -0.781   9.486  -1.428  1.00  0.00    -0.356 N 
ATOM      3  C   UNL     1      -1.006   8.154  -1.620  1.00  0.00     0.224 C 
ATOM      4  O   UNL     1      -0.699   7.653  -2.704  1.00  0.00    -0.275 OA
ATOM      5  H   UNL     1      -0.346   9.949  -2.180  1.00  0.00     0.163 HD
BRANCH   3   6
ATOM      6  C   UNL     1      -1.647   7.311  -0.533  1.00  0.00     0.138 C 
BRANCH   6   7
ATOM      7  C   UNL     1      -0.732   7.021   0.621  1.00  0.00    -0.002 A 
ATOM      8  C   UNL     1       0.596   6.606   0.578  1.00  0.00     0.093 A 
ATOM      9  N   UNL     1       1.069   6.594   1.869  1.00  0.00    -0.351 N 
ATOM     10  C   UNL     1       0.060   6.866   2.757  1.00  0.00     0.048 A 
ATOM     11  H   UNL     1       2.003   6.414   2.121  1.00  0.00     0.167 HD
ATOM     12  C   UNL     1      -1.083   7.143   2.009  1.00  0.00     0.004 A 
ATOM     13  C   UNL     1       0.084   6.909   4.157  1.00  0.00     0.047 A 
ATOM     14  C   UNL     1      -2.266   7.490   2.696  1.00  0.00     0.012 A 
ATOM     15  C   UNL     1      -1.104   7.249   4.809  1.00  0.00     0.043 A 
ATOM     16  C   UNL     1      -2.264   7.538   4.096  1.00  0.00     0.021 A 
ATOM     17  Cl  UNL     1      -1.127   7.316   6.530  1.00  0.00    -0.084 Cl
BRANCH   8  18
ATOM     18  C   UNL     1       1.468   6.309  -0.545  1.00  0.00     0.227 C 
ATOM     19  O   UNL     1       2.390   7.066  -0.830  1.00  0.00    -0.285 OA
BRANCH  18  20
ATOM     20  C   UNL     1       1.302   4.983  -1.250  1.00  0.00     0.113 A 
ATOM     21  C   UNL     1       0.523   2.684  -1.316  1.00  0.00    -0.026 A 
ATOM     22  C   UNL     1       0.551   3.945  -0.691  1.00  0.00     0.037 A 
ATOM     23  C   UNL     1       1.248   2.522  -2.501  1.00  0.00     0.062 A 
ATOM     24  C   UNL     1       1.959   3.611  -2.994  1.00  0.00     0.132 A 
ATOM     25  Cl  UNL     1       1.316   1.029  -3.355  1.00  0.00    -0.082 Cl
ATOM     26  N   UNL     1       2.015   4.824  -2.393  1.00  0.00    -0.251 NA
BRANCH  21  27
ATOM     27  C   UNL     1      -0.227   1.556  -0.647  1.00  0.00     0.034 C 
ATOM     28  C   UNL     1       0.668   0.769   0.301  1.00  0.00     0.009 C 
ENDBRANCH  21  27
ENDBRANCH  18  20
ENDBRANCH   8  18
ENDBRANCH   6   7
ENDBRANCH   3   6
ENDBRANCH   1   2
BRANCH   1  29
ATOM     29  C   UNL     1       0.088  10.507   0.677  1.00  0.00     0.042 C 
BRANCH  29  30
ATOM     30  C   UNL     1       1.331  11.153   0.068  1.00  0.00     0.118 C 
BRANCH  30  31
ATOM     31  N   UNL     1       1.129  12.559  -0.245  1.00  0.00    -0.352 N 
ATOM     32  C   UNL     1       1.869  13.656   0.116  1.00  0.00     0.251 C 
ATOM     33  H   UNL     1       0.341  12.753  -0.802  1.00  0.00     0.163 HD
ATOM     34  O   UNL     1       1.435  14.781  -0.119  1.00  0.00    -0.269 OA
BRANCH  32  35
ATOM     35  C   UNL     1       3.177  13.512   0.798  1.00  0.00     0.039 A 
ATOM     36  C   UNL     1       3.459  14.358   1.878  1.00  0.00     0.014 A 
ATOM     37  C   UNL     1       4.152  12.621   0.340  1.00  0.00     0.014 A 
ATOM     38  C   UNL     1       4.694  14.281   2.526  1.00  0.00     0.010 A 
ATOM     39  C   UNL     1       5.380  12.530   1.000  1.00  0.00     0.010 A 
ATOM     40  C   UNL     1       5.660  13.359   2.097  1.00  0.00    -0.014 A 
BRANCH  40  41
ATOM     41  C   UNL     1       6.973  13.265   2.776  1.00  0.00     0.031 A 
ATOM     42  C   UNL     1       8.195  13.866   2.145  1.00  0.00     0.074 A 
ATOM     43  C   UNL     1       7.078  12.619   3.951  1.00  0.00     0.049 A 
ATOM     44  N   UNL     1       9.448  13.755   2.509  1.00  0.00    -0.248 NA
ATOM     45  C   UNL     1       7.982  14.689   0.946  1.00  0.00     0.031 C 
ATOM     46  C   UNL     1       5.973  11.992   4.677  1.00  0.00     0.029 A 
ATOM     47  N   UNL     1       8.176  12.380   4.737  1.00  0.00    -0.354 N 
ATOM     48  C   UNL     1      10.178  14.453   1.558  1.00  0.00     0.074 A 
ATOM     49  C   UNL     1       9.226  15.015   0.621  1.00  0.00     0.031 C 
ATOM     50  C   UNL     1       6.449  11.448   5.810  1.00  0.00     0.029 A 
ATOM     51  C   UNL     1       7.891  11.672   5.877  1.00  0.00     0.049 A 
ATOM     52  H   UNL     1       9.082  12.688   4.506  1.00  0.00     0.167 HD
ATOM     53  C   UNL     1      11.521  14.593   1.462  1.00  0.00     0.037 A 
ATOM     54  C   UNL     1       8.704  11.244   6.860  1.00  0.00     0.037 A 
ATOM     55  C   UNL     1      12.472  14.058   2.397  1.00  0.00     0.049 A 
ATOM     56  C   UNL     1      10.176  11.514   6.790  1.00  0.00     0.074 A 
ATOM     57  C   UNL     1      13.856  14.070   2.332  1.00  0.00     0.029 A 
ATOM     58  N   UNL     1      12.134  13.440   3.589  1.00  0.00    -0.354 N 
ATOM     59  N   UNL     1      10.862  12.088   5.833  1.00  0.00    -0.248 NA
ATOM     60  C   UNL     1      10.987  11.072   7.934  1.00  0.00     0.031 C 
ATOM     61  C   UNL     1      14.355  13.480   3.501  1.00  0.00     0.029 A 
ATOM     62  C   UNL     1      13.280  13.101   4.287  1.00  0.00     0.049 A 
ATOM     63  H   UNL     1      11.214  13.268   3.895  1.00  0.00     0.167 HD
ATOM     64  C   UNL     1      12.186  12.057   6.247  1.00  0.00     0.074 A 
ATOM     65  C   UNL     1      12.206  11.431   7.553  1.00  0.00     0.031 C 
ATOM     66  C   UNL     1      13.286  12.492   5.589  1.00  0.00     0.037 A 
BRANCH  53  67
ATOM     67  C   UNL     1      12.038  15.335   0.273  1.00  0.00     0.057 A 
ATOM     68  C   UNL     1      12.238  16.718   0.309  1.00  0.00     0.134 A 
ATOM     69  C   UNL     1      12.351  14.656  -0.911  1.00  0.00     0.134 A 
ATOM     70  F   UNL     1      11.943  17.420   1.413  1.00  0.00    -0.206 F 
ATOM     71  C   UNL     1      12.732  17.406  -0.801  1.00  0.00     0.040 A 
ATOM     72  C   UNL     1      12.847  15.333  -2.025  1.00  0.00     0.040 A 
ATOM     73  F   UNL     1      12.171  13.330  -1.002  1.00  0.00    -0.206 F 
ATOM     74  C   UNL     1      13.039  16.712  -1.971  1.00  0.00     0.006 A 
ENDBRANCH  53  67
BRANCH  54  75
ATOM     75  C   UNL     1       8.136  10.499   8.003  1.00  0.00     0.057 A 
ATOM     76  C   UNL     1       7.715  11.166   9.157  1.00  0.00     0.134 A 
ATOM     77  C   UNL     1       8.000   9.109   7.961  1.00  0.00     0.134 A 
ATOM     78  F   UNL     1       7.838  12.498   9.250  1.00  0.00    -0.206 F 
ATOM     79  C   UNL     1       7.177  10.471  10.240  1.00  0.00     0.040 A 
ATOM     80  C   UNL     1       7.461   8.402   9.036  1.00  0.00     0.040 A 
ATOM     81  F   UNL     1       8.393   8.422   6.879  1.00  0.00    -0.206 F 
ATOM     82  C   UNL     1       7.047   9.084  10.179  1.00  0.00     0.006 A 
ENDBRANCH  54  75
BRANCH  66  83
ATOM     83  C   UNL     1      14.601  12.298   6.272  1.00  0.00     0.057 A 
ATOM     84  C   UNL     1      15.352  11.134   6.070  1.00  0.00     0.134 A 
ATOM     85  C   UNL     1      15.128  13.280   7.117  1.00  0.00     0.134 A 
ATOM     86  F   UNL     1      14.890  10.156   5.276  1.00  0.00    -0.206 F 
ATOM     87  C   UNL     1      16.588  10.952   6.690  1.00  0.00     0.040 A 
ATOM     88  C   UNL     1      16.363  13.108   7.744  1.00  0.00     0.040 A 
ATOM     89  F   UNL     1      14.446  14.409   7.356  1.00  0.00    -0.206 F 
ATOM     90  C   UNL     1      17.097  11.942   7.530  1.00  0.00     0.006 A 
ENDBRANCH  66  83
ENDBRANCH  40  41
ENDBRANCH  32  35
ENDBRANCH  30  31
ENDBRANCH  29  30
ENDBRANCH   1  29
TORSDOF 14
