REMARK SMILES COc1ccc(NC(=O)c2nn(C)cc2C(=O)NCCCNC(=O)c2ccc(-c3c4nc(c(-c5c(F)cccc5F)c5ccc([nH]5)c(-c5c(F)cccc5F)c5nc(c(-c6c(F)cccc6F)c6ccc3[nH]6)C=C5)C=C4)cc2)c(C)c1
REMARK SMILES IDX 19 1 18 2 16 3 17 4 15 6 10 7 11 8 12 9 14 10 13 11 8 12
REMARK SMILES IDX 7 13 9 15 6 16 3 17 4 18 81 19 5 20 79 21 80 22 2 23 1 24
REMARK SMILES IDX 20 25 21 26 22 27 23 28 24 30 25 31 26 32 78 33 27 34 77 35
REMARK SMILES IDX 28 36 29 37 30 38 71 39 31 40 76 41 70 42 72 43 32 44 75 45
REMARK SMILES IDX 69 46 68 47 33 49 59 50 42 51 58 52 43 53 46 54 57 55 73 56
REMARK SMILES IDX 44 57 45 58 56 60 74 61 47 62 34 63 35 64 40 65 36 66 37 67
REMARK SMILES IDX 39 68 41 69 38 70 60 71 61 72 66 73 62 74 63 75 65 76 67 77
REMARK SMILES IDX 64 78 48 79 49 80 54 81 50 82 51 83 53 84 55 85 52 86
REMARK H PARENT 18 5 7 14 22 29 72 48 46 59
REMARK Flexibility Score: inf
ROOT
ATOM      1  C   UNL     1       5.432  -1.489   3.399  1.00  0.00     0.118 C 
ENDROOT
BRANCH   1   2
ATOM      2  N   UNL     1       4.404  -2.423   3.824  1.00  0.00    -0.352 N 
ATOM      3  C   UNL     1       4.099  -3.708   3.445  1.00  0.00     0.255 C 
ATOM      4  O   UNL     1       3.255  -4.289   4.133  1.00  0.00    -0.269 OA
ATOM      5  H   UNL     1       3.808  -2.064   4.521  1.00  0.00     0.163 HD
BRANCH   3   6
ATOM      6  C   UNL     1       4.698  -4.359   2.286  1.00  0.00     0.090 A 
ATOM      7  C   UNL     1       4.229  -5.583   1.677  1.00  0.00     0.163 A 
ATOM      8  N   UNL     1       4.986  -5.926   0.616  1.00  0.00    -0.167 NA
ATOM      9  N   UNL     1       5.885  -4.947   0.517  1.00  0.00    -0.274 N 
ATOM     10  C   UNL     1       5.763  -3.991   1.482  1.00  0.00     0.123 A 
ATOM     11  C   UNL     1       6.807  -4.951  -0.594  1.00  0.00     0.173 C 
BRANCH   7  12
ATOM     12  C   UNL     1       3.057  -6.402   2.025  1.00  0.00     0.277 C 
ATOM     13  N   UNL     1       1.778  -5.874   1.965  1.00  0.00    -0.320 N 
ATOM     14  H   UNL     1       1.075  -6.492   2.270  1.00  0.00     0.170 HD
ATOM     15  O   UNL     1       3.176  -7.577   2.385  1.00  0.00    -0.267 OA
BRANCH  13  16
ATOM     16  C   UNL     1       1.295  -4.617   1.549  1.00  0.00     0.044 A 
ATOM     17  C   UNL     1       0.514  -1.953   1.026  1.00  0.00     0.119 A 
ATOM     18  C   UNL     1       1.651  -2.475   0.430  1.00  0.00     0.048 A 
ATOM     19  C   UNL     1      -0.287  -2.796   1.797  1.00  0.00     0.052 A 
ATOM     20  C   UNL     1       2.017  -3.801   0.671  1.00  0.00     0.030 A 
ATOM     21  C   UNL     1       0.068  -4.139   2.044  1.00  0.00    -0.024 A 
ATOM     22  C   UNL     1      -0.933  -4.970   2.803  1.00  0.00     0.047 C 
BRANCH  17  23
ATOM     23  O   UNL     1       0.082  -0.660   0.928  1.00  0.00    -0.497 OA
ATOM     24  C   UNL     1       0.720   0.146  -0.053  1.00  0.00     0.278 C 
ENDBRANCH  17  23
ENDBRANCH  13  16
ENDBRANCH   7  12
ENDBRANCH   3   6
ENDBRANCH   1   2
BRANCH   1  25
ATOM     25  C   UNL     1       5.045  -0.692   2.157  1.00  0.00     0.042 C 
BRANCH  25  26
ATOM     26  C   UNL     1       4.521   0.702   2.486  1.00  0.00     0.118 C 
BRANCH  26  27
ATOM     27  N   UNL     1       5.570   1.722   2.601  1.00  0.00    -0.352 N 
ATOM     28  C   UNL     1       5.473   3.083   2.857  1.00  0.00     0.251 C 
ATOM     29  H   UNL     1       6.487   1.388   2.478  1.00  0.00     0.163 HD
ATOM     30  O   UNL     1       6.490   3.765   2.935  1.00  0.00    -0.269 OA
BRANCH  28  31
ATOM     31  C   UNL     1       4.160   3.668   3.218  1.00  0.00     0.039 A 
ATOM     32  C   UNL     1       4.110   4.388   4.419  1.00  0.00     0.014 A 
ATOM     33  C   UNL     1       3.003   3.158   2.650  1.00  0.00     0.014 A 
ATOM     34  C   UNL     1       2.993   4.249   5.228  1.00  0.00     0.010 A 
ATOM     35  C   UNL     1       1.950   2.904   3.494  1.00  0.00     0.010 A 
ATOM     36  C   UNL     1       1.999   3.370   4.811  1.00  0.00    -0.014 A 
BRANCH  36  37
ATOM     37  C   UNL     1       0.936   2.895   5.672  1.00  0.00     0.031 A 
ATOM     38  C   UNL     1      -0.343   3.613   5.616  1.00  0.00     0.074 A 
ATOM     39  C   UNL     1       1.115   1.782   6.415  1.00  0.00     0.049 A 
ATOM     40  N   UNL     1      -1.243   3.571   6.530  1.00  0.00    -0.248 NA
ATOM     41  C   UNL     1      -0.662   4.534   4.531  1.00  0.00     0.031 C 
ATOM     42  C   UNL     1       0.103   0.996   7.111  1.00  0.00     0.029 A 
ATOM     43  N   UNL     1       2.329   1.234   6.841  1.00  0.00    -0.354 N 
ATOM     44  C   UNL     1      -2.357   4.219   6.047  1.00  0.00     0.074 A 
ATOM     45  C   UNL     1      -1.902   4.896   4.862  1.00  0.00     0.031 C 
ATOM     46  C   UNL     1       0.699   0.260   8.066  1.00  0.00     0.029 A 
ATOM     47  C   UNL     1       2.093   0.665   8.114  1.00  0.00     0.049 A 
ATOM     48  H   UNL     1       3.183   1.243   6.351  1.00  0.00     0.167 HD
ATOM     49  C   UNL     1      -3.552   3.974   6.656  1.00  0.00     0.037 A 
ATOM     50  C   UNL     1       2.727   1.150   9.224  1.00  0.00     0.037 A 
ATOM     51  C   UNL     1      -3.323   3.231   7.902  1.00  0.00     0.049 A 
ATOM     52  C   UNL     1       1.772   1.787  10.207  1.00  0.00     0.074 A 
ATOM     53  C   UNL     1      -3.369   1.881   8.209  1.00  0.00     0.029 A 
ATOM     54  N   UNL     1      -2.611   3.842   8.934  1.00  0.00    -0.354 N 
ATOM     55  N   UNL     1       0.568   2.186   9.897  1.00  0.00    -0.248 NA
ATOM     56  C   UNL     1       2.099   2.025  11.609  1.00  0.00     0.031 C 
ATOM     57  C   UNL     1      -2.583   1.673   9.375  1.00  0.00     0.029 A 
ATOM     58  C   UNL     1      -2.100   2.898   9.807  1.00  0.00     0.049 A 
ATOM     59  H   UNL     1      -2.488   4.815   9.028  1.00  0.00     0.167 HD
ATOM     60  C   UNL     1      -0.029   2.740  10.997  1.00  0.00     0.074 A 
ATOM     61  C   UNL     1       0.961   2.588  12.050  1.00  0.00     0.031 C 
ATOM     62  C   UNL     1      -1.279   3.291  10.950  1.00  0.00     0.037 A 
BRANCH  49  63
ATOM     63  C   UNL     1      -4.915   4.140   6.004  1.00  0.00     0.057 A 
ATOM     64  C   UNL     1      -6.038   3.478   6.544  1.00  0.00     0.134 A 
ATOM     65  C   UNL     1      -5.197   4.833   4.809  1.00  0.00     0.134 A 
ATOM     66  F   UNL     1      -5.970   2.816   7.707  1.00  0.00    -0.206 F 
ATOM     67  C   UNL     1      -7.293   3.446   5.914  1.00  0.00     0.040 A 
ATOM     68  C   UNL     1      -6.440   4.797   4.160  1.00  0.00     0.040 A 
ATOM     69  F   UNL     1      -4.306   5.613   4.199  1.00  0.00    -0.206 F 
ATOM     70  C   UNL     1      -7.494   4.091   4.705  1.00  0.00     0.006 A 
ENDBRANCH  49  63
BRANCH  50  71
ATOM     71  C   UNL     1       4.102   1.638   8.906  1.00  0.00     0.057 A 
ATOM     72  C   UNL     1       4.998   0.694   8.369  1.00  0.00     0.134 A 
ATOM     73  C   UNL     1       4.324   2.981   8.592  1.00  0.00     0.134 A 
ATOM     74  F   UNL     1       4.875  -0.606   8.684  1.00  0.00    -0.206 F 
ATOM     75  C   UNL     1       5.896   1.035   7.357  1.00  0.00     0.040 A 
ATOM     76  C   UNL     1       5.253   3.337   7.609  1.00  0.00     0.040 A 
ATOM     77  F   UNL     1       3.549   3.944   9.110  1.00  0.00    -0.206 F 
ATOM     78  C   UNL     1       5.979   2.357   6.932  1.00  0.00     0.006 A 
ENDBRANCH  50  71
BRANCH  62  79
ATOM     79  C   UNL     1      -1.876   4.166  12.029  1.00  0.00     0.057 A 
ATOM     80  C   UNL     1      -1.124   4.920  12.944  1.00  0.00     0.134 A 
ATOM     81  C   UNL     1      -3.272   4.375  12.098  1.00  0.00     0.134 A 
ATOM     82  F   UNL     1       0.214   4.956  12.897  1.00  0.00    -0.206 F 
ATOM     83  C   UNL     1      -1.715   5.729  13.922  1.00  0.00     0.040 A 
ATOM     84  C   UNL     1      -3.869   5.237  13.023  1.00  0.00     0.040 A 
ATOM     85  F   UNL     1      -4.122   3.772  11.254  1.00  0.00    -0.206 F 
ATOM     86  C   UNL     1      -3.092   5.895  13.961  1.00  0.00     0.006 A 
ENDBRANCH  62  79
ENDBRANCH  36  37
ENDBRANCH  28  31
ENDBRANCH  26  27
ENDBRANCH  25  26
ENDBRANCH   1  25
TORSDOF 13
