REMARK SMILES CC(C)(C)c1ccc(C(=O)N/C(=C/c2ccc(O)cc2)C(=O)NCCCNC(=O)c2ccc(-c3c4nc(c(-c5c(F)cccc5F)c5ccc([nH]5)c(-c5c(F)cccc5F)c5nc(c(-c6c(F)cccc6F)c6ccc3[nH]6)C=C5)C=C4)cc2)cc1
REMARK SMILES IDX 24 1 23 2 21 3 22 4 12 6 13 7 11 8 9 9 10 10 8 12 5 13 6 14
REMARK SMILES IDX 85 15 7 16 84 17 2 18 1 19 3 20 4 21 14 22 15 23 20 24 16 25
REMARK SMILES IDX 19 26 17 27 18 28 25 30 26 31 27 32 28 33 29 35 30 36 31 37
REMARK SMILES IDX 83 38 32 39 82 40 33 41 34 42 35 43 76 44 36 45 81 46 75 47
REMARK SMILES IDX 77 48 37 49 80 50 74 51 73 52 38 54 64 55 47 56 63 57 48 58
REMARK SMILES IDX 51 59 62 60 78 61 49 62 50 63 61 65 79 66 52 67 39 68 40 69
REMARK SMILES IDX 45 70 41 71 42 72 44 73 46 74 43 75 65 76 66 77 71 78 67 79
REMARK SMILES IDX 68 80 70 81 72 82 69 83 53 84 54 85 59 86 55 87 56 88 58 89
REMARK SMILES IDX 60 90 57 91
REMARK H PARENT 23 5 11 11 18 29 27 34 77 53 51 64
REMARK Flexibility Score: inf
ROOT
ATOM      1  C   UNL     1       3.191   0.679  -5.038  1.00  0.00     0.118 C 
ENDROOT
BRANCH   1   2
ATOM      2  N   UNL     1       2.402  -0.426  -4.580  1.00  0.00    -0.351 N 
ATOM      3  C   UNL     1       2.173  -1.573  -5.281  1.00  0.00     0.267 C 
ATOM      4  O   UNL     1       1.002  -1.960  -5.337  1.00  0.00    -0.268 OA
ATOM      5  H   UNL     1       1.992  -0.352  -3.688  1.00  0.00     0.163 HD
BRANCH   3   6
ATOM      6  C   UNL     1       3.290  -2.495  -5.787  1.00  0.00     0.107 C 
ATOM      7  C   UNL     1       4.407  -2.229  -6.510  1.00  0.00     0.040 C 
BRANCH   6   8
ATOM      8  N   UNL     1       3.087  -3.852  -5.524  1.00  0.00    -0.317 N 
ATOM      9  C   UNL     1       2.396  -4.513  -4.523  1.00  0.00     0.255 C 
ATOM     10  O   UNL     1       2.167  -5.715  -4.662  1.00  0.00    -0.269 OA
ATOM     11  H   UNL     1       3.518  -4.453  -6.175  1.00  0.00     0.170 HD
BRANCH   9  12
ATOM     12  C   UNL     1       2.018  -3.858  -3.240  1.00  0.00     0.040 A 
ATOM     13  C   UNL     1       1.089  -2.501  -0.925  1.00  0.00    -0.043 A 
ATOM     14  C   UNL     1       0.386  -3.594  -1.464  1.00  0.00     0.005 A 
ATOM     15  C   UNL     1       2.345  -2.212  -1.487  1.00  0.00     0.005 A 
ATOM     16  C   UNL     1       0.837  -4.257  -2.612  1.00  0.00     0.014 A 
ATOM     17  C   UNL     1       2.815  -2.897  -2.617  1.00  0.00     0.014 A 
BRANCH  13  18
ATOM     18  C   UNL     1       0.507  -1.663   0.230  1.00  0.00    -0.013 C 
ATOM     19  C   UNL     1       0.965  -0.185   0.163  1.00  0.00     0.016 C 
ATOM     20  C   UNL     1       0.964  -2.261   1.571  1.00  0.00     0.016 C 
ATOM     21  C   UNL     1      -1.041  -1.629   0.202  1.00  0.00     0.016 C 
ENDBRANCH  13  18
ENDBRANCH   9  12
ENDBRANCH   6   8
BRANCH   7  22
ATOM     22  C   UNL     1       5.085  -0.970  -6.834  1.00  0.00    -0.023 A 
ATOM     23  C   UNL     1       4.740  -0.171  -7.932  1.00  0.00     0.012 A 
ATOM     24  C   UNL     1       6.047  -0.506  -5.919  1.00  0.00     0.012 A 
ATOM     25  C   UNL     1       5.230   1.141  -8.012  1.00  0.00     0.047 A 
ATOM     26  C   UNL     1       6.530   0.802  -6.000  1.00  0.00     0.047 A 
ATOM     27  C   UNL     1       6.071   1.631  -7.015  1.00  0.00     0.115 A 
BRANCH  27  28
ATOM     28  O   UNL     1       6.377   2.960  -7.024  1.00  0.00    -0.508 OA
ATOM     29  H   UNL     1       6.061   3.509  -7.715  1.00  0.00     0.293 HD
ENDBRANCH  27  28
ENDBRANCH   7  22
ENDBRANCH   3   6
ENDBRANCH   1   2
BRANCH   1  30
ATOM     30  C   UNL     1       2.425   1.981  -5.158  1.00  0.00     0.042 C 
BRANCH  30  31
ATOM     31  C   UNL     1       2.458   2.782  -3.874  1.00  0.00     0.118 C 
BRANCH  31  32
ATOM     32  N   UNL     1       3.792   3.321  -3.602  1.00  0.00    -0.352 N 
ATOM     33  C   UNL     1       4.398   4.492  -4.003  1.00  0.00     0.251 C 
ATOM     34  H   UNL     1       4.354   2.747  -3.034  1.00  0.00     0.163 HD
ATOM     35  O   UNL     1       5.624   4.558  -3.993  1.00  0.00    -0.269 OA
BRANCH  33  36
ATOM     36  C   UNL     1       3.591   5.638  -4.490  1.00  0.00     0.039 A 
ATOM     37  C   UNL     1       4.128   6.518  -5.434  1.00  0.00     0.014 A 
ATOM     38  C   UNL     1       2.294   5.848  -4.031  1.00  0.00     0.014 A 
ATOM     39  C   UNL     1       3.321   7.511  -6.000  1.00  0.00     0.010 A 
ATOM     40  C   UNL     1       1.448   6.712  -4.710  1.00  0.00     0.010 A 
ATOM     41  C   UNL     1       1.950   7.562  -5.702  1.00  0.00    -0.014 A 
BRANCH  41  42
ATOM     42  C   UNL     1       1.011   8.473  -6.409  1.00  0.00     0.031 A 
ATOM     43  C   UNL     1       0.138   9.420  -5.627  1.00  0.00     0.074 A 
ATOM     44  C   UNL     1       0.858   8.366  -7.744  1.00  0.00     0.049 A 
ATOM     45  N   UNL     1      -0.830  10.196  -6.046  1.00  0.00    -0.248 NA
ATOM     46  C   UNL     1       0.345   9.464  -4.170  1.00  0.00     0.031 C 
ATOM     47  C   UNL     1       1.587   7.437  -8.611  1.00  0.00     0.029 A 
ATOM     48  N   UNL     1       0.029   9.037  -8.607  1.00  0.00    -0.354 N 
ATOM     49  C   UNL     1      -1.362  10.786  -4.907  1.00  0.00     0.074 A 
ATOM     50  C   UNL     1      -0.664  10.222  -3.774  1.00  0.00     0.031 C 
ATOM     51  C   UNL     1       1.210   7.631  -9.883  1.00  0.00     0.029 A 
ATOM     52  C   UNL     1       0.174   8.657  -9.919  1.00  0.00     0.049 A 
ATOM     53  H   UNL     1      -0.610   9.726  -8.313  1.00  0.00     0.167 HD
ATOM     54  C   UNL     1      -2.321  11.738  -4.810  1.00  0.00     0.037 A 
ATOM     55  C   UNL     1      -0.460   9.082 -11.027  1.00  0.00     0.037 A 
ATOM     56  C   UNL     1      -2.984  12.323  -5.945  1.00  0.00     0.049 A 
ATOM     57  C   UNL     1      -1.521  10.138 -10.901  1.00  0.00     0.074 A 
ATOM     58  C   UNL     1      -3.905  13.354  -5.970  1.00  0.00     0.029 A 
ATOM     59  N   UNL     1      -2.798  11.920  -7.260  1.00  0.00    -0.354 N 
ATOM     60  N   UNL     1      -1.953  10.751  -9.825  1.00  0.00    -0.248 NA
ATOM     61  C   UNL     1      -2.183  10.560 -12.143  1.00  0.00     0.031 C 
ATOM     62  C   UNL     1      -4.318  13.538  -7.294  1.00  0.00     0.029 A 
ATOM     63  C   UNL     1      -3.613  12.659  -8.101  1.00  0.00     0.049 A 
ATOM     64  H   UNL     1      -2.177  11.213  -7.551  1.00  0.00     0.167 HD
ATOM     65  C   UNL     1      -2.923  11.644 -10.260  1.00  0.00     0.074 A 
ATOM     66  C   UNL     1      -3.001  11.506 -11.701  1.00  0.00     0.031 C 
ATOM     67  C   UNL     1      -3.682  12.501  -9.533  1.00  0.00     0.037 A 
BRANCH  54  68
ATOM     68  C   UNL     1      -2.698  12.199  -3.429  1.00  0.00     0.057 A 
ATOM     69  C   UNL     1      -1.803  12.901  -2.608  1.00  0.00     0.134 A 
ATOM     70  C   UNL     1      -3.970  11.929  -2.908  1.00  0.00     0.134 A 
ATOM     71  F   UNL     1      -0.564  13.183  -3.038  1.00  0.00    -0.206 F 
ATOM     72  C   UNL     1      -2.141  13.273  -1.305  1.00  0.00     0.040 A 
ATOM     73  C   UNL     1      -4.331  12.328  -1.619  1.00  0.00     0.040 A 
ATOM     74  F   UNL     1      -4.881  11.270  -3.638  1.00  0.00    -0.206 F 
ATOM     75  C   UNL     1      -3.410  12.989  -0.809  1.00  0.00     0.006 A 
ENDBRANCH  54  68
BRANCH  55  76
ATOM     76  C   UNL     1      -0.074   8.537 -12.354  1.00  0.00     0.057 A 
ATOM     77  C   UNL     1       0.619   9.328 -13.277  1.00  0.00     0.134 A 
ATOM     78  C   UNL     1      -0.359   7.217 -12.722  1.00  0.00     0.134 A 
ATOM     79  F   UNL     1       0.907  10.606 -12.989  1.00  0.00    -0.206 F 
ATOM     80  C   UNL     1       1.008   8.830 -14.522  1.00  0.00     0.040 A 
ATOM     81  C   UNL     1       0.045   6.698 -13.954  1.00  0.00     0.040 A 
ATOM     82  F   UNL     1      -1.012   6.404 -11.879  1.00  0.00    -0.206 F 
ATOM     83  C   UNL     1       0.728   7.508 -14.860  1.00  0.00     0.006 A 
ENDBRANCH  55  76
BRANCH  67  84
ATOM     84  C   UNL     1      -4.650  13.365 -10.286  1.00  0.00     0.057 A 
ATOM     85  C   UNL     1      -5.813  12.841 -10.864  1.00  0.00     0.134 A 
ATOM     86  C   UNL     1      -4.438  14.746 -10.396  1.00  0.00     0.134 A 
ATOM     87  F   UNL     1      -6.067  11.524 -10.806  1.00  0.00    -0.206 F 
ATOM     88  C   UNL     1      -6.720  13.655 -11.543  1.00  0.00     0.040 A 
ATOM     89  C   UNL     1      -5.353  15.574 -11.046  1.00  0.00     0.040 A 
ATOM     90  F   UNL     1      -3.349  15.313  -9.857  1.00  0.00    -0.206 F 
ATOM     91  C   UNL     1      -6.495  15.028 -11.627  1.00  0.00     0.006 A 
ENDBRANCH  67  84
ENDBRANCH  41  42
ENDBRANCH  33  36
ENDBRANCH  31  32
ENDBRANCH  30  31
ENDBRANCH   1  30
TORSDOF 15
