REMARK SMILES O=C(C[C@H](c1ccc(C2CC2)cc1)[NH+]1CCOCC1)NCCCNC(=O)c1ccc(-c2c3nc(c(-c4c(F)cccc4F)c4ccc([nH]4)c(-c4c(F)cccc4F)c4nc(c(-c5c(F)cccc5F)c5ccc2[nH]5)C=C4)C=C3)cc1
REMARK SMILES IDX 21 1 20 2 1 3 2 4 3 6 4 7 14 8 15 9 19 10 16 12 18 13 17 14
REMARK SMILES IDX 5 15 6 16 13 17 7 18 12 19 8 20 9 21 10 22 11 23 22 24 23 25
REMARK SMILES IDX 24 26 25 27 26 29 27 30 28 31 80 32 29 33 79 34 30 35 31 36
REMARK SMILES IDX 32 37 73 38 33 39 78 40 72 41 74 42 34 43 77 44 71 45 70 46
REMARK SMILES IDX 35 48 61 49 44 50 60 51 45 52 48 53 59 54 75 55 46 56 47 57
REMARK SMILES IDX 58 59 76 60 49 61 36 62 37 63 42 64 38 65 39 66 41 67 43 68
REMARK SMILES IDX 40 69 62 70 63 71 68 72 64 73 65 74 67 75 69 76 66 77 50 78
REMARK SMILES IDX 51 79 56 80 52 81 53 82 55 83 57 84 54 85
REMARK H PARENT 20 5 14 11 24 28 74 47 48 58
REMARK Flexibility Score: inf
ROOT
ATOM      1  C   UNL     1       4.124  -0.727   2.651  1.00  0.00     0.117 C 
ENDROOT
BRANCH   1   2
ATOM      2  N   UNL     1       4.154   0.231   1.560  1.00  0.00    -0.356 N 
ATOM      3  O   UNL     1       6.227  -0.397   0.783  1.00  0.00    -0.275 OA
ATOM      4  C   UNL     1       5.170   0.206   0.622  1.00  0.00     0.226 C 
ATOM      5  H   UNL     1       3.443   0.907   1.488  1.00  0.00     0.163 HD
BRANCH   4   6
ATOM      6  C   UNL     1       4.851   0.938  -0.666  1.00  0.00     0.170 C 
BRANCH   6   7
ATOM      7  C   UNL     1       3.841   0.246  -1.633  1.00  0.00     0.224 C 
BRANCH   7   8
ATOM      8  N   UNL     1       4.462  -0.046  -2.947  1.00  0.00    -0.324 N 
ATOM      9  C   UNL     1       3.601   0.203  -4.119  1.00  0.00     0.291 C 
ATOM     10  C   UNL     1       5.154  -1.337  -3.117  1.00  0.00     0.291 C 
ATOM     11  H   UNL     1       5.198   0.659  -2.916  1.00  0.00     0.348 HD
ATOM     12  C   UNL     1       2.719  -0.986  -4.523  1.00  0.00     0.221 C 
ATOM     13  C   UNL     1       4.266  -2.502  -3.619  1.00  0.00     0.221 C 
ATOM     14  O   UNL     1       3.523  -2.140  -4.790  1.00  0.00    -0.370 OA
ENDBRANCH   7   8
BRANCH   7  15
ATOM     15  C   UNL     1       2.960  -0.841  -1.029  1.00  0.00     0.010 A 
ATOM     16  C   UNL     1       3.496  -2.019  -0.491  1.00  0.00     0.010 A 
ATOM     17  C   UNL     1       1.571  -0.674  -0.955  1.00  0.00     0.010 A 
ATOM     18  C   UNL     1       2.681  -3.000   0.073  1.00  0.00     0.004 A 
ATOM     19  C   UNL     1       0.759  -1.657  -0.370  1.00  0.00     0.004 A 
ATOM     20  C   UNL     1       1.293  -2.845   0.157  1.00  0.00    -0.045 A 
BRANCH  20  21
ATOM     21  C   UNL     1       0.479  -3.942   0.803  1.00  0.00     0.019 C 
ATOM     22  C   UNL     1      -0.994  -3.839   1.091  1.00  0.00     0.009 C 
ATOM     23  C   UNL     1      -0.518  -4.700  -0.040  1.00  0.00     0.009 C 
ENDBRANCH  20  21
ENDBRANCH   7  15
ENDBRANCH   6   7
ENDBRANCH   4   6
ENDBRANCH   1   2
BRANCH   1  24
ATOM     24  C   UNL     1       3.414  -0.233   3.898  1.00  0.00     0.042 C 
BRANCH  24  25
ATOM     25  C   UNL     1       1.974   0.223   3.703  1.00  0.00     0.118 C 
BRANCH  25  26
ATOM     26  N   UNL     1       1.030  -0.840   3.392  1.00  0.00    -0.352 N 
ATOM     27  C   UNL     1      -0.195  -1.119   3.963  1.00  0.00     0.251 C 
ATOM     28  H   UNL     1       1.305  -1.449   2.669  1.00  0.00     0.163 HD
ATOM     29  O   UNL     1      -0.821  -2.115   3.628  1.00  0.00    -0.269 OA
BRANCH  27  30
ATOM     30  C   UNL     1      -0.751  -0.246   5.024  1.00  0.00     0.039 A 
ATOM     31  C   UNL     1      -1.368  -0.849   6.124  1.00  0.00     0.014 A 
ATOM     32  C   UNL     1      -0.666   1.146   4.956  1.00  0.00     0.014 A 
ATOM     33  C   UNL     1      -1.815  -0.063   7.188  1.00  0.00     0.010 A 
ATOM     34  C   UNL     1      -1.016   1.920   6.061  1.00  0.00     0.010 A 
ATOM     35  C   UNL     1      -1.594   1.325   7.191  1.00  0.00    -0.014 A 
BRANCH  35  36
ATOM     36  C   UNL     1      -1.946   2.143   8.381  1.00  0.00     0.031 A 
ATOM     37  C   UNL     1      -2.964   3.247   8.285  1.00  0.00     0.074 A 
ATOM     38  C   UNL     1      -1.319   1.909   9.551  1.00  0.00     0.049 A 
ATOM     39  N   UNL     1      -3.418   4.035   9.228  1.00  0.00    -0.248 NA
ATOM     40  C   UNL     1      -3.527   3.523   6.955  1.00  0.00     0.031 C 
ATOM     41  C   UNL     1      -0.258   0.919   9.759  1.00  0.00     0.029 A 
ATOM     42  N   UNL     1      -1.486   2.477  10.789  1.00  0.00    -0.354 N 
ATOM     43  C   UNL     1      -4.312   4.896   8.605  1.00  0.00     0.074 A 
ATOM     44  C   UNL     1      -4.286   4.582   7.194  1.00  0.00     0.031 C 
ATOM     45  C   UNL     1       0.093   0.915  11.054  1.00  0.00     0.029 A 
ATOM     46  C   UNL     1      -0.688   1.923  11.761  1.00  0.00     0.049 A 
ATOM     47  H   UNL     1      -2.117   3.212  10.963  1.00  0.00     0.167 HD
ATOM     48  C   UNL     1      -5.107   5.843   9.160  1.00  0.00     0.037 A 
ATOM     49  C   UNL     1      -0.601   2.191  13.078  1.00  0.00     0.037 A 
ATOM     50  C   UNL     1      -5.141   6.146  10.568  1.00  0.00     0.049 A 
ATOM     51  C   UNL     1      -1.503   3.237  13.672  1.00  0.00     0.074 A 
ATOM     52  C   UNL     1      -5.948   7.050  11.237  1.00  0.00     0.029 A 
ATOM     53  N   UNL     1      -4.326   5.557  11.524  1.00  0.00    -0.354 N 
ATOM     54  N   UNL     1      -2.405   3.985  13.083  1.00  0.00    -0.248 NA
ATOM     55  C   UNL     1      -1.384   3.465  15.118  1.00  0.00     0.031 C 
ATOM     56  C   UNL     1      -5.586   7.044  12.589  1.00  0.00     0.029 A 
ATOM     57  C   UNL     1      -4.597   6.092  12.773  1.00  0.00     0.049 A 
ATOM     58  H   UNL     1      -3.654   4.860  11.341  1.00  0.00     0.167 HD
ATOM     59  C   UNL     1      -2.981   4.749  14.090  1.00  0.00     0.074 A 
ATOM     60  C   UNL     1      -2.342   4.355  15.329  1.00  0.00     0.031 C 
ATOM     61  C   UNL     1      -3.951   5.693  13.998  1.00  0.00     0.037 A 
BRANCH  48  62
ATOM     62  C   UNL     1      -6.010   6.616   8.240  1.00  0.00     0.057 A 
ATOM     63  C   UNL     1      -7.099   6.014   7.594  1.00  0.00     0.134 A 
ATOM     64  C   UNL     1      -5.809   7.985   8.020  1.00  0.00     0.134 A 
ATOM     65  F   UNL     1      -7.343   4.704   7.749  1.00  0.00    -0.206 F 
ATOM     66  C   UNL     1      -7.936   6.737   6.742  1.00  0.00     0.040 A 
ATOM     67  C   UNL     1      -6.657   8.725   7.195  1.00  0.00     0.040 A 
ATOM     68  F   UNL     1      -4.790   8.628   8.610  1.00  0.00    -0.206 F 
ATOM     69  C   UNL     1      -7.720   8.100   6.546  1.00  0.00     0.006 A 
ENDBRANCH  48  62
BRANCH  49  70
ATOM     70  C   UNL     1       0.346   1.431  13.934  1.00  0.00     0.057 A 
ATOM     71  C   UNL     1      -0.116   0.532  14.904  1.00  0.00     0.134 A 
ATOM     72  C   UNL     1       1.731   1.592  13.815  1.00  0.00     0.134 A 
ATOM     73  F   UNL     1      -1.432   0.346  15.080  1.00  0.00    -0.206 F 
ATOM     74  C   UNL     1       0.763  -0.157  15.742  1.00  0.00     0.040 A 
ATOM     75  C   UNL     1       2.623   0.888  14.625  1.00  0.00     0.040 A 
ATOM     76  F   UNL     1       2.239   2.430  12.898  1.00  0.00    -0.206 F 
ATOM     77  C   UNL     1       2.138   0.017  15.600  1.00  0.00     0.006 A 
ENDBRANCH  49  70
BRANCH  61  78
ATOM     78  C   UNL     1      -4.400   6.333  15.282  1.00  0.00     0.057 A 
ATOM     79  C   UNL     1      -3.572   7.192  16.016  1.00  0.00     0.134 A 
ATOM     80  C   UNL     1      -5.681   6.081  15.791  1.00  0.00     0.134 A 
ATOM     81  F   UNL     1      -2.329   7.468  15.591  1.00  0.00    -0.206 F 
ATOM     82  C   UNL     1      -3.983   7.740  17.232  1.00  0.00     0.040 A 
ATOM     83  C   UNL     1      -6.116   6.651  16.989  1.00  0.00     0.040 A 
ATOM     84  F   UNL     1      -6.531   5.279  15.134  1.00  0.00    -0.206 F 
ATOM     85  C   UNL     1      -5.261   7.472  17.720  1.00  0.00     0.006 A 
ENDBRANCH  61  78
ENDBRANCH  35  36
ENDBRANCH  27  30
ENDBRANCH  25  26
ENDBRANCH  24  25
ENDBRANCH   1  24
TORSDOF 14
