REMARK SMILES CC[C@H](C(=O)NCCCNC(=O)c1ccc(-c2c3nc(c(-c4c(F)cccc4F)c4ccc([nH]4)c(-c4c(F)cccc4F)c4nc(c(-c5c(F)cccc5F)c5ccc2[nH]5)C=C4)C=C3)cc1)N1C(=O)/C(=C\c2cc(OC)ccc2OC)SC1=S
REMARK SMILES IDX 7 1 6 2 4 3 5 4 3 6 2 7 1 8 67 9 68 10 83 11 69 12 70 13
REMARK SMILES IDX 82 14 84 15 71 16 72 17 73 18 79 19 74 20 78 21 77 22 80 23
REMARK SMILES IDX 81 24 75 25 76 26 8 27 9 28 10 29 11 30 12 32 13 33 14 34
REMARK SMILES IDX 66 35 15 36 65 37 16 38 17 39 18 40 59 41 19 42 64 43 58 44
REMARK SMILES IDX 60 45 20 46 63 47 57 48 56 49 21 51 47 52 30 53 46 54 31 55
REMARK SMILES IDX 34 56 45 57 61 58 32 59 33 60 44 62 62 63 35 64 22 65 23 66
REMARK SMILES IDX 28 67 24 68 25 69 27 70 29 71 26 72 48 73 49 74 54 75 50 76
REMARK SMILES IDX 51 77 53 78 55 79 52 80 36 81 37 82 42 83 38 84 39 85 41 86
REMARK SMILES IDX 43 87 40 88
REMARK H PARENT 6 5 10 31 60 50 34 61
REMARK Flexibility Score: inf
ROOT
ATOM      1  C   UNL     1      -1.894  -2.002   0.093  1.00  0.00     0.117 C 
ENDROOT
BRANCH   1   2
ATOM      2  N   UNL     1      -0.927  -1.066  -0.448  1.00  0.00    -0.354 N 
ATOM      3  C   UNL     1       0.426  -1.144  -0.573  1.00  0.00     0.243 C 
ATOM      4  O   UNL     1       1.011  -0.131  -0.970  1.00  0.00    -0.273 OA
ATOM      5  H   UNL     1      -1.318  -0.228  -0.784  1.00  0.00     0.163 HD
BRANCH   3   6
ATOM      6  C   UNL     1       1.231  -2.391  -0.160  1.00  0.00     0.181 C 
BRANCH   6   7
ATOM      7  C   UNL     1       1.139  -2.504   1.398  1.00  0.00     0.032 C 
ATOM      8  C   UNL     1       1.718  -1.303   2.136  1.00  0.00     0.006 C 
ENDBRANCH   6   7
BRANCH   6   9
ATOM      9  N   UNL     1       0.879  -3.665  -0.857  1.00  0.00    -0.280 N 
ATOM     10  C   UNL     1       1.529  -4.806  -0.412  1.00  0.00     0.266 C 
ATOM     11  C   UNL     1       0.387  -3.819  -2.144  1.00  0.00     0.149 C 
ATOM     12  O   UNL     1       2.516  -4.832   0.317  1.00  0.00    -0.268 OA
ATOM     13  C   UNL     1       1.001  -6.011  -1.088  1.00  0.00     0.081 C 
ATOM     14  S   UNL     1       0.236  -5.540  -2.541  1.00  0.00    -0.054 SA
ATOM     15  S   UNL     1      -0.071  -2.694  -3.286  1.00  0.00    -0.052 S 
ATOM     16  C   UNL     1       1.031  -7.263  -0.617  1.00  0.00     0.033 C 
BRANCH  16  17
ATOM     17  C   UNL     1       1.560  -7.616   0.706  1.00  0.00     0.021 A 
ATOM     18  C   UNL     1       2.778  -8.319   0.723  1.00  0.00     0.058 A 
ATOM     19  C   UNL     1       0.978  -7.228   1.925  1.00  0.00     0.126 A 
ATOM     20  C   UNL     1       3.433  -8.614   1.922  1.00  0.00     0.119 A 
ATOM     21  C   UNL     1       1.649  -7.514   3.121  1.00  0.00     0.051 A 
ATOM     22  C   UNL     1       2.865  -8.203   3.124  1.00  0.00     0.050 A 
BRANCH  19  23
ATOM     23  O   UNL     1      -0.163  -6.489   2.105  1.00  0.00    -0.496 OA
ATOM     24  C   UNL     1      -1.268  -6.760   1.252  1.00  0.00     0.278 C 
ENDBRANCH  19  23
BRANCH  20  25
ATOM     25  O   UNL     1       4.617  -9.283   1.776  1.00  0.00    -0.497 OA
ATOM     26  C   UNL     1       5.301  -9.647   2.969  1.00  0.00     0.278 C 
ENDBRANCH  20  25
ENDBRANCH  16  17
ENDBRANCH   6   9
ENDBRANCH   3   6
ENDBRANCH   1   2
BRANCH   1  27
ATOM     27  C   UNL     1      -2.508  -1.461   1.383  1.00  0.00     0.042 C 
BRANCH  27  28
ATOM     28  C   UNL     1      -3.420  -0.258   1.159  1.00  0.00     0.118 C 
BRANCH  28  29
ATOM     29  N   UNL     1      -4.641  -0.619   0.452  1.00  0.00    -0.352 N 
ATOM     30  C   UNL     1      -5.947  -0.398   0.807  1.00  0.00     0.251 C 
ATOM     31  H   UNL     1      -4.510  -1.089  -0.403  1.00  0.00     0.163 HD
ATOM     32  O   UNL     1      -6.852  -0.960   0.197  1.00  0.00    -0.269 OA
BRANCH  30  33
ATOM     33  C   UNL     1      -6.265   0.506   1.932  1.00  0.00     0.039 A 
ATOM     34  C   UNL     1      -7.247   0.125   2.849  1.00  0.00     0.014 A 
ATOM     35  C   UNL     1      -5.612   1.734   2.068  1.00  0.00     0.014 A 
ATOM     36  C   UNL     1      -7.537   0.953   3.935  1.00  0.00     0.010 A 
ATOM     37  C   UNL     1      -5.850   2.524   3.188  1.00  0.00     0.010 A 
ATOM     38  C   UNL     1      -6.821   2.146   4.127  1.00  0.00    -0.014 A 
BRANCH  38  39
ATOM     39  C   UNL     1      -7.081   3.018   5.298  1.00  0.00     0.031 A 
ATOM     40  C   UNL     1      -7.627   4.404   5.098  1.00  0.00     0.074 A 
ATOM     41  C   UNL     1      -6.761   2.587   6.533  1.00  0.00     0.049 A 
ATOM     42  N   UNL     1      -7.854   5.340   5.984  1.00  0.00    -0.248 NA
ATOM     43  C   UNL     1      -7.931   4.801   3.714  1.00  0.00     0.031 C 
ATOM     44  C   UNL     1      -6.176   1.282   6.849  1.00  0.00     0.029 A 
ATOM     45  N   UNL     1      -6.872   3.206   7.752  1.00  0.00    -0.354 N 
ATOM     46  C   UNL     1      -8.306   6.438   5.264  1.00  0.00     0.074 A 
ATOM     47  C   UNL     1      -8.274   6.071   3.866  1.00  0.00     0.031 C 
ATOM     48  C   UNL     1      -6.000   1.190   8.177  1.00  0.00     0.029 A 
ATOM     49  C   UNL     1      -6.426   2.439   8.800  1.00  0.00     0.049 A 
ATOM     50  H   UNL     1      -7.237   4.113   7.865  1.00  0.00     0.167 HD
ATOM     51  C   UNL     1      -8.732   7.637   5.729  1.00  0.00     0.037 A 
ATOM     52  C   UNL     1      -6.364   2.715  10.117  1.00  0.00     0.037 A 
ATOM     53  C   UNL     1      -8.791   7.986   7.124  1.00  0.00     0.049 A 
ATOM     54  C   UNL     1      -6.854   4.047  10.610  1.00  0.00     0.074 A 
ATOM     55  C   UNL     1      -9.270   9.148   7.703  1.00  0.00     0.029 A 
ATOM     56  N   UNL     1      -8.355   7.172   8.159  1.00  0.00    -0.354 N 
ATOM     57  N   UNL     1      -7.344   5.052   9.925  1.00  0.00    -0.248 NA
ATOM     58  C   UNL     1      -6.788   4.281  12.059  1.00  0.00     0.031 C 
ATOM     59  C   UNL     1      -9.087   9.053   9.087  1.00  0.00     0.029 A 
ATOM     60  C   UNL     1      -8.536   7.814   9.373  1.00  0.00     0.049 A 
ATOM     61  H   UNL     1      -7.974   6.271   8.047  1.00  0.00     0.167 HD
ATOM     62  C   UNL     1      -7.668   6.026  10.859  1.00  0.00     0.074 A 
ATOM     63  C   UNL     1      -7.331   5.486  12.161  1.00  0.00     0.031 C 
ATOM     64  C   UNL     1      -8.198   7.258  10.658  1.00  0.00     0.037 A 
BRANCH  51  65
ATOM     65  C   UNL     1      -9.171   8.654   4.716  1.00  0.00     0.057 A 
ATOM     66  C   UNL     1     -10.351   8.499   3.976  1.00  0.00     0.134 A 
ATOM     67  C   UNL     1      -8.416   9.811   4.489  1.00  0.00     0.134 A 
ATOM     68  F   UNL     1     -11.114   7.407   4.135  1.00  0.00    -0.206 F 
ATOM     69  C   UNL     1     -10.748   9.442   3.026  1.00  0.00     0.040 A 
ATOM     70  C   UNL     1      -8.816  10.775   3.562  1.00  0.00     0.040 A 
ATOM     71  F   UNL     1      -7.278  10.026   5.167  1.00  0.00    -0.206 F 
ATOM     72  C   UNL     1      -9.982  10.588   2.822  1.00  0.00     0.006 A 
ENDBRANCH  51  65
BRANCH  52  73
ATOM     73  C   UNL     1      -5.846   1.695  11.062  1.00  0.00     0.057 A 
ATOM     74  C   UNL     1      -6.706   1.026  11.940  1.00  0.00     0.134 A 
ATOM     75  C   UNL     1      -4.488   1.357  11.104  1.00  0.00     0.134 A 
ATOM     76  F   UNL     1      -8.015   1.318  11.957  1.00  0.00    -0.206 F 
ATOM     77  C   UNL     1      -6.233   0.068  12.838  1.00  0.00     0.040 A 
ATOM     78  C   UNL     1      -4.005   0.385  11.982  1.00  0.00     0.040 A 
ATOM     79  F   UNL     1      -3.615   1.956  10.281  1.00  0.00    -0.206 F 
ATOM     80  C   UNL     1      -4.878  -0.258  12.857  1.00  0.00     0.006 A 
ENDBRANCH  52  73
BRANCH  64  81
ATOM     81  C   UNL     1      -8.473   8.091  11.874  1.00  0.00     0.057 A 
ATOM     82  C   UNL     1      -7.442   8.695  12.604  1.00  0.00     0.134 A 
ATOM     83  C   UNL     1      -9.789   8.323  12.295  1.00  0.00     0.134 A 
ATOM     84  F   UNL     1      -6.160   8.500  12.260  1.00  0.00    -0.206 F 
ATOM     85  C   UNL     1      -7.709   9.485  13.723  1.00  0.00     0.040 A 
ATOM     86  C   UNL     1     -10.069   9.132  13.397  1.00  0.00     0.040 A 
ATOM     87  F   UNL     1     -10.822   7.780  11.634  1.00  0.00    -0.206 F 
ATOM     88  C   UNL     1      -9.027   9.711  14.118  1.00  0.00     0.006 A 
ENDBRANCH  64  81
ENDBRANCH  38  39
ENDBRANCH  30  33
ENDBRANCH  28  29
ENDBRANCH  27  28
ENDBRANCH   1  27
TORSDOF 15
