REMARK SMILES COc1ccc(-c2ccc(S(=O)(=O)NC(C)(C)C)cc2)c(C(=O)NCCCNC(=O)c2ccc(-c3c4nc(c(-c5c(F)cccc5F)c5ccc([nH]5)c(-c5c(F)cccc5F)c5nc(c(-c6c(F)cccc6F)c6ccc3[nH]6)C=C5)C=C4)cc2)c1
REMARK SMILES IDX 25 1 24 2 22 3 23 4 21 6 3 7 4 8 85 9 5 10 6 11 2 12 1 13
REMARK SMILES IDX 7 14 8 15 20 16 9 17 19 18 10 19 11 20 12 21 13 22 14 23
REMARK SMILES IDX 15 25 16 26 17 27 18 28 26 29 27 30 28 31 29 32 30 34 31 35
REMARK SMILES IDX 32 36 84 37 33 38 83 39 34 40 35 41 36 42 77 43 37 44 82 45
REMARK SMILES IDX 76 46 78 47 38 48 81 49 75 50 74 51 39 53 65 54 48 55 64 56
REMARK SMILES IDX 49 57 52 58 63 59 79 60 50 61 51 62 62 64 80 65 53 66 40 67
REMARK SMILES IDX 41 68 46 69 42 70 43 71 45 72 47 73 44 74 66 75 67 76 72 77
REMARK SMILES IDX 68 78 69 79 71 80 73 81 70 82 54 83 55 84 60 85 56 86 57 87
REMARK SMILES IDX 59 88 61 89 58 90
REMARK H PARENT 24 5 14 24 28 33 78 52 52 63
REMARK Flexibility Score: inf
ROOT
ATOM      1  C   UNL     1       4.486  -0.863  -1.537  1.00  0.00     0.118 C 
ENDROOT
BRANCH   1   2
ATOM      2  N   UNL     1       4.552  -0.762  -2.989  1.00  0.00    -0.352 N 
ATOM      3  C   UNL     1       3.583  -0.787  -3.973  1.00  0.00     0.252 C 
ATOM      4  O   UNL     1       3.927  -0.472  -5.108  1.00  0.00    -0.269 OA
ATOM      5  H   UNL     1       5.467  -0.656  -3.337  1.00  0.00     0.163 HD
BRANCH   3   6
ATOM      6  C   UNL     1       2.180  -1.211  -3.687  1.00  0.00     0.051 A 
ATOM      7  C   UNL     1       0.311  -1.172  -2.116  1.00  0.00     0.119 A 
ATOM      8  C   UNL     1      -0.359  -2.100  -2.902  1.00  0.00     0.047 A 
ATOM      9  C   UNL     1       1.550  -0.698  -2.539  1.00  0.00     0.060 A 
ATOM     10  C   UNL     1       0.192  -2.518  -4.114  1.00  0.00     0.013 A 
ATOM     11  C   UNL     1       1.454  -2.062  -4.555  1.00  0.00    -0.005 A 
BRANCH   7  12
ATOM     12  O   UNL     1      -0.335  -0.802  -0.971  1.00  0.00    -0.497 OA
ATOM     13  C   UNL     1       0.419  -0.048  -0.028  1.00  0.00     0.278 C 
ENDBRANCH   7  12
BRANCH  11  14
ATOM     14  C   UNL     1       1.861  -2.418  -5.933  1.00  0.00    -0.018 A 
ATOM     15  C   UNL     1       1.016  -2.063  -7.006  1.00  0.00     0.010 A 
ATOM     16  C   UNL     1       3.055  -3.090  -6.234  1.00  0.00     0.010 A 
ATOM     17  C   UNL     1       1.337  -2.380  -8.325  1.00  0.00     0.022 A 
ATOM     18  C   UNL     1       3.409  -3.369  -7.562  1.00  0.00     0.022 A 
ATOM     19  C   UNL     1       2.535  -3.036  -8.599  1.00  0.00     0.082 A 
BRANCH  19  20
ATOM     20  S   UNL     1       2.887  -3.455 -10.283  1.00  0.00     0.241 S 
ATOM     21  O   UNL     1       1.649  -3.845 -10.915  1.00  0.00    -0.207 OA
ATOM     22  O   UNL     1       3.694  -2.377 -10.813  1.00  0.00    -0.207 OA
BRANCH  20  23
ATOM     23  N   UNL     1       3.911  -4.779 -10.229  1.00  0.00    -0.206 NA
ATOM     24  H   UNL     1       4.558  -4.579  -9.465  1.00  0.00     0.141 HD
BRANCH  23  25
ATOM     25  C   UNL     1       3.527  -6.195 -10.043  1.00  0.00     0.025 C 
ATOM     26  C   UNL     1       2.486  -6.658 -11.064  1.00  0.00     0.028 C 
ATOM     27  C   UNL     1       4.816  -7.012 -10.261  1.00  0.00     0.028 C 
ATOM     28  C   UNL     1       3.027  -6.455  -8.621  1.00  0.00     0.028 C 
ENDBRANCH  23  25
ENDBRANCH  20  23
ENDBRANCH  19  20
ENDBRANCH  11  14
ENDBRANCH   3   6
ENDBRANCH   1   2
BRANCH   1  29
ATOM     29  C   UNL     1       5.475  -1.829  -0.902  1.00  0.00     0.042 C 
BRANCH  29  30
ATOM     30  C   UNL     1       6.940  -1.630  -1.259  1.00  0.00     0.118 C 
BRANCH  30  31
ATOM     31  N   UNL     1       7.448  -0.306  -0.939  1.00  0.00    -0.352 N 
ATOM     32  C   UNL     1       8.315   0.151   0.023  1.00  0.00     0.251 C 
ATOM     33  H   UNL     1       7.102   0.402  -1.528  1.00  0.00     0.163 HD
ATOM     34  O   UNL     1       8.469   1.367   0.135  1.00  0.00    -0.269 OA
BRANCH  32  35
ATOM     35  C   UNL     1       9.043  -0.753   0.947  1.00  0.00     0.039 A 
ATOM     36  C   UNL     1       9.298  -0.297   2.247  1.00  0.00     0.014 A 
ATOM     37  C   UNL     1       9.539  -1.999   0.560  1.00  0.00     0.014 A 
ATOM     38  C   UNL     1       9.981  -1.105   3.161  1.00  0.00     0.010 A 
ATOM     39  C   UNL     1      10.135  -2.845   1.498  1.00  0.00     0.010 A 
ATOM     40  C   UNL     1      10.371  -2.406   2.807  1.00  0.00    -0.014 A 
BRANCH  40  41
ATOM     41  C   UNL     1      11.027  -3.302   3.797  1.00  0.00     0.031 A 
ATOM     42  C   UNL     1      12.430  -3.803   3.575  1.00  0.00     0.074 A 
ATOM     43  C   UNL     1      10.339  -3.705   4.884  1.00  0.00     0.049 A 
ATOM     44  N   UNL     1      13.152  -4.600   4.324  1.00  0.00    -0.248 NA
ATOM     45  C   UNL     1      13.102  -3.376   2.338  1.00  0.00     0.031 C 
ATOM     46  C   UNL     1       8.951  -3.351   5.186  1.00  0.00     0.029 A 
ATOM     47  N   UNL     1      10.715  -4.501   5.938  1.00  0.00    -0.354 N 
ATOM     48  C   UNL     1      14.348  -4.785   3.641  1.00  0.00     0.074 A 
ATOM     49  C   UNL     1      14.236  -4.058   2.394  1.00  0.00     0.031 C 
ATOM     50  C   UNL     1       8.605  -3.894   6.364  1.00  0.00     0.029 A 
ATOM     51  C   UNL     1       9.734  -4.656   6.887  1.00  0.00     0.049 A 
ATOM     52  H   UNL     1      11.603  -4.920   6.007  1.00  0.00     0.167 HD
ATOM     53  C   UNL     1      15.449  -5.475   4.024  1.00  0.00     0.037 A 
ATOM     54  C   UNL     1       9.744  -5.329   8.053  1.00  0.00     0.037 A 
ATOM     55  C   UNL     1      15.578  -6.167   5.280  1.00  0.00     0.049 A 
ATOM     56  C   UNL     1      10.993  -6.046   8.479  1.00  0.00     0.074 A 
ATOM     57  C   UNL     1      16.677  -6.838   5.789  1.00  0.00     0.029 A 
ATOM     58  N   UNL     1      14.573  -6.272   6.229  1.00  0.00    -0.354 N 
ATOM     59  N   UNL     1      12.139  -6.153   7.852  1.00  0.00    -0.248 NA
ATOM     60  C   UNL     1      10.953  -6.726   9.781  1.00  0.00     0.031 C 
ATOM     61  C   UNL     1      16.327  -7.374   7.033  1.00  0.00     0.029 A 
ATOM     62  C   UNL     1      15.022  -7.006   7.315  1.00  0.00     0.049 A 
ATOM     63  H   UNL     1      13.672  -5.882   6.144  1.00  0.00     0.167 HD
ATOM     64  C   UNL     1      12.961  -6.895   8.689  1.00  0.00     0.074 A 
ATOM     65  C   UNL     1      12.190  -7.192   9.878  1.00  0.00     0.031 C 
ATOM     66  C   UNL     1      14.240  -7.297   8.489  1.00  0.00     0.037 A 
BRANCH  53  67
ATOM     67  C   UNL     1      16.611  -5.504   3.074  1.00  0.00     0.057 A 
ATOM     68  C   UNL     1      17.402  -4.370   2.843  1.00  0.00     0.134 A 
ATOM     69  C   UNL     1      16.962  -6.683   2.405  1.00  0.00     0.134 A 
ATOM     70  F   UNL     1      17.112  -3.206   3.443  1.00  0.00    -0.206 F 
ATOM     71  C   UNL     1      18.482  -4.400   1.960  1.00  0.00     0.040 A 
ATOM     72  C   UNL     1      18.056  -6.732   1.538  1.00  0.00     0.040 A 
ATOM     73  F   UNL     1      16.252  -7.806   2.585  1.00  0.00    -0.206 F 
ATOM     74  C   UNL     1      18.815  -5.587   1.308  1.00  0.00     0.006 A 
ENDBRANCH  53  67
BRANCH  54  75
ATOM     75  C   UNL     1       8.544  -5.316   8.925  1.00  0.00     0.057 A 
ATOM     76  C   UNL     1       8.532  -4.584  10.118  1.00  0.00     0.134 A 
ATOM     77  C   UNL     1       7.388  -6.029   8.592  1.00  0.00     0.134 A 
ATOM     78  F   UNL     1       9.618  -3.895  10.499  1.00  0.00    -0.206 F 
ATOM     79  C   UNL     1       7.418  -4.575  10.959  1.00  0.00     0.040 A 
ATOM     80  C   UNL     1       6.258  -6.012   9.412  1.00  0.00     0.040 A 
ATOM     81  F   UNL     1       7.336  -6.742   7.458  1.00  0.00    -0.206 F 
ATOM     82  C   UNL     1       6.274  -5.287  10.603  1.00  0.00     0.006 A 
ENDBRANCH  54  75
BRANCH  66  83
ATOM     83  C   UNL     1      14.882  -8.086   9.591  1.00  0.00     0.057 A 
ATOM     84  C   UNL     1      14.528  -9.416   9.847  1.00  0.00     0.134 A 
ATOM     85  C   UNL     1      15.871  -7.511  10.399  1.00  0.00     0.134 A 
ATOM     86  F   UNL     1      13.577 -10.019   9.117  1.00  0.00    -0.206 F 
ATOM     87  C   UNL     1      15.113 -10.139  10.887  1.00  0.00     0.040 A 
ATOM     88  C   UNL     1      16.480  -8.231  11.428  1.00  0.00     0.040 A 
ATOM     89  F   UNL     1      16.260  -6.242  10.202  1.00  0.00    -0.206 F 
ATOM     90  C   UNL     1      16.096  -9.546  11.679  1.00  0.00     0.006 A 
ENDBRANCH  66  83
ENDBRANCH  40  41
ENDBRANCH  32  35
ENDBRANCH  30  31
ENDBRANCH  29  30
ENDBRANCH   1  29
TORSDOF 15
