REMARK SMILES COc1cc(C)cc2c1[C@@H](C)[C@@H](CC(=O)N[C@@H](Cc1c[nH]c3ccccc13)C(=O)NCCCNC(=O)c1ccc(-c3c4nc(c(-c5c(F)cccc5F)c5ccc([nH]5)c(-c5c(F)cccc5F)c5nc(c(-c6c(F)cccc6F)c6ccc3[nH]6)C=C5)C=C4)cc1)C(=O)O2
REMARK SMILES IDX 31 1 30 2 28 3 29 4 17 6 16 7 14 8 15 9 13 11 12 12 3 13
REMARK SMILES IDX 4 14 9 15 5 16 8 17 10 18 6 19 7 20 93 21 11 22 91 23 92 24
REMARK SMILES IDX 2 25 1 26 18 27 19 28 20 29 27 30 21 31 22 32 26 33 23 35
REMARK SMILES IDX 25 36 24 37 32 38 33 39 34 40 35 41 36 43 37 44 38 45 90 46
REMARK SMILES IDX 39 47 89 48 40 49 41 50 42 51 83 52 43 53 88 54 82 55 84 56
REMARK SMILES IDX 44 57 87 58 81 59 80 60 45 62 71 63 54 64 70 65 55 66 58 67
REMARK SMILES IDX 69 68 85 69 56 70 57 71 68 73 86 74 59 75 46 76 47 77 52 78
REMARK SMILES IDX 48 79 49 80 51 81 53 82 50 83 72 84 73 85 78 86 74 87 75 88
REMARK SMILES IDX 77 89 79 90 76 91 60 92 61 93 66 94 62 95 63 96 65 97 67 98
REMARK SMILES IDX 64 99
REMARK H PARENT 30 5 16 10 21 34 34 42 84 61 58 72
REMARK Flexibility Score: inf
ROOT
ATOM      1  C   UNL     1      -2.886  -2.314  -9.914  1.00  0.00     0.117 C 
ENDROOT
BRANCH   1   2
ATOM      2  N   UNL     1      -1.787  -1.601  -9.309  1.00  0.00    -0.354 N 
ATOM      3  C   UNL     1      -1.717  -0.973  -8.112  1.00  0.00     0.242 C 
ATOM      4  O   UNL     1      -0.762  -0.197  -7.963  1.00  0.00    -0.273 OA
ATOM      5  H   UNL     1      -0.963  -1.567  -9.848  1.00  0.00     0.163 HD
BRANCH   3   6
ATOM      6  C   UNL     1      -2.692  -1.217  -6.940  1.00  0.00     0.175 C 
BRANCH   6   7
ATOM      7  N   UNL     1      -3.248  -0.032  -6.310  1.00  0.00    -0.344 N 
ATOM      8  C   UNL     1      -3.372   0.158  -4.960  1.00  0.00     0.221 C 
ATOM      9  O   UNL     1      -4.329   0.796  -4.527  1.00  0.00    -0.275 OA
ATOM     10  H   UNL     1      -3.561   0.691  -6.901  1.00  0.00     0.164 HD
BRANCH   8  11
ATOM     11  C   UNL     1      -2.239  -0.299  -4.050  1.00  0.00     0.116 C 
BRANCH  11  12
ATOM     12  C   UNL     1      -2.364  -1.664  -3.326  1.00  0.00     0.116 C 
ATOM     13  C   UNL     1       1.036  -1.186  -1.717  1.00  0.00     0.126 A 
ATOM     14  C   UNL     1       2.310  -0.979  -2.275  1.00  0.00     0.050 A 
ATOM     15  C   UNL     1      -0.013  -1.664  -2.505  1.00  0.00     0.041 A 
ATOM     16  C   UNL     1       2.562  -1.246  -3.629  1.00  0.00    -0.044 A 
ATOM     17  C   UNL     1       0.310  -2.059  -3.814  1.00  0.00     0.138 A 
ATOM     18  C   UNL     1      -1.468  -1.782  -2.062  1.00  0.00     0.038 C 
ATOM     19  C   UNL     1       3.913  -0.979  -4.223  1.00  0.00     0.044 C 
ATOM     20  C   UNL     1       1.557  -1.830  -4.392  1.00  0.00     0.051 A 
ATOM     21  O   UNL     1      -0.609  -2.756  -4.615  1.00  0.00    -0.426 OA
ATOM     22  C   UNL     1      -1.956  -0.802  -0.989  1.00  0.00     0.014 C 
ATOM     23  C   UNL     1      -1.899  -2.854  -4.135  1.00  0.00     0.315 C 
ATOM     24  O   UNL     1      -2.595  -3.835  -4.369  1.00  0.00    -0.251 OA
BRANCH  13  25
ATOM     25  O   UNL     1       0.818  -1.055  -0.373  1.00  0.00    -0.496 OA
ATOM     26  C   UNL     1       1.239   0.194   0.161  1.00  0.00     0.278 C 
ENDBRANCH  13  25
ENDBRANCH  11  12
ENDBRANCH   8  11
ENDBRANCH   6   7
BRANCH   6  27
ATOM     27  C   UNL     1      -3.627  -2.409  -6.835  1.00  0.00     0.072 C 
BRANCH  27  28
ATOM     28  C   UNL     1      -5.030  -2.557  -7.354  1.00  0.00    -0.020 A 
ATOM     29  C   UNL     1      -5.490  -3.846  -7.598  1.00  0.00     0.087 A 
ATOM     30  C   UNL     1      -6.181  -1.695  -7.507  1.00  0.00     0.003 A 
ATOM     31  N   UNL     1      -6.844  -3.827  -7.508  1.00  0.00    -0.361 N 
ATOM     32  C   UNL     1      -7.292  -2.542  -7.644  1.00  0.00     0.046 A 
ATOM     33  C   UNL     1      -6.459  -0.308  -7.504  1.00  0.00     0.010 A 
ATOM     34  H   UNL     1      -7.415  -4.617  -7.368  1.00  0.00     0.166 HD
ATOM     35  C   UNL     1      -8.607  -2.096  -7.817  1.00  0.00     0.026 A 
ATOM     36  C   UNL     1      -7.768   0.159  -7.726  1.00  0.00     0.001 A 
ATOM     37  C   UNL     1      -8.825  -0.725  -7.892  1.00  0.00     0.002 A 
ENDBRANCH  27  28
ENDBRANCH   6  27
ENDBRANCH   3   6
ENDBRANCH   1   2
BRANCH   1  38
ATOM     38  C   UNL     1      -3.971  -1.341 -10.345  1.00  0.00     0.042 C 
BRANCH  38  39
ATOM     39  C   UNL     1      -3.571  -0.580 -11.598  1.00  0.00     0.118 C 
BRANCH  39  40
ATOM     40  N   UNL     1      -3.514  -1.454 -12.766  1.00  0.00    -0.352 N 
ATOM     41  C   UNL     1      -4.262  -1.419 -13.920  1.00  0.00     0.251 C 
ATOM     42  H   UNL     1      -2.843  -2.172 -12.721  1.00  0.00     0.163 HD
ATOM     43  O   UNL     1      -4.263  -2.366 -14.686  1.00  0.00    -0.269 OA
BRANCH  41  44
ATOM     44  C   UNL     1      -5.074  -0.219 -14.201  1.00  0.00     0.039 A 
ATOM     45  C   UNL     1      -4.548   1.048 -13.953  1.00  0.00     0.014 A 
ATOM     46  C   UNL     1      -6.379  -0.367 -14.674  1.00  0.00     0.014 A 
ATOM     47  C   UNL     1      -5.385   2.150 -13.978  1.00  0.00     0.010 A 
ATOM     48  C   UNL     1      -7.186   0.763 -14.818  1.00  0.00     0.010 A 
ATOM     49  C   UNL     1      -6.711   2.023 -14.419  1.00  0.00    -0.014 A 
BRANCH  49  50
ATOM     50  C   UNL     1      -7.575   3.228 -14.449  1.00  0.00     0.031 A 
ATOM     51  C   UNL     1      -8.820   3.302 -13.609  1.00  0.00     0.074 A 
ATOM     52  C   UNL     1      -7.198   4.279 -15.201  1.00  0.00     0.049 A 
ATOM     53  N   UNL     1      -9.698   4.269 -13.520  1.00  0.00    -0.248 NA
ATOM     54  C   UNL     1      -9.126   2.136 -12.766  1.00  0.00     0.031 C 
ATOM     55  C   UNL     1      -6.000   4.326 -16.044  1.00  0.00     0.029 A 
ATOM     56  N   UNL     1      -7.764   5.515 -15.362  1.00  0.00    -0.354 N 
ATOM     57  C   UNL     1     -10.672   3.819 -12.637  1.00  0.00     0.074 A 
ATOM     58  C   UNL     1     -10.294   2.479 -12.243  1.00  0.00     0.031 C 
ATOM     59  C   UNL     1      -5.891   5.545 -16.588  1.00  0.00     0.029 A 
ATOM     60  C   UNL     1      -7.053   6.336 -16.203  1.00  0.00     0.049 A 
ATOM     61  H   UNL     1      -8.599   5.789 -14.918  1.00  0.00     0.167 HD
ATOM     62  C   UNL     1     -11.774   4.468 -12.192  1.00  0.00     0.037 A 
ATOM     63  C   UNL     1      -7.322   7.578 -16.641  1.00  0.00     0.037 A 
ATOM     64  C   UNL     1     -12.133   5.809 -12.582  1.00  0.00     0.049 A 
ATOM     65  C   UNL     1      -8.579   8.251 -16.177  1.00  0.00     0.074 A 
ATOM     66  C   UNL     1     -13.214   6.569 -12.172  1.00  0.00     0.029 A 
ATOM     67  N   UNL     1     -11.417   6.588 -13.481  1.00  0.00    -0.354 N 
ATOM     68  N   UNL     1      -9.487   7.818 -15.336  1.00  0.00    -0.248 NA
ATOM     69  C   UNL     1      -8.853   9.582 -16.731  1.00  0.00     0.031 C 
ATOM     70  C   UNL     1     -13.184   7.784 -12.866  1.00  0.00     0.029 A 
ATOM     71  C   UNL     1     -12.050   7.808 -13.663  1.00  0.00     0.049 A 
ATOM     72  H   UNL     1     -10.582   6.314 -13.925  1.00  0.00     0.167 HD
ATOM     73  C   UNL     1     -10.434   8.829 -15.247  1.00  0.00     0.074 A 
ATOM     74  C   UNL     1      -9.973   9.906 -16.101  1.00  0.00     0.031 C 
ATOM     75  C   UNL     1     -11.581   8.864 -14.525  1.00  0.00     0.037 A 
BRANCH  62  76
ATOM     76  C   UNL     1     -12.690   3.717 -11.265  1.00  0.00     0.057 A 
ATOM     77  C   UNL     1     -13.965   3.323 -11.692  1.00  0.00     0.134 A 
ATOM     78  C   UNL     1     -12.319   3.380  -9.956  1.00  0.00     0.134 A 
ATOM     79  F   UNL     1     -14.391   3.617 -12.930  1.00  0.00    -0.206 F 
ATOM     80  C   UNL     1     -14.832   2.617 -10.856  1.00  0.00     0.040 A 
ATOM     81  C   UNL     1     -13.166   2.648  -9.120  1.00  0.00     0.040 A 
ATOM     82  F   UNL     1     -11.107   3.713  -9.485  1.00  0.00    -0.206 F 
ATOM     83  C   UNL     1     -14.429   2.268  -9.569  1.00  0.00     0.006 A 
ENDBRANCH  62  76
BRANCH  63  84
ATOM     84  C   UNL     1      -6.396   8.243 -17.590  1.00  0.00     0.057 A 
ATOM     85  C   UNL     1      -6.229   7.769 -18.898  1.00  0.00     0.134 A 
ATOM     86  C   UNL     1      -5.652   9.365 -17.212  1.00  0.00     0.134 A 
ATOM     87  F   UNL     1      -6.907   6.691 -19.319  1.00  0.00    -0.206 F 
ATOM     88  C   UNL     1      -5.346   8.376 -19.790  1.00  0.00     0.040 A 
ATOM     89  C   UNL     1      -4.787  10.002 -18.104  1.00  0.00     0.040 A 
ATOM     90  F   UNL     1      -5.779   9.875 -15.978  1.00  0.00    -0.206 F 
ATOM     91  C   UNL     1      -4.628   9.503 -19.395  1.00  0.00     0.006 A 
ENDBRANCH  63  84
BRANCH  75  92
ATOM     92  C   UNL     1     -12.395  10.122 -14.613  1.00  0.00     0.057 A 
ATOM     93  C   UNL     1     -12.480  10.992 -13.518  1.00  0.00     0.134 A 
ATOM     94  C   UNL     1     -13.096  10.473 -15.774  1.00  0.00     0.134 A 
ATOM     95  F   UNL     1     -11.838  10.713 -12.374  1.00  0.00    -0.206 F 
ATOM     96  C   UNL     1     -13.232  12.166 -13.576  1.00  0.00     0.040 A 
ATOM     97  C   UNL     1     -13.826  11.660 -15.854  1.00  0.00     0.040 A 
ATOM     98  F   UNL     1     -13.041   9.692 -16.864  1.00  0.00    -0.206 F 
ATOM     99  C   UNL     1     -13.899  12.507 -14.751  1.00  0.00     0.006 A 
ENDBRANCH  75  92
ENDBRANCH  49  50
ENDBRANCH  41  44
ENDBRANCH  39  40
ENDBRANCH  38  39
ENDBRANCH   1  38
TORSDOF 16
