REMARK SMILES COC[C@@H](C)N(C)c1nc(C(C)C)c(C(=O)NCCCNC(=O)c2ccc(-c3c4nc(c(-c5c(F)cccc5F)c5ccc([nH]5)c(-c5c(F)cccc5F)c5nc(c(-c6c(F)cccc6F)c6ccc3[nH]6)C=C5)C=C4)cc2)s1
REMARK SMILES IDX 18 1 17 2 15 3 16 4 14 6 8 7 9 8 78 9 10 10 6 11 7 12 4 13
REMARK SMILES IDX 5 14 3 15 2 16 1 17 11 18 12 19 13 20 19 21 20 22 21 23
REMARK SMILES IDX 22 24 23 26 24 27 25 28 77 29 26 30 76 31 27 32 28 33 29 34
REMARK SMILES IDX 70 35 30 36 75 37 69 38 71 39 31 40 74 41 68 42 67 43 32 45
REMARK SMILES IDX 58 46 41 47 57 48 42 49 45 50 56 51 72 52 43 53 44 54 55 56
REMARK SMILES IDX 73 57 46 58 33 59 34 60 39 61 35 62 36 63 38 64 40 65 37 66
REMARK SMILES IDX 59 67 60 68 65 69 61 70 62 71 64 72 66 73 63 74 47 75 48 76
REMARK SMILES IDX 53 77 49 78 50 79 52 80 54 81 51 82
REMARK H PARENT 17 5 21 25 71 44 45 55
REMARK Flexibility Score: inf
ROOT
ATOM      1  C   UNL     1       7.871   1.421  -4.598  1.00  0.00     0.118 C 
ENDROOT
BRANCH   1   2
ATOM      2  N   UNL     1       7.109   2.443  -5.261  1.00  0.00    -0.351 N 
ATOM      3  C   UNL     1       5.782   2.780  -5.306  1.00  0.00     0.263 C 
ATOM      4  O   UNL     1       5.615   3.802  -5.991  1.00  0.00    -0.268 OA
ATOM      5  H   UNL     1       7.670   3.038  -5.808  1.00  0.00     0.163 HD
BRANCH   3   6
ATOM      6  C   UNL     1       4.664   2.099  -4.643  1.00  0.00     0.117 A 
ATOM      7  C   UNL     1       2.278   1.778  -3.975  1.00  0.00     0.186 A 
ATOM      8  N   UNL     1       3.079   0.947  -3.377  1.00  0.00    -0.224 NA
ATOM      9  S   UNL     1       3.102   2.852  -5.008  1.00  0.00    -0.091 S 
ATOM     10  C   UNL     1       4.381   0.989  -3.843  1.00  0.00     0.069 A 
BRANCH   7  11
ATOM     11  N   UNL     1       0.936   1.764  -3.747  1.00  0.00    -0.346 N 
ATOM     12  C   UNL     1       0.000   2.175  -4.774  1.00  0.00     0.146 C 
BRANCH  11  13
ATOM     13  C   UNL     1       0.422   1.317  -2.434  1.00  0.00     0.107 C 
ATOM     14  C   UNL     1       0.883   2.306  -1.357  1.00  0.00     0.033 C 
BRANCH  13  15
ATOM     15  C   UNL     1       0.771  -0.160  -2.111  1.00  0.00     0.184 C 
BRANCH  15  16
ATOM     16  O   UNL     1       0.089  -0.674  -0.958  1.00  0.00    -0.383 OA
ATOM     17  C   UNL     1       0.816  -0.503   0.255  1.00  0.00     0.194 C 
ENDBRANCH  15  16
ENDBRANCH  13  15
ENDBRANCH  11  13
ENDBRANCH   7  11
BRANCH  10  18
ATOM     18  C   UNL     1       5.115  -0.241  -3.373  1.00  0.00     0.034 C 
ATOM     19  C   UNL     1       5.614  -1.097  -4.535  1.00  0.00     0.014 C 
ATOM     20  C   UNL     1       6.049  -0.017  -2.181  1.00  0.00     0.014 C 
ENDBRANCH  10  18
ENDBRANCH   3   6
ENDBRANCH   1   2
BRANCH   1  21
ATOM     21  C   UNL     1       8.427   0.385  -5.562  1.00  0.00     0.042 C 
BRANCH  21  22
ATOM     22  C   UNL     1       9.874   0.651  -5.935  1.00  0.00     0.118 C 
BRANCH  22  23
ATOM     23  N   UNL     1      10.781   0.369  -4.825  1.00  0.00    -0.352 N 
ATOM     24  C   UNL     1      11.604  -0.703  -4.577  1.00  0.00     0.251 C 
ATOM     25  H   UNL     1      10.808   1.070  -4.134  1.00  0.00     0.163 HD
ATOM     26  O   UNL     1      12.098  -0.833  -3.456  1.00  0.00    -0.269 OA
BRANCH  24  27
ATOM     27  C   UNL     1      11.884  -1.713  -5.621  1.00  0.00     0.039 A 
ATOM     28  C   UNL     1      12.037  -3.055  -5.255  1.00  0.00     0.014 A 
ATOM     29  C   UNL     1      12.022  -1.347  -6.959  1.00  0.00     0.014 A 
ATOM     30  C   UNL     1      12.230  -4.029  -6.239  1.00  0.00     0.010 A 
ATOM     31  C   UNL     1      12.088  -2.324  -7.944  1.00  0.00     0.010 A 
ATOM     32  C   UNL     1      12.199  -3.678  -7.598  1.00  0.00    -0.014 A 
BRANCH  32  33
ATOM     33  C   UNL     1      12.285  -4.692  -8.681  1.00  0.00     0.031 A 
ATOM     34  C   UNL     1      13.383  -4.603  -9.708  1.00  0.00     0.074 A 
ATOM     35  C   UNL     1      11.319  -5.624  -8.804  1.00  0.00     0.049 A 
ATOM     36  N   UNL     1      13.543  -5.289 -10.812  1.00  0.00    -0.248 NA
ATOM     37  C   UNL     1      14.417  -3.579  -9.486  1.00  0.00     0.031 C 
ATOM     38  C   UNL     1      10.173  -5.783  -7.906  1.00  0.00     0.029 A 
ATOM     39  N   UNL     1      11.135  -6.602  -9.749  1.00  0.00    -0.354 N 
ATOM     40  C   UNL     1      14.673  -4.760 -11.424  1.00  0.00     0.074 A 
ATOM     41  C   UNL     1      15.126  -3.660 -10.602  1.00  0.00     0.031 C 
ATOM     42  C   UNL     1       9.419  -6.809  -8.331  1.00  0.00     0.029 A 
ATOM     43  C   UNL     1       9.995  -7.346  -9.558  1.00  0.00     0.049 A 
ATOM     44  H   UNL     1      11.760  -6.756 -10.494  1.00  0.00     0.167 HD
ATOM     45  C   UNL     1      15.292  -5.169 -12.557  1.00  0.00     0.037 A 
ATOM     46  C   UNL     1       9.463  -8.337 -10.299  1.00  0.00     0.037 A 
ATOM     47  C   UNL     1      14.859  -6.288 -13.351  1.00  0.00     0.049 A 
ATOM     48  C   UNL     1      10.168  -8.770 -11.555  1.00  0.00     0.074 A 
ATOM     49  C   UNL     1      15.460  -6.832 -14.472  1.00  0.00     0.029 A 
ATOM     50  N   UNL     1      13.716  -7.034 -13.107  1.00  0.00    -0.354 N 
ATOM     51  N   UNL     1      11.275  -8.307 -12.084  1.00  0.00    -0.248 NA
ATOM     52  C   UNL     1       9.550  -9.864 -12.317  1.00  0.00     0.031 C 
ATOM     53  C   UNL     1      14.652  -7.874 -14.938  1.00  0.00     0.029 A 
ATOM     54  C   UNL     1      13.577  -8.015 -14.074  1.00  0.00     0.049 A 
ATOM     55  H   UNL     1      13.095  -6.887 -12.357  1.00  0.00     0.167 HD
ATOM     56  C   UNL     1      11.498  -9.067 -13.225  1.00  0.00     0.074 A 
ATOM     57  C   UNL     1      10.423 -10.034 -13.300  1.00  0.00     0.031 C 
ATOM     58  C   UNL     1      12.501  -8.971 -14.131  1.00  0.00     0.037 A 
BRANCH  45  59
ATOM     59  C   UNL     1      16.506  -4.405 -13.002  1.00  0.00     0.057 A 
ATOM     60  C   UNL     1      17.713  -4.447 -12.290  1.00  0.00     0.134 A 
ATOM     61  C   UNL     1      16.481  -3.645 -14.179  1.00  0.00     0.134 A 
ATOM     62  F   UNL     1      17.803  -5.146 -11.148  1.00  0.00    -0.206 F 
ATOM     63  C   UNL     1      18.839  -3.740 -12.715  1.00  0.00     0.040 A 
ATOM     64  C   UNL     1      17.609  -2.958 -14.630  1.00  0.00     0.040 A 
ATOM     65  F   UNL     1      15.362  -3.564 -14.914  1.00  0.00    -0.206 F 
ATOM     66  C   UNL     1      18.791  -2.999 -13.893  1.00  0.00     0.006 A 
ENDBRANCH  45  59
BRANCH  46  67
ATOM     67  C   UNL     1       8.200  -8.993  -9.872  1.00  0.00     0.057 A 
ATOM     68  C   UNL     1       8.189 -10.322  -9.433  1.00  0.00     0.134 A 
ATOM     69  C   UNL     1       6.975  -8.316  -9.903  1.00  0.00     0.134 A 
ATOM     70  F   UNL     1       9.328 -11.030  -9.398  1.00  0.00    -0.206 F 
ATOM     71  C   UNL     1       7.005 -10.961  -9.061  1.00  0.00     0.040 A 
ATOM     72  C   UNL     1       5.787  -8.934  -9.507  1.00  0.00     0.040 A 
ATOM     73  F   UNL     1       6.917  -7.037 -10.305  1.00  0.00    -0.206 F 
ATOM     74  C   UNL     1       5.799 -10.264  -9.094  1.00  0.00     0.006 A 
ENDBRANCH  46  67
BRANCH  58  75
ATOM     75  C   UNL     1      12.498  -9.954 -15.266  1.00  0.00     0.057 A 
ATOM     76  C   UNL     1      11.563  -9.878 -16.306  1.00  0.00     0.134 A 
ATOM     77  C   UNL     1      13.469 -10.961 -15.339  1.00  0.00     0.134 A 
ATOM     78  F   UNL     1      10.599  -8.945 -16.288  1.00  0.00    -0.206 F 
ATOM     79  C   UNL     1      11.580 -10.784 -17.368  1.00  0.00     0.040 A 
ATOM     80  C   UNL     1      13.514 -11.853 -16.411  1.00  0.00     0.040 A 
ATOM     81  F   UNL     1      14.399 -11.082 -14.380  1.00  0.00    -0.206 F 
ATOM     82  C   UNL     1      12.564 -11.770 -17.426  1.00  0.00     0.006 A 
ENDBRANCH  58  75
ENDBRANCH  32  33
ENDBRANCH  24  27
ENDBRANCH  22  23
ENDBRANCH  21  22
ENDBRANCH   1  21
TORSDOF 15
