REMARK SMILES O=C(NCCCNC(=O)c1cc2ccccc2cc1OCCO)c1ccc(-c2c3nc(c(-c4c(F)cccc4F)c4ccc([nH]4)c(-c4c(F)cccc4F)c4nc(c(-c5c(F)cccc5F)c5ccc2[nH]5)C=C4)C=C3)cc1
REMARK SMILES IDX 6 1 5 2 4 3 3 4 1 5 2 6 24 8 25 9 77 10 26 11 76 12 27 13
REMARK SMILES IDX 28 14 29 15 70 16 30 17 75 18 69 19 71 20 31 21 74 22 68 23
REMARK SMILES IDX 67 24 32 26 58 27 41 28 57 29 42 30 45 31 56 32 72 33 43 34
REMARK SMILES IDX 44 35 55 37 73 38 46 39 33 40 34 41 39 42 35 43 36 44 38 45
REMARK SMILES IDX 40 46 37 47 59 48 60 49 65 50 61 51 62 52 64 53 66 54 63 55
REMARK SMILES IDX 47 56 48 57 53 58 49 59 50 60 52 61 54 62 51 63 7 64 8 65
REMARK SMILES IDX 9 67 10 68 11 69 19 70 12 71 18 72 13 73 17 74 14 75 16 76
REMARK SMILES IDX 15 77 20 78 21 79 22 80 23 81
REMARK H PARENT 3 7 71 25 45 36 7 66 23 82
REMARK Flexibility Score: inf
ROOT
ATOM      1  C   UNL     1       5.417  -3.264  -1.638  1.00  0.00     0.118 C 
ENDROOT
BRANCH   1   2
ATOM      2  C   UNL     1       5.617  -2.482  -0.357  1.00  0.00     0.042 C 
BRANCH   2   3
ATOM      3  C   UNL     1       5.021  -1.086  -0.363  1.00  0.00     0.118 C 
BRANCH   3   4
ATOM      4  N   UNL     1       3.581  -1.031  -0.589  1.00  0.00    -0.352 N 
ATOM      5  O   UNL     1       1.453  -0.325  -0.232  1.00  0.00    -0.269 OA
ATOM      6  C   UNL     1       2.644  -0.239   0.043  1.00  0.00     0.251 C 
ATOM      7  H   UNL     1       3.233  -1.637  -1.282  1.00  0.00     0.163 HD
BRANCH   6   8
ATOM      8  C   UNL     1       3.102   0.690   1.102  1.00  0.00     0.039 A 
ATOM      9  C   UNL     1       4.199   1.522   0.872  1.00  0.00     0.014 A 
ATOM     10  C   UNL     1       2.511   0.635   2.367  1.00  0.00     0.014 A 
ATOM     11  C   UNL     1       4.844   2.109   1.953  1.00  0.00     0.010 A 
ATOM     12  C   UNL     1       3.108   1.311   3.437  1.00  0.00     0.010 A 
ATOM     13  C   UNL     1       4.324   1.987   3.253  1.00  0.00    -0.014 A 
BRANCH  13  14
ATOM     14  C   UNL     1       5.111   2.526   4.394  1.00  0.00     0.031 A 
ATOM     15  C   UNL     1       5.692   1.607   5.438  1.00  0.00     0.074 A 
ATOM     16  C   UNL     1       5.389   3.843   4.436  1.00  0.00     0.049 A 
ATOM     17  N   UNL     1       6.470   1.899   6.453  1.00  0.00    -0.248 NA
ATOM     18  C   UNL     1       5.356   0.177   5.340  1.00  0.00     0.031 C 
ATOM     19  C   UNL     1       4.894   4.839   3.484  1.00  0.00     0.029 A 
ATOM     20  N   UNL     1       6.193   4.562   5.283  1.00  0.00    -0.354 N 
ATOM     21  C   UNL     1       6.678   0.705   7.132  1.00  0.00     0.074 A 
ATOM     22  C   UNL     1       5.943  -0.318   6.421  1.00  0.00     0.031 C 
ATOM     23  C   UNL     1       5.464   6.023   3.753  1.00  0.00     0.029 A 
ATOM     24  C   UNL     1       6.324   5.880   4.923  1.00  0.00     0.049 A 
ATOM     25  H   UNL     1       6.633   4.171   6.072  1.00  0.00     0.167 HD
ATOM     26  C   UNL     1       7.419   0.478   8.243  1.00  0.00     0.037 A 
ATOM     27  C   UNL     1       7.062   6.865   5.466  1.00  0.00     0.037 A 
ATOM     28  C   UNL     1       8.202   1.476   8.922  1.00  0.00     0.049 A 
ATOM     29  C   UNL     1       7.906   6.579   6.671  1.00  0.00     0.074 A 
ATOM     30  C   UNL     1       9.015   1.328  10.033  1.00  0.00     0.029 A 
ATOM     31  N   UNL     1       8.280   2.807   8.545  1.00  0.00    -0.354 N 
ATOM     32  N   UNL     1       8.088   5.445   7.300  1.00  0.00    -0.248 NA
ATOM     33  C   UNL     1       8.637   7.715   7.249  1.00  0.00     0.031 C 
ATOM     34  C   UNL     1       9.571   2.576  10.339  1.00  0.00     0.029 A 
ATOM     35  C   UNL     1       9.120   3.494   9.405  1.00  0.00     0.049 A 
ATOM     36  H   UNL     1       7.808   3.205   7.778  1.00  0.00     0.167 HD
ATOM     37  C   UNL     1       8.954   5.727   8.345  1.00  0.00     0.074 A 
ATOM     38  C   UNL     1       9.280   7.136   8.254  1.00  0.00     0.031 C 
ATOM     39  C   UNL     1       9.430   4.894   9.301  1.00  0.00     0.037 A 
BRANCH  26  40
ATOM     40  C   UNL     1       7.409  -0.910   8.811  1.00  0.00     0.057 A 
ATOM     41  C   UNL     1       8.160  -1.947   8.246  1.00  0.00     0.134 A 
ATOM     42  C   UNL     1       6.671  -1.198   9.966  1.00  0.00     0.134 A 
ATOM     43  F   UNL     1       8.877  -1.738   7.131  1.00  0.00    -0.206 F 
ATOM     44  C   UNL     1       8.168  -3.227   8.803  1.00  0.00     0.040 A 
ATOM     45  C   UNL     1       6.683  -2.469  10.542  1.00  0.00     0.040 A 
ATOM     46  F   UNL     1       5.934  -0.245  10.557  1.00  0.00    -0.206 F 
ATOM     47  C   UNL     1       7.432  -3.489   9.959  1.00  0.00     0.006 A 
ENDBRANCH  26  40
BRANCH  27  48
ATOM     48  C   UNL     1       7.047   8.212   4.850  1.00  0.00     0.057 A 
ATOM     49  C   UNL     1       8.139   8.675   4.108  1.00  0.00     0.134 A 
ATOM     50  C   UNL     1       5.934   9.052   4.963  1.00  0.00     0.134 A 
ATOM     51  F   UNL     1       9.238   7.917   3.981  1.00  0.00    -0.206 F 
ATOM     52  C   UNL     1       8.126   9.930   3.500  1.00  0.00     0.040 A 
ATOM     53  C   UNL     1       5.899  10.302   4.345  1.00  0.00     0.040 A 
ATOM     54  F   UNL     1       4.856   8.657   5.657  1.00  0.00    -0.206 F 
ATOM     55  C   UNL     1       7.000  10.745   3.613  1.00  0.00     0.006 A 
ENDBRANCH  27  48
BRANCH  39  56
ATOM     56  C   UNL     1      10.354   5.490  10.316  1.00  0.00     0.057 A 
ATOM     57  C   UNL     1       9.868   6.260  11.380  1.00  0.00     0.134 A 
ATOM     58  C   UNL     1      11.736   5.279  10.240  1.00  0.00     0.134 A 
ATOM     59  F   UNL     1       8.555   6.506  11.496  1.00  0.00    -0.206 F 
ATOM     60  C   UNL     1      10.730   6.817  12.326  1.00  0.00     0.040 A 
ATOM     61  C   UNL     1      12.605   5.819  11.188  1.00  0.00     0.040 A 
ATOM     62  F   UNL     1      12.259   4.548   9.245  1.00  0.00    -0.206 F 
ATOM     63  C   UNL     1      12.103   6.594  12.232  1.00  0.00     0.006 A 
ENDBRANCH  39  56
ENDBRANCH  13  14
ENDBRANCH   6   8
ENDBRANCH   3   4
ENDBRANCH   2   3
ENDBRANCH   1   2
BRANCH   1  64
ATOM     64  N   UNL     1       5.969  -2.621  -2.819  1.00  0.00    -0.352 N 
ATOM     65  C   UNL     1       6.308  -3.232  -4.000  1.00  0.00     0.255 C 
ATOM     66  H   UNL     1       6.114  -1.648  -2.766  1.00  0.00     0.163 HD
ATOM     67  O   UNL     1       6.715  -2.593  -4.965  1.00  0.00    -0.269 OA
BRANCH  65  68
ATOM     68  C   UNL     1       6.247  -4.702  -4.066  1.00  0.00     0.082 A 
ATOM     69  C   UNL     1       7.485  -5.353  -4.128  1.00  0.00     0.026 A 
ATOM     70  C   UNL     1       5.062  -5.423  -3.886  1.00  0.00     0.132 A 
ATOM     71  C   UNL     1       7.569  -6.728  -3.888  1.00  0.00    -0.017 A 
ATOM     72  C   UNL     1       5.144  -6.797  -3.644  1.00  0.00     0.056 A 
ATOM     73  C   UNL     1       8.812  -7.379  -3.856  1.00  0.00     0.009 A 
ATOM     74  C   UNL     1       6.388  -7.457  -3.618  1.00  0.00    -0.015 A 
ATOM     75  C   UNL     1       8.894  -8.732  -3.531  1.00  0.00     0.001 A 
ATOM     76  C   UNL     1       6.491  -8.819  -3.295  1.00  0.00     0.009 A 
ATOM     77  C   UNL     1       7.737  -9.449  -3.244  1.00  0.00     0.001 A 
BRANCH  70  78
ATOM     78  O   UNL     1       3.819  -4.866  -3.730  1.00  0.00    -0.490 OA
BRANCH  78  79
ATOM     79  C   UNL     1       3.361  -4.061  -4.829  1.00  0.00     0.257 C 
BRANCH  79  80
ATOM     80  C   UNL     1       2.482  -2.920  -4.299  1.00  0.00     0.197 C 
BRANCH  80  81
ATOM     81  O   UNL     1       3.266  -1.835  -3.798  1.00  0.00    -0.393 OA
ATOM     82  H   UNL     1       3.814  -2.146  -3.061  1.00  0.00     0.210 HD
ENDBRANCH  80  81
ENDBRANCH  79  80
ENDBRANCH  78  79
ENDBRANCH  70  78
ENDBRANCH  65  68
ENDBRANCH   1  64
TORSDOF 14
