REMARK SMILES C[C@@H](C(=O)NCCCNC(=O)c1ccc(-c2c3nc(c(-c4c(F)cccc4F)c4ccc([nH]4)c(-c4c(F)cccc4F)c4nc(c(-c5c(F)cccc5F)c5ccc2[nH]5)C=C4)C=C3)cc1)c1ccc(-c2cccc(OC(=O)NCCCc3ccccc3)c2)c(F)c1
REMARK SMILES IDX 1 1 2 2 3 3 4 4 5 5 6 7 7 8 8 9 9 10 10 11 11 13 12 14 13 15
REMARK SMILES IDX 65 16 14 17 64 18 15 19 16 20 17 21 58 22 18 23 63 24 57 25
REMARK SMILES IDX 59 26 19 27 62 28 56 29 55 30 20 32 46 33 29 34 45 35 30 36
REMARK SMILES IDX 33 37 44 38 60 39 31 40 32 41 43 43 61 44 34 45 21 46 22 47
REMARK SMILES IDX 27 48 23 49 24 50 26 51 28 52 25 53 47 54 48 55 53 56 49 57
REMARK SMILES IDX 50 58 52 59 54 60 51 61 35 62 36 63 41 64 37 65 38 66 40 67
REMARK SMILES IDX 42 68 39 69 66 70 67 71 91 72 68 73 89 74 69 75 90 76 70 77
REMARK SMILES IDX 71 78 88 79 72 80 74 81 73 82 75 83 76 84 77 85 78 86 79 88
REMARK SMILES IDX 80 89 81 90 82 91 83 92 87 93 84 94 86 95 85 96
REMARK H PARENT 5 6 9 12 59 31 33 42 78 87
REMARK Flexibility Score: inf
ROOT
ATOM      1  C   UNL     1       0.908  -0.226   0.108  1.00  0.00     0.023 C 
ATOM      2  C   UNL     1       0.541   0.250  -1.301  1.00  0.00     0.105 C 
ENDROOT
BRANCH   2   3
ATOM      3  C   UNL     1       1.200  -0.600  -2.401  1.00  0.00     0.227 C 
ATOM      4  O   UNL     1       0.581  -1.374  -3.133  1.00  0.00    -0.274 OA
ATOM      5  N   UNL     1       2.539  -0.503  -2.632  1.00  0.00    -0.356 N 
ATOM      6  H   UNL     1       2.860  -1.014  -3.410  1.00  0.00     0.163 HD
BRANCH   5   7
ATOM      7  C   UNL     1       3.567   0.227  -1.922  1.00  0.00     0.117 C 
BRANCH   7   8
ATOM      8  C   UNL     1       4.415  -0.700  -1.055  1.00  0.00     0.042 C 
BRANCH   8   9
ATOM      9  C   UNL     1       5.122  -1.815  -1.823  1.00  0.00     0.118 C 
BRANCH   9  10
ATOM     10  N   UNL     1       6.027  -1.307  -2.840  1.00  0.00    -0.352 N 
ATOM     11  C   UNL     1       7.370  -1.509  -3.022  1.00  0.00     0.251 C 
ATOM     12  H   UNL     1       5.606  -0.721  -3.510  1.00  0.00     0.163 HD
ATOM     13  O   UNL     1       7.971  -0.821  -3.843  1.00  0.00    -0.269 OA
BRANCH  11  14
ATOM     14  C   UNL     1       8.110  -2.525  -2.239  1.00  0.00     0.039 A 
ATOM     15  C   UNL     1       9.413  -2.223  -1.833  1.00  0.00     0.014 A 
ATOM     16  C   UNL     1       7.567  -3.780  -1.949  1.00  0.00     0.014 A 
ATOM     17  C   UNL     1      10.148  -3.154  -1.099  1.00  0.00     0.010 A 
ATOM     18  C   UNL     1       8.274  -4.681  -1.151  1.00  0.00     0.010 A 
ATOM     19  C   UNL     1       9.574  -4.380  -0.724  1.00  0.00    -0.014 A 
BRANCH  19  20
ATOM     20  C   UNL     1      10.332  -5.331   0.129  1.00  0.00     0.031 A 
ATOM     21  C   UNL     1      10.751  -6.677  -0.395  1.00  0.00     0.074 A 
ATOM     22  C   UNL     1      10.627  -4.982   1.396  1.00  0.00     0.049 A 
ATOM     23  N   UNL     1      11.448  -7.613   0.200  1.00  0.00    -0.248 NA
ATOM     24  C   UNL     1      10.314  -7.028  -1.755  1.00  0.00     0.031 C 
ATOM     25  C   UNL     1      10.225  -3.731   2.043  1.00  0.00     0.029 A 
ATOM     26  N   UNL     1      11.340  -5.642   2.365  1.00  0.00    -0.354 N 
ATOM     27  C   UNL     1      11.532  -8.660  -0.709  1.00  0.00     0.074 A 
ATOM     28  C   UNL     1      10.767  -8.268  -1.873  1.00  0.00     0.031 C 
ATOM     29  C   UNL     1      10.727  -3.698   3.287  1.00  0.00     0.029 A 
ATOM     30  C   UNL     1      11.460  -4.934   3.537  1.00  0.00     0.049 A 
ATOM     31  H   UNL     1      11.728  -6.537   2.234  1.00  0.00     0.167 HD
ATOM     32  C   UNL     1      12.206  -9.830  -0.595  1.00  0.00     0.037 A 
ATOM     33  C   UNL     1      12.096  -5.243   4.682  1.00  0.00     0.037 A 
ATOM     34  C   UNL     1      12.976 -10.214   0.560  1.00  0.00     0.049 A 
ATOM     35  C   UNL     1      12.843  -6.543   4.779  1.00  0.00     0.074 A 
ATOM     36  C   UNL     1      13.738 -11.354   0.749  1.00  0.00     0.029 A 
ATOM     37  N   UNL     1      13.079  -9.469   1.725  1.00  0.00    -0.354 N 
ATOM     38  N   UNL     1      12.979  -7.488   3.881  1.00  0.00    -0.248 NA
ATOM     39  C   UNL     1      13.536  -6.812   6.047  1.00  0.00     0.031 C 
ATOM     40  C   UNL     1      14.266 -11.319   2.045  1.00  0.00     0.029 A 
ATOM     41  C   UNL     1      13.873 -10.135   2.645  1.00  0.00     0.049 A 
ATOM     42  H   UNL     1      12.650  -8.595   1.876  1.00  0.00     0.167 HD
ATOM     43  C   UNL     1      13.785  -8.455   4.467  1.00  0.00     0.074 A 
ATOM     44  C   UNL     1      14.130  -7.968   5.787  1.00  0.00     0.031 C 
ATOM     45  C   UNL     1      14.199  -9.643   3.960  1.00  0.00     0.037 A 
BRANCH  32  46
ATOM     46  C   UNL     1      12.146 -10.779  -1.758  1.00  0.00     0.057 A 
ATOM     47  C   UNL     1      12.795 -10.503  -2.969  1.00  0.00     0.134 A 
ATOM     48  C   UNL     1      11.464 -11.998  -1.657  1.00  0.00     0.134 A 
ATOM     49  F   UNL     1      13.457  -9.348  -3.138  1.00  0.00    -0.206 F 
ATOM     50  C   UNL     1      12.748 -11.392  -4.044  1.00  0.00     0.040 A 
ATOM     51  C   UNL     1      11.432 -12.908  -2.716  1.00  0.00     0.040 A 
ATOM     52  F   UNL     1      10.826 -12.330  -0.524  1.00  0.00    -0.206 F 
ATOM     53  C   UNL     1      12.070 -12.602  -3.916  1.00  0.00     0.006 A 
ENDBRANCH  32  46
BRANCH  33  54
ATOM     54  C   UNL     1      12.079  -4.289   5.819  1.00  0.00     0.057 A 
ATOM     55  C   UNL     1      13.235  -3.597   6.199  1.00  0.00     0.134 A 
ATOM     56  C   UNL     1      10.912  -4.048   6.552  1.00  0.00     0.134 A 
ATOM     57  F   UNL     1      14.389  -3.799   5.546  1.00  0.00    -0.206 F 
ATOM     58  C   UNL     1      13.236  -2.714   7.280  1.00  0.00     0.040 A 
ATOM     59  C   UNL     1      10.892  -3.148   7.619  1.00  0.00     0.040 A 
ATOM     60  F   UNL     1       9.769  -4.673   6.231  1.00  0.00    -0.206 F 
ATOM     61  C   UNL     1      12.059  -2.484   7.990  1.00  0.00     0.006 A 
ENDBRANCH  33  54
BRANCH  45  62
ATOM     62  C   UNL     1      15.082 -10.483   4.836  1.00  0.00     0.057 A 
ATOM     63  C   UNL     1      14.588 -11.129   5.977  1.00  0.00     0.134 A 
ATOM     64  C   UNL     1      16.438 -10.654   4.532  1.00  0.00     0.134 A 
ATOM     65  F   UNL     1      13.301 -10.995   6.332  1.00  0.00    -0.206 F 
ATOM     66  C   UNL     1      15.420 -11.886   6.804  1.00  0.00     0.040 A 
ATOM     67  C   UNL     1      17.273 -11.431   5.335  1.00  0.00     0.040 A 
ATOM     68  F   UNL     1      16.973 -10.071   3.449  1.00  0.00    -0.206 F 
ATOM     69  C   UNL     1      16.767 -12.042   6.481  1.00  0.00     0.006 A 
ENDBRANCH  45  62
ENDBRANCH  19  20
ENDBRANCH  11  14
ENDBRANCH   9  10
ENDBRANCH   8   9
ENDBRANCH   7   8
ENDBRANCH   5   7
ENDBRANCH   2   3
BRANCH   2  70
ATOM     70  C   UNL     1      -0.978   0.294  -1.415  1.00  0.00    -0.033 A 
ATOM     71  C   UNL     1      -1.656   1.520  -1.457  1.00  0.00     0.005 A 
ATOM     72  C   UNL     1      -1.730  -0.888  -1.406  1.00  0.00     0.044 A 
ATOM     73  C   UNL     1      -3.056   1.561  -1.460  1.00  0.00     0.012 A 
ATOM     74  C   UNL     1      -3.116  -0.840  -1.423  1.00  0.00     0.131 A 
ATOM     75  C   UNL     1      -3.810   0.378  -1.421  1.00  0.00     0.018 A 
ATOM     76  F   UNL     1      -3.786  -2.004  -1.403  1.00  0.00    -0.206 F 
BRANCH  75  77
ATOM     77  C   UNL     1      -5.269   0.407  -1.268  1.00  0.00    -0.012 A 
ATOM     78  C   UNL     1      -6.109   1.105  -2.148  1.00  0.00     0.009 A 
ATOM     79  C   UNL     1      -5.853  -0.282  -0.191  1.00  0.00     0.056 A 
ATOM     80  C   UNL     1      -7.494   1.105  -1.958  1.00  0.00     0.004 A 
ATOM     81  C   UNL     1      -7.227  -0.271   0.004  1.00  0.00     0.133 A 
ATOM     82  C   UNL     1      -8.055   0.417  -0.881  1.00  0.00     0.047 A 
BRANCH  81  83
ATOM     83  O   UNL     1      -7.878  -0.964   1.051  1.00  0.00    -0.410 OA
BRANCH  83  84
ATOM     84  C   UNL     1      -7.249  -1.558   2.144  1.00  0.00     0.412 C 
ATOM     85  O   UNL     1      -6.056  -1.527   2.414  1.00  0.00    -0.224 OA
ATOM     86  N   UNL     1      -8.120  -2.210   2.972  1.00  0.00    -0.321 N 
ATOM     87  H   UNL     1      -7.732  -2.750   3.698  1.00  0.00     0.167 HD
BRANCH  86  88
ATOM     88  C   UNL     1      -9.558  -2.173   2.874  1.00  0.00     0.120 C 
BRANCH  88  89
ATOM     89  C   UNL     1     -10.261  -3.417   3.416  1.00  0.00     0.026 C 
BRANCH  89  90
ATOM     90  C   UNL     1      -9.700  -4.083   4.679  1.00  0.00     0.037 C 
BRANCH  90  91
ATOM     91  C   UNL     1      -9.833  -3.413   6.028  1.00  0.00    -0.048 A 
ATOM     92  C   UNL     1     -10.052  -2.047   6.222  1.00  0.00     0.004 A 
ATOM     93  C   UNL     1      -9.668  -4.220   7.170  1.00  0.00     0.004 A 
ATOM     94  C   UNL     1     -10.101  -1.501   7.510  1.00  0.00     0.000 A 
ATOM     95  C   UNL     1      -9.726  -3.679   8.456  1.00  0.00     0.000 A 
ATOM     96  C   UNL     1      -9.939  -2.316   8.626  1.00  0.00     0.000 A 
ENDBRANCH  90  91
ENDBRANCH  89  90
ENDBRANCH  88  89
ENDBRANCH  86  88
ENDBRANCH  83  84
ENDBRANCH  81  83
ENDBRANCH  75  77
ENDBRANCH   2  70
TORSDOF 18
