REMARK SMILES C[C@@H](NC(=O)c1cc(C(=O)NCCCNC(=O)c2ccc(-c3c4nc(c(-c5c(F)cccc5F)c5ccc([nH]5)c(-c5c(F)cccc5F)c5nc(c(-c6c(F)cccc6F)c6ccc3[nH]6)C=C5)C=C4)cc2)n(C)n1)c1ccccc1
REMARK SMILES IDX 12 1 11 2 9 3 10 4 8 6 6 7 7 8 74 9 72 10 73 11 4 12 3 13
REMARK SMILES IDX 5 15 2 16 1 17 75 18 76 19 80 20 77 21 79 22 78 23 13 24
REMARK SMILES IDX 14 25 15 26 16 27 17 29 18 30 19 31 71 32 20 33 70 34 21 35
REMARK SMILES IDX 22 36 23 37 64 38 24 39 69 40 63 41 65 42 25 43 68 44 62 45
REMARK SMILES IDX 61 46 26 48 52 49 35 50 51 51 36 52 39 53 50 54 66 55 37 56
REMARK SMILES IDX 38 57 49 59 67 60 40 61 27 62 28 63 33 64 29 65 30 66 32 67
REMARK SMILES IDX 34 68 31 69 53 70 54 71 59 72 55 73 56 74 58 75 60 76 57 77
REMARK SMILES IDX 41 78 42 79 47 80 43 81 44 82 46 83 48 84 45 85
REMARK H PARENT 11 5 3 14 15 28 65 47 39 58
REMARK Flexibility Score: inf
ROOT
ATOM      1  C   UNL     1      -6.602  -1.073  -3.174  1.00  0.00     0.118 C 
ENDROOT
BRANCH   1   2
ATOM      2  N   UNL     1      -5.774   0.107  -3.139  1.00  0.00    -0.351 N 
ATOM      3  C   UNL     1      -4.451   0.368  -3.351  1.00  0.00     0.269 C 
ATOM      4  O   UNL     1      -4.221   1.581  -3.451  1.00  0.00    -0.268 OA
ATOM      5  H   UNL     1      -6.284   0.916  -2.907  1.00  0.00     0.163 HD
BRANCH   3   6
ATOM      6  C   UNL     1      -3.370  -0.595  -3.461  1.00  0.00     0.126 A 
ATOM      7  C   UNL     1      -1.223  -1.280  -3.552  1.00  0.00     0.151 A 
ATOM      8  C   UNL     1      -2.075  -0.195  -3.811  1.00  0.00     0.069 A 
ATOM      9  N   UNL     1      -1.948  -2.376  -3.303  1.00  0.00    -0.167 NA
ATOM     10  N   UNL     1      -3.208  -1.926  -3.144  1.00  0.00    -0.262 N 
ATOM     11  C   UNL     1      -4.082  -2.875  -2.506  1.00  0.00     0.174 C 
BRANCH   7  12
ATOM     12  C   UNL     1       0.230  -1.329  -3.484  1.00  0.00     0.272 C 
ATOM     13  N   UNL     1       0.870  -0.851  -2.365  1.00  0.00    -0.344 N 
ATOM     14  H   UNL     1       1.740  -1.281  -2.200  1.00  0.00     0.164 HD
ATOM     15  O   UNL     1       0.916  -1.879  -4.349  1.00  0.00    -0.267 OA
BRANCH  13  16
ATOM     16  C   UNL     1       0.526   0.165  -1.365  1.00  0.00     0.109 C 
ATOM     17  C   UNL     1       1.488   0.030  -0.176  1.00  0.00     0.036 C 
BRANCH  16  18
ATOM     18  C   UNL     1      -0.891   0.214  -0.832  1.00  0.00    -0.026 A 
ATOM     19  C   UNL     1      -1.592   1.435  -0.868  1.00  0.00     0.006 A 
ATOM     20  C   UNL     1      -1.518  -0.894  -0.245  1.00  0.00     0.006 A 
ATOM     21  C   UNL     1      -2.889   1.536  -0.364  1.00  0.00     0.000 A 
ATOM     22  C   UNL     1      -2.818  -0.789   0.263  1.00  0.00     0.000 A 
ATOM     23  C   UNL     1      -3.505   0.422   0.198  1.00  0.00     0.000 A 
ENDBRANCH  16  18
ENDBRANCH  13  16
ENDBRANCH   7  12
ENDBRANCH   3   6
ENDBRANCH   1   2
BRANCH   1  24
ATOM     24  C   UNL     1      -7.090  -1.469  -1.779  1.00  0.00     0.042 C 
BRANCH  24  25
ATOM     25  C   UNL     1      -8.245  -0.620  -1.252  1.00  0.00     0.118 C 
BRANCH  25  26
ATOM     26  N   UNL     1      -9.459  -0.810  -2.027  1.00  0.00    -0.352 N 
ATOM     27  C   UNL     1     -10.658  -1.384  -1.694  1.00  0.00     0.251 C 
ATOM     28  H   UNL     1      -9.412  -0.468  -2.949  1.00  0.00     0.163 HD
ATOM     29  O   UNL     1     -11.444  -1.674  -2.593  1.00  0.00    -0.269 OA
BRANCH  27  30
ATOM     30  C   UNL     1     -11.032  -1.654  -0.286  1.00  0.00     0.039 A 
ATOM     31  C   UNL     1     -11.818  -2.780  -0.012  1.00  0.00     0.014 A 
ATOM     32  C   UNL     1     -10.713  -0.769   0.747  1.00  0.00     0.014 A 
ATOM     33  C   UNL     1     -12.257  -3.030   1.290  1.00  0.00     0.010 A 
ATOM     34  C   UNL     1     -11.091  -1.056   2.059  1.00  0.00     0.010 A 
ATOM     35  C   UNL     1     -11.882  -2.180   2.341  1.00  0.00    -0.014 A 
BRANCH  35  36
ATOM     36  C   UNL     1     -12.332  -2.440   3.733  1.00  0.00     0.031 A 
ATOM     37  C   UNL     1     -13.258  -1.476   4.426  1.00  0.00     0.074 A 
ATOM     38  C   UNL     1     -11.870  -3.521   4.391  1.00  0.00     0.049 A 
ATOM     39  N   UNL     1     -13.713  -1.503   5.654  1.00  0.00    -0.248 NA
ATOM     40  C   UNL     1     -13.712  -0.316   3.644  1.00  0.00     0.031 C 
ATOM     41  C   UNL     1     -10.939  -4.508   3.844  1.00  0.00     0.029 A 
ATOM     42  N   UNL     1     -12.116  -3.964   5.666  1.00  0.00    -0.354 N 
ATOM     43  C   UNL     1     -14.489  -0.359   5.795  1.00  0.00     0.074 A 
ATOM     44  C   UNL     1     -14.407   0.364   4.545  1.00  0.00     0.031 C 
ATOM     45  C   UNL     1     -10.706  -5.452   4.770  1.00  0.00     0.029 A 
ATOM     46  C   UNL     1     -11.443  -5.119   5.985  1.00  0.00     0.049 A 
ATOM     47  H   UNL     1     -12.716  -3.499   6.292  1.00  0.00     0.167 HD
ATOM     48  C   UNL     1     -15.221   0.042   6.863  1.00  0.00     0.037 A 
ATOM     49  C   UNL     1     -11.419  -5.826   7.130  1.00  0.00     0.037 A 
ATOM     50  C   UNL     1     -15.325  -0.695   8.096  1.00  0.00     0.049 A 
ATOM     51  C   UNL     1     -12.246  -5.365   8.297  1.00  0.00     0.074 A 
ATOM     52  C   UNL     1     -16.088  -0.402   9.214  1.00  0.00     0.029 A 
ATOM     53  N   UNL     1     -14.647  -1.872   8.372  1.00  0.00    -0.354 N 
ATOM     54  N   UNL     1     -13.022  -4.314   8.396  1.00  0.00    -0.248 NA
ATOM     55  C   UNL     1     -12.200  -6.195   9.509  1.00  0.00     0.031 C 
ATOM     56  C   UNL     1     -15.840  -1.382  10.181  1.00  0.00     0.029 A 
ATOM     57  C   UNL     1     -14.958  -2.309   9.649  1.00  0.00     0.049 A 
ATOM     58  H   UNL     1     -14.034  -2.329   7.752  1.00  0.00     0.167 HD
ATOM     59  C   UNL     1     -13.577  -4.369   9.667  1.00  0.00     0.074 A 
ATOM     60  C   UNL     1     -13.060  -5.565  10.298  1.00  0.00     0.031 C 
ATOM     61  C   UNL     1     -14.438  -3.506  10.260  1.00  0.00     0.037 A 
BRANCH  48  62
ATOM     62  C   UNL     1     -15.969   1.338   6.743  1.00  0.00     0.057 A 
ATOM     63  C   UNL     1     -17.093   1.470   5.917  1.00  0.00     0.134 A 
ATOM     64  C   UNL     1     -15.583   2.459   7.489  1.00  0.00     0.134 A 
ATOM     65  F   UNL     1     -17.510   0.438   5.167  1.00  0.00    -0.206 F 
ATOM     66  C   UNL     1     -17.789   2.676   5.816  1.00  0.00     0.040 A 
ATOM     67  C   UNL     1     -16.287   3.663   7.418  1.00  0.00     0.040 A 
ATOM     68  F   UNL     1     -14.520   2.401   8.306  1.00  0.00    -0.206 F 
ATOM     69  C   UNL     1     -17.390   3.775   6.574  1.00  0.00     0.006 A 
ENDBRANCH  48  62
BRANCH  49  70
ATOM     70  C   UNL     1     -10.601  -7.061   7.220  1.00  0.00     0.057 A 
ATOM     71  C   UNL     1     -11.204  -8.323   7.274  1.00  0.00     0.134 A 
ATOM     72  C   UNL     1      -9.202  -7.012   7.253  1.00  0.00     0.134 A 
ATOM     73  F   UNL     1     -12.540  -8.433   7.263  1.00  0.00    -0.206 F 
ATOM     74  C   UNL     1     -10.447  -9.491   7.376  1.00  0.00     0.040 A 
ATOM     75  C   UNL     1      -8.432  -8.173   7.330  1.00  0.00     0.040 A 
ATOM     76  F   UNL     1      -8.565  -5.833   7.195  1.00  0.00    -0.206 F 
ATOM     77  C   UNL     1      -9.055  -9.418   7.399  1.00  0.00     0.006 A 
ENDBRANCH  49  70
BRANCH  61  78
ATOM     78  C   UNL     1     -14.900  -3.844  11.647  1.00  0.00     0.057 A 
ATOM     79  C   UNL     1     -14.055  -3.722  12.757  1.00  0.00     0.134 A 
ATOM     80  C   UNL     1     -16.215  -4.268  11.876  1.00  0.00     0.134 A 
ATOM     81  F   UNL     1     -12.780  -3.334  12.602  1.00  0.00    -0.206 F 
ATOM     82  C   UNL     1     -14.495  -4.034  14.045  1.00  0.00     0.040 A 
ATOM     83  C   UNL     1     -16.674  -4.558  13.162  1.00  0.00     0.040 A 
ATOM     84  F   UNL     1     -17.077  -4.397  10.857  1.00  0.00    -0.206 F 
ATOM     85  C   UNL     1     -15.810  -4.447  14.250  1.00  0.00     0.006 A 
ENDBRANCH  61  78
ENDBRANCH  35  36
ENDBRANCH  27  30
ENDBRANCH  25  26
ENDBRANCH  24  25
ENDBRANCH   1  24
TORSDOF 13
