REMARK SMILES CNc1nccc(-c2cc(C(=O)NCCCNC(=O)c3ccc(-c4c5nc(c(-c6c(F)cccc6F)c6ccc([nH]6)c(-c6c(F)cccc6F)c6nc(c(-c7c(F)cccc7F)c7ccc4[nH]7)C=C6)C=C5)cc3)ccn2)n1
REMARK SMILES IDX 15 1 14 2 13 3 11 4 12 5 10 7 8 8 9 9 76 10 75 11 74 12 7 13
REMARK SMILES IDX 3 14 4 15 77 16 5 17 6 18 2 19 1 20 16 22 17 23 18 24 19 26
REMARK SMILES IDX 20 27 21 28 73 29 22 30 72 31 23 32 24 33 25 34 66 35 26 36
REMARK SMILES IDX 71 37 65 38 67 39 27 40 70 41 64 42 63 43 28 45 54 46 37 47
REMARK SMILES IDX 53 48 38 49 41 50 52 51 68 52 39 53 40 54 51 56 69 57 42 58
REMARK SMILES IDX 29 59 30 60 35 61 31 62 32 63 34 64 36 65 33 66 55 67 56 68
REMARK SMILES IDX 61 69 57 70 58 71 60 72 62 73 59 74 43 75 44 76 49 77 45 78
REMARK SMILES IDX 46 79 48 80 50 81 47 82
REMARK H PARENT 13 6 2 21 17 25 67 44 41 55
REMARK Flexibility Score: inf
ROOT
ATOM      1  C   UNL     1      -1.202  -2.156  -6.716  1.00  0.00     0.042 C 
ENDROOT
BRANCH   1   2
ATOM      2  C   UNL     1      -2.630  -1.633  -6.883  1.00  0.00     0.118 C 
BRANCH   2   3
ATOM      3  N   UNL     1      -3.605  -2.634  -6.484  1.00  0.00    -0.352 N 
ATOM      4  C   UNL     1      -4.333  -2.822  -5.337  1.00  0.00     0.251 C 
ATOM      5  O   UNL     1      -5.136  -3.756  -5.319  1.00  0.00    -0.269 OA
ATOM      6  H   UNL     1      -3.777  -3.313  -7.175  1.00  0.00     0.163 HD
BRANCH   4   7
ATOM      7  C   UNL     1      -4.253  -1.924  -4.155  1.00  0.00     0.043 A 
ATOM      8  C   UNL     1      -3.216  -0.269  -2.762  1.00  0.00     0.090 A 
ATOM      9  C   UNL     1      -3.125  -1.191  -3.801  1.00  0.00     0.044 A 
ATOM     10  N   UNL     1      -4.338  -0.124  -2.015  1.00  0.00    -0.255 NA
ATOM     11  C   UNL     1      -5.384  -0.925  -2.303  1.00  0.00     0.112 A 
ATOM     12  C   UNL     1      -5.397  -1.813  -3.361  1.00  0.00     0.034 A 
BRANCH   8  13
ATOM     13  C   UNL     1      -2.149   0.716  -2.556  1.00  0.00     0.094 A 
ATOM     14  C   UNL     1      -0.210   1.313  -1.486  1.00  0.00     0.222 A 
ATOM     15  N   UNL     1      -0.097   2.443  -2.197  1.00  0.00    -0.222 NA
ATOM     16  N   UNL     1      -1.198   0.422  -1.643  1.00  0.00    -0.211 NA
ATOM     17  C   UNL     1      -1.044   2.690  -3.115  1.00  0.00     0.117 A 
ATOM     18  C   UNL     1      -2.105   1.854  -3.338  1.00  0.00     0.051 A 
BRANCH  14  19
ATOM     19  N   UNL     1       0.797   1.086  -0.593  1.00  0.00    -0.357 N 
ATOM     20  C   UNL     1       0.891  -0.131   0.155  1.00  0.00     0.143 C 
ATOM     21  H   UNL     1       1.481   1.781  -0.459  1.00  0.00     0.163 HD
ENDBRANCH  14  19
ENDBRANCH   8  13
ENDBRANCH   4   7
ENDBRANCH   2   3
ENDBRANCH   1   2
BRANCH   1  22
ATOM     22  C   UNL     1      -0.791  -3.148  -7.803  1.00  0.00     0.118 C 
BRANCH  22  23
ATOM     23  N   UNL     1      -0.603  -2.495  -9.090  1.00  0.00    -0.352 N 
ATOM     24  C   UNL     1       0.493  -2.460  -9.914  1.00  0.00     0.251 C 
ATOM     25  H   UNL     1      -1.387  -2.000  -9.422  1.00  0.00     0.163 HD
ATOM     26  O   UNL     1       0.516  -1.666 -10.849  1.00  0.00    -0.269 OA
BRANCH  24  27
ATOM     27  C   UNL     1       1.649  -3.358  -9.688  1.00  0.00     0.039 A 
ATOM     28  C   UNL     1       2.937  -2.855  -9.895  1.00  0.00     0.014 A 
ATOM     29  C   UNL     1       1.475  -4.701  -9.342  1.00  0.00     0.014 A 
ATOM     30  C   UNL     1       4.049  -3.680  -9.707  1.00  0.00     0.010 A 
ATOM     31  C   UNL     1       2.586  -5.508  -9.096  1.00  0.00     0.010 A 
ATOM     32  C   UNL     1       3.884  -5.007  -9.281  1.00  0.00    -0.014 A 
BRANCH  32  33
ATOM     33  C   UNL     1       5.057  -5.881  -9.019  1.00  0.00     0.031 A 
ATOM     34  C   UNL     1       5.303  -7.100  -9.866  1.00  0.00     0.074 A 
ATOM     35  C   UNL     1       5.863  -5.613  -7.973  1.00  0.00     0.049 A 
ATOM     36  N   UNL     1       6.223  -8.022  -9.739  1.00  0.00    -0.248 NA
ATOM     37  C   UNL     1       4.380  -7.325 -10.991  1.00  0.00     0.031 C 
ATOM     38  C   UNL     1       5.705  -4.489  -7.047  1.00  0.00     0.029 A 
ATOM     39  N   UNL     1       6.969  -6.276  -7.501  1.00  0.00    -0.354 N 
ATOM     40  C   UNL     1       5.976  -8.947 -10.746  1.00  0.00     0.074 A 
ATOM     41  C   UNL     1       4.801  -8.492 -11.459  1.00  0.00     0.031 C 
ATOM     42  C   UNL     1       6.681  -4.536  -6.126  1.00  0.00     0.029 A 
ATOM     43  C   UNL     1       7.513  -5.709  -6.374  1.00  0.00     0.049 A 
ATOM     44  H   UNL     1       7.337  -7.082  -7.930  1.00  0.00     0.167 HD
ATOM     45  C   UNL     1       6.674 -10.065 -11.057  1.00  0.00     0.037 A 
ATOM     46  C   UNL     1       8.556  -6.098  -5.617  1.00  0.00     0.037 A 
ATOM     47  C   UNL     1       7.869 -10.491 -10.377  1.00  0.00     0.049 A 
ATOM     48  C   UNL     1       9.324  -7.333  -6.001  1.00  0.00     0.074 A 
ATOM     49  C   UNL     1       8.694 -11.562 -10.677  1.00  0.00     0.029 A 
ATOM     50  N   UNL     1       8.409  -9.868  -9.264  1.00  0.00    -0.354 N 
ATOM     51  N   UNL     1       9.124  -8.151  -7.005  1.00  0.00    -0.248 NA
ATOM     52  C   UNL     1      10.466  -7.695  -5.149  1.00  0.00     0.031 C 
ATOM     53  C   UNL     1       9.713 -11.610  -9.720  1.00  0.00     0.029 A 
ATOM     54  C   UNL     1       9.545 -10.545  -8.851  1.00  0.00     0.049 A 
ATOM     55  H   UNL     1       8.041  -9.065  -8.831  1.00  0.00     0.167 HD
ATOM     56  C   UNL     1      10.131  -9.105  -6.923  1.00  0.00     0.074 A 
ATOM     57  C   UNL     1      10.948  -8.756  -5.780  1.00  0.00     0.031 C 
ATOM     58  C   UNL     1      10.357 -10.175  -7.722  1.00  0.00     0.037 A 
BRANCH  45  59
ATOM     59  C   UNL     1       6.176 -10.912 -12.191  1.00  0.00     0.057 A 
ATOM     60  C   UNL     1       6.317 -10.514 -13.526  1.00  0.00     0.134 A 
ATOM     61  C   UNL     1       5.622 -12.175 -11.946  1.00  0.00     0.134 A 
ATOM     62  F   UNL     1       6.832  -9.312 -13.826  1.00  0.00    -0.206 F 
ATOM     63  C   UNL     1       5.913 -11.338 -14.578  1.00  0.00     0.040 A 
ATOM     64  C   UNL     1       5.236 -13.017 -12.990  1.00  0.00     0.040 A 
ATOM     65  F   UNL     1       5.467 -12.619 -10.690  1.00  0.00    -0.206 F 
ATOM     66  C   UNL     1       5.380 -12.598 -14.311  1.00  0.00     0.006 A 
ENDBRANCH  45  59
BRANCH  46  67
ATOM     67  C   UNL     1       8.948  -5.312  -4.420  1.00  0.00     0.057 A 
ATOM     68  C   UNL     1      10.145  -4.586  -4.393  1.00  0.00     0.134 A 
ATOM     69  C   UNL     1       8.158  -5.297  -3.265  1.00  0.00     0.134 A 
ATOM     70  F   UNL     1      10.954  -4.579  -5.463  1.00  0.00    -0.206 F 
ATOM     71  C   UNL     1      10.556  -3.897  -3.252  1.00  0.00     0.040 A 
ATOM     72  C   UNL     1       8.545  -4.591  -2.125  1.00  0.00     0.040 A 
ATOM     73  F   UNL     1       6.997  -5.967  -3.230  1.00  0.00    -0.206 F 
ATOM     74  C   UNL     1       9.753  -3.897  -2.113  1.00  0.00     0.006 A 
ENDBRANCH  46  67
BRANCH  58  75
ATOM     75  C   UNL     1      11.556 -11.021  -7.412  1.00  0.00     0.057 A 
ATOM     76  C   UNL     1      11.584 -11.887  -6.312  1.00  0.00     0.134 A 
ATOM     77  C   UNL     1      12.681 -10.993  -8.246  1.00  0.00     0.134 A 
ATOM     78  F   UNL     1      10.543 -11.948  -5.468  1.00  0.00    -0.206 F 
ATOM     79  C   UNL     1      12.699 -12.681  -6.039  1.00  0.00     0.040 A 
ATOM     80  C   UNL     1      13.791 -11.801  -7.997  1.00  0.00     0.040 A 
ATOM     81  F   UNL     1      12.713 -10.191  -9.321  1.00  0.00    -0.206 F 
ATOM     82  C   UNL     1      13.804 -12.643  -6.888  1.00  0.00     0.006 A 
ENDBRANCH  58  75
ENDBRANCH  32  33
ENDBRANCH  24  27
ENDBRANCH  22  23
ENDBRANCH   1  22
TORSDOF 12
