REMARK SMILES Nc1nc(N2CCOC[C@H]2C(=O)NCCCNC(=O)c2ccc(-c3c4nc(c(-c5c(F)cccc5F)c5ccc([nH]5)c(-c5c(F)cccc5F)c5nc(c(-c6c(F)cccc6F)c6ccc3[nH]6)C=C5)C=C4)cc2)ccc1[N+](=O)[O-]
REMARK SMILES IDX 15 1 14 2 13 3 11 4 12 5 10 7 5 8 6 9 7 10 9 11 8 12 4 13
REMARK SMILES IDX 2 14 3 15 76 16 75 17 74 18 1 19 77 22 78 23 79 24 16 25
REMARK SMILES IDX 17 26 18 27 19 29 20 30 21 31 73 32 22 33 72 34 23 35 24 36
REMARK SMILES IDX 25 37 66 38 26 39 71 40 65 41 67 42 27 43 70 44 64 45 63 46
REMARK SMILES IDX 28 48 54 49 37 50 53 51 38 52 41 53 52 54 68 55 39 56 40 57
REMARK SMILES IDX 51 59 69 60 42 61 29 62 30 63 35 64 31 65 32 66 34 67 36 68
REMARK SMILES IDX 33 69 55 70 56 71 61 72 57 73 58 74 60 75 62 76 59 77 43 78
REMARK SMILES IDX 44 79 49 80 45 81 46 82 48 83 50 84 47 85
REMARK H PARENT 13 6 1 20 1 21 17 28 67 47 41 58
REMARK Flexibility Score: inf
ROOT
ATOM      1  C   UNL     1      -2.290   4.381   3.340  1.00  0.00     0.042 C 
ENDROOT
BRANCH   1   2
ATOM      2  C   UNL     1      -2.236   5.195   2.052  1.00  0.00     0.117 C 
BRANCH   2   3
ATOM      3  N   UNL     1      -0.987   5.006   1.347  1.00  0.00    -0.354 N 
ATOM      4  C   UNL     1      -0.643   4.251   0.268  1.00  0.00     0.245 C 
ATOM      5  O   UNL     1       0.540   4.372  -0.089  1.00  0.00    -0.273 OA
ATOM      6  H   UNL     1      -0.239   5.527   1.720  1.00  0.00     0.163 HD
BRANCH   4   7
ATOM      7  C   UNL     1      -1.610   3.366  -0.555  1.00  0.00     0.199 C 
ATOM      8  N   UNL     1      -2.071   2.111   0.085  1.00  0.00    -0.340 N 
ATOM      9  C   UNL     1      -3.361   2.112   0.762  1.00  0.00     0.147 C 
ATOM     10  C   UNL     1      -4.415   2.809  -0.097  1.00  0.00     0.181 C 
ATOM     11  C   UNL     1      -2.784   4.143  -1.194  1.00  0.00     0.195 C 
ATOM     12  O   UNL     1      -4.011   4.137  -0.444  1.00  0.00    -0.377 OA
BRANCH   8  13
ATOM     13  C   UNL     1      -1.288   0.980   0.007  1.00  0.00     0.132 A 
ATOM     14  C   UNL     1       0.855   0.015   0.025  1.00  0.00     0.204 A 
ATOM     15  N   UNL     1       0.055   1.111   0.049  1.00  0.00    -0.207 NA
ATOM     16  C   UNL     1       0.319  -1.265  -0.061  1.00  0.00     0.311 A 
ATOM     17  C   UNL     1      -1.061  -1.419  -0.166  1.00  0.00     0.093 A 
ATOM     18  C   UNL     1      -1.862  -0.283  -0.131  1.00  0.00     0.054 A 
BRANCH  14  19
ATOM     19  N   UNL     1       2.196   0.291   0.197  1.00  0.00    -0.378 N 
ATOM     20  H   UNL     1       2.503   1.225   0.250  1.00  0.00     0.158 HD
ATOM     21  H   UNL     1       2.845  -0.446   0.267  1.00  0.00     0.158 HD
ENDBRANCH  14  19
BRANCH  16  22
ATOM     22  N   UNL     1       1.158  -2.454  -0.055  1.00  0.00     0.066 N 
ATOM     23  O   UNL     1       0.635  -3.514   0.325  1.00  0.00    -0.258 OA
ATOM     24  O   UNL     1       2.325  -2.357  -0.463  1.00  0.00    -0.258 OA
ENDBRANCH  16  22
ENDBRANCH   8  13
ENDBRANCH   4   7
ENDBRANCH   2   3
ENDBRANCH   1   2
BRANCH   1  25
ATOM     25  C   UNL     1      -1.705   5.106   4.542  1.00  0.00     0.118 C 
BRANCH  25  26
ATOM     26  N   UNL     1      -2.582   6.166   5.022  1.00  0.00    -0.352 N 
ATOM     27  C   UNL     1      -3.196   6.347   6.237  1.00  0.00     0.251 C 
ATOM     28  H   UNL     1      -2.766   6.873   4.363  1.00  0.00     0.163 HD
ATOM     29  O   UNL     1      -4.054   7.220   6.342  1.00  0.00    -0.269 OA
BRANCH  27  30
ATOM     30  C   UNL     1      -2.860   5.511   7.416  1.00  0.00     0.039 A 
ATOM     31  C   UNL     1      -3.869   5.241   8.349  1.00  0.00     0.014 A 
ATOM     32  C   UNL     1      -1.565   5.046   7.656  1.00  0.00     0.014 A 
ATOM     33  C   UNL     1      -3.587   4.483   9.488  1.00  0.00     0.010 A 
ATOM     34  C   UNL     1      -1.308   4.207   8.738  1.00  0.00     0.010 A 
ATOM     35  C   UNL     1      -2.307   3.939   9.683  1.00  0.00    -0.014 A 
BRANCH  35  36
ATOM     36  C   UNL     1      -2.000   3.128  10.889  1.00  0.00     0.031 A 
ATOM     37  C   UNL     1      -0.977   3.604  11.887  1.00  0.00     0.074 A 
ATOM     38  C   UNL     1      -2.617   1.945  11.072  1.00  0.00     0.049 A 
ATOM     39  N   UNL     1      -0.586   3.041  13.004  1.00  0.00    -0.248 NA
ATOM     40  C   UNL     1      -0.277   4.861  11.577  1.00  0.00     0.031 C 
ATOM     41  C   UNL     1      -3.571   1.335  10.143  1.00  0.00     0.029 A 
ATOM     42  N   UNL     1      -2.537   1.044  12.104  1.00  0.00    -0.354 N 
ATOM     43  C   UNL     1       0.414   3.861  13.512  1.00  0.00     0.074 A 
ATOM     44  C   UNL     1       0.612   4.928  12.556  1.00  0.00     0.031 C 
ATOM     45  C   UNL     1      -4.016   0.181  10.665  1.00  0.00     0.029 A 
ATOM     46  C   UNL     1      -3.365  -0.041  11.952  1.00  0.00     0.049 A 
ATOM     47  H   UNL     1      -1.943   1.164  12.879  1.00  0.00     0.167 HD
ATOM     48  C   UNL     1       1.089   3.752  14.681  1.00  0.00     0.037 A 
ATOM     49  C   UNL     1      -3.587  -1.089  12.767  1.00  0.00     0.037 A 
ATOM     50  C   UNL     1       0.861   2.715  15.652  1.00  0.00     0.049 A 
ATOM     51  C   UNL     1      -2.877  -1.153  14.089  1.00  0.00     0.074 A 
ATOM     52  C   UNL     1       1.438   2.556  16.899  1.00  0.00     0.029 A 
ATOM     53  N   UNL     1      -0.023   1.661  15.482  1.00  0.00    -0.354 N 
ATOM     54  N   UNL     1      -1.994  -0.326  14.594  1.00  0.00    -0.248 NA
ATOM     55  C   UNL     1      -3.208  -2.287  14.963  1.00  0.00     0.031 C 
ATOM     56  C   UNL     1       0.925   1.387  17.473  1.00  0.00     0.029 A 
ATOM     57  C   UNL     1      -0.001   0.841  16.598  1.00  0.00     0.049 A 
ATOM     58  H   UNL     1      -0.584   1.516  14.686  1.00  0.00     0.167 HD
ATOM     59  C   UNL     1      -1.683  -0.823  15.852  1.00  0.00     0.074 A 
ATOM     60  C   UNL     1      -2.485  -2.014  16.041  1.00  0.00     0.031 C 
ATOM     61  C   UNL     1      -0.811  -0.337  16.770  1.00  0.00     0.037 A 
BRANCH  48  62
ATOM     62  C   UNL     1       2.130   4.794  14.977  1.00  0.00     0.057 A 
ATOM     63  C   UNL     1       1.785   6.118  15.280  1.00  0.00     0.134 A 
ATOM     64  C   UNL     1       3.491   4.466  14.980  1.00  0.00     0.134 A 
ATOM     65  F   UNL     1       0.499   6.502  15.282  1.00  0.00    -0.206 F 
ATOM     66  C   UNL     1       2.756   7.085  15.544  1.00  0.00     0.040 A 
ATOM     67  C   UNL     1       4.471   5.418  15.269  1.00  0.00     0.040 A 
ATOM     68  F   UNL     1       3.892   3.216  14.704  1.00  0.00    -0.206 F 
ATOM     69  C   UNL     1       4.105   6.734  15.544  1.00  0.00     0.006 A 
ENDBRANCH  48  62
BRANCH  49  70
ATOM     70  C   UNL     1      -4.569  -2.132  12.379  1.00  0.00     0.057 A 
ATOM     71  C   UNL     1      -5.810  -2.228  13.019  1.00  0.00     0.134 A 
ATOM     72  C   UNL     1      -4.298  -3.049  11.357  1.00  0.00     0.134 A 
ATOM     73  F   UNL     1      -6.121  -1.386  14.016  1.00  0.00    -0.206 F 
ATOM     74  C   UNL     1      -6.740  -3.208  12.671  1.00  0.00     0.040 A 
ATOM     75  C   UNL     1      -5.227  -4.021  10.982  1.00  0.00     0.040 A 
ATOM     76  F   UNL     1      -3.131  -3.002  10.697  1.00  0.00    -0.206 F 
ATOM     77  C   UNL     1      -6.450  -4.106  11.645  1.00  0.00     0.006 A 
ENDBRANCH  49  70
BRANCH  61  78
ATOM     78  C   UNL     1      -0.705  -1.080  18.068  1.00  0.00     0.057 A 
ATOM     79  C   UNL     1      -0.068  -2.324  18.157  1.00  0.00     0.134 A 
ATOM     80  C   UNL     1      -1.228  -0.533  19.246  1.00  0.00     0.134 A 
ATOM     81  F   UNL     1       0.443  -2.906  17.061  1.00  0.00    -0.206 F 
ATOM     82  C   UNL     1       0.021  -3.011  19.368  1.00  0.00     0.040 A 
ATOM     83  C   UNL     1      -1.123  -1.199  20.467  1.00  0.00     0.040 A 
ATOM     84  F   UNL     1      -1.842   0.659  19.229  1.00  0.00    -0.206 F 
ATOM     85  C   UNL     1      -0.504  -2.446  20.529  1.00  0.00     0.006 A 
ENDBRANCH  61  78
ENDBRANCH  35  36
ENDBRANCH  27  30
ENDBRANCH  25  26
ENDBRANCH   1  25
TORSDOF 13
