REMARK SMILES CCOc1cc(C(=O)NCCCNC(=O)c2ccc(-c3c4nc(c(-c5c(F)cccc5F)c5ccc([nH]5)c(-c5c(F)cccc5F)c5nc(c(-c6c(F)cccc6F)c6ccc3[nH]6)C=C5)C=C4)cc2)cc(I)c1OCC
REMARK SMILES IDX 11 1 10 2 9 3 7 4 8 5 6 7 4 8 5 9 73 10 71 11 70 12 72 13
REMARK SMILES IDX 3 14 2 15 1 16 74 17 75 18 76 19 12 20 13 21 14 22 15 24
REMARK SMILES IDX 16 25 17 26 69 27 18 28 68 29 19 30 20 31 21 32 62 33 22 34
REMARK SMILES IDX 67 35 61 36 63 37 23 38 66 39 60 40 59 41 24 43 50 44 33 45
REMARK SMILES IDX 49 46 34 47 37 48 48 49 64 50 35 51 36 52 47 54 65 55 38 56
REMARK SMILES IDX 25 57 26 58 31 59 27 60 28 61 30 62 32 63 29 64 51 65 52 66
REMARK SMILES IDX 57 67 53 68 54 69 56 70 58 71 55 72 39 73 40 74 45 75 41 76
REMARK SMILES IDX 42 77 44 78 46 79 43 80
REMARK H PARENT 9 6 13 23 63 42 37 53
REMARK Flexibility Score: inf
ROOT
ATOM      1  C   UNL     1       8.560   1.088   1.962  1.00  0.00     0.042 C 
ENDROOT
BRANCH   1   2
ATOM      2  C   UNL     1       7.676   2.101   1.232  1.00  0.00     0.118 C 
BRANCH   2   3
ATOM      3  N   UNL     1       6.801   1.431   0.292  1.00  0.00    -0.352 N 
ATOM      4  C   UNL     1       5.518   0.965   0.392  1.00  0.00     0.251 C 
ATOM      5  O   UNL     1       5.041   0.420  -0.604  1.00  0.00    -0.269 OA
ATOM      6  H   UNL     1       7.209   1.281  -0.591  1.00  0.00     0.163 HD
BRANCH   4   7
ATOM      7  C   UNL     1       4.670   1.113   1.608  1.00  0.00     0.044 A 
ATOM      8  C   UNL     1       2.414   1.137   2.497  1.00  0.00     0.163 A 
ATOM      9  C   UNL     1       3.294   1.063   1.414  1.00  0.00     0.064 A 
ATOM     10  C   UNL     1       2.873   1.386   3.812  1.00  0.00     0.174 A 
ATOM     11  C   UNL     1       4.255   1.543   3.982  1.00  0.00     0.060 A 
ATOM     12  C   UNL     1       5.134   1.307   2.904  1.00  0.00     0.032 A 
ATOM     13  I   UNL     1       5.281   2.342   5.662  1.00  0.00    -0.040 I 
BRANCH   8  14
ATOM     14  O   UNL     1       1.061   1.091   2.240  1.00  0.00    -0.490 OA
BRANCH  14  15
ATOM     15  C   UNL     1       0.611  -0.186   1.766  1.00  0.00     0.226 C 
ATOM     16  C   UNL     1       0.538  -0.246   0.245  1.00  0.00     0.049 C 
ENDBRANCH  14  15
ENDBRANCH   8  14
BRANCH  10  17
ATOM     17  O   UNL     1       1.863   1.438   4.730  1.00  0.00    -0.489 OA
BRANCH  17  18
ATOM     18  C   UNL     1       2.067   1.318   6.132  1.00  0.00     0.226 C 
ATOM     19  C   UNL     1       2.677  -0.005   6.574  1.00  0.00     0.049 C 
ENDBRANCH  17  18
ENDBRANCH  10  17
ENDBRANCH   4   7
ENDBRANCH   2   3
ENDBRANCH   1   2
BRANCH   1  20
ATOM     20  C   UNL     1       9.715   0.586   1.101  1.00  0.00     0.118 C 
BRANCH  20  21
ATOM     21  N   UNL     1      10.680   1.644   0.842  1.00  0.00    -0.352 N 
ATOM     22  C   UNL     1      12.014   1.713   1.140  1.00  0.00     0.251 C 
ATOM     23  H   UNL     1      10.316   2.433   0.379  1.00  0.00     0.163 HD
ATOM     24  O   UNL     1      12.588   2.796   1.085  1.00  0.00    -0.269 OA
BRANCH  22  25
ATOM     25  C   UNL     1      12.766   0.500   1.523  1.00  0.00     0.039 A 
ATOM     26  C   UNL     1      13.755   0.610   2.505  1.00  0.00     0.014 A 
ATOM     27  C   UNL     1      12.551  -0.722   0.878  1.00  0.00     0.014 A 
ATOM     28  C   UNL     1      14.500  -0.513   2.866  1.00  0.00     0.010 A 
ATOM     29  C   UNL     1      13.247  -1.856   1.288  1.00  0.00     0.010 A 
ATOM     30  C   UNL     1      14.235  -1.760   2.277  1.00  0.00    -0.014 A 
BRANCH  30  31
ATOM     31  C   UNL     1      14.984  -2.970   2.691  1.00  0.00     0.031 A 
ATOM     32  C   UNL     1      15.892  -3.672   1.720  1.00  0.00     0.074 A 
ATOM     33  C   UNL     1      14.803  -3.464   3.930  1.00  0.00     0.049 A 
ATOM     34  N   UNL     1      16.592  -4.765   1.887  1.00  0.00    -0.248 NA
ATOM     35  C   UNL     1      16.009  -3.084   0.377  1.00  0.00     0.031 C 
ATOM     36  C   UNL     1      13.910  -2.897   4.943  1.00  0.00     0.029 A 
ATOM     37  N   UNL     1      15.353  -4.558   4.547  1.00  0.00    -0.354 N 
ATOM     38  C   UNL     1      17.221  -5.001   0.671  1.00  0.00     0.074 A 
ATOM     39  C   UNL     1      16.781  -3.967  -0.240  1.00  0.00     0.031 C 
ATOM     40  C   UNL     1      13.992  -3.634   6.062  1.00  0.00     0.029 A 
ATOM     41  C   UNL     1      14.914  -4.741   5.835  1.00  0.00     0.049 A 
ATOM     42  H   UNL     1      16.002  -5.155   4.108  1.00  0.00     0.167 HD
ATOM     43  C   UNL     1      18.102  -5.979   0.351  1.00  0.00     0.037 A 
ATOM     44  C   UNL     1      15.218  -5.699   6.731  1.00  0.00     0.037 A 
ATOM     45  C   UNL     1      18.554  -6.992   1.269  1.00  0.00     0.049 A 
ATOM     46  C   UNL     1      16.201  -6.770   6.351  1.00  0.00     0.074 A 
ATOM     47  C   UNL     1      19.490  -7.990   1.061  1.00  0.00     0.029 A 
ATOM     48  N   UNL     1      18.097  -7.137   2.570  1.00  0.00    -0.354 N 
ATOM     49  N   UNL     1      16.840  -6.941   5.219  1.00  0.00    -0.248 NA
ATOM     50  C   UNL     1      16.509  -7.777   7.375  1.00  0.00     0.031 C 
ATOM     51  C   UNL     1      19.570  -8.764   2.224  1.00  0.00     0.029 A 
ATOM     52  C   UNL     1      18.716  -8.221   3.171  1.00  0.00     0.049 A 
ATOM     53  H   UNL     1      17.431  -6.556   3.004  1.00  0.00     0.167 HD
ATOM     54  C   UNL     1      17.642  -8.060   5.401  1.00  0.00     0.074 A 
ATOM     55  C   UNL     1      17.422  -8.514   6.759  1.00  0.00     0.031 C 
ATOM     56  C   UNL     1      18.483  -8.659   4.523  1.00  0.00     0.037 A 
BRANCH  43  57
ATOM     57  C   UNL     1      18.638  -5.996  -1.052  1.00  0.00     0.057 A 
ATOM     58  C   UNL     1      19.535  -5.023  -1.512  1.00  0.00     0.134 A 
ATOM     59  C   UNL     1      18.280  -7.016  -1.943  1.00  0.00     0.134 A 
ATOM     60  F   UNL     1      19.910  -4.012  -0.713  1.00  0.00    -0.206 F 
ATOM     61  C   UNL     1      20.037  -5.048  -2.814  1.00  0.00     0.040 A 
ATOM     62  C   UNL     1      18.796  -7.067  -3.240  1.00  0.00     0.040 A 
ATOM     63  F   UNL     1      17.430  -7.983  -1.567  1.00  0.00    -0.206 F 
ATOM     64  C   UNL     1      19.672  -6.077  -3.680  1.00  0.00     0.006 A 
ENDBRANCH  43  57
BRANCH  44  65
ATOM     65  C   UNL     1      14.605  -5.671   8.082  1.00  0.00     0.057 A 
ATOM     66  C   UNL     1      15.367  -5.359   9.213  1.00  0.00     0.134 A 
ATOM     67  C   UNL     1      13.248  -5.954   8.275  1.00  0.00     0.134 A 
ATOM     68  F   UNL     1      16.677  -5.096   9.092  1.00  0.00    -0.206 F 
ATOM     69  C   UNL     1      14.808  -5.348  10.491  1.00  0.00     0.040 A 
ATOM     70  C   UNL     1      12.669  -5.922   9.545  1.00  0.00     0.040 A 
ATOM     71  F   UNL     1      12.462  -6.250   7.230  1.00  0.00    -0.206 F 
ATOM     72  C   UNL     1      13.452  -5.625  10.658  1.00  0.00     0.006 A 
ENDBRANCH  44  65
BRANCH  56  73
ATOM     73  C   UNL     1      19.241  -9.856   5.016  1.00  0.00     0.057 A 
ATOM     74  C   UNL     1      18.612 -11.089   5.232  1.00  0.00     0.134 A 
ATOM     75  C   UNL     1      20.618  -9.780   5.255  1.00  0.00     0.134 A 
ATOM     76  F   UNL     1      17.292 -11.223   5.036  1.00  0.00    -0.206 F 
ATOM     77  C   UNL     1      19.324 -12.198   5.693  1.00  0.00     0.040 A 
ATOM     78  C   UNL     1      21.345 -10.889   5.690  1.00  0.00     0.040 A 
ATOM     79  F   UNL     1      21.282  -8.630   5.060  1.00  0.00    -0.206 F 
ATOM     80  C   UNL     1      20.696 -12.100   5.918  1.00  0.00     0.006 A 
ENDBRANCH  56  73
ENDBRANCH  30  31
ENDBRANCH  22  25
ENDBRANCH  20  21
ENDBRANCH   1  20
TORSDOF 14
