REMARK SMILES O=C(NCCCNC(=O)c1ccncc1-c1ccc(F)cc1F)c1ccc(-c2c3nc(c(-c4c(F)cccc4F)c4ccc([nH]4)c(-c4c(F)cccc4F)c4nc(c(-c5c(F)cccc5F)c5ccc2[nH]5)C=C4)C=C3)cc1
REMARK SMILES IDX 4 1 3 2 1 3 2 4 24 6 25 7 77 8 26 9 76 10 27 11 28 12 29 13
REMARK SMILES IDX 70 14 30 15 75 16 69 17 71 18 31 19 74 20 68 21 67 22 32 24
REMARK SMILES IDX 58 25 41 26 57 27 42 28 45 29 56 30 72 31 43 32 44 33 55 35
REMARK SMILES IDX 73 36 46 37 33 38 34 39 39 40 35 41 36 42 38 43 40 44 37 45
REMARK SMILES IDX 59 46 60 47 65 48 61 49 62 50 64 51 66 52 63 53 47 54 48 55
REMARK SMILES IDX 53 56 49 57 50 58 52 59 54 60 51 61 5 62 6 63 7 64 8 65 9 67
REMARK SMILES IDX 10 68 11 69 15 70 12 71 14 72 13 73 16 74 17 75 22 76 18 77
REMARK SMILES IDX 21 78 23 79 19 80 20 81
REMARK H PARENT 3 5 71 23 45 34 7 66
REMARK Flexibility Score: inf
ROOT
ATOM      1  C   UNL     1       4.458   0.826  -1.292  1.00  0.00     0.118 C 
ENDROOT
BRANCH   1   2
ATOM      2  N   UNL     1       3.034   0.752  -0.985  1.00  0.00    -0.352 N 
ATOM      3  O   UNL     1       1.134   0.035  -0.013  1.00  0.00    -0.269 OA
ATOM      4  C   UNL     1       2.362   0.075   0.007  1.00  0.00     0.251 C 
ATOM      5  H   UNL     1       2.458   1.274  -1.588  1.00  0.00     0.163 HD
BRANCH   4   6
ATOM      6  C   UNL     1       3.101  -0.627   1.080  1.00  0.00     0.039 A 
ATOM      7  C   UNL     1       4.236  -0.061   1.655  1.00  0.00     0.014 A 
ATOM      8  C   UNL     1       2.639  -1.867   1.538  1.00  0.00     0.014 A 
ATOM      9  C   UNL     1       5.014  -0.808   2.529  1.00  0.00     0.010 A 
ATOM     10  C   UNL     1       3.359  -2.567   2.515  1.00  0.00     0.010 A 
ATOM     11  C   UNL     1       4.576  -2.061   2.990  1.00  0.00    -0.014 A 
BRANCH  11  12
ATOM     12  C   UNL     1       5.394  -2.761   4.016  1.00  0.00     0.031 A 
ATOM     13  C   UNL     1       6.043  -4.088   3.738  1.00  0.00     0.074 A 
ATOM     14  C   UNL     1       5.620  -2.130   5.187  1.00  0.00     0.049 A 
ATOM     15  N   UNL     1       6.868  -4.771   4.494  1.00  0.00    -0.248 NA
ATOM     16  C   UNL     1       5.731  -4.741   2.457  1.00  0.00     0.031 C 
ATOM     17  C   UNL     1       5.031  -0.845   5.575  1.00  0.00     0.029 A 
ATOM     18  N   UNL     1       6.439  -2.448   6.240  1.00  0.00    -0.354 N 
ATOM     19  C   UNL     1       7.162  -5.932   3.790  1.00  0.00     0.074 A 
ATOM     20  C   UNL     1       6.408  -5.878   2.556  1.00  0.00     0.031 C 
ATOM     21  C   UNL     1       5.575  -0.442   6.731  1.00  0.00     0.029 A 
ATOM     22  C   UNL     1       6.493  -1.470   7.205  1.00  0.00     0.049 A 
ATOM     23  H   UNL     1       6.940  -3.294   6.299  1.00  0.00     0.167 HD
ATOM     24  C   UNL     1       7.994  -6.942   4.139  1.00  0.00     0.037 A 
ATOM     25  C   UNL     1       7.201  -1.404   8.347  1.00  0.00     0.037 A 
ATOM     26  C   UNL     1       8.757  -6.983   5.360  1.00  0.00     0.049 A 
ATOM     27  C   UNL     1       8.107  -2.543   8.707  1.00  0.00     0.074 A 
ATOM     28  C   UNL     1       9.634  -7.963   5.795  1.00  0.00     0.029 A 
ATOM     29  N   UNL     1       8.742  -6.000   6.338  1.00  0.00    -0.354 N 
ATOM     30  N   UNL     1       8.377  -3.628   8.024  1.00  0.00    -0.248 NA
ATOM     31  C   UNL     1       8.796  -2.455  10.001  1.00  0.00     0.031 C 
ATOM     32  C   UNL     1      10.122  -7.590   7.051  1.00  0.00     0.029 A 
ATOM     33  C   UNL     1       9.583  -6.358   7.380  1.00  0.00     0.049 A 
ATOM     34  H   UNL     1       8.212  -5.171   6.298  1.00  0.00     0.167 HD
ATOM     35  C   UNL     1       9.267  -4.353   8.803  1.00  0.00     0.074 A 
ATOM     36  C   UNL     1       9.519  -3.566   9.994  1.00  0.00     0.031 C 
ATOM     37  C   UNL     1       9.817  -5.566   8.560  1.00  0.00     0.037 A 
BRANCH  24  38
ATOM     38  C   UNL     1       8.134  -8.099   3.193  1.00  0.00     0.057 A 
ATOM     39  C   UNL     1       7.599  -9.354   3.514  1.00  0.00     0.134 A 
ATOM     40  C   UNL     1       8.883  -7.997   2.015  1.00  0.00     0.134 A 
ATOM     41  F   UNL     1       6.879  -9.521   4.632  1.00  0.00    -0.206 F 
ATOM     42  C   UNL     1       7.821 -10.470   2.705  1.00  0.00     0.040 A 
ATOM     43  C   UNL     1       9.095  -9.102   1.187  1.00  0.00     0.040 A 
ATOM     44  F   UNL     1       9.414  -6.822   1.646  1.00  0.00    -0.206 F 
ATOM     45  C   UNL     1       8.572 -10.346   1.538  1.00  0.00     0.006 A 
ENDBRANCH  24  38
BRANCH  25  46
ATOM     46  C   UNL     1       7.078  -0.214   9.226  1.00  0.00     0.057 A 
ATOM     47  C   UNL     1       5.886   0.070   9.905  1.00  0.00     0.134 A 
ATOM     48  C   UNL     1       8.144   0.676   9.394  1.00  0.00     0.134 A 
ATOM     49  F   UNL     1       4.825  -0.741   9.779  1.00  0.00    -0.206 F 
ATOM     50  C   UNL     1       5.753   1.205  10.705  1.00  0.00     0.040 A 
ATOM     51  C   UNL     1       8.034   1.801  10.214  1.00  0.00     0.040 A 
ATOM     52  F   UNL     1       9.316   0.450   8.782  1.00  0.00    -0.206 F 
ATOM     53  C   UNL     1       6.832   2.071  10.866  1.00  0.00     0.006 A 
ENDBRANCH  25  46
BRANCH  37  54
ATOM     54  C   UNL     1      10.746  -6.113   9.601  1.00  0.00     0.057 A 
ATOM     55  C   UNL     1      12.125  -6.180   9.368  1.00  0.00     0.134 A 
ATOM     56  C   UNL     1      10.269  -6.603  10.823  1.00  0.00     0.134 A 
ATOM     57  F   UNL     1      12.643  -5.734   8.214  1.00  0.00    -0.206 F 
ATOM     58  C   UNL     1      12.997  -6.718  10.315  1.00  0.00     0.040 A 
ATOM     59  C   UNL     1      11.134  -7.120  11.788  1.00  0.00     0.040 A 
ATOM     60  F   UNL     1       8.959  -6.554  11.111  1.00  0.00    -0.206 F 
ATOM     61  C   UNL     1      12.503  -7.184  11.531  1.00  0.00     0.006 A 
ENDBRANCH  37  54
ENDBRANCH  11  12
ENDBRANCH   4   6
ENDBRANCH   1   2
BRANCH   1  62
ATOM     62  C   UNL     1       4.831   0.134  -2.594  1.00  0.00     0.042 C 
BRANCH  62  63
ATOM     63  C   UNL     1       4.271   0.803  -3.839  1.00  0.00     0.118 C 
BRANCH  63  64
ATOM     64  N   UNL     1       4.746   2.171  -4.002  1.00  0.00    -0.352 N 
ATOM     65  C   UNL     1       5.568   2.735  -4.947  1.00  0.00     0.252 C 
ATOM     66  H   UNL     1       4.423   2.799  -3.316  1.00  0.00     0.163 HD
ATOM     67  O   UNL     1       5.911   3.905  -4.815  1.00  0.00    -0.269 OA
BRANCH  65  68
ATOM     68  C   UNL     1       6.019   1.947  -6.118  1.00  0.00     0.050 A 
ATOM     69  C   UNL     1       5.049   1.277  -6.874  1.00  0.00     0.034 A 
ATOM     70  C   UNL     1       7.364   1.939  -6.524  1.00  0.00     0.016 A 
ATOM     71  C   UNL     1       5.460   0.521  -7.952  1.00  0.00     0.112 A 
ATOM     72  C   UNL     1       7.651   1.147  -7.637  1.00  0.00     0.120 A 
ATOM     73  N   UNL     1       6.744   0.422  -8.336  1.00  0.00    -0.264 NA
BRANCH  70  74
ATOM     74  C   UNL     1       8.435   2.728  -5.899  1.00  0.00     0.020 A 
ATOM     75  C   UNL     1       8.919   2.439  -4.613  1.00  0.00     0.015 A 
ATOM     76  C   UNL     1       9.019   3.803  -6.596  1.00  0.00     0.134 A 
ATOM     77  C   UNL     1       9.948   3.206  -4.054  1.00  0.00     0.040 A 
ATOM     78  C   UNL     1      10.040   4.571  -6.047  1.00  0.00     0.079 A 
ATOM     79  F   UNL     1       8.596   4.104  -7.834  1.00  0.00    -0.206 F 
ATOM     80  C   UNL     1      10.496   4.263  -4.776  1.00  0.00     0.126 A 
ATOM     81  F   UNL     1      11.483   4.989  -4.236  1.00  0.00    -0.207 F 
ENDBRANCH  70  74
ENDBRANCH  65  68
ENDBRANCH  63  64
ENDBRANCH  62  63
ENDBRANCH   1  62
TORSDOF 11
