REMARK SMILES COc1ccc([C@H]2CC(c3ccc(S(C)(=O)=O)cc3)=NN2c2ccc(C(=O)NCCCNC(=O)c3ccc(-c4c5nc(c(-c6c(F)cccc6F)c6ccc([nH]6)c(-c6c(F)cccc6F)c6nc(c(-c7c(F)cccc7F)c7ccc4[nH]7)C=C6)C=C5)cc3)cc2)cc1
REMARK SMILES IDX 29 1 28 2 26 3 27 4 25 6 22 7 23 8 90 9 24 10 89 11 21 12
REMARK SMILES IDX 7 13 8 14 9 15 20 16 6 17 3 18 4 19 92 20 5 21 91 22 2 23
REMARK SMILES IDX 1 24 10 25 11 26 19 27 12 28 18 29 13 30 14 31 15 32 16 33
REMARK SMILES IDX 17 34 30 35 31 36 32 37 33 38 34 40 35 41 36 42 88 43 37 44
REMARK SMILES IDX 87 45 38 46 39 47 40 48 81 49 41 50 86 51 80 52 82 53 42 54
REMARK SMILES IDX 85 55 79 56 78 57 43 59 69 60 52 61 68 62 53 63 56 64 67 65
REMARK SMILES IDX 83 66 54 67 55 68 66 70 84 71 57 72 44 73 45 74 50 75 46 76
REMARK SMILES IDX 47 77 49 78 51 79 48 80 70 81 71 82 76 83 72 84 73 85 75 86
REMARK SMILES IDX 77 87 74 88 58 89 59 90 64 91 60 92 61 93 63 94 65 95 62 96
REMARK H PARENT 28 5 32 39 82 58 56 69
REMARK Flexibility Score: inf
ROOT
ATOM      1  C   UNL     1       0.317   0.679  -9.610  1.00  0.00     0.118 C 
ENDROOT
BRANCH   1   2
ATOM      2  N   UNL     1       1.561  -0.068  -9.590  1.00  0.00    -0.352 N 
ATOM      3  C   UNL     1       2.743   0.129  -8.924  1.00  0.00     0.251 C 
ATOM      4  O   UNL     1       3.631  -0.708  -9.087  1.00  0.00    -0.269 OA
ATOM      5  H   UNL     1       1.555  -0.867 -10.165  1.00  0.00     0.163 HD
BRANCH   3   6
ATOM      6  C   UNL     1       2.970   1.258  -7.981  1.00  0.00     0.039 A 
ATOM      7  C   UNL     1       3.430   3.248  -6.029  1.00  0.00     0.060 A 
ATOM      8  C   UNL     1       4.105   2.026  -5.975  1.00  0.00     0.029 A 
ATOM      9  C   UNL     1       2.580   3.490  -7.108  1.00  0.00     0.029 A 
ATOM     10  C   UNL     1       3.866   1.033  -6.928  1.00  0.00     0.016 A 
ATOM     11  C   UNL     1       2.380   2.519  -8.094  1.00  0.00     0.016 A 
BRANCH   7  12
ATOM     12  N   UNL     1       3.590   4.174  -5.014  1.00  0.00    -0.257 N 
ATOM     13  C   UNL     1       2.515   4.601  -4.122  1.00  0.00     0.144 C 
ATOM     14  C   UNL     1       3.200   5.676  -3.269  1.00  0.00     0.091 C 
ATOM     15  C   UNL     1       4.543   5.728  -3.943  1.00  0.00     0.071 C 
ATOM     16  N   UNL     1       4.734   4.888  -4.911  1.00  0.00    -0.176 NA
BRANCH  13  17
ATOM     17  C   UNL     1       1.975   3.439  -3.306  1.00  0.00    -0.023 A 
ATOM     18  C   UNL     1       0.966   1.243  -1.855  1.00  0.00     0.118 A 
ATOM     19  C   UNL     1       0.127   1.987  -2.684  1.00  0.00     0.047 A 
ATOM     20  C   UNL     1       2.317   1.573  -1.771  1.00  0.00     0.047 A 
ATOM     21  C   UNL     1       0.622   3.082  -3.398  1.00  0.00     0.010 A 
ATOM     22  C   UNL     1       2.816   2.663  -2.491  1.00  0.00     0.010 A 
BRANCH  18  23
ATOM     23  O   UNL     1       0.379   0.185  -1.217  1.00  0.00    -0.497 OA
ATOM     24  C   UNL     1       0.919  -0.119   0.065  1.00  0.00     0.278 C 
ENDBRANCH  18  23
ENDBRANCH  13  17
BRANCH  15  25
ATOM     25  C   UNL     1       5.557   6.707  -3.541  1.00  0.00    -0.002 A 
ATOM     26  C   UNL     1       6.106   7.540  -4.521  1.00  0.00     0.011 A 
ATOM     27  C   UNL     1       5.985   6.777  -2.214  1.00  0.00     0.011 A 
ATOM     28  C   UNL     1       7.087   8.465  -4.170  1.00  0.00     0.021 A 
ATOM     29  C   UNL     1       6.987   7.683  -1.865  1.00  0.00     0.021 A 
ATOM     30  C   UNL     1       7.535   8.518  -2.845  1.00  0.00     0.067 A 
BRANCH  30  31
ATOM     31  S   UNL     1       8.812   9.677  -2.414  1.00  0.00     0.175 S 
ATOM     32  C   UNL     1      10.205   9.167  -3.388  1.00  0.00     0.163 C 
ATOM     33  O   UNL     1       8.372  10.976  -2.881  1.00  0.00    -0.224 OA
ATOM     34  O   UNL     1       9.149   9.457  -1.019  1.00  0.00    -0.224 OA
ENDBRANCH  30  31
ENDBRANCH  15  25
ENDBRANCH   7  12
ENDBRANCH   3   6
ENDBRANCH   1   2
BRANCH   1  35
ATOM     35  C   UNL     1       0.252   1.592 -10.833  1.00  0.00     0.042 C 
BRANCH  35  36
ATOM     36  C   UNL     1      -0.009   0.833 -12.129  1.00  0.00     0.118 C 
BRANCH  36  37
ATOM     37  N   UNL     1      -1.388   0.373 -12.221  1.00  0.00    -0.352 N 
ATOM     38  C   UNL     1      -2.329   0.635 -13.186  1.00  0.00     0.251 C 
ATOM     39  H   UNL     1      -1.688  -0.208 -11.486  1.00  0.00     0.163 HD
ATOM     40  O   UNL     1      -3.505   0.344 -12.992  1.00  0.00    -0.269 OA
BRANCH  38  41
ATOM     41  C   UNL     1      -1.928   1.280 -14.454  1.00  0.00     0.039 A 
ATOM     42  C   UNL     1      -2.714   2.316 -14.968  1.00  0.00     0.014 A 
ATOM     43  C   UNL     1      -0.793   0.849 -15.145  1.00  0.00     0.014 A 
ATOM     44  C   UNL     1      -2.326   2.963 -16.145  1.00  0.00     0.010 A 
ATOM     45  C   UNL     1      -0.374   1.534 -16.281  1.00  0.00     0.010 A 
ATOM     46  C   UNL     1      -1.136   2.597 -16.792  1.00  0.00    -0.014 A 
BRANCH  46  47
ATOM     47  C   UNL     1      -0.657   3.294 -18.012  1.00  0.00     0.031 A 
ATOM     48  C   UNL     1      -0.549   2.536 -19.306  1.00  0.00     0.074 A 
ATOM     49  C   UNL     1      -0.219   4.565 -17.930  1.00  0.00     0.049 A 
ATOM     50  N   UNL     1       0.014   2.896 -20.431  1.00  0.00    -0.248 NA
ATOM     51  C   UNL     1      -1.124   1.181 -19.327  1.00  0.00     0.031 C 
ATOM     52  C   UNL     1      -0.249   5.397 -16.726  1.00  0.00     0.029 A 
ATOM     53  N   UNL     1       0.368   5.370 -18.875  1.00  0.00    -0.354 N 
ATOM     54  C   UNL     1      -0.103   1.801 -21.278  1.00  0.00     0.074 A 
ATOM     55  C   UNL     1      -0.770   0.756 -20.532  1.00  0.00     0.031 C 
ATOM     56  C   UNL     1       0.294   6.594 -17.005  1.00  0.00     0.029 A 
ATOM     57  C   UNL     1       0.753   6.597 -18.390  1.00  0.00     0.049 A 
ATOM     58  H   UNL     1       0.500   5.094 -19.811  1.00  0.00     0.167 HD
ATOM     59  C   UNL     1       0.302   1.683 -22.564  1.00  0.00     0.037 A 
ATOM     60  C   UNL     1       1.424   7.599 -18.989  1.00  0.00     0.037 A 
ATOM     61  C   UNL     1       0.919   2.743 -23.316  1.00  0.00     0.049 A 
ATOM     62  C   UNL     1       1.865   7.438 -20.419  1.00  0.00     0.074 A 
ATOM     63  C   UNL     1       1.286   2.750 -24.650  1.00  0.00     0.029 A 
ATOM     64  N   UNL     1       1.258   3.983 -22.799  1.00  0.00    -0.354 N 
ATOM     65  N   UNL     1       1.691   6.421 -21.227  1.00  0.00    -0.248 NA
ATOM     66  C   UNL     1       2.600   8.562 -21.018  1.00  0.00     0.031 C 
ATOM     67  C   UNL     1       1.885   3.981 -24.931  1.00  0.00     0.029 A 
ATOM     68  C   UNL     1       1.851   4.755 -23.783  1.00  0.00     0.049 A 
ATOM     69  H   UNL     1       1.100   4.272 -21.871  1.00  0.00     0.167 HD
ATOM     70  C   UNL     1       2.257   6.798 -22.439  1.00  0.00     0.074 A 
ATOM     71  C   UNL     1       2.780   8.136 -22.261  1.00  0.00     0.031 C 
ATOM     72  C   UNL     1       2.335   6.098 -23.596  1.00  0.00     0.037 A 
BRANCH  59  73
ATOM     73  C   UNL     1       0.097   0.364 -23.247  1.00  0.00     0.057 A 
ATOM     74  C   UNL     1      -1.171  -0.074 -23.647  1.00  0.00     0.134 A 
ATOM     75  C   UNL     1       1.193  -0.448 -23.566  1.00  0.00     0.134 A 
ATOM     76  F   UNL     1      -2.262   0.653 -23.363  1.00  0.00    -0.206 F 
ATOM     77  C   UNL     1      -1.344  -1.281 -24.327  1.00  0.00     0.040 A 
ATOM     78  C   UNL     1       1.036  -1.645 -24.266  1.00  0.00     0.040 A 
ATOM     79  F   UNL     1       2.436  -0.083 -23.216  1.00  0.00    -0.206 F 
ATOM     80  C   UNL     1      -0.237  -2.065 -24.646  1.00  0.00     0.006 A 
ENDBRANCH  59  73
BRANCH  60  81
ATOM     81  C   UNL     1       1.726   8.850 -18.248  1.00  0.00     0.057 A 
ATOM     82  C   UNL     1       1.100  10.055 -18.587  1.00  0.00     0.134 A 
ATOM     83  C   UNL     1       2.666   8.881 -17.211  1.00  0.00     0.134 A 
ATOM     84  F   UNL     1       0.205  10.092 -19.585  1.00  0.00    -0.206 F 
ATOM     85  C   UNL     1       1.416  11.251 -17.941  1.00  0.00     0.040 A 
ATOM     86  C   UNL     1       2.974  10.066 -16.539  1.00  0.00     0.040 A 
ATOM     87  F   UNL     1       3.297   7.760 -16.834  1.00  0.00    -0.206 F 
ATOM     88  C   UNL     1       2.354  11.258 -16.911  1.00  0.00     0.006 A 
ENDBRANCH  60  81
BRANCH  72  89
ATOM     89  C   UNL     1       2.951   6.782 -24.778  1.00  0.00     0.057 A 
ATOM     90  C   UNL     1       4.333   6.968 -24.888  1.00  0.00     0.134 A 
ATOM     91  C   UNL     1       2.151   7.197 -25.851  1.00  0.00     0.134 A 
ATOM     92  F   UNL     1       5.151   6.604 -23.889  1.00  0.00    -0.206 F 
ATOM     93  C   UNL     1       4.900   7.553 -26.022  1.00  0.00     0.040 A 
ATOM     94  C   UNL     1       2.707   7.761 -26.999  1.00  0.00     0.040 A 
ATOM     95  F   UNL     1       0.820   7.038 -25.809  1.00  0.00    -0.206 F 
ATOM     96  C   UNL     1       4.086   7.943 -27.085  1.00  0.00     0.006 A 
ENDBRANCH  72  89
ENDBRANCH  46  47
ENDBRANCH  38  41
ENDBRANCH  36  37
ENDBRANCH  35  36
ENDBRANCH   1  35
TORSDOF 15
