REMARK SMILES CCOc1ccccc1-c1cc(C(=O)NCCCNC(=O)c2ccc(-c3c4nc(c(-c5c(F)cccc5F)c5ccc([nH]5)c(-c5c(F)cccc5F)c5nc(c(-c6c(F)cccc6F)c6ccc3[nH]6)C=C5)C=C4)cc2)c2cc(C)cc(C)c2n1
REMARK SMILES IDX 16 1 15 2 13 3 14 4 12 6 10 7 11 8 84 9 83 10 76 11 81 12
REMARK SMILES IDX 77 13 80 14 82 15 78 16 79 17 9 18 4 19 5 20 6 21 8 22 7 23
REMARK SMILES IDX 3 24 2 25 1 26 17 27 18 28 19 29 20 30 21 32 22 33 23 34
REMARK SMILES IDX 75 35 24 36 74 37 25 38 26 39 27 40 68 41 28 42 73 43 67 44
REMARK SMILES IDX 69 45 29 46 72 47 66 48 65 49 30 51 56 52 39 53 55 54 40 55
REMARK SMILES IDX 43 56 54 57 70 58 41 59 42 60 53 62 71 63 44 64 31 65 32 66
REMARK SMILES IDX 37 67 33 68 34 69 36 70 38 71 35 72 57 73 58 74 63 75 59 76
REMARK SMILES IDX 60 77 62 78 64 79 61 80 45 81 46 82 51 83 47 84 48 85 50 86
REMARK SMILES IDX 52 87 49 88
REMARK H PARENT 15 5 19 31 69 50 43 61
REMARK Flexibility Score: inf
ROOT
ATOM      1  C   UNL     1      -0.999  -1.602  -0.792  1.00  0.00     0.118 C 
ENDROOT
BRANCH   1   2
ATOM      2  N   UNL     1      -1.582  -0.347  -0.347  1.00  0.00    -0.352 N 
ATOM      3  C   UNL     1      -1.276   0.987  -0.391  1.00  0.00     0.252 C 
ATOM      4  O   UNL     1      -2.209   1.705  -0.020  1.00  0.00    -0.269 OA
ATOM      5  H   UNL     1      -2.437  -0.500   0.117  1.00  0.00     0.163 HD
BRANCH   3   6
ATOM      6  C   UNL     1       0.000   1.607  -0.878  1.00  0.00     0.051 A 
ATOM      7  C   UNL     1       2.273   1.572  -1.533  1.00  0.00     0.075 A 
ATOM      8  C   UNL     1       1.142   0.863  -1.178  1.00  0.00     0.043 A 
ATOM      9  N   UNL     1       2.115   2.751  -2.152  1.00  0.00    -0.247 NA
ATOM     10  C   UNL     1       1.257   3.565  -1.550  1.00  0.00     0.075 A 
ATOM     11  C   UNL     1       0.186   3.028  -0.808  1.00  0.00     0.014 A 
ATOM     12  C   UNL     1       1.587   4.920  -1.480  1.00  0.00    -0.024 A 
ATOM     13  C   UNL     1      -0.444   3.895   0.120  1.00  0.00     0.014 A 
ATOM     14  C   UNL     1       0.993   5.724  -0.502  1.00  0.00     0.009 A 
ATOM     15  C   UNL     1       2.751   5.478  -2.258  1.00  0.00     0.047 C 
ATOM     16  C   UNL     1       0.017   5.200   0.340  1.00  0.00    -0.050 A 
ATOM     17  C   UNL     1      -0.391   5.930   1.586  1.00  0.00     0.044 C 
BRANCH   7  18
ATOM     18  C   UNL     1       3.458   1.661  -0.619  1.00  0.00     0.042 A 
ATOM     19  C   UNL     1       3.289   1.928   0.767  1.00  0.00     0.128 A 
ATOM     20  C   UNL     1       4.293   2.564   1.504  1.00  0.00     0.047 A 
ATOM     21  C   UNL     1       5.513   2.859   0.906  1.00  0.00     0.004 A 
ATOM     22  C   UNL     1       4.729   1.899  -1.175  1.00  0.00     0.014 A 
ATOM     23  C   UNL     1       5.746   2.491  -0.417  1.00  0.00     0.001 A 
BRANCH  19  24
ATOM     24  O   UNL     1       2.050   1.775   1.342  1.00  0.00    -0.493 OA
BRANCH  24  25
ATOM     25  C   UNL     1       2.018   0.917   2.484  1.00  0.00     0.226 C 
ATOM     26  C   UNL     1       2.148  -0.541   2.082  1.00  0.00     0.049 C 
ENDBRANCH  24  25
ENDBRANCH  19  24
ENDBRANCH   7  18
ENDBRANCH   3   6
ENDBRANCH   1   2
BRANCH   1  27
ATOM     27  C   UNL     1      -0.875  -2.602   0.360  1.00  0.00     0.042 C 
BRANCH  27  28
ATOM     28  C   UNL     1      -2.208  -3.112   0.909  1.00  0.00     0.118 C 
BRANCH  28  29
ATOM     29  N   UNL     1      -2.952  -3.891  -0.067  1.00  0.00    -0.352 N 
ATOM     30  C   UNL     1      -3.338  -5.208  -0.065  1.00  0.00     0.251 C 
ATOM     31  H   UNL     1      -3.227  -3.387  -0.868  1.00  0.00     0.163 HD
ATOM     32  O   UNL     1      -3.773  -5.702  -1.101  1.00  0.00    -0.269 OA
BRANCH  30  33
ATOM     33  C   UNL     1      -3.239  -6.046   1.153  1.00  0.00     0.039 A 
ATOM     34  C   UNL     1      -2.900  -7.396   1.006  1.00  0.00     0.014 A 
ATOM     35  C   UNL     1      -3.560  -5.551   2.420  1.00  0.00     0.014 A 
ATOM     36  C   UNL     1      -2.843  -8.233   2.124  1.00  0.00     0.010 A 
ATOM     37  C   UNL     1      -3.434  -6.368   3.544  1.00  0.00     0.010 A 
ATOM     38  C   UNL     1      -3.089  -7.721   3.407  1.00  0.00    -0.014 A 
BRANCH  38  39
ATOM     39  C   UNL     1      -3.017  -8.591   4.609  1.00  0.00     0.031 A 
ATOM     40  C   UNL     1      -4.252  -8.858   5.428  1.00  0.00     0.074 A 
ATOM     41  C   UNL     1      -1.832  -9.100   4.998  1.00  0.00     0.049 A 
ATOM     42  N   UNL     1      -4.375  -9.524   6.548  1.00  0.00    -0.248 NA
ATOM     43  C   UNL     1      -5.510  -8.277   4.934  1.00  0.00     0.031 C 
ATOM     44  C   UNL     1      -0.554  -8.887   4.316  1.00  0.00     0.029 A 
ATOM     45  N   UNL     1      -1.508  -9.895   6.070  1.00  0.00    -0.354 N 
ATOM     46  C   UNL     1      -5.714  -9.422   6.905  1.00  0.00     0.074 A 
ATOM     47  C   UNL     1      -6.354  -8.595   5.905  1.00  0.00     0.031 C 
ATOM     48  C   UNL     1       0.411  -9.550   4.974  1.00  0.00     0.029 A 
ATOM     49  C   UNL     1      -0.172 -10.205   6.142  1.00  0.00     0.049 A 
ATOM     50  H   UNL     1      -2.171 -10.212   6.725  1.00  0.00     0.167 HD
ATOM     51  C   UNL     1      -6.357  -9.983   7.957  1.00  0.00     0.037 A 
ATOM     52  C   UNL     1       0.509 -10.931   7.048  1.00  0.00     0.037 A 
ATOM     53  C   UNL     1      -5.729 -10.838   8.930  1.00  0.00     0.049 A 
ATOM     54  C   UNL     1      -0.230 -11.556   8.198  1.00  0.00     0.074 A 
ATOM     55  C   UNL     1      -6.309 -11.503   9.997  1.00  0.00     0.029 A 
ATOM     56  N   UNL     1      -4.379 -11.151   8.950  1.00  0.00    -0.354 N 
ATOM     57  N   UNL     1      -1.506 -11.493   8.492  1.00  0.00    -0.248 NA
ATOM     58  C   UNL     1       0.565 -12.358   9.139  1.00  0.00     0.031 C 
ATOM     59  C   UNL     1      -5.303 -12.192  10.682  1.00  0.00     0.029 A 
ATOM     60  C   UNL     1      -4.104 -11.988  10.019  1.00  0.00     0.049 A 
ATOM     61  H   UNL     1      -3.714 -10.826   8.301  1.00  0.00     0.167 HD
ATOM     62  C   UNL     1      -1.671 -12.267   9.633  1.00  0.00     0.074 A 
ATOM     63  C   UNL     1      -0.367 -12.798   9.973  1.00  0.00     0.031 C 
ATOM     64  C   UNL     1      -2.803 -12.516  10.336  1.00  0.00     0.037 A 
BRANCH  51  65
ATOM     65  C   UNL     1      -7.822  -9.691   8.107  1.00  0.00     0.057 A 
ATOM     66  C   UNL     1      -8.776 -10.238   7.240  1.00  0.00     0.134 A 
ATOM     67  C   UNL     1      -8.287  -8.881   9.150  1.00  0.00     0.134 A 
ATOM     68  F   UNL     1      -8.396 -11.014   6.213  1.00  0.00    -0.206 F 
ATOM     69  C   UNL     1     -10.138  -9.968   7.387  1.00  0.00     0.040 A 
ATOM     70  C   UNL     1      -9.648  -8.623   9.324  1.00  0.00     0.040 A 
ATOM     71  F   UNL     1      -7.428  -8.331  10.022  1.00  0.00    -0.206 F 
ATOM     72  C   UNL     1     -10.577  -9.163   8.436  1.00  0.00     0.006 A 
ENDBRANCH  51  65
BRANCH  52  73
ATOM     73  C   UNL     1       1.970 -11.132   6.890  1.00  0.00     0.057 A 
ATOM     74  C   UNL     1       2.489 -12.376   6.515  1.00  0.00     0.134 A 
ATOM     75  C   UNL     1       2.880 -10.091   7.108  1.00  0.00     0.134 A 
ATOM     76  F   UNL     1       1.667 -13.416   6.311  1.00  0.00    -0.206 F 
ATOM     77  C   UNL     1       3.862 -12.585   6.378  1.00  0.00     0.040 A 
ATOM     78  C   UNL     1       4.255 -10.279   6.953  1.00  0.00     0.040 A 
ATOM     79  F   UNL     1       2.444  -8.873   7.462  1.00  0.00    -0.206 F 
ATOM     80  C   UNL     1       4.749 -11.531   6.593  1.00  0.00     0.006 A 
ENDBRANCH  52  73
BRANCH  64  81
ATOM     81  C   UNL     1      -2.687 -13.429  11.520  1.00  0.00     0.057 A 
ATOM     82  C   UNL     1      -2.097 -13.012  12.719  1.00  0.00     0.134 A 
ATOM     83  C   UNL     1      -3.208 -14.728  11.471  1.00  0.00     0.134 A 
ATOM     84  F   UNL     1      -1.567 -11.784  12.825  1.00  0.00    -0.206 F 
ATOM     85  C   UNL     1      -2.012 -13.862  13.823  1.00  0.00     0.040 A 
ATOM     86  C   UNL     1      -3.150 -15.579  12.575  1.00  0.00     0.040 A 
ATOM     87  F   UNL     1      -3.793 -15.185  10.353  1.00  0.00    -0.206 F 
ATOM     88  C   UNL     1      -2.546 -15.148  13.754  1.00  0.00     0.006 A 
ENDBRANCH  64  81
ENDBRANCH  38  39
ENDBRANCH  30  33
ENDBRANCH  28  29
ENDBRANCH  27  28
ENDBRANCH   1  27
TORSDOF 13
