REMARK SMILES CCOC(=O)c1ccc(-c2cc(F)cc(C(=O)NCCCNC(=O)c3ccc(-c4c5nc(c(-c6c(F)cccc6F)c6ccc([nH]6)c(-c6c(F)cccc6F)c6nc(c(-c7c(F)cccc7F)c7ccc4[nH]7)C=C6)C=C5)cc3)c2)cc1
REMARK SMILES IDX 19 1 18 2 16 3 17 4 15 6 10 7 11 8 79 9 12 10 13 11 14 12
REMARK SMILES IDX 9 13 6 14 7 15 81 16 8 17 80 18 4 19 5 20 3 21 2 22 1 23
REMARK SMILES IDX 20 24 21 25 22 26 23 27 24 29 25 30 26 31 78 32 27 33 77 34
REMARK SMILES IDX 28 35 29 36 30 37 71 38 31 39 76 40 70 41 72 42 32 43 75 44
REMARK SMILES IDX 69 45 68 46 33 48 59 49 42 50 58 51 43 52 46 53 57 54 73 55
REMARK SMILES IDX 44 56 45 57 56 59 74 60 47 61 34 62 35 63 40 64 36 65 37 66
REMARK SMILES IDX 39 67 41 68 38 69 60 70 61 71 66 72 62 73 63 74 65 75 67 76
REMARK SMILES IDX 64 77 48 78 49 79 54 80 50 81 51 82 53 83 55 84 52 85
REMARK H PARENT 18 5 22 28 72 47 46 58
REMARK Flexibility Score: inf
ROOT
ATOM      1  C   UNL     1       4.944  -0.549   9.362  1.00  0.00     0.118 C 
ENDROOT
BRANCH   1   2
ATOM      2  N   UNL     1       5.481   0.366  10.364  1.00  0.00    -0.352 N 
ATOM      3  C   UNL     1       5.716   1.721  10.409  1.00  0.00     0.251 C 
ATOM      4  O   UNL     1       6.211   2.170  11.444  1.00  0.00    -0.269 OA
ATOM      5  H   UNL     1       5.733  -0.091  11.198  1.00  0.00     0.163 HD
BRANCH   3   6
ATOM      6  C   UNL     1       5.468   2.656   9.278  1.00  0.00     0.043 A 
ATOM      7  C   UNL     1       4.510   3.185   7.088  1.00  0.00    -0.015 A 
ATOM      8  C   UNL     1       5.282   4.352   7.052  1.00  0.00     0.048 A 
ATOM      9  C   UNL     1       4.531   2.423   8.271  1.00  0.00     0.022 A 
ATOM     10  C   UNL     1       6.109   4.674   8.123  1.00  0.00     0.124 A 
ATOM     11  F   UNL     1       6.845   5.792   8.068  1.00  0.00    -0.207 F 
ATOM     12  C   UNL     1       6.237   3.823   9.213  1.00  0.00     0.053 A 
BRANCH   7  13
ATOM     13  C   UNL     1       3.860   2.627   5.882  1.00  0.00    -0.018 A 
ATOM     14  C   UNL     1       2.917   1.136   3.674  1.00  0.00     0.060 A 
ATOM     15  C   UNL     1       4.121   1.835   3.583  1.00  0.00     0.016 A 
ATOM     16  C   UNL     1       2.153   1.217   4.843  1.00  0.00     0.016 A 
ATOM     17  C   UNL     1       4.580   2.578   4.672  1.00  0.00     0.009 A 
ATOM     18  C   UNL     1       2.623   1.960   5.934  1.00  0.00     0.009 A 
BRANCH  14  19
ATOM     19  C   UNL     1       2.539   0.252   2.550  1.00  0.00     0.338 C 
ATOM     20  O   UNL     1       3.357  -0.319   1.847  1.00  0.00    -0.246 OA
BRANCH  19  21
ATOM     21  O   UNL     1       1.192   0.214   2.420  1.00  0.00    -0.462 OA
BRANCH  21  22
ATOM     22  C   UNL     1       0.702  -0.616   1.357  1.00  0.00     0.230 C 
ATOM     23  C   UNL     1       0.882   0.051   0.003  1.00  0.00     0.049 C 
ENDBRANCH  21  22
ENDBRANCH  19  21
ENDBRANCH  14  19
ENDBRANCH   7  13
ENDBRANCH   3   6
ENDBRANCH   1   2
BRANCH   1  24
ATOM     24  C   UNL     1       5.912  -1.642   8.931  1.00  0.00     0.042 C 
BRANCH  24  25
ATOM     25  C   UNL     1       6.279  -2.639  10.020  1.00  0.00     0.118 C 
BRANCH  25  26
ATOM     26  N   UNL     1       5.137  -3.407  10.501  1.00  0.00    -0.352 N 
ATOM     27  C   UNL     1       4.688  -4.671  10.201  1.00  0.00     0.251 C 
ATOM     28  H   UNL     1       4.584  -2.932  11.163  1.00  0.00     0.163 HD
ATOM     29  O   UNL     1       3.580  -5.019  10.603  1.00  0.00    -0.269 OA
BRANCH  27  30
ATOM     30  C   UNL     1       5.489  -5.610   9.383  1.00  0.00     0.039 A 
ATOM     31  C   UNL     1       4.828  -6.442   8.471  1.00  0.00     0.014 A 
ATOM     32  C   UNL     1       6.872  -5.720   9.533  1.00  0.00     0.014 A 
ATOM     33  C   UNL     1       5.560  -7.307   7.651  1.00  0.00     0.010 A 
ATOM     34  C   UNL     1       7.608  -6.513   8.655  1.00  0.00     0.010 A 
ATOM     35  C   UNL     1       6.962  -7.310   7.700  1.00  0.00    -0.014 A 
BRANCH  35  36
ATOM     36  C   UNL     1       7.777  -8.110   6.751  1.00  0.00     0.031 A 
ATOM     37  C   UNL     1       8.701  -9.184   7.255  1.00  0.00     0.074 A 
ATOM     38  C   UNL     1       7.762  -7.801   5.440  1.00  0.00     0.049 A 
ATOM     39  N   UNL     1       9.583  -9.893   6.598  1.00  0.00    -0.248 NA
ATOM     40  C   UNL     1       8.647  -9.476   8.696  1.00  0.00     0.031 C 
ATOM     41  C   UNL     1       6.942  -6.755   4.826  1.00  0.00     0.029 A 
ATOM     42  N   UNL     1       8.470  -8.328   4.388  1.00  0.00    -0.354 N 
ATOM     43  C   UNL     1      10.206 -10.694   7.546  1.00  0.00     0.074 A 
ATOM     44  C   UNL     1       9.632 -10.352   8.829  1.00  0.00     0.031 C 
ATOM     45  C   UNL     1       7.173  -6.735   3.504  1.00  0.00     0.029 A 
ATOM     46  C   UNL     1       8.189  -7.731   3.183  1.00  0.00     0.049 A 
ATOM     47  H   UNL     1       9.117  -9.063   4.488  1.00  0.00     0.167 HD
ATOM     48  C   UNL     1      11.158 -11.642   7.362  1.00  0.00     0.037 A 
ATOM     49  C   UNL     1       8.702  -7.951   1.959  1.00  0.00     0.037 A 
ATOM     50  C   UNL     1      11.704 -12.004   6.081  1.00  0.00     0.049 A 
ATOM     51  C   UNL     1       9.770  -8.990   1.782  1.00  0.00     0.074 A 
ATOM     52  C   UNL     1      12.608 -13.009   5.780  1.00  0.00     0.029 A 
ATOM     53  N   UNL     1      11.400 -11.369   4.886  1.00  0.00    -0.354 N 
ATOM     54  N   UNL     1      10.309  -9.780   2.678  1.00  0.00    -0.248 NA
ATOM     55  C   UNL     1      10.309  -9.160   0.425  1.00  0.00     0.031 C 
ATOM     56  C   UNL     1      12.881 -12.956   4.408  1.00  0.00     0.029 A 
ATOM     57  C   UNL     1      12.120 -11.941   3.849  1.00  0.00     0.049 A 
ATOM     58  H   UNL     1      10.767 -10.623   4.788  1.00  0.00     0.167 HD
ATOM     59  C   UNL     1      11.237 -10.553   1.993  1.00  0.00     0.074 A 
ATOM     60  C   UNL     1      11.180 -10.144   0.604  1.00  0.00     0.031 C 
ATOM     61  C   UNL     1      12.061 -11.516   2.474  1.00  0.00     0.037 A 
BRANCH  48  62
ATOM     62  C   UNL     1      11.666 -12.348   8.585  1.00  0.00     0.057 A 
ATOM     63  C   UNL     1      10.875 -13.264   9.292  1.00  0.00     0.134 A 
ATOM     64  C   UNL     1      12.963 -12.115   9.058  1.00  0.00     0.134 A 
ATOM     65  F   UNL     1       9.619 -13.523   8.898  1.00  0.00    -0.206 F 
ATOM     66  C   UNL     1      11.342 -13.893  10.447  1.00  0.00     0.040 A 
ATOM     67  C   UNL     1      13.451 -12.758  10.197  1.00  0.00     0.040 A 
ATOM     68  F   UNL     1      13.776 -11.256   8.425  1.00  0.00    -0.206 F 
ATOM     69  C   UNL     1      12.636 -13.643  10.900  1.00  0.00     0.006 A 
ENDBRANCH  48  62
BRANCH  49  70
ATOM     70  C   UNL     1       8.185  -7.185   0.799  1.00  0.00     0.057 A 
ATOM     71  C   UNL     1       7.349  -7.795  -0.142  1.00  0.00     0.134 A 
ATOM     72  C   UNL     1       8.485  -5.830   0.619  1.00  0.00     0.134 A 
ATOM     73  F   UNL     1       7.043  -9.096  -0.029  1.00  0.00    -0.206 F 
ATOM     74  C   UNL     1       6.829  -7.086  -1.225  1.00  0.00     0.040 A 
ATOM     75  C   UNL     1       7.956  -5.103  -0.449  1.00  0.00     0.040 A 
ATOM     76  F   UNL     1       9.277  -5.189   1.491  1.00  0.00    -0.206 F 
ATOM     77  C   UNL     1       7.127  -5.732  -1.376  1.00  0.00     0.006 A 
ENDBRANCH  49  70
BRANCH  61  78
ATOM     78  C   UNL     1      12.958 -12.200   1.487  1.00  0.00     0.057 A 
ATOM     79  C   UNL     1      14.099 -11.570   0.975  1.00  0.00     0.134 A 
ATOM     80  C   UNL     1      12.699 -13.512   1.073  1.00  0.00     0.134 A 
ATOM     81  F   UNL     1      14.392 -10.308   1.321  1.00  0.00    -0.206 F 
ATOM     82  C   UNL     1      14.945 -12.219   0.073  1.00  0.00     0.040 A 
ATOM     83  C   UNL     1      13.549 -14.178   0.189  1.00  0.00     0.040 A 
ATOM     84  F   UNL     1      11.624 -14.171   1.531  1.00  0.00    -0.206 F 
ATOM     85  C   UNL     1      14.674 -13.529  -0.317  1.00  0.00     0.006 A 
ENDBRANCH  61  78
ENDBRANCH  35  36
ENDBRANCH  27  30
ENDBRANCH  25  26
ENDBRANCH  24  25
ENDBRANCH   1  24
TORSDOF 14
