REMARK SMILES Nc1nnc(S[C@H](F)C(=O)NCCCNC(=O)c2ccc(-c3c4nc(c(-c5c(F)cccc5F)c5ccc([nH]5)c(-c5c(F)cccc5F)c5nc(c(-c6c(F)cccc6F)c6ccc3[nH]6)C=C5)C=C4)cc2)s1
REMARK SMILES IDX 12 1 11 2 9 3 10 4 7 6 8 7 6 8 5 9 2 10 3 11 72 12 4 13 1 14
REMARK SMILES IDX 13 17 14 18 15 19 16 20 17 22 18 23 19 24 71 25 20 26 70 27
REMARK SMILES IDX 21 28 22 29 23 30 64 31 24 32 69 33 63 34 65 35 25 36 68 37
REMARK SMILES IDX 62 38 61 39 26 41 52 42 35 43 51 44 36 45 39 46 50 47 66 48
REMARK SMILES IDX 37 49 38 50 49 52 67 53 40 54 27 55 28 56 33 57 29 58 30 59
REMARK SMILES IDX 32 60 34 61 31 62 53 63 54 64 59 65 55 66 56 67 58 68 60 69
REMARK SMILES IDX 57 70 41 71 42 72 47 73 43 74 44 75 46 76 48 77 45 78
REMARK H PARENT 11 5 1 15 1 16 15 21 65 40 39 51
REMARK Flexibility Score: inf
ROOT
ATOM      1  C   UNL     1       1.822   1.858   0.336  1.00  0.00     0.118 C 
ENDROOT
BRANCH   1   2
ATOM      2  N   UNL     1       2.952   1.947   1.239  1.00  0.00    -0.353 N 
ATOM      3  C   UNL     1       4.233   1.504   1.067  1.00  0.00     0.265 C 
ATOM      4  O   UNL     1       5.005   1.618   2.026  1.00  0.00    -0.271 OA
ATOM      5  H   UNL     1       2.771   2.390   2.099  1.00  0.00     0.163 HD
BRANCH   3   6
ATOM      6  C   UNL     1       4.679   0.833  -0.231  1.00  0.00     0.320 C 
ATOM      7  F   UNL     1       3.965  -0.318  -0.441  1.00  0.00    -0.224 F 
BRANCH   6   8
ATOM      8  S   UNL     1       4.584   1.819  -1.747  1.00  0.00    -0.046 SA
BRANCH   8   9
ATOM      9  C   UNL     1       4.739   3.479  -1.252  1.00  0.00     0.179 A 
ATOM     10  C   UNL     1       4.731   5.848  -1.036  1.00  0.00     0.203 A 
ATOM     11  N   UNL     1       5.043   5.241   0.087  1.00  0.00    -0.120 NA
ATOM     12  S   UNL     1       4.426   4.772  -2.337  1.00  0.00    -0.069 S 
ATOM     13  N   UNL     1       5.078   3.867  -0.047  1.00  0.00    -0.130 NA
BRANCH  10  14
ATOM     14  N   UNL     1       4.644   7.176  -1.187  1.00  0.00    -0.374 N 
ATOM     15  H   UNL     1       4.824   7.771  -0.424  1.00  0.00     0.159 HD
ATOM     16  H   UNL     1       4.400   7.557  -2.062  1.00  0.00     0.159 HD
ENDBRANCH  10  14
ENDBRANCH   8   9
ENDBRANCH   6   8
ENDBRANCH   3   6
ENDBRANCH   1   2
BRANCH   1  17
ATOM     17  C   UNL     1       0.615   1.208   0.994  1.00  0.00     0.042 C 
BRANCH  17  18
ATOM     18  C   UNL     1       0.075   1.958   2.204  1.00  0.00     0.118 C 
BRANCH  18  19
ATOM     19  N   UNL     1      -0.451   3.275   1.876  1.00  0.00    -0.352 N 
ATOM     20  C   UNL     1      -1.689   3.812   2.127  1.00  0.00     0.251 C 
ATOM     21  H   UNL     1       0.175   3.870   1.403  1.00  0.00     0.163 HD
ATOM     22  O   UNL     1      -1.997   4.896   1.632  1.00  0.00    -0.269 OA
BRANCH  20  23
ATOM     23  C   UNL     1      -2.665   3.087   2.969  1.00  0.00     0.039 A 
ATOM     24  C   UNL     1      -4.011   3.078   2.590  1.00  0.00     0.014 A 
ATOM     25  C   UNL     1      -2.267   2.433   4.138  1.00  0.00     0.014 A 
ATOM     26  C   UNL     1      -4.942   2.369   3.352  1.00  0.00     0.010 A 
ATOM     27  C   UNL     1      -3.176   1.649   4.840  1.00  0.00     0.010 A 
ATOM     28  C   UNL     1      -4.528   1.625   4.468  1.00  0.00    -0.014 A 
BRANCH  28  29
ATOM     29  C   UNL     1      -5.498   0.847   5.280  1.00  0.00     0.031 A 
ATOM     30  C   UNL     1      -5.716   1.192   6.729  1.00  0.00     0.074 A 
ATOM     31  C   UNL     1      -6.135  -0.208   4.739  1.00  0.00     0.049 A 
ATOM     32  N   UNL     1      -6.475   0.601   7.617  1.00  0.00    -0.248 NA
ATOM     33  C   UNL     1      -4.950   2.331   7.258  1.00  0.00     0.031 C 
ATOM     34  C   UNL     1      -5.964  -0.687   3.366  1.00  0.00     0.029 A 
ATOM     35  N   UNL     1      -7.046  -1.077   5.284  1.00  0.00    -0.354 N 
ATOM     36  C   UNL     1      -6.262   1.283   8.808  1.00  0.00     0.074 A 
ATOM     37  C   UNL     1      -5.252   2.285   8.546  1.00  0.00     0.031 C 
ATOM     38  C   UNL     1      -6.759  -1.751   3.171  1.00  0.00     0.029 A 
ATOM     39  C   UNL     1      -7.471  -2.048   4.411  1.00  0.00     0.049 A 
ATOM     40  H   UNL     1      -7.365  -1.010   6.213  1.00  0.00     0.167 HD
ATOM     41  C   UNL     1      -6.871   1.113  10.006  1.00  0.00     0.037 A 
ATOM     42  C   UNL     1      -8.335  -3.065   4.589  1.00  0.00     0.037 A 
ATOM     43  C   UNL     1      -7.890   0.129  10.260  1.00  0.00     0.049 A 
ATOM     44  C   UNL     1      -9.018  -3.227   5.918  1.00  0.00     0.074 A 
ATOM     45  C   UNL     1      -8.615  -0.086  11.418  1.00  0.00     0.029 A 
ATOM     46  N   UNL     1      -8.324  -0.812   9.336  1.00  0.00    -0.354 N 
ATOM     47  N   UNL     1      -8.866  -2.525   7.016  1.00  0.00    -0.248 NA
ATOM     48  C   UNL     1     -10.003  -4.311   6.028  1.00  0.00     0.031 C 
ATOM     49  C   UNL     1      -9.454  -1.187  11.211  1.00  0.00     0.029 A 
ATOM     50  C   UNL     1      -9.293  -1.622   9.905  1.00  0.00     0.049 A 
ATOM     51  H   UNL     1      -7.992  -0.892   8.413  1.00  0.00     0.167 HD
ATOM     52  C   UNL     1      -9.754  -3.064   7.938  1.00  0.00     0.074 A 
ATOM     53  C   UNL     1     -10.449  -4.143   7.266  1.00  0.00     0.031 C 
ATOM     54  C   UNL     1      -9.976  -2.695   9.224  1.00  0.00     0.037 A 
BRANCH  41  55
ATOM     55  C   UNL     1      -6.437   2.016  11.127  1.00  0.00     0.057 A 
ATOM     56  C   UNL     1      -6.691   3.395  11.111  1.00  0.00     0.134 A 
ATOM     57  C   UNL     1      -5.741   1.504  12.230  1.00  0.00     0.134 A 
ATOM     58  F   UNL     1      -7.342   3.954  10.079  1.00  0.00    -0.206 F 
ATOM     59  C   UNL     1      -6.228   4.237  12.123  1.00  0.00     0.040 A 
ATOM     60  C   UNL     1      -5.302   2.332  13.265  1.00  0.00     0.040 A 
ATOM     61  F   UNL     1      -5.470   0.194  12.317  1.00  0.00    -0.206 F 
ATOM     62  C   UNL     1      -5.533   3.705  13.206  1.00  0.00     0.006 A 
ENDBRANCH  41  55
BRANCH  42  63
ATOM     63  C   UNL     1      -8.624  -3.983   3.460  1.00  0.00     0.057 A 
ATOM     64  C   UNL     1      -9.850  -3.936   2.786  1.00  0.00     0.134 A 
ATOM     65  C   UNL     1      -7.672  -4.904   3.006  1.00  0.00     0.134 A 
ATOM     66  F   UNL     1     -10.807  -3.086   3.184  1.00  0.00    -0.206 F 
ATOM     67  C   UNL     1     -10.123  -4.778   1.706  1.00  0.00     0.040 A 
ATOM     68  C   UNL     1      -7.923  -5.735   1.914  1.00  0.00     0.040 A 
ATOM     69  F   UNL     1      -6.475  -4.989   3.604  1.00  0.00    -0.206 F 
ATOM     70  C   UNL     1      -9.153  -5.676   1.263  1.00  0.00     0.006 A 
ENDBRANCH  42  63
BRANCH  54  71
ATOM     71  C   UNL     1     -11.039  -3.440   9.979  1.00  0.00     0.057 A 
ATOM     72  C   UNL     1     -10.864  -4.765  10.398  1.00  0.00     0.134 A 
ATOM     73  C   UNL     1     -12.242  -2.809  10.321  1.00  0.00     0.134 A 
ATOM     74  F   UNL     1      -9.740  -5.432  10.093  1.00  0.00    -0.206 F 
ATOM     75  C   UNL     1     -11.857  -5.444  11.106  1.00  0.00     0.040 A 
ATOM     76  C   UNL     1     -13.231  -3.467  11.053  1.00  0.00     0.040 A 
ATOM     77  F   UNL     1     -12.472  -1.537   9.959  1.00  0.00    -0.206 F 
ATOM     78  C   UNL     1     -13.043  -4.792  11.441  1.00  0.00     0.006 A 
ENDBRANCH  54  71
ENDBRANCH  28  29
ENDBRANCH  20  23
ENDBRANCH  18  19
ENDBRANCH  17  18
ENDBRANCH   1  17
TORSDOF 13
