REMARK SMILES CS(=O)(=O)CCSCc1cc(F)cc(/C=C/C(=O)NCCCNC(=O)c2ccc(-c3c4nc(c(-c5c(F)cccc5F)c5ccc([nH]5)c(-c5c(F)cccc5F)c5nc(c(-c6c(F)cccc6F)c6ccc3[nH]6)C=C5)C=C4)cc2)c1
REMARK SMILES IDX 17 1 18 2 19 3 16 5 15 6 14 7 9 8 10 9 80 10 11 11 12 12
REMARK SMILES IDX 13 13 8 14 7 15 6 16 5 17 2 18 1 19 3 20 4 21 20 22 21 23
REMARK SMILES IDX 22 24 23 25 24 26 25 28 26 29 27 30 79 31 28 32 78 33 29 34
REMARK SMILES IDX 30 35 31 36 72 37 32 38 77 39 71 40 73 41 33 42 76 43 70 44
REMARK SMILES IDX 69 45 34 47 60 48 43 49 59 50 44 51 47 52 58 53 74 54 45 55
REMARK SMILES IDX 46 56 57 58 75 59 48 60 35 61 36 62 41 63 37 64 38 65 40 66
REMARK SMILES IDX 42 67 39 68 61 69 62 70 67 71 63 72 64 73 66 74 68 75 65 76
REMARK SMILES IDX 49 77 50 78 55 79 51 80 52 81 54 82 56 83 53 84
REMARK H PARENT 19 4 23 27 73 46 47 57
REMARK Flexibility Score: inf
ROOT
ATOM      1  C   UNL     1      -5.901   2.292  -0.580  1.00  0.00     0.244 C 
ATOM      2  O   UNL     1      -7.125   2.322  -0.717  1.00  0.00    -0.270 OA
ATOM      3  N   UNL     1      -5.245   3.466  -0.409  1.00  0.00    -0.352 N 
ATOM      4  H   UNL     1      -5.831   4.256  -0.445  1.00  0.00     0.163 HD
ENDROOT
BRANCH   1   5
ATOM      5  C   UNL     1      -5.231   0.973  -0.516  1.00  0.00     0.072 C 
ATOM      6  C   UNL     1      -4.007   0.649  -0.959  1.00  0.00     0.014 C 
BRANCH   6   7
ATOM      7  C   UNL     1      -3.395  -0.689  -0.850  1.00  0.00    -0.022 A 
ATOM      8  C   UNL     1      -1.318  -2.013  -0.812  1.00  0.00    -0.035 A 
ATOM      9  C   UNL     1      -2.076  -3.180  -0.693  1.00  0.00     0.043 A 
ATOM     10  C   UNL     1      -1.995  -0.781  -0.914  1.00  0.00     0.013 A 
ATOM     11  C   UNL     1      -3.464  -3.096  -0.640  1.00  0.00     0.124 A 
ATOM     12  F   UNL     1      -4.182  -4.221  -0.518  1.00  0.00    -0.207 F 
ATOM     13  C   UNL     1      -4.126  -1.872  -0.717  1.00  0.00     0.047 A 
BRANCH   8  14
ATOM     14  C   UNL     1       0.184  -2.036  -0.909  1.00  0.00     0.105 C 
BRANCH  14  15
ATOM     15  S   UNL     1       1.079  -2.976   0.367  1.00  0.00    -0.156 SA
BRANCH  15  16
ATOM     16  C   UNL     1       0.440  -2.255   1.923  1.00  0.00     0.086 C 
BRANCH  16  17
ATOM     17  C   UNL     1       1.299  -1.153   2.523  1.00  0.00     0.147 C 
BRANCH  17  18
ATOM     18  S   UNL     1       0.908   0.495   1.969  1.00  0.00     0.148 S 
ATOM     19  C   UNL     1       2.012   0.793   0.606  1.00  0.00     0.158 C 
ATOM     20  O   UNL     1       1.291   1.413   3.028  1.00  0.00    -0.229 OA
ATOM     21  O   UNL     1      -0.445   0.512   1.456  1.00  0.00    -0.229 OA
ENDBRANCH  17  18
ENDBRANCH  16  17
ENDBRANCH  15  16
ENDBRANCH  14  15
ENDBRANCH   8  14
ENDBRANCH   6   7
ENDBRANCH   1   5
BRANCH   3  22
ATOM     22  C   UNL     1      -3.847   3.787  -0.184  1.00  0.00     0.118 C 
BRANCH  22  23
ATOM     23  C   UNL     1      -3.218   4.386  -1.441  1.00  0.00     0.042 C 
BRANCH  23  24
ATOM     24  C   UNL     1      -3.716   5.797  -1.753  1.00  0.00     0.118 C 
BRANCH  24  25
ATOM     25  N   UNL     1      -3.282   6.770  -0.756  1.00  0.00    -0.352 N 
ATOM     26  C   UNL     1      -2.504   7.892  -0.900  1.00  0.00     0.251 C 
ATOM     27  H   UNL     1      -3.596   6.596   0.160  1.00  0.00     0.163 HD
ATOM     28  O   UNL     1      -2.064   8.466   0.091  1.00  0.00    -0.269 OA
BRANCH  26  29
ATOM     29  C   UNL     1      -2.184   8.404  -2.247  1.00  0.00     0.039 A 
ATOM     30  C   UNL     1      -0.878   8.813  -2.529  1.00  0.00     0.014 A 
ATOM     31  C   UNL     1      -3.176   8.493  -3.227  1.00  0.00     0.014 A 
ATOM     32  C   UNL     1      -0.549   9.238  -3.817  1.00  0.00     0.010 A 
ATOM     33  C   UNL     1      -2.831   8.843  -4.527  1.00  0.00     0.010 A 
ATOM     34  C   UNL     1      -1.514   9.214  -4.837  1.00  0.00    -0.014 A 
BRANCH  34  35
ATOM     35  C   UNL     1      -1.174   9.556  -6.242  1.00  0.00     0.031 A 
ATOM     36  C   UNL     1      -1.839  10.724  -6.913  1.00  0.00     0.074 A 
ATOM     37  C   UNL     1      -0.338   8.760  -6.937  1.00  0.00     0.049 A 
ATOM     38  N   UNL     1      -1.780  11.100  -8.164  1.00  0.00    -0.248 NA
ATOM     39  C   UNL     1      -2.708  11.565  -6.073  1.00  0.00     0.031 C 
ATOM     40  C   UNL     1       0.346   7.581  -6.402  1.00  0.00     0.029 A 
ATOM     41  N   UNL     1       0.067   8.811  -8.247  1.00  0.00    -0.354 N 
ATOM     42  C   UNL     1      -2.610  12.209  -8.264  1.00  0.00     0.074 A 
ATOM     43  C   UNL     1      -3.204  12.414  -6.962  1.00  0.00     0.031 C 
ATOM     44  C   UNL     1       1.100   7.034  -7.368  1.00  0.00     0.029 A 
ATOM     45  C   UNL     1       0.914   7.790  -8.604  1.00  0.00     0.049 A 
ATOM     46  H   UNL     1      -0.223   9.514  -8.873  1.00  0.00     0.167 HD
ATOM     47  C   UNL     1      -2.836  12.997  -9.341  1.00  0.00     0.037 A 
ATOM     48  C   UNL     1       1.465   7.483  -9.794  1.00  0.00     0.037 A 
ATOM     49  C   UNL     1      -2.223  12.799 -10.627  1.00  0.00     0.049 A 
ATOM     50  C   UNL     1       1.167   8.351 -10.985  1.00  0.00     0.074 A 
ATOM     51  C   UNL     1      -2.349  13.574 -11.765  1.00  0.00     0.029 A 
ATOM     52  N   UNL     1      -1.370  11.752 -10.945  1.00  0.00    -0.354 N 
ATOM     53  N   UNL     1       0.419   9.425 -11.054  1.00  0.00    -0.248 NA
ATOM     54  C   UNL     1       1.785   7.968 -12.263  1.00  0.00     0.031 C 
ATOM     55  C   UNL     1      -1.619  12.966 -12.789  1.00  0.00     0.029 A 
ATOM     56  C   UNL     1      -0.986  11.847 -12.272  1.00  0.00     0.049 A 
ATOM     57  H   UNL     1      -1.082  11.047 -10.321  1.00  0.00     0.167 HD
ATOM     58  C   UNL     1       0.498   9.862 -12.370  1.00  0.00     0.074 A 
ATOM     59  C   UNL     1       1.373   8.941 -13.065  1.00  0.00     0.031 C 
ATOM     60  C   UNL     1      -0.102  10.931 -12.948  1.00  0.00     0.037 A 
BRANCH  47  61
ATOM     61  C   UNL     1      -3.777  14.156  -9.180  1.00  0.00     0.057 A 
ATOM     62  C   UNL     1      -5.001  14.184  -9.860  1.00  0.00     0.134 A 
ATOM     63  C   UNL     1      -3.437  15.280  -8.416  1.00  0.00     0.134 A 
ATOM     64  F   UNL     1      -5.386  13.145 -10.616  1.00  0.00    -0.206 F 
ATOM     65  C   UNL     1      -5.845  15.295  -9.799  1.00  0.00     0.040 A 
ATOM     66  C   UNL     1      -4.285  16.384  -8.323  1.00  0.00     0.040 A 
ATOM     67  F   UNL     1      -2.283  15.313  -7.732  1.00  0.00    -0.206 F 
ATOM     68  C   UNL     1      -5.488  16.398  -9.027  1.00  0.00     0.006 A 
ENDBRANCH  47  61
BRANCH  48  69
ATOM     69  C   UNL     1       2.372   6.312  -9.905  1.00  0.00     0.057 A 
ATOM     70  C   UNL     1       1.900   5.000  -9.771  1.00  0.00     0.134 A 
ATOM     71  C   UNL     1       3.744   6.483 -10.116  1.00  0.00     0.134 A 
ATOM     72  F   UNL     1       0.597   4.766  -9.558  1.00  0.00    -0.206 F 
ATOM     73  C   UNL     1       2.763   3.903  -9.822  1.00  0.00     0.040 A 
ATOM     74  C   UNL     1       4.615   5.394 -10.196  1.00  0.00     0.040 A 
ATOM     75  F   UNL     1       4.255   7.714 -10.269  1.00  0.00    -0.206 F 
ATOM     76  C   UNL     1       4.125   4.099 -10.039  1.00  0.00     0.006 A 
ENDBRANCH  48  69
BRANCH  60  77
ATOM     77  C   UNL     1       0.180  11.200 -14.397  1.00  0.00     0.057 A 
ATOM     78  C   UNL     1       0.920  12.327 -14.779  1.00  0.00     0.134 A 
ATOM     79  C   UNL     1      -0.380  10.418 -15.413  1.00  0.00     0.134 A 
ATOM     80  F   UNL     1       1.473  13.125 -13.852  1.00  0.00    -0.206 F 
ATOM     81  C   UNL     1       1.067  12.683 -16.119  1.00  0.00     0.040 A 
ATOM     82  C   UNL     1      -0.215  10.748 -16.760  1.00  0.00     0.040 A 
ATOM     83  F   UNL     1      -1.091   9.320 -15.114  1.00  0.00    -0.206 F 
ATOM     84  C   UNL     1       0.497  11.893 -17.114  1.00  0.00     0.006 A 
ENDBRANCH  60  77
ENDBRANCH  34  35
ENDBRANCH  26  29
ENDBRANCH  24  25
ENDBRANCH  23  24
ENDBRANCH  22  23
ENDBRANCH   3  22
TORSDOF 16
