REMARK SMILES CCCCCCNC(=O)Oc1cccc(-c2ccc([C@@H](C)C(=O)NCCCNC(=O)c3ccc(-c4c5nc(c(-c6c(F)cccc6F)c6ccc([nH]6)c(-c6c(F)cccc6F)c6nc(c(-c7c(F)cccc7F)c7ccc4[nH]7)C=C6)C=C5)cc3)cc2Cl)c1
REMARK SMILES IDX 16 1 17 2 18 3 19 4 85 5 86 6 87 7 15 8 11 9 12 10 88 11
REMARK SMILES IDX 13 12 14 13 10 14 8 15 7 16 9 18 6 19 5 20 4 21 3 22 2 23
REMARK SMILES IDX 1 24 20 25 21 26 22 27 23 28 24 29 25 31 26 32 27 33 28 34
REMARK SMILES IDX 29 35 30 37 31 38 32 39 84 40 33 41 83 42 34 43 35 44 36 45
REMARK SMILES IDX 77 46 37 47 82 48 76 49 78 50 38 51 81 52 75 53 74 54 39 56
REMARK SMILES IDX 65 57 48 58 64 59 49 60 52 61 63 62 79 63 50 64 51 65 62 67
REMARK SMILES IDX 80 68 53 69 40 70 41 71 46 72 42 73 43 74 45 75 47 76 44 77
REMARK SMILES IDX 66 78 67 79 72 80 68 81 69 82 71 83 73 84 70 85 54 86 55 87
REMARK SMILES IDX 60 88 56 89 57 90 59 91 61 92 58 93
REMARK H PARENT 7 17 24 30 28 36 78 55 52 66
REMARK Flexibility Score: inf
ROOT
ATOM      1  C   UNL     1      -5.216  -0.455  -9.741  1.00  0.00     0.000 A 
ATOM      2  C   UNL     1      -5.629  -0.025 -11.017  1.00  0.00     0.010 A 
ATOM      3  C   UNL     1      -5.495  -0.830 -12.154  1.00  0.00     0.005 A 
ATOM      4  C   UNL     1      -4.859  -2.068 -12.085  1.00  0.00    -0.034 A 
ATOM      5  C   UNL     1      -4.492  -2.535 -10.814  1.00  0.00     0.025 A 
ATOM      6  C   UNL     1      -4.699  -1.763  -9.658  1.00  0.00     0.049 A 
ATOM      7  Cl  UNL     1      -4.335  -2.538  -8.150  1.00  0.00    -0.084 Cl
ENDROOT
BRANCH   1   8
ATOM      8  C   UNL     1      -5.318   0.491  -8.601  1.00  0.00    -0.013 A 
ATOM      9  C   UNL     1      -4.368   1.574  -6.637  1.00  0.00     0.133 A 
ATOM     10  C   UNL     1      -5.503   2.362  -6.479  1.00  0.00     0.047 A 
ATOM     11  C   UNL     1      -4.264   0.659  -7.686  1.00  0.00     0.056 A 
ATOM     12  C   UNL     1      -6.547   2.235  -7.388  1.00  0.00     0.004 A 
ATOM     13  C   UNL     1      -6.459   1.301  -8.427  1.00  0.00     0.009 A 
BRANCH   9  14
ATOM     14  O   UNL     1      -3.406   1.639  -5.614  1.00  0.00    -0.410 OA
BRANCH  14  15
ATOM     15  C   UNL     1      -2.063   1.739  -5.944  1.00  0.00     0.412 C 
ATOM     16  N   UNL     1      -1.238   1.629  -4.858  1.00  0.00    -0.321 N 
ATOM     17  H   UNL     1      -0.273   1.728  -5.025  1.00  0.00     0.167 HD
ATOM     18  O   UNL     1      -1.609   1.917  -7.068  1.00  0.00    -0.224 OA
BRANCH  16  19
ATOM     19  C   UNL     1      -1.639   1.381  -3.486  1.00  0.00     0.119 C 
BRANCH  19  20
ATOM     20  C   UNL     1      -1.040   0.085  -2.940  1.00  0.00     0.021 C 
BRANCH  20  21
ATOM     21  C   UNL     1       0.490   0.078  -2.828  1.00  0.00     0.002 C 
BRANCH  21  22
ATOM     22  C   UNL     1       1.093   1.182  -1.953  1.00  0.00    -0.000 C 
BRANCH  22  23
ATOM     23  C   UNL     1       0.607   1.212  -0.502  1.00  0.00    -0.003 C 
ATOM     24  C   UNL     1       0.968  -0.041   0.280  1.00  0.00     0.004 C 
ENDBRANCH  22  23
ENDBRANCH  21  22
ENDBRANCH  20  21
ENDBRANCH  19  20
ENDBRANCH  16  19
ENDBRANCH  14  15
ENDBRANCH   9  14
ENDBRANCH   1   8
BRANCH   4  25
ATOM     25  C   UNL     1      -4.518  -2.893 -13.315  1.00  0.00     0.105 C 
ATOM     26  C   UNL     1      -5.651  -3.083 -14.322  1.00  0.00     0.023 C 
BRANCH  25  27
ATOM     27  C   UNL     1      -3.160  -2.525 -13.936  1.00  0.00     0.227 C 
ATOM     28  O   UNL     1      -2.174  -3.243 -13.728  1.00  0.00    -0.274 OA
ATOM     29  N   UNL     1      -2.949  -1.434 -14.721  1.00  0.00    -0.356 N 
ATOM     30  H   UNL     1      -2.037  -1.375 -15.087  1.00  0.00     0.163 HD
BRANCH  29  31
ATOM     31  C   UNL     1      -3.814  -0.342 -15.119  1.00  0.00     0.117 C 
BRANCH  31  32
ATOM     32  C   UNL     1      -3.617   0.899 -14.253  1.00  0.00     0.042 C 
BRANCH  32  33
ATOM     33  C   UNL     1      -2.437   1.766 -14.665  1.00  0.00     0.118 C 
BRANCH  33  34
ATOM     34  N   UNL     1      -2.663   2.428 -15.940  1.00  0.00    -0.352 N 
ATOM     35  C   UNL     1      -2.708   3.758 -16.270  1.00  0.00     0.251 C 
ATOM     36  H   UNL     1      -2.810   1.815 -16.697  1.00  0.00     0.163 HD
ATOM     37  O   UNL     1      -3.133   4.073 -17.380  1.00  0.00    -0.269 OA
BRANCH  35  38
ATOM     38  C   UNL     1      -2.255   4.818 -15.336  1.00  0.00     0.039 A 
ATOM     39  C   UNL     1      -2.858   6.079 -15.425  1.00  0.00     0.014 A 
ATOM     40  C   UNL     1      -1.190   4.631 -14.452  1.00  0.00     0.014 A 
ATOM     41  C   UNL     1      -2.400   7.137 -14.636  1.00  0.00     0.010 A 
ATOM     42  C   UNL     1      -0.794   5.660 -13.598  1.00  0.00     0.010 A 
ATOM     43  C   UNL     1      -1.364   6.934 -13.711  1.00  0.00    -0.014 A 
BRANCH  43  44
ATOM     44  C   UNL     1      -0.809   8.067 -12.926  1.00  0.00     0.031 A 
ATOM     45  C   UNL     1       0.616   8.507 -13.149  1.00  0.00     0.074 A 
ATOM     46  C   UNL     1      -1.569   8.686 -12.004  1.00  0.00     0.049 A 
ATOM     47  N   UNL     1       1.294   9.456 -12.554  1.00  0.00    -0.248 NA
ATOM     48  C   UNL     1       1.391   7.762 -14.155  1.00  0.00     0.031 C 
ATOM     49  C   UNL     1      -2.946   8.328 -11.662  1.00  0.00     0.029 A 
ATOM     50  N   UNL     1      -1.289   9.750 -11.184  1.00  0.00    -0.354 N 
ATOM     51  C   UNL     1       2.572   9.405 -13.097  1.00  0.00     0.074 A 
ATOM     52  C   UNL     1       2.595   8.298 -14.026  1.00  0.00     0.031 C 
ATOM     53  C   UNL     1      -3.400   9.175 -10.725  1.00  0.00     0.029 A 
ATOM     54  C   UNL     1      -2.340  10.118 -10.381  1.00  0.00     0.049 A 
ATOM     55  H   UNL     1      -0.416  10.207 -11.173  1.00  0.00     0.167 HD
ATOM     56  C   UNL     1       3.627  10.224 -12.867  1.00  0.00     0.037 A 
ATOM     57  C   UNL     1      -2.437  11.109  -9.475  1.00  0.00     0.037 A 
ATOM     58  C   UNL     1       3.593  11.349 -11.971  1.00  0.00     0.049 A 
ATOM     59  C   UNL     1      -1.264  12.024  -9.259  1.00  0.00     0.074 A 
ATOM     60  C   UNL     1       4.590  12.269 -11.700  1.00  0.00     0.029 A 
ATOM     61  N   UNL     1       2.495  11.710 -11.204  1.00  0.00    -0.354 N 
ATOM     62  N   UNL     1      -0.080  12.000  -9.822  1.00  0.00    -0.248 NA
ATOM     63  C   UNL     1      -1.447  13.116  -8.293  1.00  0.00     0.031 C 
ATOM     64  C   UNL     1       4.106  13.171 -10.746  1.00  0.00     0.029 A 
ATOM     65  C   UNL     1       2.792  12.838 -10.457  1.00  0.00     0.049 A 
ATOM     66  H   UNL     1       1.633  11.236 -11.193  1.00  0.00     0.167 HD
ATOM     67  C   UNL     1       0.609  13.091  -9.308  1.00  0.00     0.074 A 
ATOM     68  C   UNL     1      -0.294  13.761  -8.395  1.00  0.00     0.031 C 
ATOM     69  C   UNL     1       1.874  13.502  -9.569  1.00  0.00     0.037 A 
BRANCH  56  70
ATOM     70  C   UNL     1       4.902   9.932 -13.605  1.00  0.00     0.057 A 
ATOM     71  C   UNL     1       5.018  10.135 -14.987  1.00  0.00     0.134 A 
ATOM     72  C   UNL     1       6.032   9.461 -12.926  1.00  0.00     0.134 A 
ATOM     73  F   UNL     1       3.969  10.572 -15.701  1.00  0.00    -0.206 F 
ATOM     74  C   UNL     1       6.201   9.851 -15.671  1.00  0.00     0.040 A 
ATOM     75  C   UNL     1       7.230   9.200 -13.595  1.00  0.00     0.040 A 
ATOM     76  F   UNL     1       5.994   9.251 -11.602  1.00  0.00    -0.206 F 
ATOM     77  C   UNL     1       7.314   9.387 -14.973  1.00  0.00     0.006 A 
ENDBRANCH  56  70
BRANCH  57  78
ATOM     78  C   UNL     1      -3.709  11.319  -8.738  1.00  0.00     0.057 A 
ATOM     79  C   UNL     1      -4.521  12.427  -9.005  1.00  0.00     0.134 A 
ATOM     80  C   UNL     1      -4.138  10.428  -7.749  1.00  0.00     0.134 A 
ATOM     81  F   UNL     1      -4.154  13.326  -9.930  1.00  0.00    -0.206 F 
ATOM     82  C   UNL     1      -5.704  12.654  -8.300  1.00  0.00     0.040 A 
ATOM     83  C   UNL     1      -5.331  10.629  -7.053  1.00  0.00     0.040 A 
ATOM     84  F   UNL     1      -3.409   9.342  -7.452  1.00  0.00    -0.206 F 
ATOM     85  C   UNL     1      -6.114  11.750  -7.322  1.00  0.00     0.006 A 
ENDBRANCH  57  78
BRANCH  69  86
ATOM     86  C   UNL     1       2.334  14.764  -8.901  1.00  0.00     0.057 A 
ATOM     87  C   UNL     1       2.625  14.817  -7.533  1.00  0.00     0.134 A 
ATOM     88  C   UNL     1       2.515  15.935  -9.649  1.00  0.00     0.134 A 
ATOM     89  F   UNL     1       2.461  13.733  -6.760  1.00  0.00    -0.206 F 
ATOM     90  C   UNL     1       3.052  15.999  -6.925  1.00  0.00     0.040 A 
ATOM     91  C   UNL     1       2.966  17.115  -9.058  1.00  0.00     0.040 A 
ATOM     92  F   UNL     1       2.264  15.948 -10.967  1.00  0.00    -0.206 F 
ATOM     93  C   UNL     1       3.228  17.151  -7.690  1.00  0.00     0.006 A 
ENDBRANCH  69  86
ENDBRANCH  43  44
ENDBRANCH  35  38
ENDBRANCH  33  34
ENDBRANCH  32  33
ENDBRANCH  31  32
ENDBRANCH  29  31
ENDBRANCH  25  27
ENDBRANCH   4  25
TORSDOF 19
