REMARK SMILES CCC1(CC)CCN(C(=O)N[C@H](CO)C(=O)NCCCNC(=O)c2ccc(-c3c4nc(c(-c5c(F)cccc5F)c5ccc([nH]5)c(-c5c(F)cccc5F)c5nc(c(-c6c(F)cccc6F)c6ccc3[nH]6)C=C5)C=C4)cc2)C1
REMARK SMILES IDX 18 1 17 2 15 3 16 4 12 6 11 7 9 8 10 9 8 11 3 12 6 13 78 14
REMARK SMILES IDX 7 15 2 16 1 17 4 18 5 19 13 20 14 21 19 23 20 24 21 25 22 26
REMARK SMILES IDX 23 28 24 29 25 30 77 31 26 32 76 33 27 34 28 35 29 36 70 37
REMARK SMILES IDX 30 38 75 39 69 40 71 41 31 42 74 43 68 44 67 45 32 47 58 48
REMARK SMILES IDX 41 49 57 50 42 51 45 52 56 53 72 54 43 55 44 56 55 58 73 59
REMARK SMILES IDX 46 60 33 61 34 62 39 63 35 64 36 65 38 66 40 67 37 68 59 69
REMARK SMILES IDX 60 70 65 71 61 72 62 73 64 74 66 75 63 76 47 77 48 78 53 79
REMARK SMILES IDX 49 80 50 81 52 82 54 83 51 84
REMARK H PARENT 17 5 11 10 14 22 21 27 71 46 45 57
REMARK Flexibility Score: inf
ROOT
ATOM      1  C   UNL     1       0.905   7.381  -2.687  1.00  0.00     0.117 C 
ENDROOT
BRANCH   1   2
ATOM      2  N   UNL     1       0.359   6.066  -2.373  1.00  0.00    -0.354 N 
ATOM      3  C   UNL     1       0.522   5.219  -1.325  1.00  0.00     0.245 C 
ATOM      4  O   UNL     1       0.216   4.036  -1.557  1.00  0.00    -0.273 OA
ATOM      5  H   UNL     1      -0.254   5.723  -3.062  1.00  0.00     0.163 HD
BRANCH   3   6
ATOM      6  C   UNL     1       0.984   5.587   0.113  1.00  0.00     0.198 C 
BRANCH   6   7
ATOM      7  N   UNL     1       1.236   6.951   0.599  1.00  0.00    -0.324 N 
ATOM      8  C   UNL     1       2.264   7.799   0.736  1.00  0.00     0.318 C 
ATOM      9  O   UNL     1       2.019   8.813   1.408  1.00  0.00    -0.249 OA
ATOM     10  H   UNL     1       0.401   7.365   0.918  1.00  0.00     0.166 HD
BRANCH   8  11
ATOM     11  N   UNL     1       3.471   7.601   0.172  1.00  0.00    -0.324 N 
ATOM     12  C   UNL     1       5.239   8.579  -1.055  1.00  0.00    -0.011 C 
ATOM     13  C   UNL     1       5.080   7.087  -1.470  1.00  0.00     0.030 C 
ATOM     14  C   UNL     1       4.549   8.578   0.318  1.00  0.00     0.128 C 
ATOM     15  C   UNL     1       3.915   6.524  -0.673  1.00  0.00     0.122 C 
BRANCH  12  16
ATOM     16  C   UNL     1       4.606   9.600  -2.061  1.00  0.00     0.005 C 
ATOM     17  C   UNL     1       3.259  10.242  -1.744  1.00  0.00     0.004 C 
ENDBRANCH  12  16
BRANCH  12  18
ATOM     18  C   UNL     1       6.754   8.892  -0.970  1.00  0.00     0.005 C 
ATOM     19  C   UNL     1       7.502   8.569  -2.265  1.00  0.00     0.004 C 
ENDBRANCH  12  18
ENDBRANCH   8  11
ENDBRANCH   6   7
BRANCH   6  20
ATOM     20  C   UNL     1       1.912   4.498   0.720  1.00  0.00     0.191 C 
BRANCH  20  21
ATOM     21  O   UNL     1       2.664   3.768  -0.251  1.00  0.00    -0.394 OA
ATOM     22  H   UNL     1       2.057   3.292  -0.839  1.00  0.00     0.210 HD
ENDBRANCH  20  21
ENDBRANCH   6  20
ENDBRANCH   3   6
ENDBRANCH   1   2
BRANCH   1  23
ATOM     23  C   UNL     1       2.171   7.245  -3.547  1.00  0.00     0.042 C 
BRANCH  23  24
ATOM     24  C   UNL     1       2.184   7.889  -4.935  1.00  0.00     0.118 C 
BRANCH  24  25
ATOM     25  N   UNL     1       2.308   9.342  -4.952  1.00  0.00    -0.352 N 
ATOM     26  C   UNL     1       3.299  10.236  -5.291  1.00  0.00     0.251 C 
ATOM     27  H   UNL     1       1.486   9.791  -4.647  1.00  0.00     0.163 HD
ATOM     28  O   UNL     1       3.013  11.436  -5.201  1.00  0.00    -0.269 OA
BRANCH  26  29
ATOM     29  C   UNL     1       4.691   9.890  -5.712  1.00  0.00     0.039 A 
ATOM     30  C   UNL     1       5.711  10.826  -5.435  1.00  0.00     0.014 A 
ATOM     31  C   UNL     1       5.036   8.754  -6.439  1.00  0.00     0.014 A 
ATOM     32  C   UNL     1       7.036  10.629  -5.866  1.00  0.00     0.010 A 
ATOM     33  C   UNL     1       6.370   8.522  -6.812  1.00  0.00     0.010 A 
ATOM     34  C   UNL     1       7.381   9.468  -6.564  1.00  0.00    -0.014 A 
BRANCH  34  35
ATOM     35  C   UNL     1       8.731   9.254  -7.170  1.00  0.00     0.031 A 
ATOM     36  C   UNL     1       8.849   9.177  -8.672  1.00  0.00     0.074 A 
ATOM     37  C   UNL     1       9.830   9.043  -6.419  1.00  0.00     0.049 A 
ATOM     38  N   UNL     1       9.852   8.781  -9.413  1.00  0.00    -0.248 NA
ATOM     39  C   UNL     1       7.659   9.580  -9.438  1.00  0.00     0.031 C 
ATOM     40  C   UNL     1       9.885   9.126  -4.965  1.00  0.00     0.029 A 
ATOM     41  N   UNL     1      11.108   8.676  -6.775  1.00  0.00    -0.354 N 
ATOM     42  C   UNL     1       9.403   8.854 -10.726  1.00  0.00     0.074 A 
ATOM     43  C   UNL     1       8.023   9.288 -10.677  1.00  0.00     0.031 C 
ATOM     44  C   UNL     1      11.112   8.775  -4.543  1.00  0.00     0.029 A 
ATOM     45  C   UNL     1      11.930   8.425  -5.700  1.00  0.00     0.049 A 
ATOM     46  H   UNL     1      11.406   8.601  -7.711  1.00  0.00     0.167 HD
ATOM     47  C   UNL     1      10.081   8.604 -11.872  1.00  0.00     0.037 A 
ATOM     48  C   UNL     1      13.190   7.947  -5.650  1.00  0.00     0.037 A 
ATOM     49  C   UNL     1      11.465   8.213 -11.925  1.00  0.00     0.049 A 
ATOM     50  C   UNL     1      13.914   7.636  -6.932  1.00  0.00     0.074 A 
ATOM     51  C   UNL     1      12.255   7.988 -13.039  1.00  0.00     0.029 A 
ATOM     52  N   UNL     1      12.266   7.993 -10.815  1.00  0.00    -0.354 N 
ATOM     53  N   UNL     1      13.487   7.736  -8.168  1.00  0.00    -0.248 NA
ATOM     54  C   UNL     1      15.301   7.160  -6.815  1.00  0.00     0.031 C 
ATOM     55  C   UNL     1      13.523   7.589 -12.602  1.00  0.00     0.029 A 
ATOM     56  C   UNL     1      13.537   7.615 -11.217  1.00  0.00     0.049 A 
ATOM     57  H   UNL     1      11.975   8.090  -9.880  1.00  0.00     0.167 HD
ATOM     58  C   UNL     1      14.560   7.374  -8.973  1.00  0.00     0.074 A 
ATOM     59  C   UNL     1      15.660   7.057  -8.087  1.00  0.00     0.031 C 
ATOM     60  C   UNL     1      14.628   7.315 -10.325  1.00  0.00     0.037 A 
BRANCH  47  61
ATOM     61  C   UNL     1       9.329   8.744 -13.165  1.00  0.00     0.057 A 
ATOM     62  C   UNL     1       8.914   9.992 -13.651  1.00  0.00     0.134 A 
ATOM     63  C   UNL     1       9.035   7.619 -13.946  1.00  0.00     0.134 A 
ATOM     64  F   UNL     1       9.152  11.109 -12.947  1.00  0.00    -0.206 F 
ATOM     65  C   UNL     1       8.206  10.111 -14.848  1.00  0.00     0.040 A 
ATOM     66  C   UNL     1       8.355   7.729 -15.160  1.00  0.00     0.040 A 
ATOM     67  F   UNL     1       9.409   6.394 -13.545  1.00  0.00    -0.206 F 
ATOM     68  C   UNL     1       7.931   8.977 -15.610  1.00  0.00     0.006 A 
ENDBRANCH  47  61
BRANCH  48  69
ATOM     69  C   UNL     1      13.861   7.742  -4.338  1.00  0.00     0.057 A 
ATOM     70  C   UNL     1      14.923   8.560  -3.935  1.00  0.00     0.134 A 
ATOM     71  C   UNL     1      13.475   6.716  -3.467  1.00  0.00     0.134 A 
ATOM     72  F   UNL     1      15.357   9.545  -4.736  1.00  0.00    -0.206 F 
ATOM     73  C   UNL     1      15.588   8.357  -2.724  1.00  0.00     0.040 A 
ATOM     74  C   UNL     1      14.115   6.515  -2.242  1.00  0.00     0.040 A 
ATOM     75  F   UNL     1      12.465   5.895  -3.792  1.00  0.00    -0.206 F 
ATOM     76  C   UNL     1      15.180   7.334  -1.871  1.00  0.00     0.006 A 
ENDBRANCH  48  69
BRANCH  60  77
ATOM     77  C   UNL     1      15.946   6.937 -10.935  1.00  0.00     0.057 A 
ATOM     78  C   UNL     1      16.439   5.627 -10.884  1.00  0.00     0.134 A 
ATOM     79  C   UNL     1      16.710   7.889 -11.623  1.00  0.00     0.134 A 
ATOM     80  F   UNL     1      15.762   4.671 -10.231  1.00  0.00    -0.206 F 
ATOM     81  C   UNL     1      17.655   5.283 -11.478  1.00  0.00     0.040 A 
ATOM     82  C   UNL     1      17.913   7.551 -12.244  1.00  0.00     0.040 A 
ATOM     83  F   UNL     1      16.290   9.160 -11.718  1.00  0.00    -0.206 F 
ATOM     84  C   UNL     1      18.391   6.245 -12.167  1.00  0.00     0.006 A 
ENDBRANCH  60  77
ENDBRANCH  34  35
ENDBRANCH  26  29
ENDBRANCH  24  25
ENDBRANCH  23  24
ENDBRANCH   1  23
TORSDOF 16
