REMARK SMILES Cc1cn(C)c(CC(=O)NCC[NH+]2CCC(C)CC2)c1C(=O)NCCCNC(=O)c1ccc(-c2c3nc(c(-c4c(F)cccc4F)c4ccc([nH]4)c(-c4c(F)cccc4F)c4nc(c(-c5c(F)cccc5F)c5ccc2[nH]5)C=C4)C=C3)cc1
REMARK SMILES IDX 21 1 22 2 23 3 20 5 1 6 2 7 3 8 4 9 6 10 5 11 7 12 8 13 9 14
REMARK SMILES IDX 10 15 11 17 12 18 13 19 14 20 19 21 15 23 18 24 16 25 17 26
REMARK SMILES IDX 24 27 25 28 26 29 27 30 28 31 29 33 30 34 31 35 83 36 32 37
REMARK SMILES IDX 82 38 33 39 34 40 35 41 76 42 36 43 81 44 75 45 77 46 37 47
REMARK SMILES IDX 80 48 74 49 73 50 38 52 64 53 47 54 63 55 48 56 51 57 62 58
REMARK SMILES IDX 78 59 49 60 50 61 61 63 79 64 52 65 39 66 40 67 45 68 41 69
REMARK SMILES IDX 42 70 44 71 46 72 43 73 65 74 66 75 71 76 67 77 68 78 70 79
REMARK SMILES IDX 72 80 69 81 53 82 54 83 59 84 55 85 56 86 58 87 60 88 57 89
REMARK H PARENT 23 4 10 16 13 22 27 32 77 51 51 62
REMARK Flexibility Score: inf
ROOT
ATOM      1  C   UNL     1       2.089   2.417   0.952  1.00  0.00     0.253 C 
ATOM      2  O   UNL     1       2.634   3.486   1.252  1.00  0.00    -0.269 OA
ATOM      3  N   UNL     1       2.677   1.358   1.582  1.00  0.00    -0.352 N 
ATOM      4  H   UNL     1       3.527   1.595   2.017  1.00  0.00     0.163 HD
ENDROOT
BRANCH   1   5
ATOM      5  C   UNL     1       0.942   2.365   0.002  1.00  0.00     0.064 A 
ATOM      6  C   UNL     1       0.390  -0.174  -0.755  1.00  0.00     0.047 C 
ATOM      7  C   UNL     1       0.214   1.297  -0.670  1.00  0.00    -0.020 A 
ATOM      8  C   UNL     1      -0.805   1.881  -1.393  1.00  0.00     0.089 A 
ATOM      9  N   UNL     1      -0.707   3.228  -1.303  1.00  0.00    -0.353 N 
ATOM     10  C   UNL     1       0.383   3.559  -0.531  1.00  0.00     0.040 A 
ATOM     11  C   UNL     1      -1.603   4.128  -2.001  1.00  0.00     0.149 C 
BRANCH  10  12
ATOM     12  C   UNL     1       0.792   5.013  -0.380  1.00  0.00     0.154 C 
BRANCH  12  13
ATOM     13  C   UNL     1       1.167   5.656  -1.716  1.00  0.00     0.226 C 
ATOM     14  O   UNL     1       0.488   6.572  -2.189  1.00  0.00    -0.275 OA
ATOM     15  N   UNL     1       2.270   5.246  -2.405  1.00  0.00    -0.350 N 
ATOM     16  H   UNL     1       2.466   5.744  -3.232  1.00  0.00     0.163 HD
BRANCH  15  17
ATOM     17  C   UNL     1       3.193   4.177  -2.082  1.00  0.00     0.177 C 
BRANCH  17  18
ATOM     18  C   UNL     1       3.043   2.970  -3.030  1.00  0.00     0.283 C 
BRANCH  18  19
ATOM     19  N   UNL     1       3.589   3.195  -4.388  1.00  0.00    -0.333 N 
ATOM     20  C   UNL     1       3.241   2.088  -5.297  1.00  0.00     0.262 C 
ATOM     21  C   UNL     1       5.045   3.407  -4.411  1.00  0.00     0.262 C 
ATOM     22  H   UNL     1       3.152   4.057  -4.712  1.00  0.00     0.348 HD
ATOM     23  C   UNL     1       3.982   0.777  -5.002  1.00  0.00     0.065 C 
ATOM     24  C   UNL     1       5.850   2.167  -4.017  1.00  0.00     0.065 C 
ATOM     25  C   UNL     1       5.502   0.979  -4.920  1.00  0.00    -0.003 C 
ATOM     26  C   UNL     1       6.197  -0.291  -4.434  1.00  0.00     0.008 C 
ENDBRANCH  18  19
ENDBRANCH  17  18
ENDBRANCH  15  17
ENDBRANCH  12  13
ENDBRANCH  10  12
ENDBRANCH   1   5
BRANCH   3  27
ATOM     27  C   UNL     1       2.328  -0.028   1.751  1.00  0.00     0.118 C 
BRANCH  27  28
ATOM     28  C   UNL     1       3.023  -0.922   0.722  1.00  0.00     0.042 C 
BRANCH  28  29
ATOM     29  C   UNL     1       4.392  -1.390   1.172  1.00  0.00     0.118 C 
BRANCH  29  30
ATOM     30  N   UNL     1       4.316  -2.325   2.291  1.00  0.00    -0.352 N 
ATOM     31  C   UNL     1       5.352  -2.919   2.985  1.00  0.00     0.251 C 
ATOM     32  H   UNL     1       3.408  -2.563   2.590  1.00  0.00     0.163 HD
ATOM     33  O   UNL     1       5.164  -3.917   3.658  1.00  0.00    -0.269 OA
BRANCH  31  34
ATOM     34  C   UNL     1       6.698  -2.329   2.875  1.00  0.00     0.039 A 
ATOM     35  C   UNL     1       7.825  -3.142   2.749  1.00  0.00     0.014 A 
ATOM     36  C   UNL     1       6.811  -0.943   2.844  1.00  0.00     0.014 A 
ATOM     37  C   UNL     1       9.054  -2.541   2.499  1.00  0.00     0.010 A 
ATOM     38  C   UNL     1       7.980  -0.367   2.419  1.00  0.00     0.010 A 
ATOM     39  C   UNL     1       9.119  -1.150   2.300  1.00  0.00    -0.014 A 
BRANCH  39  40
ATOM     40  C   UNL     1      10.356  -0.527   1.843  1.00  0.00     0.031 A 
ATOM     41  C   UNL     1      10.971  -1.190   0.659  1.00  0.00     0.074 A 
ATOM     42  C   UNL     1      10.819   0.655   2.306  1.00  0.00     0.049 A 
ATOM     43  N   UNL     1      12.082  -1.845   0.618  1.00  0.00    -0.248 NA
ATOM     44  C   UNL     1      10.190  -1.264  -0.588  1.00  0.00     0.031 C 
ATOM     45  C   UNL     1      10.187   1.596   3.237  1.00  0.00     0.029 A 
ATOM     46  N   UNL     1      11.952   1.318   1.948  1.00  0.00    -0.354 N 
ATOM     47  C   UNL     1      12.251  -2.235  -0.707  1.00  0.00     0.074 A 
ATOM     48  C   UNL     1      10.987  -2.010  -1.357  1.00  0.00     0.031 C 
ATOM     49  C   UNL     1      10.816   2.791   3.175  1.00  0.00     0.029 A 
ATOM     50  C   UNL     1      11.998   2.650   2.346  1.00  0.00     0.049 A 
ATOM     51  H   UNL     1      12.682   0.889   1.447  1.00  0.00     0.167 HD
ATOM     52  C   UNL     1      13.493  -2.479  -1.210  1.00  0.00     0.037 A 
ATOM     53  C   UNL     1      12.933   3.566   1.992  1.00  0.00     0.037 A 
ATOM     54  C   UNL     1      14.449  -2.698  -0.151  1.00  0.00     0.049 A 
ATOM     55  C   UNL     1      14.123   2.813   1.519  1.00  0.00     0.074 A 
ATOM     56  C   UNL     1      14.529  -3.580   0.911  1.00  0.00     0.029 A 
ATOM     57  N   UNL     1      15.319  -1.679   0.157  1.00  0.00    -0.354 N 
ATOM     58  N   UNL     1      14.886   2.100   2.299  1.00  0.00    -0.248 NA
ATOM     59  C   UNL     1      14.180   2.476   0.104  1.00  0.00     0.031 C 
ATOM     60  C   UNL     1      15.009  -2.796   2.002  1.00  0.00     0.029 A 
ATOM     61  C   UNL     1      15.277  -1.515   1.518  1.00  0.00     0.049 A 
ATOM     62  H   UNL     1      15.867  -1.164  -0.479  1.00  0.00     0.167 HD
ATOM     63  C   UNL     1      15.168   0.960   1.563  1.00  0.00     0.074 A 
ATOM     64  C   UNL     1      14.771   1.281   0.192  1.00  0.00     0.031 C 
ATOM     65  C   UNL     1      15.415  -0.236   2.174  1.00  0.00     0.037 A 
BRANCH  52  66
ATOM     66  C   UNL     1      13.914  -2.139  -2.619  1.00  0.00     0.057 A 
ATOM     67  C   UNL     1      15.186  -2.537  -3.071  1.00  0.00     0.134 A 
ATOM     68  C   UNL     1      13.261  -1.193  -3.436  1.00  0.00     0.134 A 
ATOM     69  F   UNL     1      15.918  -3.420  -2.375  1.00  0.00    -0.206 F 
ATOM     70  C   UNL     1      15.790  -1.978  -4.203  1.00  0.00     0.040 A 
ATOM     71  C   UNL     1      13.834  -0.667  -4.596  1.00  0.00     0.040 A 
ATOM     72  F   UNL     1      12.084  -0.648  -3.108  1.00  0.00    -0.206 F 
ATOM     73  C   UNL     1      15.117  -1.032  -4.966  1.00  0.00     0.006 A 
ENDBRANCH  52  66
BRANCH  53  74
ATOM     74  C   UNL     1      12.787   5.022   1.756  1.00  0.00     0.057 A 
ATOM     75  C   UNL     1      13.918   5.841   1.611  1.00  0.00     0.134 A 
ATOM     76  C   UNL     1      11.563   5.592   1.369  1.00  0.00     0.134 A 
ATOM     77  F   UNL     1      15.138   5.380   1.926  1.00  0.00    -0.206 F 
ATOM     78  C   UNL     1      13.844   7.130   1.068  1.00  0.00     0.040 A 
ATOM     79  C   UNL     1      11.473   6.882   0.832  1.00  0.00     0.040 A 
ATOM     80  F   UNL     1      10.424   4.885   1.409  1.00  0.00    -0.206 F 
ATOM     81  C   UNL     1      12.619   7.648   0.660  1.00  0.00     0.006 A 
ENDBRANCH  53  74
BRANCH  65  82
ATOM     82  C   UNL     1      15.611  -0.252   3.666  1.00  0.00     0.057 A 
ATOM     83  C   UNL     1      14.647   0.159   4.601  1.00  0.00     0.134 A 
ATOM     84  C   UNL     1      16.767  -0.851   4.181  1.00  0.00     0.134 A 
ATOM     85  F   UNL     1      13.464   0.649   4.211  1.00  0.00    -0.206 F 
ATOM     86  C   UNL     1      14.846   0.020   5.979  1.00  0.00     0.040 A 
ATOM     87  C   UNL     1      16.963  -1.027   5.552  1.00  0.00     0.040 A 
ATOM     88  F   UNL     1      17.712  -1.319   3.350  1.00  0.00    -0.206 F 
ATOM     89  C   UNL     1      16.005  -0.581   6.458  1.00  0.00     0.006 A 
ENDBRANCH  65  82
ENDBRANCH  39  40
ENDBRANCH  31  34
ENDBRANCH  29  30
ENDBRANCH  28  29
ENDBRANCH  27  28
ENDBRANCH   3  27
TORSDOF 15
