REMARK SMILES O=C(NCCCNC(=O)c1ccc(-c2c3nc(c(-c4c(F)cccc4F)c4ccc([nH]4)c(-c4c(F)cccc4F)c4nc(c(-c5c(F)cccc5F)c5ccc2[nH]5)C=C4)C=C3)cc1)C1=Cc2cc(S(F)(F)(F)(F)F)ccc2O[C@H]1C(F)(F)F
REMARK SMILES IDX 5 1 4 2 3 3 1 4 2 5 64 7 65 8 79 9 66 10 78 11 67 12 77 13
REMARK SMILES IDX 68 14 76 15 75 16 80 17 81 18 82 19 83 20 69 21 70 22 71 23
REMARK SMILES IDX 72 24 73 25 74 26 6 27 7 28 8 29 9 31 10 32 11 33 63 34
REMARK SMILES IDX 12 35 62 36 13 37 14 38 15 39 56 40 16 41 61 42 55 43 57 44
REMARK SMILES IDX 17 45 60 46 54 47 53 48 18 50 44 51 27 52 43 53 28 54 31 55
REMARK SMILES IDX 42 56 58 57 29 58 30 59 41 61 59 62 32 63 19 64 20 65 25 66
REMARK SMILES IDX 21 67 22 68 24 69 26 70 23 71 45 72 46 73 51 74 47 75 48 76
REMARK SMILES IDX 50 77 52 78 49 79 33 80 34 81 39 82 35 83 36 84 38 85 40 86
REMARK SMILES IDX 37 87
REMARK H PARENT 3 6 7 30 57 49 31 60
REMARK Flexibility Score: inf
ROOT
ATOM      1  C   UNL     1       5.079  -1.823   1.475  1.00  0.00     0.042 C 
ENDROOT
BRANCH   1   2
ATOM      2  C   UNL     1       4.573  -1.278   0.150  1.00  0.00     0.118 C 
BRANCH   2   3
ATOM      3  N   UNL     1       3.103  -1.278   0.150  1.00  0.00    -0.352 N 
ATOM      4  O   UNL     1       1.097  -0.016  -0.019  1.00  0.00    -0.270 OA
ATOM      5  C   UNL     1       2.368  -0.016  -0.019  1.00  0.00     0.251 C 
ATOM      6  H   UNL     1       2.611  -2.123   0.263  1.00  0.00     0.163 HD
BRANCH   5   7
ATOM      7  C   UNL     1       3.128   1.289  -0.194  1.00  0.00     0.067 C 
ATOM      8  C   UNL     1       4.488   1.289  -0.194  1.00  0.00     0.025 C 
ATOM      9  C   UNL     1       2.368   2.593  -0.369  1.00  0.00     0.314 C 
ATOM     10  C   UNL     1       5.248  -0.016  -0.019  1.00  0.00     0.019 A 
ATOM     11  O   UNL     1       3.664  -1.054  -1.455  1.00  0.00    -0.475 OA
ATOM     12  C   UNL     1       6.327  -0.061   0.848  1.00  0.00     0.036 A 
ATOM     13  C   UNL     1       4.866  -1.090  -0.701  1.00  0.00     0.128 A 
ATOM     14  C   UNL     1       7.125  -1.222   0.710  1.00  0.00     0.107 A 
ATOM     15  C   UNL     1       5.624  -2.236  -0.682  1.00  0.00     0.048 A 
ATOM     16  C   UNL     1       6.737  -2.330   0.107  1.00  0.00     0.028 A 
BRANCH   9  17
ATOM     17  C   UNL     1       0.873   2.318  -0.332  1.00  0.00     0.429 C 
ATOM     18  F   UNL     1       0.372   2.790  -1.470  1.00  0.00    -0.167 F 
ATOM     19  F   UNL     1       0.544   1.036  -0.201  1.00  0.00    -0.167 F 
ATOM     20  F   UNL     1       0.379   3.010   0.690  1.00  0.00    -0.167 F 
ENDBRANCH   9  17
BRANCH  14  21
ATOM     21  S   UNL     1       8.795  -1.183   1.407  1.00  0.00     0.310 S 
ATOM     22  F   UNL     1       8.241  -1.190   2.894  1.00  0.00    -0.094 F 
ATOM     23  F   UNL     1       8.708   0.389   1.455  1.00  0.00    -0.094 F 
ATOM     24  F   UNL     1      10.229  -1.150   2.007  1.00  0.00    -0.094 F 
ATOM     25  F   UNL     1       8.809  -2.761   1.482  1.00  0.00    -0.094 F 
ATOM     26  F   UNL     1       7.297  -1.235   0.904  1.00  0.00    -0.094 F 
ENDBRANCH  14  21
ENDBRANCH   5   7
ENDBRANCH   2   3
ENDBRANCH   1   2
BRANCH   1  27
ATOM     27  C   UNL     1       4.573  -3.244   1.665  1.00  0.00     0.118 C 
BRANCH  27  28
ATOM     28  N   UNL     1       5.063  -4.090   0.568  1.00  0.00    -0.352 N 
ATOM     29  C   UNL     1       5.908  -5.256   0.860  1.00  0.00     0.251 C 
ATOM     30  H   UNL     1       4.825  -3.875  -0.363  1.00  0.00     0.163 HD
ATOM     31  O   UNL     1       6.331  -5.988  -0.089  1.00  0.00    -0.269 OA
BRANCH  29  32
ATOM     32  C   UNL     1       6.275  -5.588   2.297  1.00  0.00     0.039 A 
ATOM     33  C   UNL     1       7.566  -5.998   2.587  1.00  0.00     0.014 A 
ATOM     34  C   UNL     1       5.337  -5.552   3.236  1.00  0.00     0.014 A 
ATOM     35  C   UNL     1       7.698  -6.630   3.846  1.00  0.00     0.010 A 
ATOM     36  C   UNL     1       5.579  -6.066   4.487  1.00  0.00     0.010 A 
ATOM     37  C   UNL     1       6.815  -6.542   4.824  1.00  0.00    -0.014 A 
BRANCH  37  38
ATOM     38  C   UNL     1       7.156  -6.948   6.249  1.00  0.00     0.031 A 
ATOM     39  C   UNL     1       6.415  -7.966   6.852  1.00  0.00     0.074 A 
ATOM     40  C   UNL     1       8.255  -6.341   6.832  1.00  0.00     0.049 A 
ATOM     41  N   UNL     1       6.638  -8.543   8.034  1.00  0.00    -0.248 NA
ATOM     42  C   UNL     1       5.227  -8.589   6.250  1.00  0.00     0.031 C 
ATOM     43  C   UNL     1       9.012  -5.319   6.226  1.00  0.00     0.029 A 
ATOM     44  N   UNL     1       8.807  -6.599   8.067  1.00  0.00    -0.354 N 
ATOM     45  C   UNL     1       5.727  -9.492   8.263  1.00  0.00     0.074 A 
ATOM     46  C   UNL     1       4.803  -9.531   7.122  1.00  0.00     0.031 C 
ATOM     47  C   UNL     1       9.999  -4.959   7.087  1.00  0.00     0.029 A 
ATOM     48  C   UNL     1       9.876  -5.749   8.246  1.00  0.00     0.049 A 
ATOM     49  H   UNL     1       8.492  -7.274   8.710  1.00  0.00     0.167 HD
ATOM     50  C   UNL     1       5.633 -10.327   9.377  1.00  0.00     0.037 A 
ATOM     51  C   UNL     1      10.707  -5.652   9.351  1.00  0.00     0.037 A 
ATOM     52  C   UNL     1       6.491 -10.259  10.464  1.00  0.00     0.049 A 
ATOM     53  C   UNL     1      10.577  -6.448  10.491  1.00  0.00     0.074 A 
ATOM     54  C   UNL     1       6.414 -11.098  11.592  1.00  0.00     0.029 A 
ATOM     55  N   UNL     1       7.545  -9.393  10.653  1.00  0.00    -0.354 N 
ATOM     56  N   UNL     1       9.691  -7.423  10.702  1.00  0.00    -0.248 NA
ATOM     57  C   UNL     1      11.431  -6.332  11.680  1.00  0.00     0.031 C 
ATOM     58  C   UNL     1       7.402 -10.738  12.454  1.00  0.00     0.029 A 
ATOM     59  C   UNL     1       8.111  -9.666  11.879  1.00  0.00     0.049 A 
ATOM     60  H   UNL     1       7.841  -8.698  10.022  1.00  0.00     0.167 HD
ATOM     61  C   UNL     1       9.889  -7.971  11.903  1.00  0.00     0.074 A 
ATOM     62  C   UNL     1      11.006  -7.272  12.552  1.00  0.00     0.031 C 
ATOM     63  C   UNL     1       9.184  -9.028  12.481  1.00  0.00     0.037 A 
BRANCH  50  64
ATOM     64  C   UNL     1       4.527 -11.369   9.401  1.00  0.00     0.057 A 
ATOM     65  C   UNL     1       4.488 -12.332   8.406  1.00  0.00     0.134 A 
ATOM     66  C   UNL     1       3.619 -11.342  10.370  1.00  0.00     0.134 A 
ATOM     67  F   UNL     1       5.500 -12.555   7.573  1.00  0.00    -0.206 F 
ATOM     68  C   UNL     1       3.274 -13.057   8.357  1.00  0.00     0.040 A 
ATOM     69  C   UNL     1       2.526 -12.175  10.327  1.00  0.00     0.040 A 
ATOM     70  F   UNL     1       3.768 -10.502  11.390  1.00  0.00    -0.206 F 
ATOM     71  C   UNL     1       2.393 -13.111   9.340  1.00  0.00     0.006 A 
ENDBRANCH  50  64
BRANCH  51  72
ATOM     72  C   UNL     1      11.824  -4.621   9.320  1.00  0.00     0.057 A 
ATOM     73  C   UNL     1      13.137  -5.047   9.437  1.00  0.00     0.134 A 
ATOM     74  C   UNL     1      11.527  -3.334   9.181  1.00  0.00     0.134 A 
ATOM     75  F   UNL     1      13.499  -6.322   9.324  1.00  0.00    -0.206 F 
ATOM     76  C   UNL     1      14.058  -4.003   9.688  1.00  0.00     0.040 A 
ATOM     77  C   UNL     1      12.502  -2.374   9.304  1.00  0.00     0.040 A 
ATOM     78  F   UNL     1      10.274  -2.971   8.920  1.00  0.00    -0.206 F 
ATOM     79  C   UNL     1      13.812  -2.721   9.481  1.00  0.00     0.006 A 
ENDBRANCH  51  72
BRANCH  63  80
ATOM     80  C   UNL     1       9.621  -9.510  13.855  1.00  0.00     0.057 A 
ATOM     81  C   UNL     1       9.704  -8.593  14.890  1.00  0.00     0.134 A 
ATOM     82  C   UNL     1      10.018 -10.767  14.015  1.00  0.00     0.134 A 
ATOM     83  F   UNL     1       9.095  -7.411  14.862  1.00  0.00    -0.206 F 
ATOM     84  C   UNL     1      10.495  -9.028  15.980  1.00  0.00     0.040 A 
ATOM     85  C   UNL     1      10.665 -11.155  15.164  1.00  0.00     0.040 A 
ATOM     86  F   UNL     1       9.788 -11.658  13.055  1.00  0.00    -0.206 F 
ATOM     87  C   UNL     1      10.834 -10.284  16.204  1.00  0.00     0.006 A 
ENDBRANCH  63  80
ENDBRANCH  37  38
ENDBRANCH  29  32
ENDBRANCH  27  28
ENDBRANCH   1  27
TORSDOF 12
