REMARK SMILES Cc1nn(C)cc1-c1cc(C(=O)NCCCNC(=O)c2ccc(-c3c4nc(c(-c5c(F)cccc5F)c5ccc([nH]5)c(-c5c(F)cccc5F)c5nc(c(-c6c(F)cccc6F)c6ccc3[nH]6)C=C5)C=C4)cc2)n2nc(C)c(Br)c2n1
REMARK SMILES IDX 15 1 14 2 13 3 11 4 12 5 10 7 8 8 9 9 81 10 80 11 74 12
REMARK SMILES IDX 78 13 75 14 76 15 79 16 77 17 7 18 1 19 2 20 3 21 4 22 6 23
REMARK SMILES IDX 5 24 16 25 17 26 18 27 19 29 20 30 21 31 73 32 22 33 72 34
REMARK SMILES IDX 23 35 24 36 25 37 66 38 26 39 71 40 65 41 67 42 27 43 70 44
REMARK SMILES IDX 64 45 63 46 28 48 54 49 37 50 53 51 38 52 41 53 52 54 68 55
REMARK SMILES IDX 39 56 40 57 51 59 69 60 42 61 29 62 30 63 35 64 31 65 32 66
REMARK SMILES IDX 34 67 36 68 33 69 55 70 56 71 61 72 57 73 58 74 60 75 62 76
REMARK SMILES IDX 59 77 43 78 44 79 49 80 45 81 46 82 48 83 50 84 47 85
REMARK H PARENT 13 6 17 28 67 47 41 58
REMARK Flexibility Score: inf
ROOT
ATOM      1  C   UNL     1      -2.736  -1.641  -4.703  1.00  0.00     0.042 C 
ENDROOT
BRANCH   1   2
ATOM      2  C   UNL     1      -3.801  -1.739  -3.593  1.00  0.00     0.118 C 
BRANCH   2   3
ATOM      3  N   UNL     1      -4.163  -3.118  -3.305  1.00  0.00    -0.351 N 
ATOM      4  C   UNL     1      -3.908  -4.024  -2.318  1.00  0.00     0.270 C 
ATOM      5  O   UNL     1      -4.464  -5.111  -2.473  1.00  0.00    -0.268 OA
ATOM      6  H   UNL     1      -4.744  -3.496  -4.004  1.00  0.00     0.163 HD
BRANCH   4   7
ATOM      7  C   UNL     1      -3.040  -3.766  -1.123  1.00  0.00     0.134 A 
ATOM      8  C   UNL     1      -1.367  -2.579   0.140  1.00  0.00     0.079 A 
ATOM      9  C   UNL     1      -2.135  -2.772  -1.115  1.00  0.00     0.063 A 
ATOM     10  N   UNL     1      -1.349  -3.364   1.165  1.00  0.00    -0.227 NA
ATOM     11  C   UNL     1      -2.186  -4.444   1.083  1.00  0.00     0.171 A 
ATOM     12  N   UNL     1      -3.070  -4.640  -0.003  1.00  0.00    -0.208 N 
ATOM     13  C   UNL     1      -2.369  -5.521   1.914  1.00  0.00     0.085 A 
ATOM     14  N   UNL     1      -3.835  -5.750   0.212  1.00  0.00    -0.170 NA
ATOM     15  C   UNL     1      -3.371  -6.308   1.334  1.00  0.00     0.076 A 
ATOM     16  Br  UNL     1      -1.459  -5.898   3.507  1.00  0.00    -0.045 Br
ATOM     17  C   UNL     1      -3.922  -7.603   1.807  1.00  0.00     0.070 C 
BRANCH   8  18
ATOM     18  C   UNL     1      -0.578  -1.374   0.143  1.00  0.00     0.041 A 
ATOM     19  C   UNL     1      -2.382   0.533   0.040  1.00  0.00     0.069 C 
ATOM     20  C   UNL     1      -1.003  -0.017   0.061  1.00  0.00     0.069 A 
ATOM     21  N   UNL     1       0.039   0.821   0.003  1.00  0.00    -0.178 NA
ATOM     22  N   UNL     1       1.113   0.019   0.105  1.00  0.00    -0.275 N 
ATOM     23  C   UNL     1       0.797  -1.301   0.216  1.00  0.00     0.119 A 
ATOM     24  C   UNL     1       2.434   0.595   0.041  1.00  0.00     0.173 C 
ENDBRANCH   8  18
ENDBRANCH   4   7
ENDBRANCH   2   3
ENDBRANCH   1   2
BRANCH   1  25
ATOM     25  C   UNL     1      -3.320  -1.514  -6.125  1.00  0.00     0.118 C 
BRANCH  25  26
ATOM     26  N   UNL     1      -4.076  -0.277  -6.246  1.00  0.00    -0.352 N 
ATOM     27  C   UNL     1      -3.933   0.806  -7.065  1.00  0.00     0.251 C 
ATOM     28  H   UNL     1      -4.833  -0.209  -5.620  1.00  0.00     0.163 HD
ATOM     29  O   UNL     1      -4.350   1.886  -6.653  1.00  0.00    -0.269 OA
BRANCH  27  30
ATOM     30  C   UNL     1      -3.385   0.730  -8.437  1.00  0.00     0.039 A 
ATOM     31  C   UNL     1      -2.778   1.887  -8.943  1.00  0.00     0.014 A 
ATOM     32  C   UNL     1      -3.670  -0.333  -9.298  1.00  0.00     0.014 A 
ATOM     33  C   UNL     1      -2.470   1.991 -10.299  1.00  0.00     0.010 A 
ATOM     34  C   UNL     1      -3.361  -0.225 -10.662  1.00  0.00     0.010 A 
ATOM     35  C   UNL     1      -2.767   0.940 -11.175  1.00  0.00    -0.014 A 
BRANCH  35  36
ATOM     36  C   UNL     1      -2.338   1.084 -12.586  1.00  0.00     0.031 A 
ATOM     37  C   UNL     1      -1.756  -0.146 -13.208  1.00  0.00     0.074 A 
ATOM     38  C   UNL     1      -2.892   2.008 -13.405  1.00  0.00     0.049 A 
ATOM     39  N   UNL     1      -2.485  -1.116 -13.681  1.00  0.00    -0.248 NA
ATOM     40  C   UNL     1      -0.336  -0.481 -13.097  1.00  0.00     0.031 C 
ATOM     41  C   UNL     1      -4.312   2.378 -13.366  1.00  0.00     0.029 A 
ATOM     42  N   UNL     1      -2.415   2.623 -14.545  1.00  0.00    -0.354 N 
ATOM     43  C   UNL     1      -1.647  -2.194 -13.908  1.00  0.00     0.074 A 
ATOM     44  C   UNL     1      -0.322  -1.752 -13.531  1.00  0.00     0.031 C 
ATOM     45  C   UNL     1      -4.627   3.011 -14.515  1.00  0.00     0.029 A 
ATOM     46  C   UNL     1      -3.417   3.216 -15.314  1.00  0.00     0.049 A 
ATOM     47  H   UNL     1      -1.462   2.641 -14.791  1.00  0.00     0.167 HD
ATOM     48  C   UNL     1      -2.090  -3.380 -14.401  1.00  0.00     0.037 A 
ATOM     49  C   UNL     1      -3.418   3.275 -16.677  1.00  0.00     0.037 A 
ATOM     50  C   UNL     1      -3.486  -3.434 -14.719  1.00  0.00     0.049 A 
ATOM     51  C   UNL     1      -3.656   1.833 -17.036  1.00  0.00     0.074 A 
ATOM     52  C   UNL     1      -4.658  -3.882 -14.149  1.00  0.00     0.029 A 
ATOM     53  N   UNL     1      -3.876  -2.890 -15.919  1.00  0.00    -0.354 N 
ATOM     54  N   UNL     1      -4.807   1.220 -17.013  1.00  0.00    -0.248 NA
ATOM     55  C   UNL     1      -2.491   0.947 -17.077  1.00  0.00     0.031 C 
ATOM     56  C   UNL     1      -5.701  -3.155 -14.809  1.00  0.00     0.029 A 
ATOM     57  C   UNL     1      -5.086  -2.286 -15.708  1.00  0.00     0.049 A 
ATOM     58  H   UNL     1      -3.379  -2.926 -16.768  1.00  0.00     0.167 HD
ATOM     59  C   UNL     1      -4.510  -0.121 -16.759  1.00  0.00     0.074 A 
ATOM     60  C   UNL     1      -3.066  -0.224 -16.838  1.00  0.00     0.031 C 
ATOM     61  C   UNL     1      -5.434  -1.023 -16.315  1.00  0.00     0.037 A 
BRANCH  48  62
ATOM     62  C   UNL     1      -1.234  -4.496 -14.850  1.00  0.00     0.057 A 
ATOM     63  C   UNL     1      -0.910  -5.580 -14.035  1.00  0.00     0.134 A 
ATOM     64  C   UNL     1      -0.988  -4.611 -16.225  1.00  0.00     0.134 A 
ATOM     65  F   UNL     1      -1.138  -5.536 -12.714  1.00  0.00    -0.206 F 
ATOM     66  C   UNL     1      -0.404  -6.763 -14.584  1.00  0.00     0.040 A 
ATOM     67  C   UNL     1      -0.500  -5.787 -16.786  1.00  0.00     0.040 A 
ATOM     68  F   UNL     1      -1.300  -3.598 -17.051  1.00  0.00    -0.206 F 
ATOM     69  C   UNL     1      -0.221  -6.876 -15.965  1.00  0.00     0.006 A 
ENDBRANCH  48  62
BRANCH  49  70
ATOM     70  C   UNL     1      -2.380   4.124 -17.336  1.00  0.00     0.057 A 
ATOM     71  C   UNL     1      -1.569   3.744 -18.415  1.00  0.00     0.134 A 
ATOM     72  C   UNL     1      -2.209   5.448 -16.889  1.00  0.00     0.134 A 
ATOM     73  F   UNL     1      -1.728   2.562 -19.025  1.00  0.00    -0.206 F 
ATOM     74  C   UNL     1      -0.554   4.569 -18.915  1.00  0.00     0.040 A 
ATOM     75  C   UNL     1      -1.216   6.294 -17.395  1.00  0.00     0.040 A 
ATOM     76  F   UNL     1      -3.020   5.957 -15.947  1.00  0.00    -0.206 F 
ATOM     77  C   UNL     1      -0.362   5.842 -18.392  1.00  0.00     0.006 A 
ENDBRANCH  49  70
BRANCH  61  78
ATOM     78  C   UNL     1      -6.832  -0.515 -16.240  1.00  0.00     0.057 A 
ATOM     79  C   UNL     1      -7.481  -0.312 -15.014  1.00  0.00     0.134 A 
ATOM     80  C   UNL     1      -7.548  -0.218 -17.405  1.00  0.00     0.134 A 
ATOM     81  F   UNL     1      -6.854  -0.552 -13.851  1.00  0.00    -0.206 F 
ATOM     82  C   UNL     1      -8.801   0.137 -14.951  1.00  0.00     0.040 A 
ATOM     83  C   UNL     1      -8.857   0.260 -17.353  1.00  0.00     0.040 A 
ATOM     84  F   UNL     1      -6.990  -0.402 -18.613  1.00  0.00    -0.206 F 
ATOM     85  C   UNL     1      -9.491   0.429 -16.124  1.00  0.00     0.006 A 
ENDBRANCH  61  78
ENDBRANCH  35  36
ENDBRANCH  27  30
ENDBRANCH  25  26
ENDBRANCH   1  25
TORSDOF 11
