REMARK SMILES CCc1cc(C)c2c(c1)C=C(C(=O)NCCCNC(=O)c1ccc(-c3c4nc(c(-c5c(F)cccc5F)c5ccc([nH]5)c(-c5c(F)cccc5F)c5nc(c(-c6c(F)cccc6F)c6ccc3[nH]6)C=C5)C=C4)cc1)[C@@H](C(F)(F)F)O2
REMARK SMILES IDX 16 1 15 2 14 3 12 4 13 5 11 7 3 8 4 9 9 10 5 11 8 12 6 13
REMARK SMILES IDX 7 14 10 15 80 16 75 17 2 18 1 19 76 20 77 21 78 22 79 23
REMARK SMILES IDX 17 24 18 25 19 26 20 28 21 29 22 30 74 31 23 32 73 33 24 34
REMARK SMILES IDX 25 35 26 36 67 37 27 38 72 39 66 40 68 41 28 42 71 43 65 44
REMARK SMILES IDX 64 45 29 47 55 48 38 49 54 50 39 51 42 52 53 53 69 54 40 55
REMARK SMILES IDX 41 56 52 58 70 59 43 60 30 61 31 62 36 63 32 64 33 65 35 66
REMARK SMILES IDX 37 67 34 68 56 69 57 70 62 71 58 72 59 73 61 74 63 75 60 76
REMARK SMILES IDX 44 77 45 78 50 79 46 80 47 81 49 82 51 83 48 84
REMARK H PARENT 14 6 18 27 68 46 42 57
REMARK Flexibility Score: inf
ROOT
ATOM      1  C   UNL     1       2.777   4.881   9.560  1.00  0.00     0.042 C 
ENDROOT
BRANCH   1   2
ATOM      2  C   UNL     1       3.818   4.394   8.562  1.00  0.00     0.118 C 
BRANCH   2   3
ATOM      3  N   UNL     1       3.813   2.943   8.442  1.00  0.00    -0.352 N 
ATOM      4  C   UNL     1       3.397   2.021   7.543  1.00  0.00     0.251 C 
ATOM      5  O   UNL     1       3.586   0.847   7.876  1.00  0.00    -0.270 OA
ATOM      6  H   UNL     1       4.224   2.517   9.229  1.00  0.00     0.163 HD
BRANCH   4   7
ATOM      7  C   UNL     1       2.752   2.326   6.235  1.00  0.00     0.067 C 
ATOM      8  C   UNL     1       0.801   0.664   2.123  1.00  0.00    -0.047 A 
ATOM      9  C   UNL     1       0.419   1.973   1.790  1.00  0.00     0.011 A 
ATOM     10  C   UNL     1       1.441   0.434   3.351  1.00  0.00     0.015 A 
ATOM     11  C   UNL     1       0.684   3.045   2.651  1.00  0.00    -0.008 A 
ATOM     12  C   UNL     1       1.707   1.494   4.224  1.00  0.00     0.018 A 
ATOM     13  C   UNL     1       0.287   4.443   2.274  1.00  0.00     0.048 C 
ATOM     14  C   UNL     1       1.331   2.790   3.865  1.00  0.00     0.130 A 
ATOM     15  C   UNL     1       2.333   1.265   5.522  1.00  0.00     0.025 C 
ATOM     16  O   UNL     1       1.525   3.855   4.701  1.00  0.00    -0.475 OA
ATOM     17  C   UNL     1       2.582   3.712   5.683  1.00  0.00     0.314 C 
BRANCH   8  18
ATOM     18  C   UNL     1       0.484  -0.488   1.200  1.00  0.00     0.032 C 
ATOM     19  C   UNL     1       1.064  -0.320  -0.198  1.00  0.00     0.009 C 
ENDBRANCH   8  18
BRANCH  17  20
ATOM     20  C   UNL     1       3.890   4.294   5.115  1.00  0.00     0.429 C 
ATOM     21  F   UNL     1       3.784   5.640   4.974  1.00  0.00    -0.167 F 
ATOM     22  F   UNL     1       4.951   4.080   5.931  1.00  0.00    -0.167 F 
ATOM     23  F   UNL     1       4.215   3.784   3.908  1.00  0.00    -0.167 F 
ENDBRANCH  17  20
ENDBRANCH   4   7
ENDBRANCH   2   3
ENDBRANCH   1   2
BRANCH   1  24
ATOM     24  C   UNL     1       3.252   4.718  10.999  1.00  0.00     0.118 C 
BRANCH  24  25
ATOM     25  N   UNL     1       4.374   5.606  11.293  1.00  0.00    -0.352 N 
ATOM     26  C   UNL     1       4.386   6.804  11.962  1.00  0.00     0.251 C 
ATOM     27  H   UNL     1       5.250   5.301  10.963  1.00  0.00     0.163 HD
ATOM     28  O   UNL     1       5.348   7.561  11.862  1.00  0.00    -0.269 OA
BRANCH  26  29
ATOM     29  C   UNL     1       3.237   7.175  12.807  1.00  0.00     0.039 A 
ATOM     30  C   UNL     1       2.733   8.477  12.754  1.00  0.00     0.014 A 
ATOM     31  C   UNL     1       2.681   6.233  13.676  1.00  0.00     0.014 A 
ATOM     32  C   UNL     1       1.630   8.818  13.539  1.00  0.00     0.010 A 
ATOM     33  C   UNL     1       1.538   6.548  14.395  1.00  0.00     0.010 A 
ATOM     34  C   UNL     1       1.016   7.849  14.347  1.00  0.00    -0.014 A 
BRANCH  34  35
ATOM     35  C   UNL     1      -0.141   8.181  15.208  1.00  0.00     0.031 A 
ATOM     36  C   UNL     1       0.025   8.158  16.701  1.00  0.00     0.074 A 
ATOM     37  C   UNL     1      -1.340   8.433  14.653  1.00  0.00     0.049 A 
ATOM     38  N   UNL     1      -0.870   8.345  17.637  1.00  0.00    -0.248 NA
ATOM     39  C   UNL     1       1.373   7.854  17.209  1.00  0.00     0.031 C 
ATOM     40  C   UNL     1      -1.626   8.441  13.218  1.00  0.00     0.029 A 
ATOM     41  N   UNL     1      -2.546   8.718  15.237  1.00  0.00    -0.354 N 
ATOM     42  C   UNL     1      -0.195   8.177  18.839  1.00  0.00     0.074 A 
ATOM     43  C   UNL     1       1.165   7.805  18.515  1.00  0.00     0.031 C 
ATOM     44  C   UNL     1      -2.924   8.736  13.032  1.00  0.00     0.029 A 
ATOM     45  C   UNL     1      -3.563   8.908  14.333  1.00  0.00     0.049 A 
ATOM     46  H   UNL     1      -2.673   8.780  16.211  1.00  0.00     0.167 HD
ATOM     47  C   UNL     1      -0.657   8.347  20.099  1.00  0.00     0.037 A 
ATOM     48  C   UNL     1      -4.862   9.187  14.540  1.00  0.00     0.037 A 
ATOM     49  C   UNL     1      -2.008   8.727  20.414  1.00  0.00     0.049 A 
ATOM     50  C   UNL     1      -5.360   9.341  15.951  1.00  0.00     0.074 A 
ATOM     51  C   UNL     1      -2.572   8.970  21.653  1.00  0.00     0.029 A 
ATOM     52  N   UNL     1      -3.009   8.916  19.472  1.00  0.00    -0.354 N 
ATOM     53  N   UNL     1      -4.697   9.246  17.079  1.00  0.00    -0.248 NA
ATOM     54  C   UNL     1      -6.787   9.649  16.116  1.00  0.00     0.031 C 
ATOM     55  C   UNL     1      -3.926   9.271  21.463  1.00  0.00     0.029 A 
ATOM     56  C   UNL     1      -4.194   9.255  20.103  1.00  0.00     0.049 A 
ATOM     57  H   UNL     1      -2.893   8.824  18.499  1.00  0.00     0.167 HD
ATOM     58  C   UNL     1      -5.618   9.510  18.085  1.00  0.00     0.074 A 
ATOM     59  C   UNL     1      -6.881   9.784  17.431  1.00  0.00     0.031 C 
ATOM     60  C   UNL     1      -5.437   9.525  19.428  1.00  0.00     0.037 A 
BRANCH  47  61
ATOM     61  C   UNL     1       0.318   8.124  21.218  1.00  0.00     0.057 A 
ATOM     62  C   UNL     1       0.201   7.016  22.064  1.00  0.00     0.134 A 
ATOM     63  C   UNL     1       1.384   9.005  21.450  1.00  0.00     0.134 A 
ATOM     64  F   UNL     1      -0.797   6.134  21.900  1.00  0.00    -0.206 F 
ATOM     65  C   UNL     1       1.114   6.787  23.096  1.00  0.00     0.040 A 
ATOM     66  C   UNL     1       2.319   8.772  22.459  1.00  0.00     0.040 A 
ATOM     67  F   UNL     1       1.563  10.077  20.663  1.00  0.00    -0.206 F 
ATOM     68  C   UNL     1       2.182   7.661  23.289  1.00  0.00     0.006 A 
ENDBRANCH  47  61
BRANCH  48  69
ATOM     69  C   UNL     1      -5.782   9.372  13.391  1.00  0.00     0.057 A 
ATOM     70  C   UNL     1      -6.195   8.294  12.599  1.00  0.00     0.134 A 
ATOM     71  C   UNL     1      -6.294  10.637  13.078  1.00  0.00     0.134 A 
ATOM     72  F   UNL     1      -5.735   7.059  12.843  1.00  0.00    -0.206 F 
ATOM     73  C   UNL     1      -7.086   8.467  11.539  1.00  0.00     0.040 A 
ATOM     74  C   UNL     1      -7.203  10.821  12.036  1.00  0.00     0.040 A 
ATOM     75  F   UNL     1      -5.949  11.704  13.813  1.00  0.00    -0.206 F 
ATOM     76  C   UNL     1      -7.600   9.733  11.261  1.00  0.00     0.006 A 
ENDBRANCH  48  69
BRANCH  60  77
ATOM     77  C   UNL     1      -6.628   9.880  20.268  1.00  0.00     0.057 A 
ATOM     78  C   UNL     1      -6.695  11.116  20.923  1.00  0.00     0.134 A 
ATOM     79  C   UNL     1      -7.700   8.995  20.441  1.00  0.00     0.134 A 
ATOM     80  F   UNL     1      -5.698  12.005  20.804  1.00  0.00    -0.206 F 
ATOM     81  C   UNL     1      -7.786  11.459  21.721  1.00  0.00     0.040 A 
ATOM     82  C   UNL     1      -8.809   9.338  21.215  1.00  0.00     0.040 A 
ATOM     83  F   UNL     1      -7.703   7.802  19.826  1.00  0.00    -0.206 F 
ATOM     84  C   UNL     1      -8.851  10.572  21.863  1.00  0.00     0.006 A 
ENDBRANCH  60  77
ENDBRANCH  34  35
ENDBRANCH  26  29
ENDBRANCH  24  25
ENDBRANCH   1  24
TORSDOF 12
