REMARK SMILES CC(C)(C)OC(=O)N1C[C@H](Cc2ccccc2)[C@H](C(=O)NCCCNC(=O)c2ccc(-c3c4nc(c(-c5c(F)cccc5F)c5ccc([nH]5)c(-c5c(F)cccc5F)c5nc(c(-c6c(F)cccc6F)c6ccc3[nH]6)C=C5)C=C4)cc2)C1
REMARK SMILES IDX 22 1 21 2 19 3 20 4 18 6 8 7 9 8 82 9 10 10 6 11 7 12 5 13
REMARK SMILES IDX 2 14 1 15 3 16 4 17 11 18 12 19 13 20 17 21 14 22 16 23
REMARK SMILES IDX 15 24 23 25 24 26 25 27 26 28 27 30 28 31 29 32 81 33 30 34
REMARK SMILES IDX 80 35 31 36 32 37 33 38 74 39 34 40 79 41 73 42 75 43 35 44
REMARK SMILES IDX 78 45 72 46 71 47 36 49 62 50 45 51 61 52 46 53 49 54 60 55
REMARK SMILES IDX 76 56 47 57 48 58 59 60 77 61 50 62 37 63 38 64 43 65 39 66
REMARK SMILES IDX 40 67 42 68 44 69 41 70 63 71 64 72 69 73 65 74 66 75 68 76
REMARK SMILES IDX 70 77 67 78 51 79 52 80 57 81 53 82 54 83 56 84 58 85 55 86
REMARK H PARENT 21 5 25 29 75 48 49 59
REMARK Flexibility Score: inf
ROOT
ATOM      1  C   UNL     1      -0.833   4.729   3.338  1.00  0.00     0.117 C 
ENDROOT
BRANCH   1   2
ATOM      2  N   UNL     1      -0.352   6.086   3.586  1.00  0.00    -0.356 N 
ATOM      3  C   UNL     1       0.532   6.910   2.967  1.00  0.00     0.225 C 
ATOM      4  O   UNL     1       0.698   8.013   3.502  1.00  0.00    -0.275 OA
ATOM      5  H   UNL     1      -0.762   6.495   4.382  1.00  0.00     0.163 HD
BRANCH   3   6
ATOM      6  C   UNL     1       1.341   6.574   1.714  1.00  0.00     0.103 C 
ATOM      7  N   UNL     1       1.153   4.819   0.172  1.00  0.00    -0.307 N 
ATOM      8  C   UNL     1       2.552   4.836   0.542  1.00  0.00     0.128 C 
ATOM      9  C   UNL     1       0.505   6.053   0.547  1.00  0.00     0.137 C 
ATOM     10  C   UNL     1       2.575   5.625   1.852  1.00  0.00     0.027 C 
BRANCH   7  11
ATOM     11  C   UNL     1       0.463   3.790  -0.416  1.00  0.00     0.410 C 
ATOM     12  O   UNL     1      -0.638   3.932  -0.917  1.00  0.00    -0.224 OA
BRANCH  11  13
ATOM     13  O   UNL     1       1.121   2.613  -0.278  1.00  0.00    -0.444 OA
BRANCH  13  14
ATOM     14  C   UNL     1       0.589   1.365  -0.793  1.00  0.00     0.106 C 
ATOM     15  C   UNL     1       1.299   0.272   0.020  1.00  0.00     0.056 C 
ATOM     16  C   UNL     1       0.986   1.252  -2.264  1.00  0.00     0.056 C 
ATOM     17  C   UNL     1      -0.924   1.182  -0.603  1.00  0.00     0.056 C 
ENDBRANCH  13  14
ENDBRANCH  11  13
ENDBRANCH   7  11
BRANCH  10  18
ATOM     18  C   UNL     1       2.494   4.681   3.046  1.00  0.00     0.041 C 
BRANCH  18  19
ATOM     19  C   UNL     1       3.624   3.715   3.292  1.00  0.00    -0.048 A 
ATOM     20  C   UNL     1       3.387   2.336   3.164  1.00  0.00     0.004 A 
ATOM     21  C   UNL     1       4.867   4.150   3.759  1.00  0.00     0.004 A 
ATOM     22  C   UNL     1       4.366   1.409   3.513  1.00  0.00     0.000 A 
ATOM     23  C   UNL     1       5.847   3.219   4.109  1.00  0.00     0.000 A 
ATOM     24  C   UNL     1       5.595   1.851   3.992  1.00  0.00     0.000 A 
ENDBRANCH  18  19
ENDBRANCH  10  18
ENDBRANCH   3   6
ENDBRANCH   1   2
BRANCH   1  25
ATOM     25  C   UNL     1      -0.407   3.743   4.432  1.00  0.00     0.042 C 
BRANCH  25  26
ATOM     26  C   UNL     1      -1.066   3.954   5.785  1.00  0.00     0.118 C 
BRANCH  26  27
ATOM     27  N   UNL     1      -2.381   3.349   5.852  1.00  0.00    -0.352 N 
ATOM     28  C   UNL     1      -2.812   2.216   6.497  1.00  0.00     0.251 C 
ATOM     29  H   UNL     1      -3.081   3.830   5.353  1.00  0.00     0.163 HD
ATOM     30  O   UNL     1      -3.919   1.763   6.214  1.00  0.00    -0.269 OA
BRANCH  28  31
ATOM     31  C   UNL     1      -1.980   1.518   7.512  1.00  0.00     0.039 A 
ATOM     32  C   UNL     1      -2.092   0.126   7.613  1.00  0.00     0.014 A 
ATOM     33  C   UNL     1      -1.164   2.200   8.419  1.00  0.00     0.014 A 
ATOM     34  C   UNL     1      -1.373  -0.571   8.589  1.00  0.00     0.010 A 
ATOM     35  C   UNL     1      -0.371   1.496   9.328  1.00  0.00     0.010 A 
ATOM     36  C   UNL     1      -0.487   0.104   9.444  1.00  0.00    -0.014 A 
BRANCH  36  37
ATOM     37  C   UNL     1       0.287  -0.640  10.474  1.00  0.00     0.031 A 
ATOM     38  C   UNL     1       0.063  -0.384  11.941  1.00  0.00     0.074 A 
ATOM     39  C   UNL     1       1.205  -1.548  10.090  1.00  0.00     0.049 A 
ATOM     40  N   UNL     1       0.607  -0.974  12.978  1.00  0.00    -0.248 NA
ATOM     41  C   UNL     1      -0.876   0.691  12.293  1.00  0.00     0.031 C 
ATOM     42  C   UNL     1       1.562  -1.854   8.704  1.00  0.00     0.029 A 
ATOM     43  N   UNL     1       1.996  -2.390  10.831  1.00  0.00    -0.354 N 
ATOM     44  C   UNL     1       0.082  -0.338  14.097  1.00  0.00     0.074 A 
ATOM     45  C   UNL     1      -0.771   0.725  13.612  1.00  0.00     0.031 C 
ATOM     46  C   UNL     1       2.459  -2.853   8.692  1.00  0.00     0.029 A 
ATOM     47  C   UNL     1       2.763  -3.236  10.067  1.00  0.00     0.049 A 
ATOM     48  H   UNL     1       2.012  -2.389  11.815  1.00  0.00     0.167 HD
ATOM     49  C   UNL     1       0.266  -0.628  15.408  1.00  0.00     0.037 A 
ATOM     50  C   UNL     1       3.603  -4.222  10.432  1.00  0.00     0.037 A 
ATOM     51  C   UNL     1       1.104  -1.694  15.893  1.00  0.00     0.049 A 
ATOM     52  C   UNL     1       3.792  -4.529  11.890  1.00  0.00     0.074 A 
ATOM     53  C   UNL     1       1.317  -2.102  17.199  1.00  0.00     0.029 A 
ATOM     54  N   UNL     1       1.873  -2.521  15.088  1.00  0.00    -0.354 N 
ATOM     55  N   UNL     1       3.233  -3.966  12.934  1.00  0.00    -0.248 NA
ATOM     56  C   UNL     1       4.722  -5.619  12.218  1.00  0.00     0.031 C 
ATOM     57  C   UNL     1       2.248  -3.148  17.186  1.00  0.00     0.029 A 
ATOM     58  C   UNL     1       2.579  -3.423  15.869  1.00  0.00     0.049 A 
ATOM     59  H   UNL     1       1.912  -2.474  14.105  1.00  0.00     0.167 HD
ATOM     60  C   UNL     1       3.726  -4.645  14.041  1.00  0.00     0.074 A 
ATOM     61  C   UNL     1       4.612  -5.676  13.537  1.00  0.00     0.031 C 
ATOM     62  C   UNL     1       3.468  -4.435  15.356  1.00  0.00     0.037 A 
BRANCH  49  63
ATOM     63  C   UNL     1      -0.460   0.231  16.407  1.00  0.00     0.057 A 
ATOM     64  C   UNL     1      -1.855   0.189  16.543  1.00  0.00     0.134 A 
ATOM     65  C   UNL     1       0.241   1.111  17.241  1.00  0.00     0.134 A 
ATOM     66  F   UNL     1      -2.589  -0.623  15.767  1.00  0.00    -0.206 F 
ATOM     67  C   UNL     1      -2.529   1.020  17.439  1.00  0.00     0.040 A 
ATOM     68  C   UNL     1      -0.420   1.926  18.163  1.00  0.00     0.040 A 
ATOM     69  F   UNL     1       1.578   1.198  17.172  1.00  0.00    -0.206 F 
ATOM     70  C   UNL     1      -1.810   1.890  18.256  1.00  0.00     0.006 A 
ENDBRANCH  49  63
BRANCH  50  71
ATOM     71  C   UNL     1       4.283  -5.033   9.391  1.00  0.00     0.057 A 
ATOM     72  C   UNL     1       3.905  -6.360   9.157  1.00  0.00     0.134 A 
ATOM     73  C   UNL     1       5.310  -4.504   8.601  1.00  0.00     0.134 A 
ATOM     74  F   UNL     1       2.939  -6.927   9.895  1.00  0.00    -0.206 F 
ATOM     75  C   UNL     1       4.530  -7.137   8.181  1.00  0.00     0.040 A 
ATOM     76  C   UNL     1       5.929  -5.263   7.606  1.00  0.00     0.040 A 
ATOM     77  F   UNL     1       5.713  -3.237   8.773  1.00  0.00    -0.206 F 
ATOM     78  C   UNL     1       5.542  -6.585   7.397  1.00  0.00     0.006 A 
ENDBRANCH  50  71
BRANCH  62  79
ATOM     79  C   UNL     1       4.143  -5.353  16.334  1.00  0.00     0.057 A 
ATOM     80  C   UNL     1       5.521  -5.288  16.580  1.00  0.00     0.134 A 
ATOM     81  C   UNL     1       3.406  -6.315  17.037  1.00  0.00     0.134 A 
ATOM     82  F   UNL     1       6.286  -4.399  15.929  1.00  0.00    -0.206 F 
ATOM     83  C   UNL     1       6.147  -6.170  17.462  1.00  0.00     0.040 A 
ATOM     84  C   UNL     1       4.016  -7.184  17.943  1.00  0.00     0.040 A 
ATOM     85  F   UNL     1       2.081  -6.426  16.856  1.00  0.00    -0.206 F 
ATOM     86  C   UNL     1       5.393  -7.120  18.149  1.00  0.00     0.006 A 
ENDBRANCH  62  79
ENDBRANCH  36  37
ENDBRANCH  28  31
ENDBRANCH  26  27
ENDBRANCH  25  26
ENDBRANCH   1  25
TORSDOF 15
