REMARK SMILES O=C(NCCCNC(=O)[C@H]1Cc2c([nH]c3ccccc23)[C@@H](c2ccc(OC(F)(F)F)cc2)[NH2+]1)c1ccc(-c2c3nc(c(-c4c(F)cccc4F)c4ccc([nH]4)c(-c4c(F)cccc4F)c4nc(c(-c5c(F)cccc5F)c5ccc2[nH]5)C=C4)C=C3)cc1
REMARK SMILES IDX 5 1 4 2 3 3 1 4 2 5 34 7 35 8 87 9 36 10 86 11 37 12 38 13
REMARK SMILES IDX 39 14 80 15 40 16 85 17 79 18 81 19 41 20 84 21 78 22 77 23
REMARK SMILES IDX 42 25 68 26 51 27 67 28 52 29 55 30 66 31 82 32 53 33 54 34
REMARK SMILES IDX 65 36 83 37 56 38 43 39 44 40 49 41 45 42 46 43 48 44 50 45
REMARK SMILES IDX 47 46 69 47 70 48 75 49 71 50 72 51 74 52 76 53 73 54 57 55
REMARK SMILES IDX 58 56 63 57 59 58 60 59 62 60 64 61 61 62 6 63 7 64 8 65
REMARK SMILES IDX 9 67 10 68 11 69 33 70 12 71 21 72 13 75 20 76 14 77 15 78
REMARK SMILES IDX 19 79 16 81 18 82 17 83 22 84 23 85 32 86 24 87 31 88 25 89
REMARK SMILES IDX 26 90 27 91 28 92 29 93 30 94
REMARK H PARENT 3 6 81 24 55 35 7 66 33 73 33 74 14 80
REMARK Flexibility Score: inf
ROOT
ATOM      1  C   UNL     1       4.854  -2.604   0.571  1.00  0.00     0.042 C 
ENDROOT
BRANCH   1   2
ATOM      2  C   UNL     1       4.587  -1.403  -0.333  1.00  0.00     0.118 C 
BRANCH   2   3
ATOM      3  N   UNL     1       3.167  -1.108  -0.475  1.00  0.00    -0.352 N 
ATOM      4  O   UNL     1       1.219  -0.029  -0.149  1.00  0.00    -0.269 OA
ATOM      5  C   UNL     1       2.446  -0.000  -0.103  1.00  0.00     0.251 C 
ATOM      6  H   UNL     1       2.639  -1.818  -0.908  1.00  0.00     0.163 HD
BRANCH   5   7
ATOM      7  C   UNL     1       3.135   1.217   0.375  1.00  0.00     0.039 A 
ATOM      8  C   UNL     1       4.287   1.684  -0.259  1.00  0.00     0.014 A 
ATOM      9  C   UNL     1       2.604   1.916   1.463  1.00  0.00     0.014 A 
ATOM     10  C   UNL     1       4.999   2.742   0.294  1.00  0.00     0.010 A 
ATOM     11  C   UNL     1       3.270   3.039   1.960  1.00  0.00     0.010 A 
ATOM     12  C   UNL     1       4.497   3.436   1.407  1.00  0.00    -0.014 A 
BRANCH  12  13
ATOM     13  C   UNL     1       5.258   4.590   1.949  1.00  0.00     0.031 A 
ATOM     14  C   UNL     1       5.834   4.556   3.337  1.00  0.00     0.074 A 
ATOM     15  C   UNL     1       5.457   5.666   1.163  1.00  0.00     0.049 A 
ATOM     16  N   UNL     1       6.556   5.460   3.953  1.00  0.00    -0.248 NA
ATOM     17  C   UNL     1       5.560   3.358   4.144  1.00  0.00     0.031 C 
ATOM     18  C   UNL     1       4.941   5.820  -0.199  1.00  0.00     0.029 A 
ATOM     19  N   UNL     1       6.161   6.821   1.385  1.00  0.00    -0.354 N 
ATOM     20  C   UNL     1       6.800   4.953   5.223  1.00  0.00     0.074 A 
ATOM     21  C   UNL     1       6.127   3.674   5.301  1.00  0.00     0.031 C 
ATOM     22  C   UNL     1       5.391   6.974  -0.711  1.00  0.00     0.029 A 
ATOM     23  C   UNL     1       6.174   7.669   0.305  1.00  0.00     0.049 A 
ATOM     24  H   UNL     1       6.614   7.022   2.235  1.00  0.00     0.167 HD
ATOM     25  C   UNL     1       7.525   5.500   6.229  1.00  0.00     0.037 A 
ATOM     26  C   UNL     1       6.746   8.876   0.149  1.00  0.00     0.037 A 
ATOM     27  C   UNL     1       8.206   6.767   6.142  1.00  0.00     0.049 A 
ATOM     28  C   UNL     1       7.523   9.470   1.287  1.00  0.00     0.074 A 
ATOM     29  C   UNL     1       9.002   7.386   7.091  1.00  0.00     0.029 A 
ATOM     30  N   UNL     1       8.166   7.613   5.043  1.00  0.00    -0.354 N 
ATOM     31  N   UNL     1       7.780   8.960   2.467  1.00  0.00    -0.248 NA
ATOM     32  C   UNL     1       8.089  10.807   1.070  1.00  0.00     0.031 C 
ATOM     33  C   UNL     1       9.401   8.629   6.586  1.00  0.00     0.029 A 
ATOM     34  C   UNL     1       8.901   8.760   5.301  1.00  0.00     0.049 A 
ATOM     35  H   UNL     1       7.686   7.426   4.204  1.00  0.00     0.167 HD
ATOM     36  C   UNL     1       8.559   9.902   3.125  1.00  0.00     0.074 A 
ATOM     37  C   UNL     1       8.742  11.008   2.206  1.00  0.00     0.031 C 
ATOM     38  C   UNL     1       9.079   9.852   4.376  1.00  0.00     0.037 A 
BRANCH  25  39
ATOM     39  C   UNL     1       7.595   4.741   7.525  1.00  0.00     0.057 A 
ATOM     40  C   UNL     1       8.313   3.544   7.651  1.00  0.00     0.134 A 
ATOM     41  C   UNL     1       6.949   5.228   8.669  1.00  0.00     0.134 A 
ATOM     42  F   UNL     1       8.944   3.015   6.592  1.00  0.00    -0.206 F 
ATOM     43  C   UNL     1       8.361   2.845   8.859  1.00  0.00     0.040 A 
ATOM     44  C   UNL     1       7.013   4.551   9.889  1.00  0.00     0.040 A 
ATOM     45  F   UNL     1       6.250   6.372   8.623  1.00  0.00    -0.206 F 
ATOM     46  C   UNL     1       7.714   3.351   9.984  1.00  0.00     0.006 A 
ENDBRANCH  25  39
BRANCH  26  47
ATOM     47  C   UNL     1       6.614   9.590  -1.145  1.00  0.00     0.057 A 
ATOM     48  C   UNL     1       7.714   9.750  -1.994  1.00  0.00     0.134 A 
ATOM     49  C   UNL     1       5.386  10.109  -1.572  1.00  0.00     0.134 A 
ATOM     50  F   UNL     1       8.920   9.287  -1.632  1.00  0.00    -0.206 F 
ATOM     51  C   UNL     1       7.600  10.409  -3.219  1.00  0.00     0.040 A 
ATOM     52  C   UNL     1       5.252  10.747  -2.805  1.00  0.00     0.040 A 
ATOM     53  F   UNL     1       4.293   9.979  -0.805  1.00  0.00    -0.206 F 
ATOM     54  C   UNL     1       6.364  10.902  -3.631  1.00  0.00     0.006 A 
ENDBRANCH  26  47
BRANCH  38  55
ATOM     55  C   UNL     1       9.932  11.009   4.806  1.00  0.00     0.057 A 
ATOM     56  C   UNL     1       9.387  12.267   5.096  1.00  0.00     0.134 A 
ATOM     57  C   UNL     1      11.317  10.855   4.950  1.00  0.00     0.134 A 
ATOM     58  F   UNL     1       8.070  12.484   4.963  1.00  0.00    -0.206 F 
ATOM     59  C   UNL     1      10.193  13.337   5.488  1.00  0.00     0.040 A 
ATOM     60  C   UNL     1      12.129  11.910   5.367  1.00  0.00     0.040 A 
ATOM     61  F   UNL     1      11.901   9.675   4.694  1.00  0.00    -0.206 F 
ATOM     62  C   UNL     1      11.568  13.158   5.630  1.00  0.00     0.006 A 
ENDBRANCH  38  55
ENDBRANCH  12  13
ENDBRANCH   5   7
ENDBRANCH   2   3
ENDBRANCH   1   2
BRANCH   1  63
ATOM     63  C   UNL     1       4.305  -3.915   0.021  1.00  0.00     0.118 C 
BRANCH  63  64
ATOM     64  N   UNL     1       4.951  -4.277  -1.229  1.00  0.00    -0.351 N 
ATOM     65  C   UNL     1       5.870  -5.243  -1.516  1.00  0.00     0.278 C 
ATOM     66  H   UNL     1       4.678  -3.731  -2.002  1.00  0.00     0.163 HD
ATOM     67  O   UNL     1       6.303  -5.277  -2.670  1.00  0.00    -0.268 OA
BRANCH  65  68
ATOM     68  C   UNL     1       6.303  -6.240  -0.434  1.00  0.00     0.277 C 
ATOM     69  C   UNL     1       5.764  -7.630  -0.845  1.00  0.00     0.114 C 
ATOM     70  N   UNL     1       7.782  -6.248  -0.299  1.00  0.00    -0.325 N 
ATOM     71  C   UNL     1       6.260  -8.625   0.140  1.00  0.00    -0.006 A 
ATOM     72  C   UNL     1       8.274  -7.141   0.775  1.00  0.00     0.262 C 
ATOM     73  H   UNL     1       8.092  -5.298  -0.095  1.00  0.00     0.347 HD
ATOM     74  H   UNL     1       8.161  -6.600  -1.178  1.00  0.00     0.347 HD
ATOM     75  C   UNL     1       7.395  -8.363   0.882  1.00  0.00     0.083 A 
ATOM     76  C   UNL     1       5.785  -9.911   0.491  1.00  0.00     0.003 A 
ATOM     77  N   UNL     1       7.557  -9.401   1.763  1.00  0.00    -0.353 N 
ATOM     78  C   UNL     1       6.621 -10.383   1.506  1.00  0.00     0.046 A 
ATOM     79  C   UNL     1       4.732 -10.727   0.038  1.00  0.00     0.010 A 
ATOM     80  H   UNL     1       8.239  -9.440   2.472  1.00  0.00     0.166 HD
ATOM     81  C   UNL     1       6.454 -11.646   2.086  1.00  0.00     0.026 A 
ATOM     82  C   UNL     1       4.560 -11.995   0.601  1.00  0.00     0.001 A 
ATOM     83  C   UNL     1       5.410 -12.445   1.609  1.00  0.00     0.002 A 
BRANCH  72  84
ATOM     84  C   UNL     1       9.753  -7.439   0.521  1.00  0.00     0.016 A 
ATOM     85  C   UNL     1      10.217  -8.690   0.086  1.00  0.00     0.014 A 
ATOM     86  C   UNL     1      10.701  -6.410   0.664  1.00  0.00     0.014 A 
ATOM     87  C   UNL     1      11.575  -8.912  -0.153  1.00  0.00     0.047 A 
ATOM     88  C   UNL     1      12.059  -6.624   0.389  1.00  0.00     0.047 A 
ATOM     89  C   UNL     1      12.503  -7.880  -0.018  1.00  0.00     0.129 A 
BRANCH  89  90
ATOM     90  O   UNL     1      13.787  -8.238  -0.308  1.00  0.00    -0.406 OA
BRANCH  90  91
ATOM     91  C   UNL     1      14.740  -7.201  -0.456  1.00  0.00     0.573 C 
ATOM     92  F   UNL     1      14.362  -6.316  -1.402  1.00  0.00    -0.132 F 
ATOM     93  F   UNL     1      14.942  -6.555   0.713  1.00  0.00    -0.132 F 
ATOM     94  F   UNL     1      15.916  -7.748  -0.839  1.00  0.00    -0.132 F 
ENDBRANCH  90  91
ENDBRANCH  89  90
ENDBRANCH  72  84
ENDBRANCH  65  68
ENDBRANCH  63  64
ENDBRANCH   1  63
TORSDOF 13
