REMARK SMILES CCC1(CC)CCN(C(=O)NC(CC)(CC)C(=O)NCCCNC(=O)c2ccc(-c3c4nc(c(-c5c(F)cccc5F)c5ccc([nH]5)c(-c5c(F)cccc5F)c5nc(c(-c6c(F)cccc6F)c6ccc3[nH]6)C=C5)C=C4)cc2)CC1
REMARK SMILES IDX 21 1 20 2 19 3 17 4 18 5 12 7 11 8 3 9 6 10 81 11 7 12 80 13
REMARK SMILES IDX 8 14 9 15 10 16 2 18 1 19 4 20 5 21 13 22 14 23 15 24 16 25
REMARK SMILES IDX 22 26 23 27 24 28 25 30 26 31 27 32 79 33 28 34 78 35 29 36
REMARK SMILES IDX 30 37 31 38 72 39 32 40 77 41 71 42 73 43 33 44 76 45 70 46
REMARK SMILES IDX 69 47 34 49 60 50 43 51 59 52 44 53 47 54 58 55 74 56 45 57
REMARK SMILES IDX 46 58 57 60 75 61 48 62 35 63 36 64 41 65 37 66 38 67 40 68
REMARK SMILES IDX 42 69 39 70 61 71 62 72 67 73 63 74 64 75 66 76 68 77 65 78
REMARK SMILES IDX 49 79 50 80 55 81 51 82 52 83 54 84 56 85 53 86
REMARK H PARENT 19 6 11 17 23 29 73 48 47 59
REMARK Flexibility Score: inf
ROOT
ATOM      1  C   UNL     1      -2.425  -7.779  -1.534  1.00  0.00     0.042 C 
ENDROOT
BRANCH   1   2
ATOM      2  C   UNL     1      -2.062  -7.314  -2.943  1.00  0.00     0.117 C 
BRANCH   2   3
ATOM      3  N   UNL     1      -1.185  -6.155  -2.943  1.00  0.00    -0.354 N 
ATOM      4  C   UNL     1       0.096  -6.275  -2.449  1.00  0.00     0.245 C 
ATOM      5  O   UNL     1       0.251  -6.182  -1.234  1.00  0.00    -0.272 OA
ATOM      6  H   UNL     1      -1.504  -5.291  -3.293  1.00  0.00     0.163 HD
BRANCH   4   7
ATOM      7  C   UNL     1       1.246  -6.539  -3.469  1.00  0.00     0.120 C 
BRANCH   7   8
ATOM      8  N   UNL     1       2.421  -5.614  -3.407  1.00  0.00    -0.323 N 
ATOM      9  C   UNL     1       0.985  -2.035  -0.360  1.00  0.00    -0.027 C 
ATOM     10  C   UNL     1       2.499  -2.069  -0.726  1.00  0.00     0.028 C 
ATOM     11  C   UNL     1       0.268  -3.156  -1.183  1.00  0.00     0.028 C 
ATOM     12  C   UNL     1       2.775  -2.161  -2.237  1.00  0.00     0.122 C 
ATOM     13  C   UNL     1       0.640  -3.202  -2.666  1.00  0.00     0.122 C 
ATOM     14  N   UNL     1       2.072  -3.316  -2.809  1.00  0.00    -0.325 N 
ATOM     15  C   UNL     1       2.818  -4.345  -3.284  1.00  0.00     0.318 C 
ATOM     16  O   UNL     1       4.016  -4.186  -3.558  1.00  0.00    -0.249 OA
ATOM     17  H   UNL     1       3.231  -6.167  -3.492  1.00  0.00     0.166 HD
BRANCH   9  18
ATOM     18  C   UNL     1       0.312  -0.682  -0.731  1.00  0.00     0.004 C 
ATOM     19  C   UNL     1       0.784   0.573  -0.012  1.00  0.00     0.004 C 
ENDBRANCH   9  18
BRANCH   9  20
ATOM     20  C   UNL     1       0.775  -2.424   1.143  1.00  0.00     0.004 C 
ATOM     21  C   UNL     1       1.498  -1.624   2.217  1.00  0.00     0.004 C 
ENDBRANCH   9  20
ENDBRANCH   7   8
BRANCH   7  22
ATOM     22  C   UNL     1       0.725  -6.587  -4.944  1.00  0.00     0.035 C 
ATOM     23  C   UNL     1       1.490  -7.491  -5.907  1.00  0.00     0.007 C 
ENDBRANCH   7  22
BRANCH   7  24
ATOM     24  C   UNL     1       1.797  -7.947  -3.015  1.00  0.00     0.035 C 
ATOM     25  C   UNL     1       2.584  -7.960  -1.695  1.00  0.00     0.007 C 
ENDBRANCH   7  24
ENDBRANCH   4   7
ENDBRANCH   2   3
ENDBRANCH   1   2
BRANCH   1  26
ATOM     26  C   UNL     1      -2.986  -6.673  -0.646  1.00  0.00     0.118 C 
BRANCH  26  27
ATOM     27  N   UNL     1      -4.254  -6.160  -1.145  1.00  0.00    -0.352 N 
ATOM     28  C   UNL     1      -5.528  -6.370  -0.682  1.00  0.00     0.251 C 
ATOM     29  H   UNL     1      -4.187  -5.574  -1.933  1.00  0.00     0.163 HD
ATOM     30  O   UNL     1      -6.487  -6.054  -1.378  1.00  0.00    -0.269 OA
BRANCH  28  31
ATOM     31  C   UNL     1      -5.748  -6.988   0.642  1.00  0.00     0.039 A 
ATOM     32  C   UNL     1      -6.756  -7.945   0.778  1.00  0.00     0.014 A 
ATOM     33  C   UNL     1      -4.995  -6.601   1.754  1.00  0.00     0.014 A 
ATOM     34  C   UNL     1      -6.976  -8.547   2.018  1.00  0.00     0.010 A 
ATOM     35  C   UNL     1      -5.155  -7.264   2.967  1.00  0.00     0.010 A 
ATOM     36  C   UNL     1      -6.160  -8.230   3.117  1.00  0.00    -0.014 A 
BRANCH  36  37
ATOM     37  C   UNL     1      -6.368  -8.882   4.434  1.00  0.00     0.031 A 
ATOM     38  C   UNL     1      -6.799  -8.070   5.624  1.00  0.00     0.074 A 
ATOM     39  C   UNL     1      -6.136 -10.202   4.566  1.00  0.00     0.049 A 
ATOM     40  N   UNL     1      -7.038  -8.461   6.850  1.00  0.00    -0.248 NA
ATOM     41  C   UNL     1      -6.957  -6.622   5.416  1.00  0.00     0.031 C 
ATOM     42  C   UNL     1      -5.667 -11.090   3.502  1.00  0.00     0.029 A 
ATOM     43  N   UNL     1      -6.270 -11.027   5.654  1.00  0.00    -0.354 N 
ATOM     44  C   UNL     1      -7.362  -7.311   7.558  1.00  0.00     0.074 A 
ATOM     45  C   UNL     1      -7.228  -6.200   6.641  1.00  0.00     0.031 C 
ATOM     46  C   UNL     1      -5.597 -12.344   3.976  1.00  0.00     0.029 A 
ATOM     47  C   UNL     1      -5.984 -12.342   5.383  1.00  0.00     0.049 A 
ATOM     48  H   UNL     1      -6.545 -10.706   6.543  1.00  0.00     0.167 HD
ATOM     49  C   UNL     1      -7.761  -7.190   8.847  1.00  0.00     0.037 A 
ATOM     50  C   UNL     1      -6.041 -13.426   6.179  1.00  0.00     0.037 A 
ATOM     51  C   UNL     1      -7.912  -8.298   9.754  1.00  0.00     0.049 A 
ATOM     52  C   UNL     1      -6.484 -13.268   7.606  1.00  0.00     0.074 A 
ATOM     53  C   UNL     1      -8.361  -8.290  11.062  1.00  0.00     0.029 A 
ATOM     54  N   UNL     1      -7.610  -9.616   9.443  1.00  0.00    -0.354 N 
ATOM     55  N   UNL     1      -6.857 -12.184   8.243  1.00  0.00    -0.248 NA
ATOM     56  C   UNL     1      -6.522 -14.489   8.422  1.00  0.00     0.031 C 
ATOM     57  C   UNL     1      -8.294  -9.598  11.557  1.00  0.00     0.029 A 
ATOM     58  C   UNL     1      -7.847 -10.427  10.541  1.00  0.00     0.049 A 
ATOM     59  H   UNL     1      -7.278  -9.929   8.571  1.00  0.00     0.167 HD
ATOM     60  C   UNL     1      -7.206 -12.597   9.522  1.00  0.00     0.074 A 
ATOM     61  C   UNL     1      -7.011 -14.032   9.565  1.00  0.00     0.031 C 
ATOM     62  C   UNL     1      -7.651 -11.855  10.567  1.00  0.00     0.037 A 
BRANCH  49  63
ATOM     63  C   UNL     1      -8.059  -5.804   9.344  1.00  0.00     0.057 A 
ATOM     64  C   UNL     1      -9.168  -5.077   8.887  1.00  0.00     0.134 A 
ATOM     65  C   UNL     1      -7.230  -5.186  10.288  1.00  0.00     0.134 A 
ATOM     66  F   UNL     1      -9.996  -5.603   7.971  1.00  0.00    -0.206 F 
ATOM     67  C   UNL     1      -9.417  -3.773   9.320  1.00  0.00     0.040 A 
ATOM     68  C   UNL     1      -7.486  -3.894  10.751  1.00  0.00     0.040 A 
ATOM     69  F   UNL     1      -6.155  -5.825  10.773  1.00  0.00    -0.206 F 
ATOM     70  C   UNL     1      -8.576  -3.180  10.258  1.00  0.00     0.006 A 
ENDBRANCH  49  63
BRANCH  50  71
ATOM     71  C   UNL     1      -5.727 -14.767   5.628  1.00  0.00     0.057 A 
ATOM     72  C   UNL     1      -6.741 -15.712   5.425  1.00  0.00     0.134 A 
ATOM     73  C   UNL     1      -4.421 -15.139   5.293  1.00  0.00     0.134 A 
ATOM     74  F   UNL     1      -8.010 -15.418   5.744  1.00  0.00    -0.206 F 
ATOM     75  C   UNL     1      -6.465 -16.985   4.925  1.00  0.00     0.040 A 
ATOM     76  C   UNL     1      -4.133 -16.401   4.770  1.00  0.00     0.040 A 
ATOM     77  F   UNL     1      -3.408 -14.276   5.457  1.00  0.00    -0.206 F 
ATOM     78  C   UNL     1      -5.157 -17.330   4.591  1.00  0.00     0.006 A 
ENDBRANCH  50  71
BRANCH  62  79
ATOM     79  C   UNL     1      -7.994 -12.594  11.828  1.00  0.00     0.057 A 
ATOM     80  C   UNL     1      -7.009 -13.158  12.649  1.00  0.00     0.134 A 
ATOM     81  C   UNL     1      -9.329 -12.736  12.227  1.00  0.00     0.134 A 
ATOM     82  F   UNL     1      -5.713 -13.070  12.315  1.00  0.00    -0.206 F 
ATOM     83  C   UNL     1      -7.342 -13.867  13.805  1.00  0.00     0.040 A 
ATOM     84  C   UNL     1      -9.672 -13.418  13.395  1.00  0.00     0.040 A 
ATOM     85  F   UNL     1     -10.320 -12.212  11.491  1.00  0.00    -0.206 F 
ATOM     86  C   UNL     1      -8.678 -13.994  14.182  1.00  0.00     0.006 A 
ENDBRANCH  62  79
ENDBRANCH  36  37
ENDBRANCH  28  31
ENDBRANCH  26  27
ENDBRANCH   1  26
TORSDOF 15
