REMARK SMILES Cc1cc(Br)cc(C(=O)NCCCNC(=O)c2ccc(-c3c4nc(c(-c5c(F)cccc5F)c5ccc([nH]5)c(-c5c(F)cccc5F)c5nc(c(-c6c(F)cccc6F)c6ccc3[nH]6)C=C5)C=C4)cc2)c1Br
REMARK SMILES IDX 13 1 12 2 11 3 10 4 8 5 9 6 7 8 1 9 2 10 3 11 71 12 4 13
REMARK SMILES IDX 72 14 5 15 6 16 14 17 15 18 16 20 17 21 18 22 70 23 19 24
REMARK SMILES IDX 69 25 20 26 21 27 22 28 63 29 23 30 68 31 62 32 64 33 24 34
REMARK SMILES IDX 67 35 61 36 60 37 25 39 51 40 34 41 50 42 35 43 38 44 49 45
REMARK SMILES IDX 65 46 36 47 37 48 48 50 66 51 39 52 26 53 27 54 32 55 28 56
REMARK SMILES IDX 29 57 31 58 33 59 30 60 52 61 53 62 58 63 54 64 55 65 57 66
REMARK SMILES IDX 59 67 56 68 40 69 41 70 46 71 42 72 43 73 45 74 47 75 44 76
REMARK H PARENT 10 7 14 19 64 38 38 49
REMARK Flexibility Score: inf
ROOT
ATOM      1  C   UNL     1       5.352   4.573  -2.366  1.00  0.00     0.118 C 
ENDROOT
BRANCH   1   2
ATOM      2  C   UNL     1       4.448   3.532  -1.720  1.00  0.00     0.042 C 
BRANCH   2   3
ATOM      3  C   UNL     1       3.926   3.919  -0.332  1.00  0.00     0.118 C 
BRANCH   3   4
ATOM      4  N   UNL     1       2.754   4.760  -0.468  1.00  0.00    -0.352 N 
ATOM      5  C   UNL     1       1.400   4.579  -0.451  1.00  0.00     0.252 C 
ATOM      6  O   UNL     1       0.763   5.594  -0.767  1.00  0.00    -0.269 OA
ATOM      7  H   UNL     1       2.995   5.703  -0.610  1.00  0.00     0.163 HD
BRANCH   5   8
ATOM      8  C   UNL     1       0.607   3.383  -0.004  1.00  0.00     0.055 A 
ATOM      9  C   UNL     1       0.089  -0.443   0.247  1.00  0.00     0.045 C 
ATOM     10  C   UNL     1      -0.125   1.052   0.325  1.00  0.00    -0.035 A 
ATOM     11  C   UNL     1      -1.337   1.496   0.870  1.00  0.00     0.020 A 
ATOM     12  C   UNL     1       0.821   1.999  -0.172  1.00  0.00     0.033 A 
ATOM     13  C   UNL     1      -1.590   2.852   0.976  1.00  0.00     0.019 A 
ATOM     14  Br  UNL     1       2.201   1.256  -1.246  1.00  0.00    -0.050 Br
ATOM     15  Br  UNL     1      -3.265   3.446   1.618  1.00  0.00    -0.051 Br
ATOM     16  C   UNL     1      -0.625   3.774   0.582  1.00  0.00     0.030 A 
ENDBRANCH   5   8
ENDBRANCH   3   4
ENDBRANCH   2   3
ENDBRANCH   1   2
BRANCH   1  17
ATOM     17  N   UNL     1       6.711   4.513  -1.845  1.00  0.00    -0.352 N 
ATOM     18  C   UNL     1       7.869   4.072  -2.441  1.00  0.00     0.251 C 
ATOM     19  H   UNL     1       6.816   4.840  -0.922  1.00  0.00     0.163 HD
ATOM     20  O   UNL     1       8.865   3.866  -1.751  1.00  0.00    -0.269 OA
BRANCH  18  21
ATOM     21  C   UNL     1       7.922   3.820  -3.900  1.00  0.00     0.039 A 
ATOM     22  C   UNL     1       7.293   4.680  -4.800  1.00  0.00     0.014 A 
ATOM     23  C   UNL     1       8.636   2.716  -4.380  1.00  0.00     0.014 A 
ATOM     24  C   UNL     1       7.218   4.341  -6.147  1.00  0.00     0.010 A 
ATOM     25  C   UNL     1       8.645   2.432  -5.750  1.00  0.00     0.010 A 
ATOM     26  C   UNL     1       7.894   3.215  -6.641  1.00  0.00    -0.014 A 
BRANCH  26  27
ATOM     27  C   UNL     1       7.794   2.873  -8.084  1.00  0.00     0.031 A 
ATOM     28  C   UNL     1       7.163   1.579  -8.524  1.00  0.00     0.074 A 
ATOM     29  C   UNL     1       8.229   3.756  -9.005  1.00  0.00     0.049 A 
ATOM     30  N   UNL     1       7.015   1.099  -9.734  1.00  0.00    -0.248 NA
ATOM     31  C   UNL     1       6.633   0.704  -7.466  1.00  0.00     0.031 C 
ATOM     32  C   UNL     1       8.843   5.052  -8.708  1.00  0.00     0.029 A 
ATOM     33  N   UNL     1       8.205   3.709 -10.376  1.00  0.00    -0.354 N 
ATOM     34  C   UNL     1       6.404  -0.140  -9.581  1.00  0.00     0.074 A 
ATOM     35  C   UNL     1       6.230  -0.351  -8.160  1.00  0.00     0.031 C 
ATOM     36  C   UNL     1       9.091   5.696  -9.857  1.00  0.00     0.029 A 
ATOM     37  C   UNL     1       8.725   4.831 -10.972  1.00  0.00     0.049 A 
ATOM     38  H   UNL     1       7.848   2.944 -10.883  1.00  0.00     0.167 HD
ATOM     39  C   UNL     1       6.015  -1.017 -10.538  1.00  0.00     0.037 A 
ATOM     40  C   UNL     1       8.914   5.122 -12.272  1.00  0.00     0.037 A 
ATOM     41  C   UNL     1       6.167  -0.792 -11.953  1.00  0.00     0.049 A 
ATOM     42  C   UNL     1       8.519   4.112 -13.310  1.00  0.00     0.074 A 
ATOM     43  C   UNL     1       5.787  -1.609 -13.004  1.00  0.00     0.029 A 
ATOM     44  N   UNL     1       6.745   0.337 -12.514  1.00  0.00    -0.354 N 
ATOM     45  N   UNL     1       7.946   2.944 -13.149  1.00  0.00    -0.248 NA
ATOM     46  C   UNL     1       8.810   4.455 -14.708  1.00  0.00     0.031 C 
ATOM     47  C   UNL     1       6.173  -0.992 -14.200  1.00  0.00     0.029 A 
ATOM     48  C   UNL     1       6.753   0.229 -13.896  1.00  0.00     0.049 A 
ATOM     49  H   UNL     1       7.099   1.103 -12.006  1.00  0.00     0.167 HD
ATOM     50  C   UNL     1       7.797   2.417 -14.424  1.00  0.00     0.074 A 
ATOM     51  C   UNL     1       8.319   3.404 -15.348  1.00  0.00     0.031 C 
ATOM     52  C   UNL     1       7.279   1.221 -14.797  1.00  0.00     0.037 A 
BRANCH  39  53
ATOM     53  C   UNL     1       5.411  -2.315 -10.083  1.00  0.00     0.057 A 
ATOM     54  C   UNL     1       6.117  -3.517 -10.226  1.00  0.00     0.134 A 
ATOM     55  C   UNL     1       4.128  -2.383  -9.524  1.00  0.00     0.134 A 
ATOM     56  F   UNL     1       7.347  -3.525 -10.759  1.00  0.00    -0.206 F 
ATOM     57  C   UNL     1       5.570  -4.738  -9.827  1.00  0.00     0.040 A 
ATOM     58  C   UNL     1       3.580  -3.596  -9.098  1.00  0.00     0.040 A 
ATOM     59  F   UNL     1       3.404  -1.268  -9.347  1.00  0.00    -0.206 F 
ATOM     60  C   UNL     1       4.300  -4.779  -9.254  1.00  0.00     0.006 A 
ENDBRANCH  39  53
BRANCH  40  61
ATOM     61  C   UNL     1       9.532   6.414 -12.662  1.00  0.00     0.057 A 
ATOM     62  C   UNL     1      10.875   6.692 -12.380  1.00  0.00     0.134 A 
ATOM     63  C   UNL     1       8.795   7.400 -13.327  1.00  0.00     0.134 A 
ATOM     64  F   UNL     1      11.634   5.790 -11.740  1.00  0.00    -0.206 F 
ATOM     65  C   UNL     1      11.460   7.909 -12.732  1.00  0.00     0.040 A 
ATOM     66  C   UNL     1       9.375   8.611 -13.710  1.00  0.00     0.040 A 
ATOM     67  F   UNL     1       7.510   7.185 -13.643  1.00  0.00    -0.206 F 
ATOM     68  C   UNL     1      10.710   8.870 -13.406  1.00  0.00     0.006 A 
ENDBRANCH  40  61
BRANCH  52  69
ATOM     69  C   UNL     1       7.232   0.935 -16.268  1.00  0.00     0.057 A 
ATOM     70  C   UNL     1       6.014   0.954 -16.960  1.00  0.00     0.134 A 
ATOM     71  C   UNL     1       8.388   0.629 -16.997  1.00  0.00     0.134 A 
ATOM     72  F   UNL     1       4.870   1.235 -16.318  1.00  0.00    -0.206 F 
ATOM     73  C   UNL     1       5.948   0.679 -18.326  1.00  0.00     0.040 A 
ATOM     74  C   UNL     1       8.338   0.377 -18.369  1.00  0.00     0.040 A 
ATOM     75  F   UNL     1       9.587   0.613 -16.395  1.00  0.00    -0.206 F 
ATOM     76  C   UNL     1       7.114   0.396 -19.035  1.00  0.00     0.006 A 
ENDBRANCH  52  69
ENDBRANCH  26  27
ENDBRANCH  18  21
ENDBRANCH   1  17
TORSDOF 10
