REMARK SMILES CC(C)N(c1cc2c(cc1Cl)C=C(C(=O)NCCCNC(=O)c1ccc(-c3c4nc(c(-c5c(F)cccc5F)c5ccc([nH]5)c(-c5c(F)cccc5F)c5nc(c(-c6c(F)cccc6F)c6ccc3[nH]6)C=C5)C=C4)cc1)[C@@H](C(F)(F)F)O2)C(C)C
REMARK SMILES IDX 18 1 17 2 16 3 14 4 15 5 13 7 5 8 6 9 10 10 7 11 9 12 11 13
REMARK SMILES IDX 8 14 82 15 12 16 77 17 4 18 2 19 1 20 3 21 83 22 84 23 85 24
REMARK SMILES IDX 78 25 79 26 80 27 81 28 19 29 20 30 21 31 22 33 23 34 24 35
REMARK SMILES IDX 76 36 25 37 75 38 26 39 27 40 28 41 69 42 29 43 74 44 68 45
REMARK SMILES IDX 70 46 30 47 73 48 67 49 66 50 31 52 57 53 40 54 56 55 41 56
REMARK SMILES IDX 44 57 55 58 71 59 42 60 43 61 54 63 72 64 45 65 32 66 33 67
REMARK SMILES IDX 38 68 34 69 35 70 37 71 39 72 36 73 58 74 59 75 64 76 60 77
REMARK SMILES IDX 61 78 63 79 65 80 62 81 46 82 47 83 52 84 48 85 49 86 51 87
REMARK SMILES IDX 53 88 50 89
REMARK H PARENT 16 6 20 32 70 51 44 62
REMARK Flexibility Score: inf
ROOT
ATOM      1  C   UNL     1      -7.458   6.389   3.392  1.00  0.00     0.042 C 
ENDROOT
BRANCH   1   2
ATOM      2  C   UNL     1      -7.622   6.177   1.895  1.00  0.00     0.118 C 
BRANCH   2   3
ATOM      3  N   UNL     1      -6.723   7.024   1.128  1.00  0.00    -0.352 N 
ATOM      4  C   UNL     1      -5.575   6.877   0.427  1.00  0.00     0.251 C 
ATOM      5  O   UNL     1      -5.134   7.915  -0.076  1.00  0.00    -0.270 OA
ATOM      6  H   UNL     1      -7.034   7.958   1.114  1.00  0.00     0.163 HD
BRANCH   4   7
ATOM      7  C   UNL     1      -4.844   5.593   0.236  1.00  0.00     0.067 C 
ATOM      8  C   UNL     1      -1.538   2.007  -1.143  1.00  0.00     0.060 A 
ATOM      9  C   UNL     1      -2.533   2.126  -0.153  1.00  0.00     0.074 A 
ATOM     10  C   UNL     1      -1.281   3.160  -1.925  1.00  0.00     0.065 A 
ATOM     11  C   UNL     1      -3.254   3.306   0.021  1.00  0.00     0.130 A 
ATOM     12  C   UNL     1      -1.971   4.364  -1.706  1.00  0.00     0.034 A 
ATOM     13  Cl  UNL     1      -0.180   3.165  -3.264  1.00  0.00    -0.082 Cl
ATOM     14  C   UNL     1      -2.968   4.436  -0.737  1.00  0.00     0.019 A 
ATOM     15  O   UNL     1      -4.231   3.300   0.978  1.00  0.00    -0.475 OA
ATOM     16  C   UNL     1      -3.712   5.665  -0.490  1.00  0.00     0.025 C 
ATOM     17  C   UNL     1      -5.303   4.263   0.765  1.00  0.00     0.314 C 
BRANCH   8  18
ATOM     18  N   UNL     1      -0.884   0.769  -1.307  1.00  0.00    -0.365 N 
BRANCH  18  19
ATOM     19  C   UNL     1       0.590   0.766  -1.177  1.00  0.00     0.076 C 
ATOM     20  C   UNL     1       1.072   0.140   0.132  1.00  0.00     0.030 C 
ATOM     21  C   UNL     1       1.300   0.138  -2.373  1.00  0.00     0.030 C 
ENDBRANCH  18  19
BRANCH  18  22
ATOM     22  C   UNL     1      -1.755  -0.423  -1.440  1.00  0.00     0.076 C 
ATOM     23  C   UNL     1      -1.572  -1.141  -2.773  1.00  0.00     0.030 C 
ATOM     24  C   UNL     1      -1.651  -1.393  -0.267  1.00  0.00     0.030 C 
ENDBRANCH  18  22
ENDBRANCH   8  18
BRANCH  17  25
ATOM     25  C   UNL     1      -6.412   3.632  -0.103  1.00  0.00     0.429 C 
ATOM     26  F   UNL     1      -7.059   2.662   0.592  1.00  0.00    -0.167 F 
ATOM     27  F   UNL     1      -7.356   4.531  -0.472  1.00  0.00    -0.167 F 
ATOM     28  F   UNL     1      -5.942   3.073  -1.239  1.00  0.00    -0.167 F 
ENDBRANCH  17  25
ENDBRANCH   4   7
ENDBRANCH   2   3
ENDBRANCH   1   2
BRANCH   1  29
ATOM     29  C   UNL     1      -8.138   7.663   3.875  1.00  0.00     0.118 C 
BRANCH  29  30
ATOM     30  N   UNL     1      -9.593   7.590   3.762  1.00  0.00    -0.352 N 
ATOM     31  C   UNL     1     -10.564   7.572   4.734  1.00  0.00     0.251 C 
ATOM     32  H   UNL     1      -9.934   7.546   2.839  1.00  0.00     0.163 HD
ATOM     33  O   UNL     1     -11.720   7.283   4.439  1.00  0.00    -0.269 OA
BRANCH  31  34
ATOM     34  C   UNL     1     -10.215   7.881   6.135  1.00  0.00     0.039 A 
ATOM     35  C   UNL     1      -9.312   8.902   6.426  1.00  0.00     0.014 A 
ATOM     36  C   UNL     1     -10.794   7.142   7.171  1.00  0.00     0.014 A 
ATOM     37  C   UNL     1      -8.832   9.046   7.719  1.00  0.00     0.010 A 
ATOM     38  C   UNL     1     -10.395   7.369   8.492  1.00  0.00     0.010 A 
ATOM     39  C   UNL     1      -9.370   8.286   8.770  1.00  0.00    -0.014 A 
BRANCH  39  40
ATOM     40  C   UNL     1      -8.833   8.482  10.141  1.00  0.00     0.031 A 
ATOM     41  C   UNL     1      -8.145   7.360  10.869  1.00  0.00     0.074 A 
ATOM     42  C   UNL     1      -8.900   9.708  10.696  1.00  0.00     0.049 A 
ATOM     43  N   UNL     1      -7.586   7.367  12.054  1.00  0.00    -0.248 NA
ATOM     44  C   UNL     1      -8.080   6.058  10.188  1.00  0.00     0.031 C 
ATOM     45  C   UNL     1      -9.541  10.876  10.085  1.00  0.00     0.029 A 
ATOM     46  N   UNL     1      -8.396  10.188  11.876  1.00  0.00    -0.354 N 
ATOM     47  C   UNL     1      -7.131   6.072  12.270  1.00  0.00     0.074 A 
ATOM     48  C   UNL     1      -7.498   5.297  11.105  1.00  0.00     0.031 C 
ATOM     49  C   UNL     1      -9.329  11.950  10.860  1.00  0.00     0.029 A 
ATOM     50  C   UNL     1      -8.607  11.533  12.055  1.00  0.00     0.049 A 
ATOM     51  H   UNL     1      -7.928   9.623  12.533  1.00  0.00     0.167 HD
ATOM     52  C   UNL     1      -6.460   5.577  13.337  1.00  0.00     0.037 A 
ATOM     53  C   UNL     1      -8.269  12.342  13.075  1.00  0.00     0.037 A 
ATOM     54  C   UNL     1      -6.070   6.359  14.483  1.00  0.00     0.049 A 
ATOM     55  C   UNL     1      -7.542  11.763  14.251  1.00  0.00     0.074 A 
ATOM     56  C   UNL     1      -5.368   5.955  15.606  1.00  0.00     0.029 A 
ATOM     57  N   UNL     1      -6.347   7.708  14.649  1.00  0.00    -0.354 N 
ATOM     58  N   UNL     1      -7.119  10.536  14.438  1.00  0.00    -0.248 NA
ATOM     59  C   UNL     1      -7.257  12.677  15.364  1.00  0.00     0.031 C 
ATOM     60  C   UNL     1      -5.253   7.052  16.468  1.00  0.00     0.029 A 
ATOM     61  C   UNL     1      -5.846   8.148  15.863  1.00  0.00     0.049 A 
ATOM     62  H   UNL     1      -6.828   8.270  14.000  1.00  0.00     0.167 HD
ATOM     63  C   UNL     1      -6.515  10.531  15.687  1.00  0.00     0.074 A 
ATOM     64  C   UNL     1      -6.599  11.885  16.197  1.00  0.00     0.031 C 
ATOM     65  C   UNL     1      -5.949   9.498  16.356  1.00  0.00     0.037 A 
BRANCH  52  66
ATOM     66  C   UNL     1      -6.122   4.114  13.326  1.00  0.00     0.057 A 
ATOM     67  C   UNL     1      -6.786   3.224  14.179  1.00  0.00     0.134 A 
ATOM     68  C   UNL     1      -5.123   3.589  12.495  1.00  0.00     0.134 A 
ATOM     69  F   UNL     1      -7.749   3.661  15.003  1.00  0.00    -0.206 F 
ATOM     70  C   UNL     1      -6.468   1.865  14.208  1.00  0.00     0.040 A 
ATOM     71  C   UNL     1      -4.813   2.227  12.498  1.00  0.00     0.040 A 
ATOM     72  F   UNL     1      -4.460   4.385  11.643  1.00  0.00    -0.206 F 
ATOM     73  C   UNL     1      -5.483   1.362  13.361  1.00  0.00     0.006 A 
ENDBRANCH  52  66
BRANCH  53  74
ATOM     74  C   UNL     1      -8.635  13.779  13.033  1.00  0.00     0.057 A 
ATOM     75  C   UNL     1      -9.971  14.191  13.118  1.00  0.00     0.134 A 
ATOM     76  C   UNL     1      -7.660  14.774  12.907  1.00  0.00     0.134 A 
ATOM     77  F   UNL     1     -10.953  13.285  13.234  1.00  0.00    -0.206 F 
ATOM     78  C   UNL     1     -10.325  15.539  13.065  1.00  0.00     0.040 A 
ATOM     79  C   UNL     1      -7.997  16.128  12.880  1.00  0.00     0.040 A 
ATOM     80  F   UNL     1      -6.362  14.442  12.839  1.00  0.00    -0.206 F 
ATOM     81  C   UNL     1      -9.335  16.513  12.954  1.00  0.00     0.006 A 
ENDBRANCH  53  74
BRANCH  65  82
ATOM     82  C   UNL     1      -5.370   9.807  17.704  1.00  0.00     0.057 A 
ATOM     83  C   UNL     1      -3.984   9.855  17.893  1.00  0.00     0.134 A 
ATOM     84  C   UNL     1      -6.186  10.057  18.814  1.00  0.00     0.134 A 
ATOM     85  F   UNL     1      -3.148   9.619  16.870  1.00  0.00    -0.206 F 
ATOM     86  C   UNL     1      -3.429  10.146  19.139  1.00  0.00     0.040 A 
ATOM     87  C   UNL     1      -5.644  10.374  20.060  1.00  0.00     0.040 A 
ATOM     88  F   UNL     1      -7.523  10.044  18.693  1.00  0.00    -0.206 F 
ATOM     89  C   UNL     1      -4.260  10.415  20.225  1.00  0.00     0.006 A 
ENDBRANCH  65  82
ENDBRANCH  39  40
ENDBRANCH  31  34
ENDBRANCH  29  30
ENDBRANCH   1  29
TORSDOF 14
