REMARK SMILES COc1cc(/C=N/NC(=O)c2cccnc2)ccc1OCC(=O)NCCCNC(=O)c1ccc(-c2c3nc(c(-c4c(F)cccc4F)c4ccc([nH]4)c(-c4c(F)cccc4F)c4nc(c(-c5c(F)cccc5F)c5ccc2[nH]5)C=C4)C=C3)cc1
REMARK SMILES IDX 22 1 23 2 24 3 21 5 20 6 19 7 3 8 4 9 5 10 18 11 17 12 2 13
REMARK SMILES IDX 1 14 6 15 7 16 8 17 9 18 10 20 11 21 12 22 16 23 13 24 15 25
REMARK SMILES IDX 14 26 25 27 26 28 27 29 28 30 29 31 30 33 31 34 32 35 84 36
REMARK SMILES IDX 33 37 83 38 34 39 35 40 36 41 77 42 37 43 82 44 76 45 78 46
REMARK SMILES IDX 38 47 81 48 75 49 74 50 39 52 65 53 48 54 64 55 49 56 52 57
REMARK SMILES IDX 63 58 79 59 50 60 51 61 62 63 80 64 53 65 40 66 41 67 46 68
REMARK SMILES IDX 42 69 43 70 45 71 47 72 44 73 66 74 67 75 72 76 68 77 69 78
REMARK SMILES IDX 71 79 73 80 70 81 54 82 55 83 60 84 56 85 57 86 59 87 61 88
REMARK SMILES IDX 58 89
REMARK H PARENT 24 4 8 19 28 32 78 51 52 62
REMARK Flexibility Score: inf
ROOT
ATOM      1  C   UNL     1       2.239  -0.918   0.945  1.00  0.00     0.257 C 
ATOM      2  O   UNL     1       1.349  -1.518   0.340  1.00  0.00    -0.271 OA
ATOM      3  N   UNL     1       2.453  -1.255   2.251  1.00  0.00    -0.353 N 
ATOM      4  H   UNL     1       1.759  -1.815   2.667  1.00  0.00     0.163 HD
ENDROOT
BRANCH   1   5
ATOM      5  C   UNL     1       3.139   0.123   0.265  1.00  0.00     0.329 C 
BRANCH   5   6
ATOM      6  O   UNL     1       3.335   1.353   0.943  1.00  0.00    -0.480 OA
BRANCH   6   7
ATOM      7  C   UNL     1       2.283   2.206   1.133  1.00  0.00     0.161 A 
ATOM      8  C   UNL     1       1.079   2.280   0.420  1.00  0.00     0.161 A 
ATOM      9  C   UNL     1       0.133   3.266   0.742  1.00  0.00     0.060 A 
ATOM     10  C   UNL     1       0.372   4.148   1.800  1.00  0.00    -0.002 A 
ATOM     11  C   UNL     1       2.514   3.121   2.172  1.00  0.00     0.051 A 
ATOM     12  C   UNL     1       1.559   4.074   2.525  1.00  0.00     0.014 A 
BRANCH   8  13
ATOM     13  O   UNL     1       0.880   1.487  -0.677  1.00  0.00    -0.493 OA
ATOM     14  C   UNL     1      -0.337   0.741  -0.622  1.00  0.00     0.278 C 
ENDBRANCH   8  13
BRANCH  10  15
ATOM     15  C   UNL     1      -0.567   5.239   2.119  1.00  0.00     0.141 C 
ATOM     16  N   UNL     1      -1.354   5.733   1.217  1.00  0.00    -0.180 NA
BRANCH  16  17
ATOM     17  N   UNL     1      -2.081   6.846   1.538  1.00  0.00    -0.243 N 
ATOM     18  C   UNL     1      -1.691   8.006   2.188  1.00  0.00     0.272 C 
ATOM     19  H   UNL     1      -3.026   6.819   1.265  1.00  0.00     0.194 HD
ATOM     20  O   UNL     1      -2.511   8.890   2.433  1.00  0.00    -0.267 OA
BRANCH  18  21
ATOM     21  C   UNL     1      -0.292   8.214   2.604  1.00  0.00     0.059 A 
ATOM     22  C   UNL     1       0.802   7.944   1.781  1.00  0.00     0.017 A 
ATOM     23  C   UNL     1      -0.051   8.680   3.889  1.00  0.00     0.124 A 
ATOM     24  C   UNL     1       2.089   8.080   2.299  1.00  0.00     0.021 A 
ATOM     25  N   UNL     1       1.190   8.814   4.417  1.00  0.00    -0.264 NA
ATOM     26  C   UNL     1       2.231   8.505   3.611  1.00  0.00     0.111 A 
ENDBRANCH  18  21
ENDBRANCH  16  17
ENDBRANCH  10  15
ENDBRANCH   6   7
ENDBRANCH   5   6
ENDBRANCH   1   5
BRANCH   3  27
ATOM     27  C   UNL     1       3.567  -0.896   3.105  1.00  0.00     0.117 C 
BRANCH  27  28
ATOM     28  C   UNL     1       3.157  -0.048   4.302  1.00  0.00     0.042 C 
BRANCH  28  29
ATOM     29  C   UNL     1       2.064  -0.652   5.178  1.00  0.00     0.118 C 
BRANCH  29  30
ATOM     30  N   UNL     1       2.402  -1.972   5.688  1.00  0.00    -0.352 N 
ATOM     31  C   UNL     1       2.597  -2.425   6.968  1.00  0.00     0.251 C 
ATOM     32  H   UNL     1       2.509  -2.661   4.992  1.00  0.00     0.163 HD
ATOM     33  O   UNL     1       3.047  -3.554   7.141  1.00  0.00    -0.269 OA
BRANCH  31  34
ATOM     34  C   UNL     1       2.298  -1.571   8.139  1.00  0.00     0.039 A 
ATOM     35  C   UNL     1       3.156  -1.631   9.242  1.00  0.00     0.014 A 
ATOM     36  C   UNL     1       1.169  -0.750   8.185  1.00  0.00     0.014 A 
ATOM     37  C   UNL     1       2.913  -0.826  10.358  1.00  0.00     0.010 A 
ATOM     38  C   UNL     1       0.981   0.120   9.258  1.00  0.00     0.010 A 
ATOM     39  C   UNL     1       1.844   0.085  10.361  1.00  0.00    -0.014 A 
BRANCH  39  40
ATOM     40  C   UNL     1       1.631   0.998  11.515  1.00  0.00     0.031 A 
ATOM     41  C   UNL     1       0.372   0.918  12.337  1.00  0.00     0.074 A 
ATOM     42  C   UNL     1       2.564   1.927  11.804  1.00  0.00     0.049 A 
ATOM     43  N   UNL     1       0.027   1.619  13.389  1.00  0.00    -0.248 NA
ATOM     44  C   UNL     1      -0.644  -0.056  11.909  1.00  0.00     0.031 C 
ATOM     45  C   UNL     1       3.796   2.152  11.044  1.00  0.00     0.029 A 
ATOM     46  N   UNL     1       2.625   2.851  12.816  1.00  0.00    -0.354 N 
ATOM     47  C   UNL     1      -1.243   1.178  13.739  1.00  0.00     0.074 A 
ATOM     48  C   UNL     1      -1.635   0.196  12.752  1.00  0.00     0.031 C 
ATOM     49  C   UNL     1       4.509   3.120  11.641  1.00  0.00     0.029 A 
ATOM     50  C   UNL     1       3.774   3.606  12.803  1.00  0.00     0.049 A 
ATOM     51  H   UNL     1       1.914   2.964  13.487  1.00  0.00     0.167 HD
ATOM     52  C   UNL     1      -2.003   1.536  14.802  1.00  0.00     0.037 A 
ATOM     53  C   UNL     1       4.192   4.575  13.639  1.00  0.00     0.037 A 
ATOM     54  C   UNL     1      -1.603   2.499  15.795  1.00  0.00     0.049 A 
ATOM     55  C   UNL     1       3.338   4.942  14.821  1.00  0.00     0.074 A 
ATOM     56  C   UNL     1      -2.276   2.889  16.939  1.00  0.00     0.029 A 
ATOM     57  N   UNL     1      -0.423   3.228  15.758  1.00  0.00    -0.354 N 
ATOM     58  N   UNL     1       2.176   4.456  15.185  1.00  0.00    -0.248 NA
ATOM     59  C   UNL     1       3.863   5.982  15.716  1.00  0.00     0.031 C 
ATOM     60  C   UNL     1      -1.526   3.888  17.570  1.00  0.00     0.029 A 
ATOM     61  C   UNL     1      -0.357   4.078  16.850  1.00  0.00     0.049 A 
ATOM     62  H   UNL     1       0.266   3.152  15.059  1.00  0.00     0.167 HD
ATOM     63  C   UNL     1       1.847   5.104  16.369  1.00  0.00     0.074 A 
ATOM     64  C   UNL     1       2.941   6.006  16.668  1.00  0.00     0.031 C 
ATOM     65  C   UNL     1       0.741   4.965  17.139  1.00  0.00     0.037 A 
BRANCH  52  66
ATOM     66  C   UNL     1      -3.345   0.874  14.949  1.00  0.00     0.057 A 
ATOM     67  C   UNL     1      -3.468  -0.485  15.269  1.00  0.00     0.134 A 
ATOM     68  C   UNL     1      -4.528   1.610  14.803  1.00  0.00     0.134 A 
ATOM     69  F   UNL     1      -2.377  -1.252  15.413  1.00  0.00    -0.206 F 
ATOM     70  C   UNL     1      -4.717  -1.094  15.408  1.00  0.00     0.040 A 
ATOM     71  C   UNL     1      -5.782   1.019  14.969  1.00  0.00     0.040 A 
ATOM     72  F   UNL     1      -4.485   2.917  14.504  1.00  0.00    -0.206 F 
ATOM     73  C   UNL     1      -5.879  -0.339  15.265  1.00  0.00     0.006 A 
ENDBRANCH  52  66
BRANCH  53  74
ATOM     74  C   UNL     1       5.502   5.237  13.414  1.00  0.00     0.057 A 
ATOM     75  C   UNL     1       6.578   5.027  14.285  1.00  0.00     0.134 A 
ATOM     76  C   UNL     1       5.710   6.100  12.331  1.00  0.00     0.134 A 
ATOM     77  F   UNL     1       6.437   4.224  15.350  1.00  0.00    -0.206 F 
ATOM     78  C   UNL     1       7.804   5.669  14.102  1.00  0.00     0.040 A 
ATOM     79  C   UNL     1       6.939   6.726  12.120  1.00  0.00     0.040 A 
ATOM     80  F   UNL     1       4.724   6.333  11.452  1.00  0.00    -0.206 F 
ATOM     81  C   UNL     1       7.988   6.518  13.013  1.00  0.00     0.006 A 
ENDBRANCH  53  74
BRANCH  65  82
ATOM     82  C   UNL     1       0.681   5.772  18.404  1.00  0.00     0.057 A 
ATOM     83  C   UNL     1       0.515   7.163  18.394  1.00  0.00     0.134 A 
ATOM     84  C   UNL     1       0.775   5.143  19.653  1.00  0.00     0.134 A 
ATOM     85  F   UNL     1       0.430   7.829  17.232  1.00  0.00    -0.206 F 
ATOM     86  C   UNL     1       0.480   7.903  19.577  1.00  0.00     0.040 A 
ATOM     87  C   UNL     1       0.710   5.868  20.843  1.00  0.00     0.040 A 
ATOM     88  F   UNL     1       0.924   3.812  19.736  1.00  0.00    -0.206 F 
ATOM     89  C   UNL     1       0.572   7.253  20.807  1.00  0.00     0.006 A 
ENDBRANCH  65  82
ENDBRANCH  39  40
ENDBRANCH  31  34
ENDBRANCH  29  30
ENDBRANCH  28  29
ENDBRANCH  27  28
ENDBRANCH   3  27
TORSDOF 16
