REMARK SMILES O=C(COc1ccccc1/C=C1\C(=O)Nc2ccccc21)NCCCNC(=O)c1ccc(-c2c3nc(c(-c4c(F)cccc4F)c4ccc([nH]4)c(-c4c(F)cccc4F)c4nc(c(-c5c(F)cccc5F)c5ccc2[nH]5)C=C4)C=C3)cc1
REMARK SMILES IDX 23 1 22 2 1 3 2 4 3 6 4 7 5 8 6 9 10 10 7 11 9 12 8 13 11 14
REMARK SMILES IDX 12 15 13 16 21 17 14 18 15 19 16 20 20 21 17 23 19 24 18 25
REMARK SMILES IDX 24 26 25 27 26 28 27 29 28 31 29 32 30 33 82 34 31 35 81 36
REMARK SMILES IDX 32 37 33 38 34 39 75 40 35 41 80 42 74 43 76 44 36 45 79 46
REMARK SMILES IDX 73 47 72 48 37 50 63 51 46 52 62 53 47 54 50 55 61 56 77 57
REMARK SMILES IDX 48 58 49 59 60 61 78 62 51 63 38 64 39 65 44 66 40 67 41 68
REMARK SMILES IDX 43 69 45 70 42 71 64 72 65 73 70 74 66 75 67 76 69 77 71 78
REMARK SMILES IDX 68 79 52 80 53 81 58 82 54 83 55 84 57 85 59 86 56 87
REMARK H PARENT 22 5 15 22 26 30 76 49 50 60
REMARK Flexibility Score: inf
ROOT
ATOM      1  C   UNL     1       2.187   2.443   0.817  1.00  0.00     0.117 C 
ENDROOT
BRANCH   1   2
ATOM      2  N   UNL     1       2.853   1.175   0.701  1.00  0.00    -0.353 N 
ATOM      3  O   UNL     1       1.057  -0.166   1.250  1.00  0.00    -0.271 OA
ATOM      4  C   UNL     1       2.118  -0.001   0.660  1.00  0.00     0.257 C 
ATOM      5  H   UNL     1       3.836   1.141   0.650  1.00  0.00     0.163 HD
BRANCH   4   6
ATOM      6  C   UNL     1       2.750  -1.052  -0.244  1.00  0.00     0.329 C 
BRANCH   6   7
ATOM      7  O   UNL     1       3.364  -0.291  -1.295  1.00  0.00    -0.483 OA
BRANCH   7   8
ATOM      8  C   UNL     1       2.946  -0.627  -2.556  1.00  0.00     0.127 A 
ATOM      9  C   UNL     1       3.580  -1.731  -3.143  1.00  0.00     0.047 A 
ATOM     10  C   UNL     1       2.114   0.237  -3.305  1.00  0.00     0.017 A 
ATOM     11  C   UNL     1       3.440  -1.968  -4.506  1.00  0.00     0.004 A 
ATOM     12  C   UNL     1       2.094   0.034  -4.691  1.00  0.00     0.012 A 
ATOM     13  C   UNL     1       2.725  -1.065  -5.284  1.00  0.00     0.001 A 
BRANCH  10  14
ATOM     14  C   UNL     1       1.353   1.365  -2.698  1.00  0.00     0.026 C 
ATOM     15  C   UNL     1       0.129   1.852  -3.005  1.00  0.00     0.050 C 
ATOM     16  C   UNL     1      -0.820   1.361  -4.083  1.00  0.00     0.256 C 
ATOM     17  C   UNL     1      -0.582   2.976  -2.340  1.00  0.00     0.011 A 
ATOM     18  O   UNL     1      -0.708   0.421  -4.851  1.00  0.00    -0.269 OA
ATOM     19  N   UNL     1      -1.910   2.207  -4.037  1.00  0.00    -0.321 N 
ATOM     20  C   UNL     1      -1.799   3.130  -3.010  1.00  0.00     0.049 A 
ATOM     21  C   UNL     1      -0.314   3.816  -1.273  1.00  0.00     0.011 A 
ATOM     22  H   UNL     1      -2.673   2.160  -4.657  1.00  0.00     0.170 HD
ATOM     23  C   UNL     1      -2.757   4.066  -2.658  1.00  0.00     0.027 A 
ATOM     24  C   UNL     1      -1.280   4.751  -0.867  1.00  0.00     0.001 A 
ATOM     25  C   UNL     1      -2.493   4.876  -1.556  1.00  0.00     0.002 A 
ENDBRANCH  10  14
ENDBRANCH   7   8
ENDBRANCH   6   7
ENDBRANCH   4   6
ENDBRANCH   1   2
BRANCH   1  26
ATOM     26  C   UNL     1       2.714   3.370   1.881  1.00  0.00     0.042 C 
BRANCH  26  27
ATOM     27  C   UNL     1       4.181   3.724   1.710  1.00  0.00     0.118 C 
BRANCH  27  28
ATOM     28  N   UNL     1       4.492   4.480   0.498  1.00  0.00    -0.352 N 
ATOM     29  C   UNL     1       5.163   5.675   0.352  1.00  0.00     0.251 C 
ATOM     30  H   UNL     1       4.175   4.074  -0.340  1.00  0.00     0.163 HD
ATOM     31  O   UNL     1       5.266   6.190  -0.757  1.00  0.00    -0.269 OA
BRANCH  29  32
ATOM     32  C   UNL     1       5.719   6.360   1.539  1.00  0.00     0.039 A 
ATOM     33  C   UNL     1       5.564   7.743   1.663  1.00  0.00     0.014 A 
ATOM     34  C   UNL     1       6.350   5.637   2.552  1.00  0.00     0.014 A 
ATOM     35  C   UNL     1       5.959   8.378   2.843  1.00  0.00     0.010 A 
ATOM     36  C   UNL     1       6.614   6.244   3.772  1.00  0.00     0.010 A 
ATOM     37  C   UNL     1       6.441   7.626   3.927  1.00  0.00    -0.014 A 
BRANCH  37  38
ATOM     38  C   UNL     1       6.806   8.267   5.216  1.00  0.00     0.031 A 
ATOM     39  C   UNL     1       8.213   8.152   5.741  1.00  0.00     0.074 A 
ATOM     40  C   UNL     1       5.864   8.902   5.941  1.00  0.00     0.049 A 
ATOM     41  N   UNL     1       8.720   8.612   6.857  1.00  0.00    -0.248 NA
ATOM     42  C   UNL     1       9.169   7.387   4.923  1.00  0.00     0.031 C 
ATOM     43  C   UNL     1       4.449   9.020   5.580  1.00  0.00     0.029 A 
ATOM     44  N   UNL     1       5.957   9.570   7.136  1.00  0.00    -0.354 N 
ATOM     45  C   UNL     1      10.040   8.179   6.878  1.00  0.00     0.074 A 
ATOM     46  C   UNL     1      10.235   7.355   5.707  1.00  0.00     0.031 C 
ATOM     47  C   UNL     1       3.817   9.755   6.511  1.00  0.00     0.029 A 
ATOM     48  C   UNL     1       4.772  10.130   7.549  1.00  0.00     0.049 A 
ATOM     49  H   UNL     1       6.794   9.642   7.649  1.00  0.00     0.167 HD
ATOM     50  C   UNL     1      11.016   8.470   7.769  1.00  0.00     0.037 A 
ATOM     51  C   UNL     1       4.490  10.869   8.638  1.00  0.00     0.037 A 
ATOM     52  C   UNL     1      10.830   9.317   8.916  1.00  0.00     0.049 A 
ATOM     53  C   UNL     1       5.596  11.198   9.603  1.00  0.00     0.074 A 
ATOM     54  C   UNL     1      11.765   9.722   9.851  1.00  0.00     0.029 A 
ATOM     55  N   UNL     1       9.622   9.892   9.282  1.00  0.00    -0.354 N 
ATOM     56  N   UNL     1       6.859  10.845   9.569  1.00  0.00    -0.248 NA
ATOM     57  C   UNL     1       5.240  12.045  10.750  1.00  0.00     0.031 C 
ATOM     58  C   UNL     1      11.114  10.508  10.808  1.00  0.00     0.029 A 
ATOM     59  C   UNL     1       9.785  10.639  10.437  1.00  0.00     0.049 A 
ATOM     60  H   UNL     1       8.774   9.786   8.793  1.00  0.00     0.167 HD
ATOM     61  C   UNL     1       7.454  11.454  10.666  1.00  0.00     0.074 A 
ATOM     62  C   UNL     1       6.417  12.212  11.335  1.00  0.00     0.031 C 
ATOM     63  C   UNL     1       8.743  11.395  11.084  1.00  0.00     0.037 A 
BRANCH  50  64
ATOM     64  C   UNL     1      12.374   7.875   7.524  1.00  0.00     0.057 A 
ATOM     65  C   UNL     1      13.172   8.272   6.442  1.00  0.00     0.134 A 
ATOM     66  C   UNL     1      12.898   6.905   8.388  1.00  0.00     0.134 A 
ATOM     67  F   UNL     1      12.725   9.184   5.565  1.00  0.00    -0.206 F 
ATOM     68  C   UNL     1      14.425   7.703   6.209  1.00  0.00     0.040 A 
ATOM     69  C   UNL     1      14.163   6.352   8.184  1.00  0.00     0.040 A 
ATOM     70  F   UNL     1      12.190   6.480   9.446  1.00  0.00    -0.206 F 
ATOM     71  C   UNL     1      14.927   6.745   7.086  1.00  0.00     0.006 A 
ENDBRANCH  50  64
BRANCH  51  72
ATOM     72  C   UNL     1       3.116  11.389   8.855  1.00  0.00     0.057 A 
ATOM     73  C   UNL     1       2.836  12.758   8.749  1.00  0.00     0.134 A 
ATOM     74  C   UNL     1       2.054  10.540   9.187  1.00  0.00     0.134 A 
ATOM     75  F   UNL     1       3.815  13.625   8.450  1.00  0.00    -0.206 F 
ATOM     76  C   UNL     1       1.560  13.266   8.994  1.00  0.00     0.040 A 
ATOM     77  C   UNL     1       0.766  11.031   9.407  1.00  0.00     0.040 A 
ATOM     78  F   UNL     1       2.252   9.218   9.293  1.00  0.00    -0.206 F 
ATOM     79  C   UNL     1       0.518  12.400   9.320  1.00  0.00     0.006 A 
ENDBRANCH  51  72
BRANCH  63  80
ATOM     80  C   UNL     1       9.110  12.211  12.289  1.00  0.00     0.057 A 
ATOM     81  C   UNL     1       8.660  11.886  13.575  1.00  0.00     0.134 A 
ATOM     82  C   UNL     1       9.938  13.334  12.158  1.00  0.00     0.134 A 
ATOM     83  F   UNL     1       7.856  10.829  13.768  1.00  0.00    -0.206 F 
ATOM     84  C   UNL     1       8.988  12.671  14.682  1.00  0.00     0.040 A 
ATOM     85  C   UNL     1      10.299  14.107  13.262  1.00  0.00     0.040 A 
ATOM     86  F   UNL     1      10.414  13.694  10.957  1.00  0.00    -0.206 F 
ATOM     87  C   UNL     1       9.814  13.782  14.527  1.00  0.00     0.006 A 
ENDBRANCH  63  80
ENDBRANCH  37  38
ENDBRANCH  29  32
ENDBRANCH  27  28
ENDBRANCH  26  27
ENDBRANCH   1  26
TORSDOF 13
