REMARK SMILES Cc1nc(S[C@@H](C(=O)NCCCNC(=O)c2ccc(-c3c4nc(c(-c5c(F)cccc5F)c5ccc([nH]5)c(-c5c(F)cccc5F)c5nc(c(-c6c(F)cccc6F)c6ccc3[nH]6)C=C5)C=C4)cc2)c2ccccc2)nc2ccccc12
REMARK SMILES IDX 11 1 10 2 9 3 7 4 8 5 6 7 5 8 4 9 1 10 2 11 3 12 82 13 77 14
REMARK SMILES IDX 81 15 76 16 78 17 80 18 79 19 70 20 71 21 75 22 72 23 74 24
REMARK SMILES IDX 73 25 12 26 13 27 14 28 15 30 16 31 17 32 69 33 18 34 68 35
REMARK SMILES IDX 19 36 20 37 21 38 62 39 22 40 67 41 61 42 63 43 23 44 66 45
REMARK SMILES IDX 60 46 59 47 24 49 50 50 33 51 49 52 34 53 37 54 48 55 64 56
REMARK SMILES IDX 35 57 36 58 47 60 65 61 38 62 25 63 26 64 31 65 27 66 28 67
REMARK SMILES IDX 30 68 32 69 29 70 51 71 52 72 57 73 53 74 54 75 56 76 58 77
REMARK SMILES IDX 55 78 39 79 40 80 45 81 41 82 42 83 44 84 46 85 43 86
REMARK H PARENT 9 6 13 29 63 48 37 59
REMARK Flexibility Score: inf
ROOT
ATOM      1  C   UNL     1       3.881   4.954   3.624  1.00  0.00     0.042 C 
ENDROOT
BRANCH   1   2
ATOM      2  C   UNL     1       3.713   5.611   2.258  1.00  0.00     0.117 C 
BRANCH   2   3
ATOM      3  N   UNL     1       3.697   4.636   1.181  1.00  0.00    -0.355 N 
ATOM      4  C   UNL     1       2.667   4.163   0.406  1.00  0.00     0.238 C 
ATOM      5  O   UNL     1       2.992   3.341  -0.455  1.00  0.00    -0.273 OA
ATOM      6  H   UNL     1       4.576   4.247   0.970  1.00  0.00     0.163 HD
BRANCH   4   7
ATOM      7  C   UNL     1       1.249   4.744   0.562  1.00  0.00     0.174 C 
BRANCH   7   8
ATOM      8  S   UNL     1       0.469   4.360   2.177  1.00  0.00    -0.068 SA
BRANCH   8   9
ATOM      9  C   UNL     1       0.421   2.592   2.247  1.00  0.00     0.189 A 
ATOM     10  C   UNL     1       1.401  -0.205   0.153  1.00  0.00     0.067 C 
ATOM     11  C   UNL     1       0.801   0.521   1.324  1.00  0.00     0.050 A 
ATOM     12  N   UNL     1       0.972   1.863   1.281  1.00  0.00    -0.227 NA
ATOM     13  C   UNL     1       0.103  -0.115   2.360  1.00  0.00     0.022 A 
ATOM     14  C   UNL     1      -0.367   0.749   3.359  1.00  0.00     0.075 A 
ATOM     15  C   UNL     1      -0.157  -1.507   2.469  1.00  0.00     0.012 A 
ATOM     16  N   UNL     1      -0.212   2.076   3.308  1.00  0.00    -0.222 NA
ATOM     17  C   UNL     1      -1.042   0.207   4.446  1.00  0.00     0.029 A 
ATOM     18  C   UNL     1      -0.854  -2.022   3.560  1.00  0.00     0.001 A 
ATOM     19  C   UNL     1      -1.290  -1.163   4.558  1.00  0.00     0.002 A 
ENDBRANCH   8   9
ENDBRANCH   7   8
BRANCH   7  20
ATOM     20  C   UNL     1       0.297   4.588  -0.623  1.00  0.00    -0.025 A 
ATOM     21  C   UNL     1       0.141   3.383  -1.322  1.00  0.00     0.005 A 
ATOM     22  C   UNL     1      -0.480   5.686  -1.038  1.00  0.00     0.005 A 
ATOM     23  C   UNL     1      -0.756   3.267  -2.386  1.00  0.00     0.000 A 
ATOM     24  C   UNL     1      -1.367   5.577  -2.114  1.00  0.00     0.000 A 
ATOM     25  C   UNL     1      -1.509   4.365  -2.784  1.00  0.00     0.000 A 
ENDBRANCH   7  20
ENDBRANCH   4   7
ENDBRANCH   2   3
ENDBRANCH   1   2
BRANCH   1  26
ATOM     26  C   UNL     1       5.172   4.158   3.789  1.00  0.00     0.118 C 
BRANCH  26  27
ATOM     27  N   UNL     1       6.374   4.983   3.789  1.00  0.00    -0.352 N 
ATOM     28  C   UNL     1       7.414   5.026   4.689  1.00  0.00     0.251 C 
ATOM     29  H   UNL     1       6.453   5.605   3.029  1.00  0.00     0.163 HD
ATOM     30  O   UNL     1       8.289   5.880   4.570  1.00  0.00    -0.269 OA
BRANCH  28  31
ATOM     31  C   UNL     1       7.460   4.080   5.826  1.00  0.00     0.039 A 
ATOM     32  C   UNL     1       7.159   2.729   5.652  1.00  0.00     0.014 A 
ATOM     33  C   UNL     1       7.784   4.562   7.099  1.00  0.00     0.014 A 
ATOM     34  C   UNL     1       6.981   1.914   6.766  1.00  0.00     0.010 A 
ATOM     35  C   UNL     1       7.694   3.716   8.210  1.00  0.00     0.010 A 
ATOM     36  C   UNL     1       7.221   2.404   8.061  1.00  0.00    -0.014 A 
BRANCH  36  37
ATOM     37  C   UNL     1       6.915   1.536   9.231  1.00  0.00     0.031 A 
ATOM     38  C   UNL     1       5.809   1.900  10.191  1.00  0.00     0.074 A 
ATOM     39  C   UNL     1       7.566   0.366   9.378  1.00  0.00     0.049 A 
ATOM     40  N   UNL     1       5.328   1.211  11.197  1.00  0.00    -0.248 NA
ATOM     41  C   UNL     1       5.163   3.207  10.001  1.00  0.00     0.031 C 
ATOM     42  C   UNL     1       8.655  -0.107   8.522  1.00  0.00     0.029 A 
ATOM     43  N   UNL     1       7.378  -0.655  10.274  1.00  0.00    -0.354 N 
ATOM     44  C   UNL     1       4.333   2.002  11.761  1.00  0.00     0.074 A 
ATOM     45  C   UNL     1       4.310   3.241  11.015  1.00  0.00     0.031 C 
ATOM     46  C   UNL     1       8.992  -1.352   8.890  1.00  0.00     0.029 A 
ATOM     47  C   UNL     1       8.177  -1.747  10.034  1.00  0.00     0.049 A 
ATOM     48  H   UNL     1       6.735  -0.610  11.018  1.00  0.00     0.167 HD
ATOM     49  C   UNL     1       3.499   1.720  12.792  1.00  0.00     0.037 A 
ATOM     50  C   UNL     1       8.238  -2.938  10.658  1.00  0.00     0.037 A 
ATOM     51  C   UNL     1       3.506   0.485  13.533  1.00  0.00     0.049 A 
ATOM     52  C   UNL     1       7.321  -3.213  11.815  1.00  0.00     0.074 A 
ATOM     53  C   UNL     1       2.696   0.105  14.590  1.00  0.00     0.029 A 
ATOM     54  N   UNL     1       4.367  -0.574  13.291  1.00  0.00    -0.354 N 
ATOM     55  N   UNL     1       6.375  -2.462  12.321  1.00  0.00    -0.248 NA
ATOM     56  C   UNL     1       7.486  -4.510  12.486  1.00  0.00     0.031 C 
ATOM     57  C   UNL     1       3.088  -1.172  15.008  1.00  0.00     0.029 A 
ATOM     58  C   UNL     1       4.115  -1.603  14.185  1.00  0.00     0.049 A 
ATOM     59  H   UNL     1       5.055  -0.593  12.588  1.00  0.00     0.167 HD
ATOM     60  C   UNL     1       5.817  -3.201  13.355  1.00  0.00     0.074 A 
ATOM     61  C   UNL     1       6.516  -4.470  13.387  1.00  0.00     0.031 C 
ATOM     62  C   UNL     1       4.818  -2.860  14.206  1.00  0.00     0.037 A 
BRANCH  49  63
ATOM     63  C   UNL     1       2.511   2.782  13.183  1.00  0.00     0.057 A 
ATOM     64  C   UNL     1       2.662   3.498  14.377  1.00  0.00     0.134 A 
ATOM     65  C   UNL     1       1.404   3.090  12.381  1.00  0.00     0.134 A 
ATOM     66  F   UNL     1       3.696   3.249  15.194  1.00  0.00    -0.206 F 
ATOM     67  C   UNL     1       1.751   4.486  14.756  1.00  0.00     0.040 A 
ATOM     68  C   UNL     1       0.500   4.093  12.738  1.00  0.00     0.040 A 
ATOM     69  F   UNL     1       1.208   2.451  11.218  1.00  0.00    -0.206 F 
ATOM     70  C   UNL     1       0.670   4.791  13.931  1.00  0.00     0.006 A 
ENDBRANCH  49  63
BRANCH  50  71
ATOM     71  C   UNL     1       9.190  -3.975  10.190  1.00  0.00     0.057 A 
ATOM     72  C   UNL     1      10.570  -3.834  10.369  1.00  0.00     0.134 A 
ATOM     73  C   UNL     1       8.733  -5.148   9.577  1.00  0.00     0.134 A 
ATOM     74  F   UNL     1      11.068  -2.731  10.948  1.00  0.00    -0.206 F 
ATOM     75  C   UNL     1      11.465  -4.819   9.951  1.00  0.00     0.040 A 
ATOM     76  C   UNL     1       9.614  -6.153   9.177  1.00  0.00     0.040 A 
ATOM     77  F   UNL     1       7.419  -5.349   9.397  1.00  0.00    -0.206 F 
ATOM     78  C   UNL     1      10.986  -5.987   9.361  1.00  0.00     0.006 A 
ENDBRANCH  50  71
BRANCH  62  79
ATOM     79  C   UNL     1       4.412  -3.892  15.216  1.00  0.00     0.057 A 
ATOM     80  C   UNL     1       3.198  -4.578  15.086  1.00  0.00     0.134 A 
ATOM     81  C   UNL     1       5.228  -4.222  16.306  1.00  0.00     0.134 A 
ATOM     82  F   UNL     1       2.367  -4.306  14.069  1.00  0.00    -0.206 F 
ATOM     83  C   UNL     1       2.817  -5.565  15.997  1.00  0.00     0.040 A 
ATOM     84  C   UNL     1       4.870  -5.225  17.209  1.00  0.00     0.040 A 
ATOM     85  F   UNL     1       6.411  -3.613  16.478  1.00  0.00    -0.206 F 
ATOM     86  C   UNL     1       3.659  -5.898  17.055  1.00  0.00     0.006 A 
ENDBRANCH  62  79
ENDBRANCH  36  37
ENDBRANCH  28  31
ENDBRANCH  26  27
ENDBRANCH   1  26
TORSDOF 13
