REMARK SMILES O=C(NCCCNC(=O)[C@@H](Cc1ccncc1)c1ccc(Cl)cc1)c1ccc(-c2c3nc(c(-c4c(F)cccc4F)c4ccc([nH]4)c(-c4c(F)cccc4F)c4nc(c(-c5c(F)cccc5F)c5ccc2[nH]5)C=C4)C=C3)cc1
REMARK SMILES IDX 5 1 4 2 3 3 1 4 2 5 25 7 26 8 78 9 27 10 77 11 28 12 29 13
REMARK SMILES IDX 30 14 71 15 31 16 76 17 70 18 72 19 32 20 75 21 69 22 68 23
REMARK SMILES IDX 33 25 59 26 42 27 58 28 43 29 46 30 57 31 73 32 44 33 45 34
REMARK SMILES IDX 56 36 74 37 47 38 34 39 35 40 40 41 36 42 37 43 39 44 41 45
REMARK SMILES IDX 38 46 60 47 61 48 66 49 62 50 63 51 65 52 67 53 64 54 48 55
REMARK SMILES IDX 49 56 54 57 50 58 51 59 53 60 55 61 52 62 6 63 7 64 8 65
REMARK SMILES IDX 9 67 10 68 11 69 12 70 13 71 17 72 14 73 16 74 15 75 18 76
REMARK SMILES IDX 19 77 24 78 20 79 23 80 21 81 22 82
REMARK H PARENT 3 6 72 24 46 35 7 66
REMARK Flexibility Score: inf
ROOT
ATOM      1  C   UNL     1       4.697  -1.900  -0.463  1.00  0.00     0.042 C 
ENDROOT
BRANCH   1   2
ATOM      2  C   UNL     1       4.057  -1.106  -1.587  1.00  0.00     0.118 C 
BRANCH   2   3
ATOM      3  N   UNL     1       2.676  -0.746  -1.285  1.00  0.00    -0.352 N 
ATOM      4  O   UNL     1       0.922   0.167  -0.239  1.00  0.00    -0.269 OA
ATOM      5  C   UNL     1       2.124   0.244  -0.508  1.00  0.00     0.251 C 
ATOM      6  H   UNL     1       2.010  -1.324  -1.723  1.00  0.00     0.163 HD
BRANCH   5   7
ATOM      7  C   UNL     1       2.911   1.383   0.030  1.00  0.00     0.039 A 
ATOM      8  C   UNL     1       4.013   1.904  -0.640  1.00  0.00     0.014 A 
ATOM      9  C   UNL     1       2.476   2.022   1.200  1.00  0.00     0.014 A 
ATOM     10  C   UNL     1       4.769   2.925  -0.077  1.00  0.00     0.010 A 
ATOM     11  C   UNL     1       3.153   3.147   1.693  1.00  0.00     0.010 A 
ATOM     12  C   UNL     1       4.325   3.597   1.070  1.00  0.00    -0.014 A 
BRANCH  12  13
ATOM     13  C   UNL     1       5.062   4.809   1.519  1.00  0.00     0.031 A 
ATOM     14  C   UNL     1       5.684   4.889   2.884  1.00  0.00     0.074 A 
ATOM     15  C   UNL     1       5.209   5.835   0.654  1.00  0.00     0.049 A 
ATOM     16  N   UNL     1       6.395   5.856   3.409  1.00  0.00    -0.248 NA
ATOM     17  C   UNL     1       5.475   3.744   3.782  1.00  0.00     0.031 C 
ATOM     18  C   UNL     1       4.639   5.888  -0.696  1.00  0.00     0.029 A 
ATOM     19  N   UNL     1       5.908   7.011   0.758  1.00  0.00    -0.354 N 
ATOM     20  C   UNL     1       6.689   5.453   4.705  1.00  0.00     0.074 A 
ATOM     21  C   UNL     1       6.061   4.163   4.895  1.00  0.00     0.031 C 
ATOM     22  C   UNL     1       5.078   6.989  -1.320  1.00  0.00     0.029 A 
ATOM     23  C   UNL     1       5.888   7.765  -0.391  1.00  0.00     0.049 A 
ATOM     24  H   UNL     1       6.379   7.288   1.577  1.00  0.00     0.167 HD
ATOM     25  C   UNL     1       7.421   6.098   5.647  1.00  0.00     0.037 A 
ATOM     26  C   UNL     1       6.445   8.958  -0.670  1.00  0.00     0.037 A 
ATOM     27  C   UNL     1       8.061   7.374   5.446  1.00  0.00     0.049 A 
ATOM     28  C   UNL     1       7.234   9.657   0.396  1.00  0.00     0.074 A 
ATOM     29  C   UNL     1       8.854   8.090   6.326  1.00  0.00     0.029 A 
ATOM     30  N   UNL     1       7.977   8.127   4.283  1.00  0.00    -0.354 N 
ATOM     31  N   UNL     1       7.524   9.250   1.607  1.00  0.00    -0.248 NA
ATOM     32  C   UNL     1       7.763  10.985   0.060  1.00  0.00     0.031 C 
ATOM     33  C   UNL     1       9.210   9.297   5.714  1.00  0.00     0.029 A 
ATOM     34  C   UNL     1       8.684   9.311   4.432  1.00  0.00     0.049 A 
ATOM     35  H   UNL     1       7.488   7.860   3.471  1.00  0.00     0.167 HD
ATOM     36  C   UNL     1       8.284  10.262   2.175  1.00  0.00     0.074 A 
ATOM     37  C   UNL     1       8.425  11.294   1.167  1.00  0.00     0.031 C 
ATOM     38  C   UNL     1       8.817  10.329   3.420  1.00  0.00     0.037 A 
BRANCH  25  39
ATOM     39  C   UNL     1       7.538   5.444   6.996  1.00  0.00     0.057 A 
ATOM     40  C   UNL     1       8.286   4.277   7.198  1.00  0.00     0.134 A 
ATOM     41  C   UNL     1       6.900   6.001   8.113  1.00  0.00     0.134 A 
ATOM     42  F   UNL     1       8.914   3.686   6.170  1.00  0.00    -0.206 F 
ATOM     43  C   UNL     1       8.367   3.668   8.453  1.00  0.00     0.040 A 
ATOM     44  C   UNL     1       6.997   5.418   9.377  1.00  0.00     0.040 A 
ATOM     45  F   UNL     1       6.175   7.124   7.995  1.00  0.00    -0.206 F 
ATOM     46  C   UNL     1       7.724   4.242   9.548  1.00  0.00     0.006 A 
ENDBRANCH  25  39
BRANCH  26  47
ATOM     47  C   UNL     1       6.272   9.557  -2.017  1.00  0.00     0.057 A 
ATOM     48  C   UNL     1       7.349   9.666  -2.903  1.00  0.00     0.134 A 
ATOM     49  C   UNL     1       5.022  10.007  -2.462  1.00  0.00     0.134 A 
ATOM     50  F   UNL     1       8.574   9.268  -2.530  1.00  0.00    -0.206 F 
ATOM     51  C   UNL     1       7.192  10.207  -4.181  1.00  0.00     0.040 A 
ATOM     52  C   UNL     1       4.845  10.524  -3.746  1.00  0.00     0.040 A 
ATOM     53  F   UNL     1       3.949   9.922  -1.663  1.00  0.00    -0.206 F 
ATOM     54  C   UNL     1       5.935  10.629  -4.608  1.00  0.00     0.006 A 
ENDBRANCH  26  47
BRANCH  38  55
ATOM     55  C   UNL     1       9.634  11.545   3.743  1.00  0.00     0.057 A 
ATOM     56  C   UNL     1       9.049  12.802   3.941  1.00  0.00     0.134 A 
ATOM     57  C   UNL     1      11.025  11.450   3.876  1.00  0.00     0.134 A 
ATOM     58  F   UNL     1       7.723  12.963   3.811  1.00  0.00    -0.206 F 
ATOM     59  C   UNL     1       9.821  13.927   4.235  1.00  0.00     0.040 A 
ATOM     60  C   UNL     1      11.805  12.562   4.196  1.00  0.00     0.040 A 
ATOM     61  F   UNL     1      11.648  10.274   3.704  1.00  0.00    -0.206 F 
ATOM     62  C   UNL     1      11.203  13.806   4.369  1.00  0.00     0.006 A 
ENDBRANCH  38  55
ENDBRANCH  12  13
ENDBRANCH   5   7
ENDBRANCH   2   3
ENDBRANCH   1   2
BRANCH   1  63
ATOM     63  C   UNL     1       4.236  -3.346  -0.460  1.00  0.00     0.117 C 
BRANCH  63  64
ATOM     64  N   UNL     1       5.000  -4.173  -1.366  1.00  0.00    -0.355 N 
ATOM     65  C   UNL     1       5.638  -5.354  -1.175  1.00  0.00     0.227 C 
ATOM     66  H   UNL     1       5.068  -3.817  -2.281  1.00  0.00     0.163 HD
ATOM     67  O   UNL     1       6.143  -5.853  -2.190  1.00  0.00    -0.274 OA
BRANCH  65  68
ATOM     68  C   UNL     1       5.793  -6.062   0.177  1.00  0.00     0.113 C 
BRANCH  68  69
ATOM     69  C   UNL     1       6.728  -5.383   1.213  1.00  0.00     0.054 C 
BRANCH  69  70
ATOM     70  C   UNL     1       6.274  -4.209   2.044  1.00  0.00    -0.044 A 
ATOM     71  C   UNL     1       6.911  -2.968   1.924  1.00  0.00     0.024 A 
ATOM     72  C   UNL     1       5.250  -4.325   2.987  1.00  0.00     0.024 A 
ATOM     73  C   UNL     1       6.455  -1.899   2.683  1.00  0.00     0.111 A 
ATOM     74  C   UNL     1       4.846  -3.194   3.682  1.00  0.00     0.111 A 
ATOM     75  N   UNL     1       5.416  -1.979   3.539  1.00  0.00    -0.265 NA
ENDBRANCH  69  70
ENDBRANCH  68  69
BRANCH  68  76
ATOM     76  C   UNL     1       4.584  -6.849   0.690  1.00  0.00    -0.035 A 
ATOM     77  C   UNL     1       3.343  -6.282   1.008  1.00  0.00     0.006 A 
ATOM     78  C   UNL     1       4.719  -8.240   0.880  1.00  0.00     0.006 A 
ATOM     79  C   UNL     1       2.297  -7.050   1.536  1.00  0.00     0.021 A 
ATOM     80  C   UNL     1       3.672  -9.015   1.391  1.00  0.00     0.021 A 
ATOM     81  C   UNL     1       2.468  -8.413   1.730  1.00  0.00     0.041 A 
ATOM     82  Cl  UNL     1       1.190  -9.349   2.397  1.00  0.00    -0.084 Cl
ENDBRANCH  68  76
ENDBRANCH  65  68
ENDBRANCH  63  64
ENDBRANCH   1  63
TORSDOF 13
