REMARK SMILES C[C@H](NC(=O)N1CC[C@@H](C(=O)NCCCNC(=O)c2ccc(-c3c4nc(c(-c5c(F)cccc5F)c5ccc([nH]5)c(-c5c(F)cccc5F)c5nc(c(-c6c(F)cccc6F)c6ccc3[nH]6)C=C5)C=C4)cc2)[C@H]1C)c1ccc(Cl)cc1
REMARK SMILES IDX 13 1 12 2 10 3 11 4 9 6 6 7 7 8 73 9 8 10 74 11 4 12 3 13
REMARK SMILES IDX 5 15 2 16 1 17 75 18 76 19 81 20 77 21 80 22 78 23 79 24
REMARK SMILES IDX 14 25 15 26 16 27 17 28 18 30 19 31 20 32 72 33 21 34 71 35
REMARK SMILES IDX 22 36 23 37 24 38 65 39 25 40 70 41 64 42 66 43 26 44 69 45
REMARK SMILES IDX 63 46 62 47 27 49 53 50 36 51 52 52 37 53 40 54 51 55 67 56
REMARK SMILES IDX 38 57 39 58 50 60 68 61 41 62 28 63 29 64 34 65 30 66 31 67
REMARK SMILES IDX 33 68 35 69 32 70 54 71 55 72 60 73 56 74 57 75 59 76 61 77
REMARK SMILES IDX 58 78 42 79 43 80 48 81 44 82 45 83 47 84 49 85 46 86
REMARK H PARENT 12 5 3 14 16 29 66 48 40 59
REMARK Flexibility Score: inf
ROOT
ATOM      1  C   UNL     1       2.810   5.106   0.119  1.00  0.00     0.117 C 
ENDROOT
BRANCH   1   2
ATOM      2  N   UNL     1       3.952   5.042   1.014  1.00  0.00    -0.356 N 
ATOM      3  C   UNL     1       4.912   4.110   1.230  1.00  0.00     0.225 C 
ATOM      4  O   UNL     1       5.764   4.397   2.078  1.00  0.00    -0.275 OA
ATOM      5  H   UNL     1       4.049   5.841   1.582  1.00  0.00     0.163 HD
BRANCH   3   6
ATOM      6  C   UNL     1       4.985   2.762   0.531  1.00  0.00     0.102 C 
ATOM      7  N   UNL     1       3.157   1.440  -0.238  1.00  0.00    -0.321 N 
ATOM      8  C   UNL     1       4.014   1.672  -1.389  1.00  0.00     0.122 C 
ATOM      9  C   UNL     1       3.960   1.699   0.956  1.00  0.00     0.096 C 
ATOM     10  C   UNL     1       4.942   2.808  -0.998  1.00  0.00     0.037 C 
ATOM     11  C   UNL     1       3.154   1.981   2.215  1.00  0.00     0.032 C 
BRANCH   7  12
ATOM     12  C   UNL     1       2.428   0.273  -0.270  1.00  0.00     0.318 C 
ATOM     13  N   UNL     1       1.081   0.382  -0.184  1.00  0.00    -0.331 N 
ATOM     14  H   UNL     1       0.590  -0.471  -0.165  1.00  0.00     0.165 HD
ATOM     15  O   UNL     1       2.942  -0.836  -0.391  1.00  0.00    -0.249 OA
BRANCH  13  16
ATOM     16  C   UNL     1       0.252   1.577  -0.118  1.00  0.00     0.111 C 
ATOM     17  C   UNL     1       0.221   2.299  -1.469  1.00  0.00     0.036 C 
BRANCH  16  18
ATOM     18  C   UNL     1      -1.184   1.315   0.343  1.00  0.00    -0.026 A 
ATOM     19  C   UNL     1      -1.946   2.404   0.816  1.00  0.00     0.007 A 
ATOM     20  C   UNL     1      -1.818   0.063   0.260  1.00  0.00     0.007 A 
ATOM     21  C   UNL     1      -3.288   2.251   1.177  1.00  0.00     0.021 A 
ATOM     22  C   UNL     1      -3.157  -0.095   0.637  1.00  0.00     0.021 A 
ATOM     23  C   UNL     1      -3.889   1.000   1.085  1.00  0.00     0.041 A 
ATOM     24  Cl  UNL     1      -5.546   0.810   1.506  1.00  0.00    -0.084 Cl
ENDBRANCH  16  18
ENDBRANCH  13  16
ENDBRANCH   7  12
ENDBRANCH   3   6
ENDBRANCH   1   2
BRANCH   1  25
ATOM     25  C   UNL     1       1.482   5.329   0.842  1.00  0.00     0.042 C 
BRANCH  25  26
ATOM     26  C   UNL     1       1.425   6.536   1.773  1.00  0.00     0.118 C 
BRANCH  26  27
ATOM     27  N   UNL     1       1.295   7.798   1.067  1.00  0.00    -0.352 N 
ATOM     28  C   UNL     1       0.264   8.708   1.042  1.00  0.00     0.251 C 
ATOM     29  H   UNL     1       2.072   8.042   0.515  1.00  0.00     0.163 HD
ATOM     30  O   UNL     1       0.317   9.644   0.249  1.00  0.00    -0.269 OA
BRANCH  28  31
ATOM     31  C   UNL     1      -0.923   8.572   1.924  1.00  0.00     0.039 A 
ATOM     32  C   UNL     1      -2.179   8.892   1.396  1.00  0.00     0.014 A 
ATOM     33  C   UNL     1      -0.821   8.202   3.268  1.00  0.00     0.014 A 
ATOM     34  C   UNL     1      -3.326   8.789   2.191  1.00  0.00     0.010 A 
ATOM     35  C   UNL     1      -1.973   8.030   4.041  1.00  0.00     0.010 A 
ATOM     36  C   UNL     1      -3.237   8.331   3.514  1.00  0.00    -0.014 A 
BRANCH  36  37
ATOM     37  C   UNL     1      -4.456   8.188   4.354  1.00  0.00     0.031 A 
ATOM     38  C   UNL     1      -4.662   9.060   5.564  1.00  0.00     0.074 A 
ATOM     39  C   UNL     1      -5.373   7.247   4.052  1.00  0.00     0.049 A 
ATOM     40  N   UNL     1      -5.651   9.062   6.423  1.00  0.00    -0.248 NA
ATOM     41  C   UNL     1      -3.606  10.040   5.863  1.00  0.00     0.031 C 
ATOM     42  C   UNL     1      -5.280   6.295   2.943  1.00  0.00     0.029 A 
ATOM     43  N   UNL     1      -6.566   6.938   4.657  1.00  0.00    -0.354 N 
ATOM     44  C   UNL     1      -5.324  10.018   7.376  1.00  0.00     0.074 A 
ATOM     45  C   UNL     1      -4.032  10.556   7.007  1.00  0.00     0.031 C 
ATOM     46  C   UNL     1      -6.382   5.528   2.930  1.00  0.00     0.029 A 
ATOM     47  C   UNL     1      -7.250   5.922   4.037  1.00  0.00     0.049 A 
ATOM     48  H   UNL     1      -6.899   7.401   5.459  1.00  0.00     0.167 HD
ATOM     49  C   UNL     1      -6.039  10.426   8.452  1.00  0.00     0.037 A 
ATOM     50  C   UNL     1      -8.447   5.375   4.320  1.00  0.00     0.037 A 
ATOM     51  C   UNL     1      -7.348   9.940   8.800  1.00  0.00     0.049 A 
ATOM     52  C   UNL     1      -9.250   5.889   5.479  1.00  0.00     0.074 A 
ATOM     53  C   UNL     1      -8.178  10.356   9.827  1.00  0.00     0.029 A 
ATOM     54  N   UNL     1      -8.021   8.937   8.123  1.00  0.00    -0.354 N 
ATOM     55  N   UNL     1      -8.951   6.833   6.336  1.00  0.00    -0.248 NA
ATOM     56  C   UNL     1     -10.562   5.264   5.704  1.00  0.00     0.031 C 
ATOM     57  C   UNL     1      -9.349   9.589   9.782  1.00  0.00     0.029 A 
ATOM     58  C   UNL     1      -9.253   8.713   8.714  1.00  0.00     0.049 A 
ATOM     59  H   UNL     1      -7.675   8.454   7.337  1.00  0.00     0.167 HD
ATOM     60  C   UNL     1     -10.038   6.924   7.194  1.00  0.00     0.074 A 
ATOM     61  C   UNL     1     -11.012   5.949   6.746  1.00  0.00     0.031 C 
ATOM     62  C   UNL     1     -10.211   7.740   8.261  1.00  0.00     0.037 A 
BRANCH  49  63
ATOM     63  C   UNL     1      -5.416  11.465   9.334  1.00  0.00     0.057 A 
ATOM     64  C   UNL     1      -5.358  12.812   8.954  1.00  0.00     0.134 A 
ATOM     65  C   UNL     1      -4.897  11.120  10.587  1.00  0.00     0.134 A 
ATOM     66  F   UNL     1      -5.827  13.201   7.759  1.00  0.00    -0.206 F 
ATOM     67  C   UNL     1      -4.784  13.777   9.782  1.00  0.00     0.040 A 
ATOM     68  C   UNL     1      -4.337  12.079  11.432  1.00  0.00     0.040 A 
ATOM     69  F   UNL     1      -4.926   9.847  11.010  1.00  0.00    -0.206 F 
ATOM     70  C   UNL     1      -4.275  13.412  11.027  1.00  0.00     0.006 A 
ENDBRANCH  49  63
BRANCH  50  71
ATOM     71  C   UNL     1      -8.981   4.294   3.461  1.00  0.00     0.057 A 
ATOM     72  C   UNL     1      -9.978   4.558   2.516  1.00  0.00     0.134 A 
ATOM     73  C   UNL     1      -8.514   2.980   3.567  1.00  0.00     0.134 A 
ATOM     74  F   UNL     1     -10.475   5.797   2.388  1.00  0.00    -0.206 F 
ATOM     75  C   UNL     1     -10.501   3.549   1.708  1.00  0.00     0.040 A 
ATOM     76  C   UNL     1      -9.020   1.963   2.757  1.00  0.00     0.040 A 
ATOM     77  F   UNL     1      -7.559   2.672   4.456  1.00  0.00    -0.206 F 
ATOM     78  C   UNL     1     -10.018   2.246   1.826  1.00  0.00     0.006 A 
ENDBRANCH  50  71
BRANCH  62  79
ATOM     79  C   UNL     1     -11.503   7.620   9.008  1.00  0.00     0.057 A 
ATOM     80  C   UNL     1     -11.732   6.571   9.906  1.00  0.00     0.134 A 
ATOM     81  C   UNL     1     -12.517   8.572   8.845  1.00  0.00     0.134 A 
ATOM     82  F   UNL     1     -10.803   5.622  10.094  1.00  0.00    -0.206 F 
ATOM     83  C   UNL     1     -12.934   6.464  10.607  1.00  0.00     0.040 A 
ATOM     84  C   UNL     1     -13.717   8.484   9.551  1.00  0.00     0.040 A 
ATOM     85  F   UNL     1     -12.355   9.601   7.999  1.00  0.00    -0.206 F 
ATOM     86  C   UNL     1     -13.929   7.425  10.433  1.00  0.00     0.006 A 
ENDBRANCH  62  79
ENDBRANCH  36  37
ENDBRANCH  28  31
ENDBRANCH  26  27
ENDBRANCH  25  26
ENDBRANCH   1  25
TORSDOF 13
