REMARK SMILES O=C(NCCCNC(=O)c1ccc(-c2c3nc(c(-c4c(F)cccc4F)c4ccc([nH]4)c(-c4c(F)cccc4F)c4nc(c(-c5c(F)cccc5F)c5ccc2[nH]5)C=C4)C=C3)cc1)C1=Cc2cc(Cl)cc(-c3ccc(O)cc3)c2O[C@@H]1C(F)(F)F
REMARK SMILES IDX 5 1 4 2 3 3 1 4 2 5 64 7 65 8 81 9 66 10 80 11 67 12 79 13
REMARK SMILES IDX 68 14 71 15 69 16 70 17 82 18 83 19 84 20 85 21 72 22 73 23
REMARK SMILES IDX 78 24 74 25 77 26 75 27 76 28 6 30 7 31 8 32 9 34 10 35
REMARK SMILES IDX 11 36 63 37 12 38 62 39 13 40 14 41 15 42 56 43 16 44 61 45
REMARK SMILES IDX 55 46 57 47 17 48 60 49 54 50 53 51 18 53 44 54 27 55 43 56
REMARK SMILES IDX 28 57 31 58 42 59 58 60 29 61 30 62 41 64 59 65 32 66 19 67
REMARK SMILES IDX 20 68 25 69 21 70 22 71 24 72 26 73 23 74 45 75 46 76 51 77
REMARK SMILES IDX 47 78 48 79 50 80 52 81 49 82 33 83 34 84 39 85 35 86 36 87
REMARK SMILES IDX 38 88 40 89 37 90
REMARK H PARENT 3 6 76 29 7 33 57 52 31 63
REMARK Flexibility Score: inf
ROOT
ATOM      1  C   UNL     1       3.953   2.322  -1.896  1.00  0.00     0.042 C 
ENDROOT
BRANCH   1   2
ATOM      2  C   UNL     1       2.867   1.930  -0.892  1.00  0.00     0.118 C 
BRANCH   2   3
ATOM      3  N   UNL     1       2.076   0.779  -1.341  1.00  0.00    -0.352 N 
ATOM      4  O   UNL     1       1.292  -1.352  -1.290  1.00  0.00    -0.270 OA
ATOM      5  C   UNL     1       2.136  -0.535  -0.952  1.00  0.00     0.251 C 
ATOM      6  H   UNL     1       1.399   0.980  -2.026  1.00  0.00     0.163 HD
BRANCH   5   7
ATOM      7  C   UNL     1       3.242  -0.901  -0.058  1.00  0.00     0.067 C 
ATOM      8  C   UNL     1       4.483  -0.846  -0.551  1.00  0.00     0.025 C 
ATOM      9  C   UNL     1       2.954  -0.974   1.406  1.00  0.00     0.314 C 
ATOM     10  C   UNL     1       5.495  -0.373   0.397  1.00  0.00     0.019 A 
ATOM     11  O   UNL     1       3.814  -0.076   2.149  1.00  0.00    -0.475 OA
ATOM     12  C   UNL     1       6.776  -0.101  -0.087  1.00  0.00     0.032 A 
ATOM     13  C   UNL     1       5.071   0.157   1.635  1.00  0.00     0.135 A 
ATOM     14  C   UNL     1       7.599   0.772   0.615  1.00  0.00     0.042 A 
ATOM     15  C   UNL     1       5.876   1.090   2.312  1.00  0.00     0.026 A 
ATOM     16  Cl  UNL     1       9.120   1.219  -0.053  1.00  0.00    -0.084 Cl
ATOM     17  C   UNL     1       7.148   1.382   1.786  1.00  0.00     0.033 A 
BRANCH   9  18
ATOM     18  C   UNL     1       3.018  -2.419   1.933  1.00  0.00     0.429 C 
ATOM     19  F   UNL     1       2.672  -2.479   3.241  1.00  0.00    -0.167 F 
ATOM     20  F   UNL     1       2.164  -3.232   1.268  1.00  0.00    -0.167 F 
ATOM     21  F   UNL     1       4.254  -2.960   1.821  1.00  0.00    -0.167 F 
ENDBRANCH   9  18
BRANCH  15  22
ATOM     22  C   UNL     1       5.365   1.911   3.421  1.00  0.00    -0.014 A 
ATOM     23  C   UNL     1       4.751   3.147   3.148  1.00  0.00     0.012 A 
ATOM     24  C   UNL     1       5.530   1.538   4.759  1.00  0.00     0.012 A 
ATOM     25  C   UNL     1       4.373   4.015   4.169  1.00  0.00     0.047 A 
ATOM     26  C   UNL     1       5.142   2.403   5.791  1.00  0.00     0.047 A 
ATOM     27  C   UNL     1       4.588   3.643   5.484  1.00  0.00     0.115 A 
BRANCH  27  28
ATOM     28  O   UNL     1       4.251   4.538   6.454  1.00  0.00    -0.508 OA
ATOM     29  H   UNL     1       3.880   5.366   6.220  1.00  0.00     0.293 HD
ENDBRANCH  27  28
ENDBRANCH  15  22
ENDBRANCH   5   7
ENDBRANCH   2   3
ENDBRANCH   1   2
BRANCH   1  30
ATOM     30  C   UNL     1       4.501   3.727  -1.664  1.00  0.00     0.118 C 
BRANCH  30  31
ATOM     31  N   UNL     1       5.253   3.905  -0.431  1.00  0.00    -0.352 N 
ATOM     32  C   UNL     1       6.011   4.989  -0.027  1.00  0.00     0.251 C 
ATOM     33  H   UNL     1       5.218   3.151   0.201  1.00  0.00     0.163 HD
ATOM     34  O   UNL     1       6.605   4.959   1.048  1.00  0.00    -0.269 OA
BRANCH  32  35
ATOM     35  C   UNL     1       6.221   6.129  -0.949  1.00  0.00     0.039 A 
ATOM     36  C   UNL     1       7.531   6.579  -1.147  1.00  0.00     0.014 A 
ATOM     37  C   UNL     1       5.186   6.640  -1.729  1.00  0.00     0.014 A 
ATOM     38  C   UNL     1       7.827   7.381  -2.250  1.00  0.00     0.010 A 
ATOM     39  C   UNL     1       5.494   7.346  -2.885  1.00  0.00     0.010 A 
ATOM     40  C   UNL     1       6.825   7.668  -3.187  1.00  0.00    -0.014 A 
BRANCH  40  41
ATOM     41  C   UNL     1       7.144   8.188  -4.542  1.00  0.00     0.031 A 
ATOM     42  C   UNL     1       6.510   9.456  -5.031  1.00  0.00     0.074 A 
ATOM     43  C   UNL     1       7.876   7.425  -5.380  1.00  0.00     0.049 A 
ATOM     44  N   UNL     1       6.475   9.948  -6.242  1.00  0.00    -0.248 NA
ATOM     45  C   UNL     1       5.775  10.248  -4.034  1.00  0.00     0.031 C 
ATOM     46  C   UNL     1       8.485   6.133  -5.046  1.00  0.00     0.029 A 
ATOM     47  N   UNL     1       8.214   7.612  -6.698  1.00  0.00    -0.354 N 
ATOM     48  C   UNL     1       5.673  11.079  -6.163  1.00  0.00     0.074 A 
ATOM     49  C   UNL     1       5.218  11.181  -4.792  1.00  0.00     0.031 C 
ATOM     50  C   UNL     1       9.145   5.663  -6.116  1.00  0.00     0.029 A 
ATOM     51  C   UNL     1       8.965   6.589  -7.226  1.00  0.00     0.049 A 
ATOM     52  H   UNL     1       7.943   8.405  -7.215  1.00  0.00     0.167 HD
ATOM     53  C   UNL     1       5.356  11.957  -7.143  1.00  0.00     0.037 A 
ATOM     54  C   UNL     1       9.444   6.410  -8.471  1.00  0.00     0.037 A 
ATOM     55  C   UNL     1       5.859  11.879  -8.488  1.00  0.00     0.049 A 
ATOM     56  C   UNL     1       9.143   7.439  -9.520  1.00  0.00     0.074 A 
ATOM     57  C   UNL     1       5.652  12.752  -9.542  1.00  0.00     0.029 A 
ATOM     58  N   UNL     1       6.690  10.872  -8.958  1.00  0.00    -0.354 N 
ATOM     59  N   UNL     1       8.411   8.523  -9.423  1.00  0.00    -0.248 NA
ATOM     60  C   UNL     1       9.729   7.224 -10.850  1.00  0.00     0.031 C 
ATOM     61  C   UNL     1       6.350  12.266 -10.654  1.00  0.00     0.029 A 
ATOM     62  C   UNL     1       7.010  11.105 -10.284  1.00  0.00     0.049 A 
ATOM     63  H   UNL     1       7.006  10.106  -8.427  1.00  0.00     0.167 HD
ATOM     64  C   UNL     1       8.467   9.131 -10.669  1.00  0.00     0.074 A 
ATOM     65  C   UNL     1       9.310   8.300 -11.504  1.00  0.00     0.031 C 
ATOM     66  C   UNL     1       7.871  10.273 -11.085  1.00  0.00     0.037 A 
BRANCH  53  67
ATOM     67  C   UNL     1       4.425  13.077  -6.783  1.00  0.00     0.057 A 
ATOM     68  C   UNL     1       4.829  14.135  -5.958  1.00  0.00     0.134 A 
ATOM     69  C   UNL     1       3.109  13.095  -7.261  1.00  0.00     0.134 A 
ATOM     70  F   UNL     1       6.072  14.167  -5.455  1.00  0.00    -0.206 F 
ATOM     71  C   UNL     1       3.947  15.152  -5.592  1.00  0.00     0.040 A 
ATOM     72  C   UNL     1       2.225  14.121  -6.923  1.00  0.00     0.040 A 
ATOM     73  F   UNL     1       2.659  12.115  -8.059  1.00  0.00    -0.206 F 
ATOM     74  C   UNL     1       2.641  15.148  -6.077  1.00  0.00     0.006 A 
ENDBRANCH  53  67
BRANCH  54  75
ATOM     75  C   UNL     1      10.287   5.229  -8.781  1.00  0.00     0.057 A 
ATOM     76  C   UNL     1      11.668   5.367  -8.964  1.00  0.00     0.134 A 
ATOM     77  C   UNL     1       9.747   3.943  -8.891  1.00  0.00     0.134 A 
ATOM     78  F   UNL     1      12.240   6.578  -8.885  1.00  0.00    -0.206 F 
ATOM     79  C   UNL     1      12.481   4.272  -9.260  1.00  0.00     0.040 A 
ATOM     80  C   UNL     1      10.551   2.835  -9.168  1.00  0.00     0.040 A 
ATOM     81  F   UNL     1       8.433   3.743  -8.714  1.00  0.00    -0.206 F 
ATOM     82  C   UNL     1      11.922   3.000  -9.359  1.00  0.00     0.006 A 
ENDBRANCH  54  75
BRANCH  66  83
ATOM     83  C   UNL     1       8.145  10.712 -12.489  1.00  0.00     0.057 A 
ATOM     84  C   UNL     1       7.503  10.119 -13.582  1.00  0.00     0.134 A 
ATOM     85  C   UNL     1       9.019  11.776 -12.741  1.00  0.00     0.134 A 
ATOM     86  F   UNL     1       6.667   9.086 -13.401  1.00  0.00    -0.206 F 
ATOM     87  C   UNL     1       7.727  10.567 -14.884  1.00  0.00     0.040 A 
ATOM     88  C   UNL     1       9.238  12.244 -14.037  1.00  0.00     0.040 A 
ATOM     89  F   UNL     1       9.660  12.384 -11.732  1.00  0.00    -0.206 F 
ATOM     90  C   UNL     1       8.591  11.638 -15.113  1.00  0.00     0.006 A 
ENDBRANCH  66  83
ENDBRANCH  40  41
ENDBRANCH  32  35
ENDBRANCH  30  31
ENDBRANCH   1  30
TORSDOF 13
