REMARK SMILES CC(C)=CC[C@@]1(C(=O)NCCCNC(=O)c2ccc(-c3c4nc(c(-c5c(F)cccc5F)c5ccc([nH]5)c(-c5c(F)cccc5F)c5nc(c(-c6c(F)cccc6F)c6ccc3[nH]6)C=C5)C=C4)cc2)CCC[C@H](C)C1
REMARK SMILES IDX 11 1 10 2 9 3 7 4 8 5 6 7 70 8 75 9 71 10 73 11 72 12 74 13
REMARK SMILES IDX 5 14 4 15 1 16 2 17 3 18 12 19 13 20 14 21 15 23 16 24 17 25
REMARK SMILES IDX 69 26 18 27 68 28 19 29 20 30 21 31 62 32 22 33 67 34 61 35
REMARK SMILES IDX 63 36 23 37 66 38 60 39 59 40 24 42 50 43 33 44 49 45 34 46
REMARK SMILES IDX 37 47 48 48 64 49 35 50 36 51 47 53 65 54 38 55 25 56 26 57
REMARK SMILES IDX 31 58 27 59 28 60 30 61 32 62 29 63 51 64 52 65 57 66 53 67
REMARK SMILES IDX 54 68 56 69 58 70 55 71 39 72 40 73 45 74 41 75 42 76 44 77
REMARK SMILES IDX 46 78 43 79
REMARK H PARENT 9 6 13 22 63 41 37 52
REMARK Flexibility Score: inf
ROOT
ATOM      1  C   UNL     1       1.284  -1.898   0.992  1.00  0.00     0.042 C 
ENDROOT
BRANCH   1   2
ATOM      2  C   UNL     1       1.391  -2.651  -0.344  1.00  0.00     0.117 C 
BRANCH   2   3
ATOM      3  N   UNL     1       0.992  -1.998  -1.591  1.00  0.00    -0.356 N 
ATOM      4  C   UNL     1       1.657  -1.313  -2.583  1.00  0.00     0.226 C 
ATOM      5  O   UNL     1       1.031  -1.095  -3.625  1.00  0.00    -0.274 OA
ATOM      6  H   UNL     1       0.024  -2.064  -1.761  1.00  0.00     0.163 HD
BRANCH   4   7
ATOM      7  C   UNL     1       3.133  -0.916  -2.452  1.00  0.00     0.053 C 
ATOM      8  C   UNL     1       3.658   0.035  -3.576  1.00  0.00     0.017 C 
ATOM      9  C   UNL     1       3.848  -2.284  -2.686  1.00  0.00     0.020 C 
ATOM     10  C   UNL     1       5.203   0.087  -3.649  1.00  0.00     0.001 C 
ATOM     11  C   UNL     1       5.361  -2.315  -2.892  1.00  0.00    -0.013 C 
ATOM     12  C   UNL     1       5.811  -1.283  -3.921  1.00  0.00     0.003 C 
ATOM     13  C   UNL     1       5.765  -3.729  -3.348  1.00  0.00     0.007 C 
BRANCH   7  14
ATOM     14  C   UNL     1       3.348  -0.184  -1.105  1.00  0.00     0.044 C 
BRANCH  14  15
ATOM     15  C   UNL     1       2.444   0.951  -0.575  1.00  0.00    -0.027 C 
ATOM     16  C   UNL     1       0.003   0.907  -1.510  1.00  0.00     0.039 C 
ATOM     17  C   UNL     1       1.165   1.397  -0.680  1.00  0.00    -0.080 C 
ATOM     18  C   UNL     1       0.715   2.555   0.195  1.00  0.00     0.039 C 
ENDBRANCH  14  15
ENDBRANCH   7  14
ENDBRANCH   4   7
ENDBRANCH   2   3
ENDBRANCH   1   2
BRANCH   1  19
ATOM     19  C   UNL     1      -0.070  -1.403   1.477  1.00  0.00     0.118 C 
BRANCH  19  20
ATOM     20  N   UNL     1      -1.081  -2.432   1.564  1.00  0.00    -0.352 N 
ATOM     21  C   UNL     1      -2.142  -2.501   2.436  1.00  0.00     0.251 C 
ATOM     22  H   UNL     1      -1.001  -3.173   0.921  1.00  0.00     0.163 HD
ATOM     23  O   UNL     1      -2.879  -3.475   2.435  1.00  0.00    -0.269 OA
BRANCH  21  24
ATOM     24  C   UNL     1      -2.369  -1.406   3.408  1.00  0.00     0.039 A 
ATOM     25  C   UNL     1      -2.428  -1.731   4.765  1.00  0.00     0.014 A 
ATOM     26  C   UNL     1      -2.561  -0.085   2.992  1.00  0.00     0.014 A 
ATOM     27  C   UNL     1      -2.651  -0.728   5.711  1.00  0.00     0.010 A 
ATOM     28  C   UNL     1      -2.748   0.924   3.944  1.00  0.00     0.010 A 
ATOM     29  C   UNL     1      -2.796   0.613   5.313  1.00  0.00    -0.014 A 
BRANCH  29  30
ATOM     30  C   UNL     1      -2.962   1.680   6.337  1.00  0.00     0.031 A 
ATOM     31  C   UNL     1      -4.256   2.433   6.476  1.00  0.00     0.074 A 
ATOM     32  C   UNL     1      -1.927   1.984   7.145  1.00  0.00     0.049 A 
ATOM     33  N   UNL     1      -4.582   3.365   7.337  1.00  0.00    -0.248 NA
ATOM     34  C   UNL     1      -5.316   2.108   5.511  1.00  0.00     0.031 C 
ATOM     35  C   UNL     1      -0.605   1.359   7.088  1.00  0.00     0.029 A 
ATOM     36  N   UNL     1      -1.823   2.892   8.170  1.00  0.00    -0.354 N 
ATOM     37  C   UNL     1      -5.883   3.739   7.020  1.00  0.00     0.074 A 
ATOM     38  C   UNL     1      -6.265   2.968   5.854  1.00  0.00     0.031 C 
ATOM     39  C   UNL     1       0.169   1.882   8.052  1.00  0.00     0.029 A 
ATOM     40  C   UNL     1      -0.588   2.901   8.773  1.00  0.00     0.049 A 
ATOM     41  H   UNL     1      -2.562   3.480   8.447  1.00  0.00     0.167 HD
ATOM     42  C   UNL     1      -6.690   4.628   7.651  1.00  0.00     0.037 A 
ATOM     43  C   UNL     1      -0.114   3.646   9.791  1.00  0.00     0.037 A 
ATOM     44  C   UNL     1      -6.305   5.396   8.809  1.00  0.00     0.049 A 
ATOM     45  C   UNL     1      -1.019   4.640  10.462  1.00  0.00     0.074 A 
ATOM     46  C   UNL     1      -7.070   6.281   9.550  1.00  0.00     0.029 A 
ATOM     47  N   UNL     1      -5.043   5.386   9.384  1.00  0.00    -0.354 N 
ATOM     48  N   UNL     1      -2.273   4.923  10.204  1.00  0.00    -0.248 NA
ATOM     49  C   UNL     1      -0.447   5.413  11.574  1.00  0.00     0.031 C 
ATOM     50  C   UNL     1      -6.254   6.850  10.534  1.00  0.00     0.029 A 
ATOM     51  C   UNL     1      -4.997   6.274  10.448  1.00  0.00     0.049 A 
ATOM     52  H   UNL     1      -4.289   4.830   9.080  1.00  0.00     0.167 HD
ATOM     53  C   UNL     1      -2.646   5.887  11.132  1.00  0.00     0.074 A 
ATOM     54  C   UNL     1      -1.490   6.127  11.971  1.00  0.00     0.031 C 
ATOM     55  C   UNL     1      -3.840   6.514  11.275  1.00  0.00     0.037 A 
BRANCH  42  56
ATOM     56  C   UNL     1      -8.070   4.828   7.088  1.00  0.00     0.057 A 
ATOM     57  C   UNL     1      -9.049   3.826   7.146  1.00  0.00     0.134 A 
ATOM     58  C   UNL     1      -8.435   6.047   6.500  1.00  0.00     0.134 A 
ATOM     59  F   UNL     1      -8.769   2.633   7.692  1.00  0.00    -0.206 F 
ATOM     60  C   UNL     1     -10.323   4.013   6.604  1.00  0.00     0.040 A 
ATOM     61  C   UNL     1      -9.715   6.257   5.983  1.00  0.00     0.040 A 
ATOM     62  F   UNL     1      -7.555   7.056   6.422  1.00  0.00    -0.206 F 
ATOM     63  C   UNL     1     -10.660   5.234   6.024  1.00  0.00     0.006 A 
ENDBRANCH  42  56
BRANCH  43  64
ATOM     64  C   UNL     1       1.287   3.459  10.248  1.00  0.00     0.057 A 
ATOM     65  C   UNL     1       1.574   2.877  11.488  1.00  0.00     0.134 A 
ATOM     66  C   UNL     1       2.371   3.843   9.449  1.00  0.00     0.134 A 
ATOM     67  F   UNL     1       0.579   2.505  12.306  1.00  0.00    -0.206 F 
ATOM     68  C   UNL     1       2.888   2.694  11.923  1.00  0.00     0.040 A 
ATOM     69  C   UNL     1       3.690   3.642   9.859  1.00  0.00     0.040 A 
ATOM     70  F   UNL     1       2.163   4.399   8.246  1.00  0.00    -0.206 F 
ATOM     71  C   UNL     1       3.951   3.071  11.103  1.00  0.00     0.006 A 
ENDBRANCH  43  64
BRANCH  55  72
ATOM     72  C   UNL     1      -3.966   7.507  12.396  1.00  0.00     0.057 A 
ATOM     73  C   UNL     1      -3.309   8.744  12.371  1.00  0.00     0.134 A 
ATOM     74  C   UNL     1      -4.782   7.234  13.502  1.00  0.00     0.134 A 
ATOM     75  F   UNL     1      -2.501   9.065  11.349  1.00  0.00    -0.206 F 
ATOM     76  C   UNL     1      -3.438   9.662  13.416  1.00  0.00     0.040 A 
ATOM     77  C   UNL     1      -4.944   8.156  14.538  1.00  0.00     0.040 A 
ATOM     78  F   UNL     1      -5.448   6.073  13.589  1.00  0.00    -0.206 F 
ATOM     79  C   UNL     1      -4.264   9.372  14.500  1.00  0.00     0.006 A 
ENDBRANCH  55  72
ENDBRANCH  29  30
ENDBRANCH  21  24
ENDBRANCH  19  20
ENDBRANCH   1  19
TORSDOF 12
