REMARK SMILES O=C(COc1ccccc1Br)Nc1cccc(C(=O)Nc2ccc(C(=O)NCCCNC(=O)c3ccc(-c4c5nc(c(-c6c(F)cccc6F)c6ccc([nH]6)c(-c6c(F)cccc6F)c6nc(c(-c7c(F)cccc7F)c7ccc4[nH]7)C=C6)C=C5)cc3)cc2)c1
REMARK SMILES IDX 25 1 26 2 27 3 24 5 21 6 22 7 89 8 23 9 88 10 20 11 18 12
REMARK SMILES IDX 19 13 17 15 13 16 14 17 90 18 15 19 16 20 12 21 1 22 2 23
REMARK SMILES IDX 3 25 4 26 5 27 6 28 10 29 7 30 9 31 11 32 8 33 28 34 29 35
REMARK SMILES IDX 30 36 31 37 32 38 33 40 34 41 35 42 87 43 36 44 86 45 37 46
REMARK SMILES IDX 38 47 39 48 80 49 40 50 85 51 79 52 81 53 41 54 84 55 78 56
REMARK SMILES IDX 77 57 42 59 68 60 51 61 67 62 52 63 55 64 66 65 82 66 53 67
REMARK SMILES IDX 54 68 65 70 83 71 56 72 43 73 44 74 49 75 45 76 46 77 48 78
REMARK SMILES IDX 50 79 47 80 69 81 70 82 75 83 71 84 72 85 74 86 76 87 73 88
REMARK SMILES IDX 57 89 58 90 63 91 59 92 60 93 62 94 64 95 61 96
REMARK H PARENT 27 4 20 14 12 24 31 39 81 58 55 69
REMARK Flexibility Score: inf
ROOT
ATOM      1  C   UNL     1       1.587  -3.172  -1.869  1.00  0.00     0.251 C 
ATOM      2  O   UNL     1       0.998  -3.298  -2.943  1.00  0.00    -0.269 OA
ATOM      3  N   UNL     1       2.888  -2.733  -1.915  1.00  0.00    -0.352 N 
ATOM      4  H   UNL     1       3.216  -2.574  -2.829  1.00  0.00     0.163 HD
ENDROOT
BRANCH   1   5
ATOM      5  C   UNL     1       0.852  -3.411  -0.597  1.00  0.00     0.039 A 
ATOM      6  C   UNL     1      -0.562  -3.279   1.811  1.00  0.00     0.041 A 
ATOM      7  C   UNL     1      -1.238  -3.079   0.608  1.00  0.00     0.027 A 
ATOM      8  C   UNL     1       0.757  -3.741   1.798  1.00  0.00     0.027 A 
ATOM      9  C   UNL     1      -0.520  -3.111  -0.591  1.00  0.00     0.016 A 
ATOM     10  C   UNL     1       1.451  -3.843   0.587  1.00  0.00     0.016 A 
BRANCH   6  11
ATOM     11  N   UNL     1      -1.204  -2.884   2.994  1.00  0.00    -0.322 N 
ATOM     12  C   UNL     1      -0.719  -2.110   4.038  1.00  0.00     0.255 C 
ATOM     13  O   UNL     1      -1.366  -2.043   5.083  1.00  0.00    -0.269 OA
ATOM     14  H   UNL     1      -2.130  -3.201   3.099  1.00  0.00     0.170 HD
BRANCH  12  15
ATOM     15  C   UNL     1       0.508  -1.260   3.899  1.00  0.00     0.042 A 
ATOM     16  C   UNL     1       2.143  -0.079   2.529  1.00  0.00     0.042 A 
ATOM     17  C   UNL     1       2.837   0.286   3.684  1.00  0.00     0.026 A 
ATOM     18  C   UNL     1       0.954  -0.791   2.659  1.00  0.00     0.040 A 
ATOM     19  C   UNL     1       2.333  -0.052   4.943  1.00  0.00     0.003 A 
ATOM     20  C   UNL     1       1.179  -0.834   5.050  1.00  0.00     0.014 A 
BRANCH  16  21
ATOM     21  N   UNL     1       2.652   0.345   1.287  1.00  0.00    -0.323 N 
ATOM     22  O   UNL     1       0.984  -0.317  -0.217  1.00  0.00    -0.271 OA
ATOM     23  C   UNL     1       2.020   0.280   0.052  1.00  0.00     0.262 C 
ATOM     24  H   UNL     1       3.558   0.731   1.294  1.00  0.00     0.170 HD
BRANCH  23  25
ATOM     25  C   UNL     1       2.758   1.060  -1.027  1.00  0.00     0.329 C 
BRANCH  25  26
ATOM     26  O   UNL     1       3.498   2.130  -0.428  1.00  0.00    -0.483 OA
BRANCH  26  27
ATOM     27  C   UNL     1       2.966   3.331  -0.812  1.00  0.00     0.134 A 
ATOM     28  C   UNL     1       3.505   3.920  -1.958  1.00  0.00     0.047 A 
ATOM     29  C   UNL     1       1.954   3.977  -0.094  1.00  0.00     0.060 A 
ATOM     30  C   UNL     1       3.000   5.137  -2.410  1.00  0.00     0.004 A 
ATOM     31  C   UNL     1       1.442   5.185  -0.563  1.00  0.00     0.019 A 
ATOM     32  Br  UNL     1       1.237   3.323   1.530  1.00  0.00    -0.047 Br
ATOM     33  C   UNL     1       1.963   5.763  -1.719  1.00  0.00     0.001 A 
ENDBRANCH  26  27
ENDBRANCH  25  26
ENDBRANCH  23  25
ENDBRANCH  16  21
ENDBRANCH  12  15
ENDBRANCH   6  11
ENDBRANCH   1   5
BRANCH   3  34
ATOM     34  C   UNL     1       3.878  -2.455  -0.888  1.00  0.00     0.118 C 
BRANCH  34  35
ATOM     35  C   UNL     1       4.996  -3.486  -0.916  1.00  0.00     0.042 C 
BRANCH  35  36
ATOM     36  C   UNL     1       5.880  -3.352  -2.154  1.00  0.00     0.118 C 
BRANCH  36  37
ATOM     37  N   UNL     1       6.653  -2.112  -2.164  1.00  0.00    -0.352 N 
ATOM     38  C   UNL     1       8.014  -1.917  -2.137  1.00  0.00     0.251 C 
ATOM     39  H   UNL     1       6.115  -1.288  -2.195  1.00  0.00     0.163 HD
ATOM     40  O   UNL     1       8.469  -0.797  -1.952  1.00  0.00    -0.269 OA
BRANCH  38  41
ATOM     41  C   UNL     1       8.920  -3.071  -2.312  1.00  0.00     0.039 A 
ATOM     42  C   UNL     1      10.033  -3.197  -1.477  1.00  0.00     0.014 A 
ATOM     43  C   UNL     1       8.659  -4.034  -3.288  1.00  0.00     0.014 A 
ATOM     44  C   UNL     1      10.833  -4.338  -1.566  1.00  0.00     0.010 A 
ATOM     45  C   UNL     1       9.394  -5.212  -3.306  1.00  0.00     0.010 A 
ATOM     46  C   UNL     1      10.490  -5.377  -2.446  1.00  0.00    -0.014 A 
BRANCH  46  47
ATOM     47  C   UNL     1      11.256  -6.648  -2.486  1.00  0.00     0.031 A 
ATOM     48  C   UNL     1      11.940  -7.076  -3.756  1.00  0.00     0.074 A 
ATOM     49  C   UNL     1      11.266  -7.453  -1.405  1.00  0.00     0.049 A 
ATOM     50  N   UNL     1      12.575  -8.189  -4.018  1.00  0.00    -0.248 NA
ATOM     51  C   UNL     1      11.871  -6.144  -4.894  1.00  0.00     0.031 C 
ATOM     52  C   UNL     1      10.593  -7.176  -0.133  1.00  0.00     0.029 A 
ATOM     53  N   UNL     1      11.854  -8.678  -1.206  1.00  0.00    -0.354 N 
ATOM     54  C   UNL     1      12.964  -8.098  -5.348  1.00  0.00     0.074 A 
ATOM     55  C   UNL     1      12.443  -6.849  -5.858  1.00  0.00     0.031 C 
ATOM     56  C   UNL     1      10.827  -8.186   0.720  1.00  0.00     0.029 A 
ATOM     57  C   UNL     1      11.626  -9.202   0.044  1.00  0.00     0.049 A 
ATOM     58  H   UNL     1      12.387  -9.137  -1.894  1.00  0.00     0.167 HD
ATOM     59  C   UNL     1      13.711  -8.964  -6.072  1.00  0.00     0.037 A 
ATOM     60  C   UNL     1      12.010 -10.376   0.581  1.00  0.00     0.037 A 
ATOM     61  C   UNL     1      14.252 -10.191  -5.551  1.00  0.00     0.049 A 
ATOM     62  C   UNL     1      12.836 -11.322  -0.249  1.00  0.00     0.074 A 
ATOM     63  C   UNL     1      15.074 -11.107  -6.183  1.00  0.00     0.029 A 
ATOM     64  N   UNL     1      14.021 -10.675  -4.272  1.00  0.00    -0.354 N 
ATOM     65  N   UNL     1      13.260 -11.187  -1.482  1.00  0.00    -0.248 NA
ATOM     66  C   UNL     1      13.241 -12.582   0.390  1.00  0.00     0.031 C 
ATOM     67  C   UNL     1      15.300 -12.170  -5.304  1.00  0.00     0.029 A 
ATOM     68  C   UNL     1      14.668 -11.888  -4.104  1.00  0.00     0.049 A 
ATOM     69  H   UNL     1      13.479 -10.223  -3.586  1.00  0.00     0.167 HD
ATOM     70  C   UNL     1      14.010 -12.324  -1.753  1.00  0.00     0.074 A 
ATOM     71  C   UNL     1      13.994 -13.131  -0.551  1.00  0.00     0.031 C 
ATOM     72  C   UNL     1      14.653 -12.671  -2.895  1.00  0.00     0.037 A 
BRANCH  59  73
ATOM     73  C   UNL     1      13.997  -8.612  -7.504  1.00  0.00     0.057 A 
ATOM     74  C   UNL     1      14.847  -7.553  -7.850  1.00  0.00     0.134 A 
ATOM     75  C   UNL     1      13.455  -9.372  -8.549  1.00  0.00     0.134 A 
ATOM     76  F   UNL     1      15.389  -6.777  -6.899  1.00  0.00    -0.206 F 
ATOM     77  C   UNL     1      15.130  -7.249  -9.183  1.00  0.00     0.040 A 
ATOM     78  C   UNL     1      13.755  -9.096  -9.884  1.00  0.00     0.040 A 
ATOM     79  F   UNL     1      12.637 -10.403  -8.289  1.00  0.00    -0.206 F 
ATOM     80  C   UNL     1      14.591  -8.029 -10.204  1.00  0.00     0.006 A 
ENDBRANCH  59  73
BRANCH  60  81
ATOM     81  C   UNL     1      11.636 -10.723   1.976  1.00  0.00     0.057 A 
ATOM     82  C   UNL     1      12.604 -10.817   2.983  1.00  0.00     0.134 A 
ATOM     83  C   UNL     1      10.309 -10.996   2.333  1.00  0.00     0.134 A 
ATOM     84  F   UNL     1      13.895 -10.584   2.701  1.00  0.00    -0.206 F 
ATOM     85  C   UNL     1      12.274 -11.200   4.285  1.00  0.00     0.040 A 
ATOM     86  C   UNL     1       9.961 -11.351   3.638  1.00  0.00     0.040 A 
ATOM     87  F   UNL     1       9.331 -10.914   1.420  1.00  0.00    -0.206 F 
ATOM     88  C   UNL     1      10.947 -11.464   4.615  1.00  0.00     0.006 A 
ENDBRANCH  60  81
BRANCH  72  89
ATOM     89  C   UNL     1      15.433 -13.953  -2.884  1.00  0.00     0.057 A 
ATOM     90  C   UNL     1      14.806 -15.205  -2.865  1.00  0.00     0.134 A 
ATOM     91  C   UNL     1      16.834 -13.932  -2.936  1.00  0.00     0.134 A 
ATOM     92  F   UNL     1      13.469 -15.294  -2.803  1.00  0.00    -0.206 F 
ATOM     93  C   UNL     1      15.543 -16.390  -2.872  1.00  0.00     0.040 A 
ATOM     94  C   UNL     1      17.580 -15.109  -2.975  1.00  0.00     0.040 A 
ATOM     95  F   UNL     1      17.497 -12.766  -2.967  1.00  0.00    -0.206 F 
ATOM     96  C   UNL     1      16.935 -16.343  -2.936  1.00  0.00     0.006 A 
ENDBRANCH  72  89
ENDBRANCH  46  47
ENDBRANCH  38  41
ENDBRANCH  36  37
ENDBRANCH  35  36
ENDBRANCH  34  35
ENDBRANCH   3  34
TORSDOF 16
