REMARK SMILES C[C@H]1[C@@H](C(=O)NCCCNC(=O)c2ccc(-c3c4nc(c(-c5c(F)cccc5F)c5ccc([nH]5)c(-c5c(F)cccc5F)c5nc(c(-c6c(F)cccc6F)c6ccc3[nH]6)C=C5)C=C4)cc2)CC[N@@H+]1Cc1cc(F)c(F)c(F)c1
REMARK SMILES IDX 8 1 7 2 6 3 4 4 5 5 3 7 1 8 2 9 69 10 67 11 68 12 70 14
REMARK SMILES IDX 71 15 72 16 79 17 73 18 77 19 74 20 75 21 78 22 76 23 9 24
REMARK SMILES IDX 10 25 11 26 12 28 13 29 14 30 66 31 15 32 65 33 16 34 17 35
REMARK SMILES IDX 18 36 59 37 19 38 64 39 58 40 60 41 20 42 63 43 57 44 56 45
REMARK SMILES IDX 21 47 47 48 30 49 46 50 31 51 34 52 45 53 61 54 32 55 33 56
REMARK SMILES IDX 44 58 62 59 35 60 22 61 23 62 28 63 24 64 25 65 27 66 29 67
REMARK SMILES IDX 26 68 48 69 49 70 54 71 50 72 51 73 53 74 55 75 52 76 36 77
REMARK SMILES IDX 37 78 42 79 38 80 39 81 41 82 43 83 40 84
REMARK H PARENT 6 6 69 13 10 27 60 46 34 57
REMARK Flexibility Score: inf
ROOT
ATOM      1  C   UNL     1       3.878   0.767  -1.579  1.00  0.00     0.042 C 
ENDROOT
BRANCH   1   2
ATOM      2  C   UNL     1       2.988   1.846  -0.956  1.00  0.00     0.117 C 
BRANCH   2   3
ATOM      3  N   UNL     1       1.748   1.941  -1.700  1.00  0.00    -0.356 N 
ATOM      4  C   UNL     1       0.542   1.349  -1.491  1.00  0.00     0.229 C 
ATOM      5  O   UNL     1      -0.186   1.250  -2.482  1.00  0.00    -0.275 OA
ATOM      6  H   UNL     1       1.785   2.531  -2.487  1.00  0.00     0.163 HD
BRANCH   4   7
ATOM      7  C   UNL     1       0.068   0.990  -0.080  1.00  0.00     0.142 C 
ATOM      8  C   UNL     1       1.667  -1.109   0.074  1.00  0.00     0.076 C 
ATOM      9  C   UNL     1       0.467  -0.343   0.592  1.00  0.00     0.193 C 
ATOM     10  N   UNL     1      -0.692  -1.247   0.493  1.00  0.00    -0.328 N 
ATOM     11  C   UNL     1      -1.468   0.891  -0.096  1.00  0.00     0.081 C 
ATOM     12  C   UNL     1      -1.713  -0.591  -0.312  1.00  0.00     0.263 C 
ATOM     13  H   UNL     1      -0.407  -2.095   0.003  1.00  0.00     0.348 HD
BRANCH  10  14
ATOM     14  C   UNL     1      -1.129  -1.877   1.740  1.00  0.00     0.299 C 
BRANCH  14  15
ATOM     15  C   UNL     1      -1.690  -0.965   2.812  1.00  0.00     0.012 A 
ATOM     16  C   UNL     1      -0.896  -0.556   3.897  1.00  0.00     0.052 A 
ATOM     17  C   UNL     1      -3.016  -0.507   2.745  1.00  0.00     0.052 A 
ATOM     18  C   UNL     1      -1.413   0.311   4.860  1.00  0.00     0.162 A 
ATOM     19  C   UNL     1      -3.510   0.373   3.706  1.00  0.00     0.162 A 
ATOM     20  F   UNL     1      -0.634   0.689   5.883  1.00  0.00    -0.204 F 
ATOM     21  C   UNL     1      -2.713   0.785   4.762  1.00  0.00     0.194 A 
ATOM     22  F   UNL     1      -4.765   0.826   3.589  1.00  0.00    -0.204 F 
ATOM     23  F   UNL     1      -3.195   1.634   5.681  1.00  0.00    -0.200 F 
ENDBRANCH  14  15
ENDBRANCH  10  14
ENDBRANCH   4   7
ENDBRANCH   2   3
ENDBRANCH   1   2
BRANCH   1  24
ATOM     24  C   UNL     1       4.391   1.109  -2.972  1.00  0.00     0.118 C 
BRANCH  24  25
ATOM     25  N   UNL     1       5.642   1.839  -2.925  1.00  0.00    -0.352 N 
ATOM     26  C   UNL     1       6.909   1.431  -3.253  1.00  0.00     0.251 C 
ATOM     27  H   UNL     1       5.572   2.769  -2.610  1.00  0.00     0.163 HD
ATOM     28  O   UNL     1       7.866   2.131  -2.908  1.00  0.00    -0.269 OA
BRANCH  26  29
ATOM     29  C   UNL     1       7.161   0.172  -3.997  1.00  0.00     0.039 A 
ATOM     30  C   UNL     1       8.309  -0.565  -3.686  1.00  0.00     0.014 A 
ATOM     31  C   UNL     1       6.338  -0.255  -5.043  1.00  0.00     0.014 A 
ATOM     32  C   UNL     1       8.613  -1.730  -4.397  1.00  0.00     0.010 A 
ATOM     33  C   UNL     1       6.593  -1.465  -5.693  1.00  0.00     0.010 A 
ATOM     34  C   UNL     1       7.748  -2.201  -5.398  1.00  0.00    -0.014 A 
BRANCH  34  35
ATOM     35  C   UNL     1       8.072  -3.430  -6.171  1.00  0.00     0.031 A 
ATOM     36  C   UNL     1       8.331  -3.351  -7.653  1.00  0.00     0.074 A 
ATOM     37  C   UNL     1       8.110  -4.626  -5.550  1.00  0.00     0.049 A 
ATOM     38  N   UNL     1       8.606  -4.313  -8.499  1.00  0.00    -0.248 NA
ATOM     39  C   UNL     1       8.245  -2.019  -8.272  1.00  0.00     0.031 C 
ATOM     40  C   UNL     1       7.829  -4.852  -4.132  1.00  0.00     0.029 A 
ATOM     41  N   UNL     1       8.398  -5.877  -6.036  1.00  0.00    -0.354 N 
ATOM     42  C   UNL     1       8.706  -3.706  -9.745  1.00  0.00     0.074 A 
ATOM     43  C   UNL     1       8.411  -2.303  -9.555  1.00  0.00     0.031 C 
ATOM     44  C   UNL     1       7.984  -6.157  -3.857  1.00  0.00     0.029 A 
ATOM     45  C   UNL     1       8.348  -6.863  -5.082  1.00  0.00     0.049 A 
ATOM     46  H   UNL     1       8.620  -6.051  -6.979  1.00  0.00     0.167 HD
ATOM     47  C   UNL     1       9.041  -4.258 -10.937  1.00  0.00     0.037 A 
ATOM     48  C   UNL     1       8.572  -8.187  -5.180  1.00  0.00     0.037 A 
ATOM     49  C   UNL     1       9.370  -5.646 -11.125  1.00  0.00     0.049 A 
ATOM     50  C   UNL     1       8.969  -8.773  -6.506  1.00  0.00     0.074 A 
ATOM     51  C   UNL     1       9.775  -6.289 -12.282  1.00  0.00     0.029 A 
ATOM     52  N   UNL     1       9.334  -6.607 -10.126  1.00  0.00    -0.354 N 
ATOM     53  N   UNL     1       9.118  -8.174  -7.662  1.00  0.00    -0.248 NA
ATOM     54  C   UNL     1       9.241 -10.217  -6.537  1.00  0.00     0.031 C 
ATOM     55  C   UNL     1       9.956  -7.645 -11.990  1.00  0.00     0.029 A 
ATOM     56  C   UNL     1       9.699  -7.839 -10.642  1.00  0.00     0.049 A 
ATOM     57  H   UNL     1       9.086  -6.438  -9.188  1.00  0.00     0.167 HD
ATOM     58  C   UNL     1       9.517  -9.162  -8.554  1.00  0.00     0.074 A 
ATOM     59  C   UNL     1       9.606 -10.395  -7.799  1.00  0.00     0.031 C 
ATOM     60  C   UNL     1       9.782  -9.057  -9.879  1.00  0.00     0.037 A 
BRANCH  47  61
ATOM     61  C   UNL     1       9.079  -3.348 -12.130  1.00  0.00     0.057 A 
ATOM     62  C   UNL     1      10.081  -2.381 -12.289  1.00  0.00     0.134 A 
ATOM     63  C   UNL     1       8.118  -3.452 -13.143  1.00  0.00     0.134 A 
ATOM     64  F   UNL     1      11.024  -2.220 -11.348  1.00  0.00    -0.206 F 
ATOM     65  C   UNL     1      10.109  -1.532 -13.396  1.00  0.00     0.040 A 
ATOM     66  C   UNL     1       8.150  -2.626 -14.269  1.00  0.00     0.040 A 
ATOM     67  F   UNL     1       7.134  -4.361 -13.059  1.00  0.00    -0.206 F 
ATOM     68  C   UNL     1       9.144  -1.657 -14.393  1.00  0.00     0.006 A 
ENDBRANCH  47  61
BRANCH  48  69
ATOM     69  C   UNL     1       8.456  -9.047  -3.977  1.00  0.00     0.057 A 
ATOM     70  C   UNL     1       9.592  -9.587  -3.363  1.00  0.00     0.134 A 
ATOM     71  C   UNL     1       7.212  -9.346  -3.410  1.00  0.00     0.134 A 
ATOM     72  F   UNL     1      10.810  -9.351  -3.872  1.00  0.00    -0.206 F 
ATOM     73  C   UNL     1       9.495 -10.406  -2.237  1.00  0.00     0.040 A 
ATOM     74  C   UNL     1       7.101 -10.146  -2.272  1.00  0.00     0.040 A 
ATOM     75  F   UNL     1       6.087  -8.852  -3.948  1.00  0.00    -0.206 F 
ATOM     76  C   UNL     1       8.246 -10.683  -1.685  1.00  0.00     0.006 A 
ENDBRANCH  48  69
BRANCH  60  77
ATOM     77  C   UNL     1      10.212 -10.306 -10.589  1.00  0.00     0.057 A 
ATOM     78  C   UNL     1       9.307 -11.333 -10.886  1.00  0.00     0.134 A 
ATOM     79  C   UNL     1      11.540 -10.472 -11.002  1.00  0.00     0.134 A 
ATOM     80  F   UNL     1       8.024 -11.240 -10.505  1.00  0.00    -0.206 F 
ATOM     81  C   UNL     1       9.713 -12.492 -11.548  1.00  0.00     0.040 A 
ATOM     82  C   UNL     1      11.953 -11.616 -11.686  1.00  0.00     0.040 A 
ATOM     83  F   UNL     1      12.454  -9.522 -10.755  1.00  0.00    -0.206 F 
ATOM     84  C   UNL     1      11.039 -12.634 -11.955  1.00  0.00     0.006 A 
ENDBRANCH  60  77
ENDBRANCH  34  35
ENDBRANCH  26  29
ENDBRANCH  24  25
ENDBRANCH   1  24
TORSDOF 12
