REMARK SMILES C[NH2+][C@@]1(C(=O)NCCCNC(=O)c2ccc(-c3c4nc(c(-c5c(F)cccc5F)c5ccc([nH]5)c(-c5c(F)cccc5F)c5nc(c(-c6c(F)cccc6F)c6ccc3[nH]6)C=C5)C=C4)cc2)CC[C@H]([NH+]2CC[NH+](C)CC2)C1
REMARK SMILES IDX 8 1 7 2 6 3 4 4 5 5 3 7 67 8 77 9 68 10 69 11 2 12 1 13
REMARK SMILES IDX 70 16 71 17 76 18 72 20 75 21 73 22 74 23 9 25 10 26 11 27
REMARK SMILES IDX 12 29 13 30 14 31 66 32 15 33 65 34 16 35 17 36 18 37 59 38
REMARK SMILES IDX 19 39 64 40 58 41 60 42 20 43 63 44 57 45 56 46 21 48 47 49
REMARK SMILES IDX 30 50 46 51 31 52 34 53 45 54 61 55 32 56 33 57 44 59 62 60
REMARK SMILES IDX 35 61 22 62 23 63 28 64 24 65 25 66 27 67 29 68 26 69 48 70
REMARK SMILES IDX 49 71 54 72 50 73 51 74 53 75 55 76 52 77 36 78 37 79 42 80
REMARK SMILES IDX 38 81 39 82 41 83 43 84 40 85
REMARK H PARENT 6 6 2 14 2 15 70 19 73 24 10 28 60 47 34 58
REMARK Flexibility Score: inf
ROOT
ATOM      1  C   UNL     1      -5.074   0.746   1.318  1.00  0.00     0.042 C 
ENDROOT
BRANCH   1   2
ATOM      2  C   UNL     1      -3.573   2.142   0.796  1.00  0.00     0.118 C 
BRANCH   2   3
ATOM      3  N   UNL     1      -2.050   2.345   1.268  1.00  0.00    -0.351 N 
ATOM      4  C   UNL     1      -0.790   1.980   0.928  1.00  0.00     0.281 C 
ATOM      5  O   UNL     1       0.084   2.382   1.714  1.00  0.00    -0.268 OA
ATOM      6  H   UNL     1      -2.025   2.923   2.064  1.00  0.00     0.163 HD
BRANCH   4   7
ATOM      7  C   UNL     1      -0.381   1.188  -0.349  1.00  0.00     0.181 C 
ATOM      8  C   UNL     1      -0.898   1.978  -1.557  1.00  0.00     0.085 C 
ATOM      9  C   UNL     1      -0.992  -0.210  -0.504  1.00  0.00     0.144 C 
ATOM     10  C   UNL     1      -2.052   1.151  -2.115  1.00  0.00     0.072 C 
ATOM     11  C   UNL     1      -2.372   0.028  -1.092  1.00  0.00     0.191 C 
BRANCH   7  12
ATOM     12  N   UNL     1       1.116   1.205  -0.420  1.00  0.00    -0.336 N 
ATOM     13  C   UNL     1       1.772   0.019   0.115  1.00  0.00     0.331 C 
ATOM     14  H   UNL     1       1.385   1.302  -1.399  1.00  0.00     0.346 HD
ATOM     15  H   UNL     1       1.419   1.986   0.163  1.00  0.00     0.346 HD
ENDBRANCH   7  12
BRANCH  11  16
ATOM     16  N   UNL     1      -3.445   0.229  -0.113  1.00  0.00    -0.323 N 
ATOM     17  C   UNL     1      -4.856   1.214  -0.768  1.00  0.00     0.324 C 
ATOM     18  C   UNL     1      -3.081   0.283   1.720  1.00  0.00     0.324 C 
ATOM     19  H   UNL     1      -3.802  -0.721  -0.017  1.00  0.00     0.348 HD
ATOM     20  C   UNL     1      -5.625   2.649   0.312  1.00  0.00     0.324 C 
ATOM     21  C   UNL     1      -3.885   1.725   2.820  1.00  0.00     0.324 C 
ATOM     22  N   UNL     1      -5.273   2.729   2.117  1.00  0.00    -0.328 N 
ATOM     23  C   UNL     1      -5.321   4.105   2.606  1.00  0.00     0.333 C 
ATOM     24  H   UNL     1      -6.052   2.202   2.511  1.00  0.00     0.348 HD
ENDBRANCH  11  16
ENDBRANCH   4   7
ENDBRANCH   2   3
ENDBRANCH   1   2
BRANCH   1  25
ATOM     25  C   UNL     1      -5.829   0.149   2.694  1.00  0.00     0.118 C 
BRANCH  25  26
ATOM     26  N   UNL     1      -6.720   1.092   3.363  1.00  0.00    -0.352 N 
ATOM     27  C   UNL     1      -8.018   0.990   3.759  1.00  0.00     0.251 C 
ATOM     28  H   UNL     1      -6.305   1.962   3.565  1.00  0.00     0.163 HD
ATOM     29  O   UNL     1      -8.682   1.976   4.057  1.00  0.00    -0.269 OA
BRANCH  27  30
ATOM     30  C   UNL     1      -8.622  -0.343   3.775  1.00  0.00     0.039 A 
ATOM     31  C   UNL     1      -9.865  -0.523   3.166  1.00  0.00     0.014 A 
ATOM     32  C   UNL     1      -7.923  -1.410   4.344  1.00  0.00     0.014 A 
ATOM     33  C   UNL     1     -10.405  -1.800   3.105  1.00  0.00     0.010 A 
ATOM     34  C   UNL     1      -8.425  -2.691   4.212  1.00  0.00     0.010 A 
ATOM     35  C   UNL     1      -9.680  -2.887   3.616  1.00  0.00    -0.014 A 
BRANCH  35  36
ATOM     36  C   UNL     1     -10.252  -4.244   3.609  1.00  0.00     0.031 A 
ATOM     37  C   UNL     1     -10.593  -4.889   4.920  1.00  0.00     0.074 A 
ATOM     38  C   UNL     1     -10.402  -4.892   2.441  1.00  0.00     0.049 A 
ATOM     39  N   UNL     1     -11.029  -6.096   5.158  1.00  0.00    -0.248 NA
ATOM     40  C   UNL     1     -10.373  -4.078   6.131  1.00  0.00     0.031 C 
ATOM     41  C   UNL     1     -10.047  -4.357   1.125  1.00  0.00     0.029 A 
ATOM     42  N   UNL     1     -10.887  -6.143   2.175  1.00  0.00    -0.354 N 
ATOM     43  C   UNL     1     -11.108  -6.197   6.540  1.00  0.00     0.074 A 
ATOM     44  C   UNL     1     -10.616  -4.955   7.091  1.00  0.00     0.031 C 
ATOM     45  C   UNL     1     -10.355  -5.267   0.186  1.00  0.00     0.029 A 
ATOM     46  C   UNL     1     -10.897  -6.453   0.839  1.00  0.00     0.049 A 
ATOM     47  H   UNL     1     -11.200  -6.760   2.875  1.00  0.00     0.167 HD
ATOM     48  C   UNL     1     -11.579  -7.226   7.280  1.00  0.00     0.037 A 
ATOM     49  C   UNL     1     -11.304  -7.577   0.221  1.00  0.00     0.037 A 
ATOM     50  C   UNL     1     -12.106  -8.433   6.704  1.00  0.00     0.049 A 
ATOM     51  C   UNL     1     -11.857  -8.693   1.062  1.00  0.00     0.074 A 
ATOM     52  C   UNL     1     -12.672  -9.520   7.342  1.00  0.00     0.029 A 
ATOM     53  N   UNL     1     -12.135  -8.702   5.342  1.00  0.00    -0.354 N 
ATOM     54  N   UNL     1     -11.986  -8.758   2.366  1.00  0.00    -0.248 NA
ATOM     55  C   UNL     1     -12.328  -9.886   0.349  1.00  0.00     0.031 C 
ATOM     56  C   UNL     1     -13.014 -10.463   6.366  1.00  0.00     0.029 A 
ATOM     57  C   UNL     1     -12.698  -9.944   5.119  1.00  0.00     0.049 A 
ATOM     58  H   UNL     1     -11.803  -8.097   4.640  1.00  0.00     0.167 HD
ATOM     59  C   UNL     1     -12.572  -9.987   2.631  1.00  0.00     0.074 A 
ATOM     60  C   UNL     1     -12.790 -10.627   1.347  1.00  0.00     0.031 C 
ATOM     61  C   UNL     1     -12.901 -10.543   3.823  1.00  0.00     0.037 A 
BRANCH  48  62
ATOM     62  C   UNL     1     -11.546  -7.075   8.772  1.00  0.00     0.057 A 
ATOM     63  C   UNL     1     -12.367  -6.156   9.443  1.00  0.00     0.134 A 
ATOM     64  C   UNL     1     -10.679  -7.851   9.551  1.00  0.00     0.134 A 
ATOM     65  F   UNL     1     -13.207  -5.367   8.756  1.00  0.00    -0.206 F 
ATOM     66  C   UNL     1     -12.300  -5.990  10.827  1.00  0.00     0.040 A 
ATOM     67  C   UNL     1     -10.625  -7.714  10.940  1.00  0.00     0.040 A 
ATOM     68  F   UNL     1      -9.866  -8.749   8.976  1.00  0.00    -0.206 F 
ATOM     69  C   UNL     1     -11.430  -6.775  11.580  1.00  0.00     0.006 A 
ENDBRANCH  48  62
BRANCH  49  70
ATOM     70  C   UNL     1     -11.244  -7.675  -1.258  1.00  0.00     0.057 A 
ATOM     71  C   UNL     1     -12.412  -7.658  -2.029  1.00  0.00     0.134 A 
ATOM     72  C   UNL     1     -10.024  -7.769  -1.939  1.00  0.00     0.134 A 
ATOM     73  F   UNL     1     -13.611  -7.580  -1.434  1.00  0.00    -0.206 F 
ATOM     74  C   UNL     1     -12.372  -7.749  -3.421  1.00  0.00     0.040 A 
ATOM     75  C   UNL     1      -9.968  -7.838  -3.333  1.00  0.00     0.040 A 
ATOM     76  F   UNL     1      -8.868  -7.776  -1.260  1.00  0.00    -0.206 F 
ATOM     77  C   UNL     1     -11.146  -7.834  -4.077  1.00  0.00     0.006 A 
ENDBRANCH  49  70
BRANCH  61  78
ATOM     78  C   UNL     1     -13.550 -11.893   3.784  1.00  0.00     0.057 A 
ATOM     79  C   UNL     1     -12.820 -13.050   3.486  1.00  0.00     0.134 A 
ATOM     80  C   UNL     1     -14.907 -12.039   4.094  1.00  0.00     0.134 A 
ATOM     81  F   UNL     1     -11.519 -12.971   3.169  1.00  0.00    -0.206 F 
ATOM     82  C   UNL     1     -13.425 -14.307   3.477  1.00  0.00     0.040 A 
ATOM     83  C   UNL     1     -15.517 -13.293   4.114  1.00  0.00     0.040 A 
ATOM     84  F   UNL     1     -15.656 -10.968   4.398  1.00  0.00    -0.206 F 
ATOM     85  C   UNL     1     -14.776 -14.431   3.800  1.00  0.00     0.006 A 
ENDBRANCH  61  78
ENDBRANCH  35  36
ENDBRANCH  27  30
ENDBRANCH  25  26
ENDBRANCH   1  25
TORSDOF 12
