REMARK SMILES O=C(C[C@@H]1CN(C(=O)[C@H]2C[C@H](O)C[NH2+]2)CCO1)NCCCNC(=O)c1ccc(-c2c3nc(c(-c4c(F)cccc4F)c4ccc([nH]4)c(-c4c(F)cccc4F)c4nc(c(-c5c(F)cccc5F)c5ccc2[nH]5)C=C4)C=C3)cc1
REMARK SMILES IDX 19 1 18 2 1 3 2 4 3 6 4 7 5 8 17 9 6 10 16 11 15 12 7 13
REMARK SMILES IDX 8 14 9 15 10 16 14 17 11 18 13 19 12 22 20 24 21 25 22 26
REMARK SMILES IDX 23 27 24 29 25 30 26 31 78 32 27 33 77 34 28 35 29 36 30 37
REMARK SMILES IDX 71 38 31 39 76 40 70 41 72 42 32 43 75 44 69 45 68 46 33 48
REMARK SMILES IDX 59 49 42 50 58 51 43 52 46 53 57 54 73 55 44 56 45 57 56 59
REMARK SMILES IDX 74 60 47 61 34 62 35 63 40 64 36 65 37 66 39 67 41 68 38 69
REMARK SMILES IDX 60 70 61 71 66 72 62 73 63 74 65 75 67 76 64 77 48 78 49 79
REMARK SMILES IDX 54 80 50 81 51 82 53 83 55 84 52 85
REMARK H PARENT 18 5 14 20 14 21 12 23 22 28 72 47 46 58
REMARK Flexibility Score: inf
ROOT
ATOM      1  C   UNL     1       2.101   1.596  -1.848  1.00  0.00     0.117 C 
ENDROOT
BRANCH   1   2
ATOM      2  N   UNL     1       2.895   0.800  -0.936  1.00  0.00    -0.356 N 
ATOM      3  O   UNL     1       1.145  -0.185   0.187  1.00  0.00    -0.275 OA
ATOM      4  C   UNL     1       2.346  -0.021   0.020  1.00  0.00     0.222 C 
ATOM      5  H   UNL     1       3.876   0.850  -1.004  1.00  0.00     0.163 HD
BRANCH   4   6
ATOM      6  C   UNL     1       3.379  -0.752   0.843  1.00  0.00     0.133 C 
BRANCH   6   7
ATOM      7  C   UNL     1       4.070  -1.798  -0.030  1.00  0.00     0.147 C 
ATOM      8  C   UNL     1       3.727  -3.219   0.437  1.00  0.00     0.152 C 
ATOM      9  O   UNL     1       5.494  -1.584   0.025  1.00  0.00    -0.374 OA
ATOM     10  N   UNL     1       4.417  -4.203  -0.393  1.00  0.00    -0.333 N 
ATOM     11  C   UNL     1       6.179  -2.514  -0.835  1.00  0.00     0.182 C 
ATOM     12  C   UNL     1       5.866  -3.970  -0.465  1.00  0.00     0.148 C 
BRANCH  10  13
ATOM     13  C   UNL     1       3.877  -5.316  -1.022  1.00  0.00     0.281 C 
ATOM     14  O   UNL     1       4.605  -6.087  -1.658  1.00  0.00    -0.268 OA
BRANCH  13  15
ATOM     15  C   UNL     1       2.363  -5.631  -0.940  1.00  0.00     0.275 C 
ATOM     16  C   UNL     1       1.838  -5.950   0.454  1.00  0.00     0.113 C 
ATOM     17  N   UNL     1       1.522  -4.569  -1.536  1.00  0.00    -0.334 N 
ATOM     18  C   UNL     1       0.690  -4.982   0.693  1.00  0.00     0.175 C 
ATOM     19  C   UNL     1       0.333  -4.439  -0.690  1.00  0.00     0.293 C 
ATOM     20  H   UNL     1       1.251  -4.828  -2.485  1.00  0.00     0.347 HD
ATOM     21  H   UNL     1       2.031  -3.686  -1.587  1.00  0.00     0.347 HD
BRANCH  18  22
ATOM     22  O   UNL     1      -0.400  -5.631   1.329  1.00  0.00    -0.387 OA
ATOM     23  H   UNL     1      -0.700  -6.373   0.781  1.00  0.00     0.211 HD
ENDBRANCH  18  22
ENDBRANCH  13  15
ENDBRANCH  10  13
ENDBRANCH   6   7
ENDBRANCH   4   6
ENDBRANCH   1   2
BRANCH   1  24
ATOM     24  C   UNL     1       2.283   3.090  -1.604  1.00  0.00     0.042 C 
BRANCH  24  25
ATOM     25  C   UNL     1       3.727   3.577  -1.691  1.00  0.00     0.118 C 
BRANCH  25  26
ATOM     26  N   UNL     1       4.335   3.351  -2.993  1.00  0.00    -0.352 N 
ATOM     27  C   UNL     1       5.095   4.192  -3.767  1.00  0.00     0.251 C 
ATOM     28  H   UNL     1       4.177   2.459  -3.377  1.00  0.00     0.163 HD
ATOM     29  O   UNL     1       5.418   3.840  -4.898  1.00  0.00    -0.269 OA
BRANCH  27  30
ATOM     30  C   UNL     1       5.510   5.522  -3.266  1.00  0.00     0.039 A 
ATOM     31  C   UNL     1       5.476   6.604  -4.152  1.00  0.00     0.014 A 
ATOM     32  C   UNL     1       5.973   5.707  -1.961  1.00  0.00     0.014 A 
ATOM     33  C   UNL     1       5.864   7.874  -3.719  1.00  0.00     0.010 A 
ATOM     34  C   UNL     1       6.294   6.987  -1.510  1.00  0.00     0.010 A 
ATOM     35  C   UNL     1       6.257   8.081  -2.388  1.00  0.00    -0.014 A 
BRANCH  35  36
ATOM     36  C   UNL     1       6.667   9.428  -1.915  1.00  0.00     0.031 A 
ATOM     37  C   UNL     1       8.088   9.679  -1.488  1.00  0.00     0.074 A 
ATOM     38  C   UNL     1       5.756  10.416  -1.833  1.00  0.00     0.049 A 
ATOM     39  N   UNL     1       8.629  10.774  -1.015  1.00  0.00    -0.248 NA
ATOM     40  C   UNL     1       9.018   8.543  -1.581  1.00  0.00     0.031 C 
ATOM     41  C   UNL     1       4.338  10.292  -2.173  1.00  0.00     0.029 A 
ATOM     42  N   UNL     1       5.889  11.722  -1.432  1.00  0.00    -0.354 N 
ATOM     43  C   UNL     1       9.952  10.454  -0.741  1.00  0.00     0.074 A 
ATOM     44  C   UNL     1      10.121   9.051  -1.051  1.00  0.00     0.031 C 
ATOM     45  C   UNL     1       3.737  11.479  -1.990  1.00  0.00     0.029 A 
ATOM     46  C   UNL     1       4.720  12.439  -1.495  1.00  0.00     0.049 A 
ATOM     47  H   UNL     1       6.742  12.108  -1.129  1.00  0.00     0.167 HD
ATOM     48  C   UNL     1      10.945  11.260  -0.293  1.00  0.00     0.037 A 
ATOM     49  C   UNL     1       4.468  13.726  -1.190  1.00  0.00     0.037 A 
ATOM     50  C   UNL     1      10.788  12.663  -0.016  1.00  0.00     0.049 A 
ATOM     51  C   UNL     1       5.591  14.606  -0.714  1.00  0.00     0.074 A 
ATOM     52  C   UNL     1      11.747  13.575   0.391  1.00  0.00     0.029 A 
ATOM     53  N   UNL     1       9.594  13.359  -0.122  1.00  0.00    -0.354 N 
ATOM     54  N   UNL     1       6.851  14.304  -0.517  1.00  0.00    -0.248 NA
ATOM     55  C   UNL     1       5.258  16.009  -0.431  1.00  0.00     0.031 C 
ATOM     56  C   UNL     1      11.126  14.817   0.561  1.00  0.00     0.029 A 
ATOM     57  C   UNL     1       9.789  14.687   0.221  1.00  0.00     0.049 A 
ATOM     58  H   UNL     1       8.735  12.968  -0.400  1.00  0.00     0.167 HD
ATOM     59  C   UNL     1       7.467  15.484  -0.120  1.00  0.00     0.074 A 
ATOM     60  C   UNL     1       6.444  16.508  -0.112  1.00  0.00     0.031 C 
ATOM     61  C   UNL     1       8.765  15.699   0.208  1.00  0.00     0.037 A 
BRANCH  48  62
ATOM     62  C   UNL     1      12.295  10.639  -0.085  1.00  0.00     0.057 A 
ATOM     63  C   UNL     1      13.098  10.243  -1.163  1.00  0.00     0.134 A 
ATOM     64  C   UNL     1      12.809  10.458   1.205  1.00  0.00     0.134 A 
ATOM     65  F   UNL     1      12.659  10.376  -2.423  1.00  0.00    -0.206 F 
ATOM     66  C   UNL     1      14.353   9.664  -0.964  1.00  0.00     0.040 A 
ATOM     67  C   UNL     1      14.074   9.905   1.415  1.00  0.00     0.040 A 
ATOM     68  F   UNL     1      12.095  10.821   2.281  1.00  0.00    -0.206 F 
ATOM     69  C   UNL     1      14.846   9.499   0.328  1.00  0.00     0.006 A 
ENDBRANCH  48  62
BRANCH  49  70
ATOM     70  C   UNL     1       3.101  14.276  -1.362  1.00  0.00     0.057 A 
ATOM     71  C   UNL     1       2.813  15.181  -2.391  1.00  0.00     0.134 A 
ATOM     72  C   UNL     1       2.056  13.922  -0.501  1.00  0.00     0.134 A 
ATOM     73  F   UNL     1       3.779  15.571  -3.235  1.00  0.00    -0.206 F 
ATOM     74  C   UNL     1       1.540  15.729  -2.547  1.00  0.00     0.040 A 
ATOM     75  C   UNL     1       0.772  14.445  -0.659  1.00  0.00     0.040 A 
ATOM     76  F   UNL     1       2.267  13.055   0.499  1.00  0.00    -0.206 F 
ATOM     77  C   UNL     1       0.513  15.358  -1.681  1.00  0.00     0.006 A 
ENDBRANCH  49  70
BRANCH  61  78
ATOM     78  C   UNL     1       9.161  17.103   0.556  1.00  0.00     0.057 A 
ATOM     79  C   UNL     1       8.798  17.695   1.772  1.00  0.00     0.134 A 
ATOM     80  C   UNL     1       9.944  17.859  -0.325  1.00  0.00     0.134 A 
ATOM     81  F   UNL     1       8.038  17.027   2.653  1.00  0.00    -0.206 F 
ATOM     82  C   UNL     1       9.181  18.999   2.089  1.00  0.00     0.040 A 
ATOM     83  C   UNL     1      10.354  19.154  -0.009  1.00  0.00     0.040 A 
ATOM     84  F   UNL     1      10.332  17.346  -1.503  1.00  0.00    -0.206 F 
ATOM     85  C   UNL     1       9.967  19.730   1.200  1.00  0.00     0.006 A 
ENDBRANCH  61  78
ENDBRANCH  35  36
ENDBRANCH  27  30
ENDBRANCH  25  26
ENDBRANCH  24  25
ENDBRANCH   1  24
TORSDOF 14
