REMARK SMILES CCOC(=O)c1c(NC(=O)c2ncccc2C(=O)NCCCNC(=O)c2ccc(-c3c4nc(c(-c5c(F)cccc5F)c5ccc([nH]5)c(-c5c(F)cccc5F)c5nc(c(-c6c(F)cccc6F)c6ccc3[nH]6)C=C5)C=C4)cc2)sc2c1CC[C@H](C)C2
REMARK SMILES IDX 17 1 18 2 19 3 16 5 11 6 12 7 13 8 15 9 14 10 9 11 8 12
REMARK SMILES IDX 10 14 7 15 6 16 82 17 80 18 81 19 83 20 87 21 84 22 85 23
REMARK SMILES IDX 86 24 4 25 5 26 3 27 2 28 1 29 20 30 21 31 22 32 23 33 24 34
REMARK SMILES IDX 25 36 26 37 27 38 79 39 28 40 78 41 29 42 30 43 31 44 72 45
REMARK SMILES IDX 32 46 77 47 71 48 73 49 33 50 76 51 70 52 69 53 34 55 60 56
REMARK SMILES IDX 43 57 59 58 44 59 47 60 58 61 74 62 45 63 46 64 57 66 75 67
REMARK SMILES IDX 48 68 35 69 36 70 41 71 37 72 38 73 40 74 42 75 39 76 61 77
REMARK SMILES IDX 62 78 67 79 63 80 64 81 66 82 68 83 65 84 49 85 50 86 55 87
REMARK SMILES IDX 51 88 52 89 54 90 56 91 53 92
REMARK H PARENT 19 4 8 13 23 35 73 54 47 65
REMARK Flexibility Score: inf
ROOT
ATOM      1  C   UNL     1       2.797  -4.194  -2.206  1.00  0.00     0.253 C 
ATOM      2  O   UNL     1       2.849  -5.419  -2.225  1.00  0.00    -0.269 OA
ATOM      3  N   UNL     1       3.972  -3.474  -2.141  1.00  0.00    -0.352 N 
ATOM      4  H   UNL     1       4.785  -4.021  -2.047  1.00  0.00     0.163 HD
ENDROOT
BRANCH   1   5
ATOM      5  C   UNL     1       1.488  -3.510  -2.248  1.00  0.00     0.071 A 
ATOM      6  C   UNL     1       0.388  -3.950  -1.520  1.00  0.00     0.141 A 
ATOM      7  N   UNL     1      -0.835  -3.333  -1.563  1.00  0.00    -0.250 NA
ATOM      8  C   UNL     1      -0.973  -2.261  -2.362  1.00  0.00     0.112 A 
ATOM      9  C   UNL     1       1.283  -2.417  -3.102  1.00  0.00     0.018 A 
ATOM     10  C   UNL     1       0.055  -1.762  -3.135  1.00  0.00     0.021 A 
BRANCH   6  11
ATOM     11  C   UNL     1       0.333  -5.234  -0.800  1.00  0.00     0.275 C 
ATOM     12  N   UNL     1       1.100  -5.571   0.272  1.00  0.00    -0.311 N 
ATOM     13  H   UNL     1       0.880  -6.471   0.607  1.00  0.00     0.171 HD
ATOM     14  O   UNL     1      -0.464  -6.085  -1.215  1.00  0.00    -0.267 OA
BRANCH  12  15
ATOM     15  C   UNL     1       2.096  -4.989   1.008  1.00  0.00     0.110 A 
ATOM     16  C   UNL     1       2.659  -3.763   1.329  1.00  0.00     0.098 A 
ATOM     17  C   UNL     1       3.922  -3.990   2.057  1.00  0.00    -0.017 A 
ATOM     18  S   UNL     1       2.916  -6.310   1.741  1.00  0.00    -0.122 S 
ATOM     19  C   UNL     1       4.169  -5.331   2.272  1.00  0.00     0.011 A 
ATOM     20  C   UNL     1       4.871  -2.953   2.614  1.00  0.00     0.038 C 
ATOM     21  C   UNL     1       5.381  -5.917   2.920  1.00  0.00     0.050 C 
ATOM     22  C   UNL     1       6.240  -3.554   2.993  1.00  0.00     0.008 C 
ATOM     23  C   UNL     1       6.068  -4.858   3.796  1.00  0.00    -0.009 C 
ATOM     24  C   UNL     1       7.391  -5.400   4.321  1.00  0.00     0.008 C 
BRANCH  16  25
ATOM     25  C   UNL     1       2.186  -2.398   1.039  1.00  0.00     0.341 C 
ATOM     26  O   UNL     1       2.957  -1.474   0.914  1.00  0.00    -0.246 OA
BRANCH  25  27
ATOM     27  O   UNL     1       0.834  -2.249   0.990  1.00  0.00    -0.462 OA
BRANCH  27  28
ATOM     28  C   UNL     1       0.247  -0.955   0.688  1.00  0.00     0.230 C 
ATOM     29  C   UNL     1       1.023   0.334   0.936  1.00  0.00     0.049 C 
ENDBRANCH  27  28
ENDBRANCH  25  27
ENDBRANCH  16  25
ENDBRANCH  12  15
ENDBRANCH   6  11
ENDBRANCH   1   5
BRANCH   3  30
ATOM     30  C   UNL     1       4.207  -2.031  -2.189  1.00  0.00     0.118 C 
BRANCH  30  31
ATOM     31  C   UNL     1       5.175  -1.490  -1.148  1.00  0.00     0.042 C 
BRANCH  31  32
ATOM     32  C   UNL     1       6.599  -1.942  -1.306  1.00  0.00     0.118 C 
BRANCH  32  33
ATOM     33  N   UNL     1       7.319  -1.373  -2.450  1.00  0.00    -0.352 N 
ATOM     34  C   UNL     1       8.694  -1.399  -2.678  1.00  0.00     0.251 C 
ATOM     35  H   UNL     1       6.770  -0.923  -3.132  1.00  0.00     0.163 HD
ATOM     36  O   UNL     1       9.225  -0.666  -3.502  1.00  0.00    -0.269 OA
BRANCH  34  37
ATOM     37  C   UNL     1       9.500  -2.373  -1.918  1.00  0.00     0.039 A 
ATOM     38  C   UNL     1      10.775  -2.150  -1.385  1.00  0.00     0.014 A 
ATOM     39  C   UNL     1       8.861  -3.557  -1.652  1.00  0.00     0.014 A 
ATOM     40  C   UNL     1      11.332  -3.156  -0.585  1.00  0.00     0.010 A 
ATOM     41  C   UNL     1       9.157  -4.063  -0.442  1.00  0.00     0.010 A 
ATOM     42  C   UNL     1      10.487  -4.177  -0.162  1.00  0.00    -0.014 A 
BRANCH  42  43
ATOM     43  C   UNL     1      10.812  -5.323   0.663  1.00  0.00     0.031 A 
ATOM     44  C   UNL     1      11.278  -4.966   2.018  1.00  0.00     0.074 A 
ATOM     45  C   UNL     1      10.401  -6.569   0.308  1.00  0.00     0.049 A 
ATOM     46  N   UNL     1      12.463  -5.097   2.505  1.00  0.00    -0.248 NA
ATOM     47  C   UNL     1      10.365  -4.202   2.881  1.00  0.00     0.031 C 
ATOM     48  C   UNL     1       9.608  -6.995  -0.862  1.00  0.00     0.029 A 
ATOM     49  N   UNL     1      10.540  -7.739   0.992  1.00  0.00    -0.354 N 
ATOM     50  C   UNL     1      12.373  -4.674   3.827  1.00  0.00     0.074 A 
ATOM     51  C   UNL     1      11.143  -3.939   3.932  1.00  0.00     0.031 C 
ATOM     52  C   UNL     1       9.159  -8.260  -0.690  1.00  0.00     0.029 A 
ATOM     53  C   UNL     1       9.769  -8.799   0.506  1.00  0.00     0.049 A 
ATOM     54  H   UNL     1      11.138  -7.832   1.768  1.00  0.00     0.167 HD
ATOM     55  C   UNL     1      13.177  -5.218   4.779  1.00  0.00     0.037 A 
ATOM     56  C   UNL     1       9.646 -10.022   1.084  1.00  0.00     0.037 A 
ATOM     57  C   UNL     1      14.273  -5.935   4.169  1.00  0.00     0.049 A 
ATOM     58  C   UNL     1      10.801 -10.171   2.010  1.00  0.00     0.074 A 
ATOM     59  C   UNL     1      15.293  -5.586   3.304  1.00  0.00     0.029 A 
ATOM     60  N   UNL     1      14.159  -7.303   4.077  1.00  0.00    -0.354 N 
ATOM     61  N   UNL     1      12.041 -10.233   1.602  1.00  0.00    -0.248 NA
ATOM     62  C   UNL     1      10.615  -9.707   3.377  1.00  0.00     0.031 C 
ATOM     63  C   UNL     1      15.379  -6.674   2.384  1.00  0.00     0.029 A 
ATOM     64  C   UNL     1      14.481  -7.662   2.793  1.00  0.00     0.049 A 
ATOM     65  H   UNL     1      13.894  -7.913   4.803  1.00  0.00     0.167 HD
ATOM     66  C   UNL     1      12.750  -9.430   2.486  1.00  0.00     0.074 A 
ATOM     67  C   UNL     1      11.822  -9.171   3.590  1.00  0.00     0.031 C 
ATOM     68  C   UNL     1      13.897  -8.792   2.104  1.00  0.00     0.037 A 
BRANCH  55  69
ATOM     69  C   UNL     1      12.764  -5.467   6.209  1.00  0.00     0.057 A 
ATOM     70  C   UNL     1      13.734  -5.934   7.113  1.00  0.00     0.134 A 
ATOM     71  C   UNL     1      11.431  -5.569   6.657  1.00  0.00     0.134 A 
ATOM     72  F   UNL     1      15.040  -5.882   6.808  1.00  0.00    -0.206 F 
ATOM     73  C   UNL     1      13.397  -6.556   8.320  1.00  0.00     0.040 A 
ATOM     74  C   UNL     1      11.086  -6.143   7.883  1.00  0.00     0.040 A 
ATOM     75  F   UNL     1      10.383  -5.219   5.902  1.00  0.00    -0.206 F 
ATOM     76  C   UNL     1      12.068  -6.675   8.702  1.00  0.00     0.006 A 
ENDBRANCH  55  69
BRANCH  56  77
ATOM     77  C   UNL     1       8.437 -10.876   1.165  1.00  0.00     0.057 A 
ATOM     78  C   UNL     1       8.515 -12.236   1.497  1.00  0.00     0.134 A 
ATOM     79  C   UNL     1       7.148 -10.310   1.190  1.00  0.00     0.134 A 
ATOM     80  F   UNL     1       9.703 -12.856   1.547  1.00  0.00    -0.206 F 
ATOM     81  C   UNL     1       7.381 -12.986   1.849  1.00  0.00     0.040 A 
ATOM     82  C   UNL     1       6.009 -11.047   1.535  1.00  0.00     0.040 A 
ATOM     83  F   UNL     1       6.967  -9.000   0.971  1.00  0.00    -0.206 F 
ATOM     84  C   UNL     1       6.124 -12.388   1.879  1.00  0.00     0.006 A 
ENDBRANCH  56  77
BRANCH  68  85
ATOM     85  C   UNL     1      14.484  -9.135   0.758  1.00  0.00     0.057 A 
ATOM     86  C   UNL     1      13.870  -8.844  -0.471  1.00  0.00     0.134 A 
ATOM     87  C   UNL     1      15.793  -9.618   0.701  1.00  0.00     0.134 A 
ATOM     88  F   UNL     1      12.657  -8.285  -0.523  1.00  0.00    -0.206 F 
ATOM     89  C   UNL     1      14.513  -9.057  -1.696  1.00  0.00     0.040 A 
ATOM     90  C   UNL     1      16.459  -9.809  -0.513  1.00  0.00     0.040 A 
ATOM     91  F   UNL     1      16.471  -9.861   1.834  1.00  0.00    -0.206 F 
ATOM     92  C   UNL     1      15.817  -9.537  -1.718  1.00  0.00     0.006 A 
ENDBRANCH  68  85
ENDBRANCH  42  43
ENDBRANCH  34  37
ENDBRANCH  32  33
ENDBRANCH  31  32
ENDBRANCH  30  31
ENDBRANCH   3  30
TORSDOF 15
