REMARK SMILES CC(C)C[N@@H+](CC[NH+](C)C)[C@@H]1CCC[C@]([NH3+])(C(=O)NCCCNC(=O)c2ccc(-c3c4nc(c(-c5c(F)cccc5F)c5ccc([nH]5)c(-c5c(F)cccc5F)c5nc(c(-c6c(F)cccc6F)c6ccc3[nH]6)C=C5)C=C4)cc2)C1
REMARK SMILES IDX 20 1 19 2 17 3 18 4 15 6 11 7 12 8 80 9 13 10 14 11 5 12
REMARK SMILES IDX 4 14 2 15 1 16 3 17 6 18 7 19 8 20 9 21 10 22 16 24 21 28
REMARK SMILES IDX 22 29 23 30 24 31 25 33 26 34 27 35 79 36 28 37 78 38 29 39
REMARK SMILES IDX 30 40 31 41 72 42 32 43 77 44 71 45 73 46 33 47 76 48 70 49
REMARK SMILES IDX 69 50 34 52 60 53 43 54 59 55 44 56 47 57 58 58 74 59 45 60
REMARK SMILES IDX 46 61 57 63 75 64 48 65 35 66 36 67 41 68 37 69 38 70 40 71
REMARK SMILES IDX 42 72 39 73 61 74 62 75 67 76 63 77 64 78 66 79 68 80 65 81
REMARK SMILES IDX 49 82 50 83 55 84 51 85 52 86 54 87 56 88 53 89
REMARK H PARENT 19 5 5 13 8 23 16 25 16 26 16 27 23 32 73 51 47 62
REMARK Flexibility Score: inf
ROOT
ATOM      1  C   UNL     1      -0.833  -5.107   1.424  1.00  0.00     0.118 C 
ENDROOT
BRANCH   1   2
ATOM      2  N   UNL     1      -0.638  -6.027   0.277  1.00  0.00    -0.351 N 
ATOM      3  C   UNL     1      -0.847  -6.055  -1.086  1.00  0.00     0.281 C 
ATOM      4  O   UNL     1      -0.289  -7.005  -1.665  1.00  0.00    -0.268 OA
ATOM      5  H   UNL     1      -0.238  -6.875   0.580  1.00  0.00     0.163 HD
BRANCH   3   6
ATOM      6  C   UNL     1      -1.670  -5.034  -1.959  1.00  0.00     0.179 C 
ATOM      7  C   UNL     1      -0.783  -2.875  -0.977  1.00  0.00     0.191 C 
ATOM      8  C   UNL     1      -2.221  -2.751  -0.268  1.00  0.00     0.065 C 
ATOM      9  C   UNL     1      -0.959  -3.719  -2.215  1.00  0.00     0.144 C 
ATOM     10  C   UNL     1      -3.186  -3.958  -0.236  1.00  0.00     0.013 C 
ATOM     11  C   UNL     1      -3.094  -4.864  -1.441  1.00  0.00     0.079 C 
BRANCH   7  12
ATOM     12  N   UNL     1       0.547  -2.970  -0.163  1.00  0.00    -0.327 N 
ATOM     13  H   UNL     1       0.288  -3.409   0.721  1.00  0.00     0.348 HD
BRANCH  12  14
ATOM     14  C   UNL     1       1.765  -3.860  -0.678  1.00  0.00     0.265 C 
BRANCH  14  15
ATOM     15  C   UNL     1       2.247  -5.406  -0.319  1.00  0.00     0.038 C 
ATOM     16  C   UNL     1       2.724  -6.125  -1.591  1.00  0.00     0.013 C 
ATOM     17  C   UNL     1       3.347  -5.798   0.727  1.00  0.00     0.013 C 
ENDBRANCH  14  15
ENDBRANCH  12  14
BRANCH  12  18
ATOM     18  C   UNL     1       1.080  -1.529  -0.222  1.00  0.00     0.324 C 
BRANCH  18  19
ATOM     19  C   UNL     1       0.243  -0.367   0.433  1.00  0.00     0.323 C 
BRANCH  19  20
ATOM     20  N   UNL     1       0.280  -0.340   1.901  1.00  0.00    -0.335 N 
ATOM     21  C   UNL     1       0.292   1.022   2.434  1.00  0.00     0.332 C 
ATOM     22  C   UNL     1      -0.783  -1.095   2.557  1.00  0.00     0.332 C 
ATOM     23  H   UNL     1       1.159  -0.807   2.121  1.00  0.00     0.347 HD
ENDBRANCH  19  20
ENDBRANCH  18  19
ENDBRANCH  12  18
ENDBRANCH   7  12
BRANCH   6  24
ATOM     24  N   UNL     1      -1.872  -5.600  -3.341  1.00  0.00    -0.345 N 
ATOM     25  H   UNL     1      -2.405  -4.938  -3.905  1.00  0.00     0.345 HD
ATOM     26  H   UNL     1      -2.383  -6.480  -3.277  1.00  0.00     0.345 HD
ATOM     27  H   UNL     1      -0.965  -5.765  -3.777  1.00  0.00     0.345 HD
ENDBRANCH   6  24
ENDBRANCH   3   6
ENDBRANCH   1   2
BRANCH   1  28
ATOM     28  C   UNL     1       0.154  -4.965   2.623  1.00  0.00     0.042 C 
BRANCH  28  29
ATOM     29  C   UNL     1       1.473  -4.152   2.756  1.00  0.00     0.118 C 
BRANCH  29  30
ATOM     30  N   UNL     1       1.681  -2.722   2.726  1.00  0.00    -0.352 N 
ATOM     31  C   UNL     1       2.832  -2.034   3.138  1.00  0.00     0.251 C 
ATOM     32  H   UNL     1       0.939  -2.174   2.382  1.00  0.00     0.163 HD
ATOM     33  O   UNL     1       3.210  -0.990   2.662  1.00  0.00    -0.269 OA
BRANCH  31  34
ATOM     34  C   UNL     1       3.552  -2.577   4.304  1.00  0.00     0.039 A 
ATOM     35  C   UNL     1       3.430  -1.877   5.506  1.00  0.00     0.014 A 
ATOM     36  C   UNL     1       4.142  -3.834   4.250  1.00  0.00     0.014 A 
ATOM     37  C   UNL     1       3.752  -2.520   6.695  1.00  0.00     0.010 A 
ATOM     38  C   UNL     1       4.363  -4.509   5.441  1.00  0.00     0.010 A 
ATOM     39  C   UNL     1       4.136  -3.869   6.672  1.00  0.00    -0.014 A 
BRANCH  39  40
ATOM     40  C   UNL     1       4.274  -4.638   7.931  1.00  0.00     0.031 A 
ATOM     41  C   UNL     1       5.606  -5.219   8.296  1.00  0.00     0.074 A 
ATOM     42  C   UNL     1       3.188  -4.868   8.696  1.00  0.00     0.049 A 
ATOM     43  N   UNL     1       5.925  -5.984   9.307  1.00  0.00    -0.248 NA
ATOM     44  C   UNL     1       6.722  -4.935   7.379  1.00  0.00     0.031 C 
ATOM     45  C   UNL     1       1.827  -4.406   8.405  1.00  0.00     0.029 A 
ATOM     46  N   UNL     1       3.055  -5.555   9.876  1.00  0.00    -0.354 N 
ATOM     47  C   UNL     1       7.268  -6.287   9.135  1.00  0.00     0.074 A 
ATOM     48  C   UNL     1       7.687  -5.682   7.891  1.00  0.00     0.031 C 
ATOM     49  C   UNL     1       1.008  -4.791   9.398  1.00  0.00     0.029 A 
ATOM     50  C   UNL     1       1.774  -5.556  10.375  1.00  0.00     0.049 A 
ATOM     51  H   UNL     1       3.807  -6.005  10.325  1.00  0.00     0.167 HD
ATOM     52  C   UNL     1       8.087  -6.981   9.958  1.00  0.00     0.037 A 
ATOM     53  C   UNL     1       1.278  -6.111  11.498  1.00  0.00     0.037 A 
ATOM     54  C   UNL     1       7.668  -7.545  11.212  1.00  0.00     0.049 A 
ATOM     55  C   UNL     1       2.216  -6.856  12.410  1.00  0.00     0.074 A 
ATOM     56  C   UNL     1       8.426  -8.220  12.151  1.00  0.00     0.029 A 
ATOM     57  N   UNL     1       6.371  -7.493  11.703  1.00  0.00    -0.354 N 
ATOM     58  N   UNL     1       3.501  -7.080  12.270  1.00  0.00    -0.248 NA
ATOM     59  C   UNL     1       1.639  -7.418  13.639  1.00  0.00     0.031 C 
ATOM     60  C   UNL     1       7.580  -8.605  13.196  1.00  0.00     0.029 A 
ATOM     61  C   UNL     1       6.305  -8.132  12.928  1.00  0.00     0.049 A 
ATOM     62  H   UNL     1       5.611  -7.065  11.246  1.00  0.00     0.167 HD
ATOM     63  C   UNL     1       3.892  -7.778  13.404  1.00  0.00     0.074 A 
ATOM     64  C   UNL     1       2.710  -7.930  14.228  1.00  0.00     0.031 C 
ATOM     65  C   UNL     1       5.118  -8.253  13.736  1.00  0.00     0.037 A 
BRANCH  52  66
ATOM     66  C   UNL     1       9.513  -7.150   9.523  1.00  0.00     0.057 A 
ATOM     67  C   UNL     1      10.402  -6.067   9.469  1.00  0.00     0.134 A 
ATOM     68  C   UNL     1      10.003  -8.406   9.149  1.00  0.00     0.134 A 
ATOM     69  F   UNL     1       9.991  -4.832   9.797  1.00  0.00    -0.206 F 
ATOM     70  C   UNL     1      11.716  -6.222   9.025  1.00  0.00     0.040 A 
ATOM     71  C   UNL     1      11.324  -8.579   8.732  1.00  0.00     0.040 A 
ATOM     72  F   UNL     1       9.207  -9.486   9.178  1.00  0.00    -0.206 F 
ATOM     73  C   UNL     1      12.182  -7.483   8.661  1.00  0.00     0.006 A 
ENDBRANCH  52  66
BRANCH  53  74
ATOM     74  C   UNL     1      -0.158  -5.955  11.846  1.00  0.00     0.057 A 
ATOM     75  C   UNL     1      -0.556  -5.161  12.929  1.00  0.00     0.134 A 
ATOM     76  C   UNL     1      -1.166  -6.599  11.118  1.00  0.00     0.134 A 
ATOM     77  F   UNL     1       0.362  -4.531  13.677  1.00  0.00    -0.206 F 
ATOM     78  C   UNL     1      -1.898  -5.033  13.292  1.00  0.00     0.040 A 
ATOM     79  C   UNL     1      -2.515  -6.460  11.454  1.00  0.00     0.040 A 
ATOM     80  F   UNL     1      -0.855  -7.367  10.064  1.00  0.00    -0.206 F 
ATOM     81  C   UNL     1      -2.883  -5.681  12.550  1.00  0.00     0.006 A 
ENDBRANCH  53  74
BRANCH  65  82
ATOM     82  C   UNL     1       5.250  -8.940  15.062  1.00  0.00     0.057 A 
ATOM     83  C   UNL     1       4.732 -10.221  15.287  1.00  0.00     0.134 A 
ATOM     84  C   UNL     1       5.953  -8.330  16.109  1.00  0.00     0.134 A 
ATOM     85  F   UNL     1       4.039 -10.853  14.328  1.00  0.00    -0.206 F 
ATOM     86  C   UNL     1       4.890 -10.863  16.516  1.00  0.00     0.040 A 
ATOM     87  C   UNL     1       6.141  -8.973  17.332  1.00  0.00     0.040 A 
ATOM     88  F   UNL     1       6.482  -7.107  15.953  1.00  0.00    -0.206 F 
ATOM     89  C   UNL     1       5.604 -10.242  17.540  1.00  0.00     0.006 A 
ENDBRANCH  65  82
ENDBRANCH  39  40
ENDBRANCH  31  34
ENDBRANCH  29  30
ENDBRANCH  28  29
ENDBRANCH   1  28
TORSDOF 17
