REMARK SMILES Cc1c(C(=O)Nc2ccc(C(=O)Nc3ccccc3C(=O)NCCCNC(=O)c3ccc(-c4c5nc(c(-c6c(F)cccc6F)c6ccc([nH]6)c(-c6c(F)cccc6F)c6nc(c(-c7c(F)cccc7F)c7ccc4[nH]7)C=C6)C=C5)cc3)cc2)cccc1[N+](=O)[O-]
REMARK SMILES IDX 20 1 21 2 22 3 19 5 14 6 15 7 16 8 18 9 17 10 13 11 11 12
REMARK SMILES IDX 12 13 10 15 7 16 8 17 84 18 9 19 83 20 6 21 4 22 5 23 3 25
REMARK SMILES IDX 1 26 2 27 88 28 85 29 87 30 86 31 89 32 90 33 91 34 23 35
REMARK SMILES IDX 24 36 25 37 26 38 27 39 28 41 29 42 30 43 82 44 31 45 81 46
REMARK SMILES IDX 32 47 33 48 34 49 75 50 35 51 80 52 74 53 76 54 36 55 79 56
REMARK SMILES IDX 73 57 72 58 37 60 63 61 46 62 62 63 47 64 50 65 61 66 77 67
REMARK SMILES IDX 48 68 49 69 60 71 78 72 51 73 38 74 39 75 44 76 40 77 41 78
REMARK SMILES IDX 43 79 45 80 42 81 64 82 65 83 70 84 66 85 67 86 69 87 71 88
REMARK SMILES IDX 68 89 52 90 53 91 58 92 54 93 55 94 57 95 59 96 56 97
REMARK H PARENT 22 4 13 14 6 24 26 40 76 59 50 70
REMARK Flexibility Score: inf
ROOT
ATOM      1  C   UNL     1       4.981   1.653   3.654  1.00  0.00     0.253 C 
ATOM      2  O   UNL     1       6.147   1.676   3.263  1.00  0.00    -0.269 OA
ATOM      3  N   UNL     1       4.583   0.530   4.353  1.00  0.00    -0.352 N 
ATOM      4  H   UNL     1       5.274  -0.171   4.366  1.00  0.00     0.163 HD
ENDROOT
BRANCH   1   5
ATOM      5  C   UNL     1       4.077   2.798   3.335  1.00  0.00     0.063 A 
ATOM      6  C   UNL     1       4.168   3.529   2.123  1.00  0.00     0.054 A 
ATOM      7  C   UNL     1       3.298   4.615   1.903  1.00  0.00     0.027 A 
ATOM      8  C   UNL     1       2.317   4.954   2.830  1.00  0.00     0.002 A 
ATOM      9  C   UNL     1       3.177   3.259   4.309  1.00  0.00     0.016 A 
ATOM     10  C   UNL     1       2.267   4.286   4.043  1.00  0.00     0.001 A 
BRANCH   6  11
ATOM     11  N   UNL     1       5.060   3.304   1.056  1.00  0.00    -0.321 N 
ATOM     12  C   UNL     1       5.521   2.169   0.429  1.00  0.00     0.255 C 
ATOM     13  O   UNL     1       6.489   2.273  -0.328  1.00  0.00    -0.269 OA
ATOM     14  H   UNL     1       5.433   4.133   0.679  1.00  0.00     0.170 HD
BRANCH  12  15
ATOM     15  C   UNL     1       4.761   0.884   0.434  1.00  0.00     0.040 A 
ATOM     16  C   UNL     1       3.215  -1.414  -0.082  1.00  0.00     0.041 A 
ATOM     17  C   UNL     1       2.711  -0.379   0.690  1.00  0.00     0.027 A 
ATOM     18  C   UNL     1       4.562  -1.382  -0.447  1.00  0.00     0.027 A 
ATOM     19  C   UNL     1       3.443   0.789   0.870  1.00  0.00     0.016 A 
ATOM     20  C   UNL     1       5.331  -0.237  -0.189  1.00  0.00     0.016 A 
BRANCH  16  21
ATOM     21  N   UNL     1       2.396  -2.432  -0.600  1.00  0.00    -0.322 N 
ATOM     22  C   UNL     1       1.028  -2.471  -0.819  1.00  0.00     0.256 C 
ATOM     23  O   UNL     1       0.502  -3.533  -1.152  1.00  0.00    -0.269 OA
ATOM     24  H   UNL     1       2.874  -3.255  -0.849  1.00  0.00     0.170 HD
BRANCH  22  25
ATOM     25  C   UNL     1       0.151  -1.272  -0.659  1.00  0.00     0.049 A 
ATOM     26  C   UNL     1       1.431   0.163  -2.336  1.00  0.00     0.053 C 
ATOM     27  C   UNL     1       0.409  -0.008  -1.242  1.00  0.00     0.039 A 
ATOM     28  C   UNL     1      -0.333   1.089  -0.744  1.00  0.00     0.273 A 
ATOM     29  C   UNL     1      -0.963  -1.449   0.184  1.00  0.00     0.014 A 
ATOM     30  C   UNL     1      -1.425   0.911   0.122  1.00  0.00     0.086 A 
ATOM     31  C   UNL     1      -1.766  -0.368   0.545  1.00  0.00     0.008 A 
BRANCH  28  32
ATOM     32  N   UNL     1       0.081   2.473  -1.006  1.00  0.00     0.063 N 
ATOM     33  O   UNL     1      -0.813   3.318  -1.151  1.00  0.00    -0.258 OA
ATOM     34  O   UNL     1       1.294   2.721  -0.990  1.00  0.00    -0.258 OA
ENDBRANCH  28  32
ENDBRANCH  22  25
ENDBRANCH  16  21
ENDBRANCH  12  15
ENDBRANCH   6  11
ENDBRANCH   1   5
BRANCH   3  35
ATOM     35  C   UNL     1       3.376   0.141   5.078  1.00  0.00     0.118 C 
BRANCH  35  36
ATOM     36  C   UNL     1       2.494  -0.857   4.346  1.00  0.00     0.042 C 
BRANCH  36  37
ATOM     37  C   UNL     1       2.960  -2.302   4.454  1.00  0.00     0.118 C 
BRANCH  37  38
ATOM     38  N   UNL     1       2.373  -2.997   5.603  1.00  0.00    -0.352 N 
ATOM     39  C   UNL     1       2.384  -4.341   5.935  1.00  0.00     0.251 C 
ATOM     40  H   UNL     1       1.896  -2.417   6.239  1.00  0.00     0.163 HD
ATOM     41  O   UNL     1       1.881  -4.718   6.982  1.00  0.00    -0.269 OA
BRANCH  39  42
ATOM     42  C   UNL     1       3.148  -5.287   5.090  1.00  0.00     0.039 A 
ATOM     43  C   UNL     1       4.098  -6.090   5.729  1.00  0.00     0.014 A 
ATOM     44  C   UNL     1       3.114  -5.199   3.703  1.00  0.00     0.014 A 
ATOM     45  C   UNL     1       5.184  -6.559   4.999  1.00  0.00     0.010 A 
ATOM     46  C   UNL     1       4.236  -5.579   2.993  1.00  0.00     0.010 A 
ATOM     47  C   UNL     1       5.306  -6.181   3.663  1.00  0.00    -0.014 A 
BRANCH  47  48
ATOM     48  C   UNL     1       6.570  -6.261   2.945  1.00  0.00     0.031 A 
ATOM     49  C   UNL     1       6.820  -7.345   1.981  1.00  0.00     0.074 A 
ATOM     50  C   UNL     1       7.520  -5.323   3.156  1.00  0.00     0.049 A 
ATOM     51  N   UNL     1       7.994  -7.780   1.672  1.00  0.00    -0.248 NA
ATOM     52  C   UNL     1       5.740  -8.054   1.310  1.00  0.00     0.031 C 
ATOM     53  C   UNL     1       8.755  -5.122   2.401  1.00  0.00     0.029 A 
ATOM     54  N   UNL     1       7.664  -4.501   4.284  1.00  0.00    -0.354 N 
ATOM     55  C   UNL     1       7.857  -8.616   0.591  1.00  0.00     0.074 A 
ATOM     56  C   UNL     1       6.430  -8.803   0.445  1.00  0.00     0.031 C 
ATOM     57  C   UNL     1       9.647  -4.514   3.198  1.00  0.00     0.029 A 
ATOM     58  C   UNL     1       9.056  -4.430   4.522  1.00  0.00     0.049 A 
ATOM     59  H   UNL     1       6.947  -4.066   4.800  1.00  0.00     0.167 HD
ATOM     60  C   UNL     1       8.959  -8.955  -0.139  1.00  0.00     0.037 A 
ATOM     61  C   UNL     1       9.601  -4.934   5.666  1.00  0.00     0.037 A 
ATOM     62  C   UNL     1      10.188  -8.408   0.437  1.00  0.00     0.049 A 
ATOM     63  C   UNL     1      10.635  -6.022   5.458  1.00  0.00     0.074 A 
ATOM     64  C   UNL     1      11.001  -7.324   0.143  1.00  0.00     0.029 A 
ATOM     65  N   UNL     1      10.595  -8.852   1.683  1.00  0.00    -0.354 N 
ATOM     66  N   UNL     1      10.945  -6.544   4.304  1.00  0.00    -0.248 NA
ATOM     67  C   UNL     1      11.316  -6.688   6.570  1.00  0.00     0.031 C 
ATOM     68  C   UNL     1      11.918  -7.144   1.217  1.00  0.00     0.029 A 
ATOM     69  C   UNL     1      11.657  -8.113   2.166  1.00  0.00     0.049 A 
ATOM     70  H   UNL     1      10.178  -9.602   2.165  1.00  0.00     0.167 HD
ATOM     71  C   UNL     1      11.772  -7.621   4.501  1.00  0.00     0.074 A 
ATOM     72  C   UNL     1      11.977  -7.670   5.936  1.00  0.00     0.031 C 
ATOM     73  C   UNL     1      12.185  -8.429   3.482  1.00  0.00     0.037 A 
BRANCH  60  74
ATOM     74  C   UNL     1       8.873  -9.561  -1.520  1.00  0.00     0.057 A 
ATOM     75  C   UNL     1       9.834  -9.266  -2.505  1.00  0.00     0.134 A 
ATOM     76  C   UNL     1       7.832 -10.396  -1.961  1.00  0.00     0.134 A 
ATOM     77  F   UNL     1      10.959  -8.599  -2.217  1.00  0.00    -0.206 F 
ATOM     78  C   UNL     1       9.689  -9.639  -3.847  1.00  0.00     0.040 A 
ATOM     79  C   UNL     1       7.640 -10.726  -3.310  1.00  0.00     0.040 A 
ATOM     80  F   UNL     1       6.985 -10.971  -1.097  1.00  0.00    -0.206 F 
ATOM     81  C   UNL     1       8.562 -10.328  -4.265  1.00  0.00     0.006 A 
ENDBRANCH  60  74
BRANCH  61  82
ATOM     82  C   UNL     1       8.688  -4.859   6.838  1.00  0.00     0.057 A 
ATOM     83  C   UNL     1       8.245  -3.602   7.285  1.00  0.00     0.134 A 
ATOM     84  C   UNL     1       8.000  -5.980   7.309  1.00  0.00     0.134 A 
ATOM     85  F   UNL     1       8.859  -2.482   6.870  1.00  0.00    -0.206 F 
ATOM     86  C   UNL     1       7.105  -3.460   8.079  1.00  0.00     0.040 A 
ATOM     87  C   UNL     1       6.869  -5.852   8.121  1.00  0.00     0.040 A 
ATOM     88  F   UNL     1       8.344  -7.213   6.909  1.00  0.00    -0.206 F 
ATOM     89  C   UNL     1       6.396  -4.589   8.476  1.00  0.00     0.006 A 
ENDBRANCH  61  82
BRANCH  73  90
ATOM     90  C   UNL     1      13.098  -9.614   3.660  1.00  0.00     0.057 A 
ATOM     91  C   UNL     1      14.217  -9.597   4.504  1.00  0.00     0.134 A 
ATOM     92  C   UNL     1      12.937 -10.789   2.897  1.00  0.00     0.134 A 
ATOM     93  F   UNL     1      14.536  -8.502   5.210  1.00  0.00    -0.206 F 
ATOM     94  C   UNL     1      15.074 -10.698   4.635  1.00  0.00     0.040 A 
ATOM     95  C   UNL     1      13.813 -11.875   2.982  1.00  0.00     0.040 A 
ATOM     96  F   UNL     1      11.912 -10.947   2.048  1.00  0.00    -0.206 F 
ATOM     97  C   UNL     1      14.877 -11.840   3.868  1.00  0.00     0.006 A 
ENDBRANCH  73  90
ENDBRANCH  47  48
ENDBRANCH  39  42
ENDBRANCH  37  38
ENDBRANCH  36  37
ENDBRANCH  35  36
ENDBRANCH   3  35
TORSDOF 15
