REMARK SMILES CC[NH2+][C@]1(C(=O)NCCCNC(=O)c2ccc(-c3c4nc(c(-c5c(F)cccc5F)c5ccc([nH]5)c(-c5c(F)cccc5F)c5nc(c(-c6c(F)cccc6F)c6ccc3[nH]6)C=C5)C=C4)cc2)CCC[C@@H]([N@@H+](C)CC2CCCC2)C1
REMARK SMILES IDX 8 1 7 2 5 3 6 4 4 6 68 7 80 8 69 9 71 10 70 11 3 12 2 15
REMARK SMILES IDX 1 16 72 17 73 18 74 20 75 21 76 22 79 23 77 24 78 25 9 26
REMARK SMILES IDX 10 27 11 28 12 29 13 31 14 32 15 33 67 34 16 35 66 36 17 37
REMARK SMILES IDX 18 38 19 39 60 40 20 41 65 42 59 43 61 44 21 45 64 46 58 47
REMARK SMILES IDX 57 48 22 50 48 51 31 52 47 53 32 54 35 55 46 56 62 57 33 58
REMARK SMILES IDX 34 59 45 61 63 62 36 63 23 64 24 65 29 66 25 67 26 68 28 69
REMARK SMILES IDX 30 70 27 71 49 72 50 73 55 74 51 75 52 76 54 77 56 78 53 79
REMARK SMILES IDX 37 80 38 81 43 82 39 83 40 84 42 85 44 86 41 87
REMARK H PARENT 7 5 3 13 3 14 72 19 11 30 61 49 35 60
REMARK Flexibility Score: inf
ROOT
ATOM      1  C   UNL     1       2.147  -4.020   0.515  1.00  0.00     0.118 C 
ENDROOT
BRANCH   1   2
ATOM      2  N   UNL     1       1.659  -2.692   0.204  1.00  0.00    -0.351 N 
ATOM      3  C   UNL     1       1.046  -2.116  -0.860  1.00  0.00     0.281 C 
ATOM      4  O   UNL     1       0.637  -0.968  -0.621  1.00  0.00    -0.268 OA
ATOM      5  H   UNL     1       1.806  -2.056   0.941  1.00  0.00     0.163 HD
BRANCH   3   6
ATOM      6  C   UNL     1       0.764  -2.786  -2.263  1.00  0.00     0.181 C 
ATOM      7  C   UNL     1       1.389  -4.175  -2.491  1.00  0.00     0.079 C 
ATOM      8  C   UNL     1      -0.780  -2.956  -2.342  1.00  0.00     0.144 C 
ATOM      9  C   UNL     1       1.050  -4.774  -3.854  1.00  0.00     0.013 C 
ATOM     10  C   UNL     1      -1.326  -3.752  -3.555  1.00  0.00     0.190 C 
ATOM     11  C   UNL     1      -0.451  -4.945  -3.958  1.00  0.00     0.065 C 
BRANCH   6  12
ATOM     12  N   UNL     1       1.354  -1.968  -3.363  1.00  0.00    -0.334 N 
ATOM     13  H   UNL     1       2.363  -2.109  -3.332  1.00  0.00     0.347 HD
ATOM     14  H   UNL     1       0.873  -2.300  -4.199  1.00  0.00     0.347 HD
BRANCH  12  15
ATOM     15  C   UNL     1       1.123  -0.530  -3.374  1.00  0.00     0.257 C 
ATOM     16  C   UNL     1       1.657   0.001  -4.702  1.00  0.00     0.071 C 
ENDBRANCH  12  15
ENDBRANCH   6  12
BRANCH  10  17
ATOM     17  N   UNL     1      -2.761  -4.116  -3.425  1.00  0.00    -0.334 N 
ATOM     18  C   UNL     1      -3.401  -4.561  -4.653  1.00  0.00     0.332 C 
ATOM     19  H   UNL     1      -3.088  -3.170  -3.228  1.00  0.00     0.348 HD
BRANCH  17  20
ATOM     20  C   UNL     1      -3.284  -4.753  -2.208  1.00  0.00     0.265 C 
BRANCH  20  21
ATOM     21  C   UNL     1      -3.283  -6.276  -1.888  1.00  0.00     0.044 C 
ATOM     22  C   UNL     1      -4.560  -7.032  -2.259  1.00  0.00     0.009 C 
ATOM     23  C   UNL     1      -2.212  -7.199  -2.458  1.00  0.00     0.009 C 
ATOM     24  C   UNL     1      -4.200  -8.483  -1.937  1.00  0.00     0.001 C 
ATOM     25  C   UNL     1      -2.735  -8.625  -2.318  1.00  0.00     0.001 C 
ENDBRANCH  20  21
ENDBRANCH  17  20
ENDBRANCH  10  17
ENDBRANCH   3   6
ENDBRANCH   1   2
BRANCH   1  26
ATOM     26  C   UNL     1       3.627  -4.192   0.196  1.00  0.00     0.042 C 
BRANCH  26  27
ATOM     27  C   UNL     1       4.543  -3.507   1.205  1.00  0.00     0.118 C 
BRANCH  27  28
ATOM     28  N   UNL     1       4.438  -4.098   2.534  1.00  0.00    -0.352 N 
ATOM     29  C   UNL     1       5.360  -4.786   3.280  1.00  0.00     0.251 C 
ATOM     30  H   UNL     1       3.561  -3.984   2.967  1.00  0.00     0.163 HD
ATOM     31  O   UNL     1       4.990  -5.415   4.267  1.00  0.00    -0.269 OA
BRANCH  29  32
ATOM     32  C   UNL     1       6.790  -4.778   2.907  1.00  0.00     0.039 A 
ATOM     33  C   UNL     1       7.538  -5.948   3.074  1.00  0.00     0.014 A 
ATOM     34  C   UNL     1       7.409  -3.614   2.446  1.00  0.00     0.014 A 
ATOM     35  C   UNL     1       8.889  -5.965   2.722  1.00  0.00     0.010 A 
ATOM     36  C   UNL     1       8.732  -3.654   2.018  1.00  0.00     0.010 A 
ATOM     37  C   UNL     1       9.487  -4.827   2.158  1.00  0.00    -0.014 A 
BRANCH  37  38
ATOM     38  C   UNL     1      10.901  -4.840   1.708  1.00  0.00     0.031 A 
ATOM     39  C   UNL     1      11.909  -3.930   2.355  1.00  0.00     0.074 A 
ATOM     40  C   UNL     1      11.255  -5.614   0.663  1.00  0.00     0.049 A 
ATOM     41  N   UNL     1      13.162  -3.727   2.038  1.00  0.00    -0.248 NA
ATOM     42  C   UNL     1      11.440  -3.118   3.490  1.00  0.00     0.031 C 
ATOM     43  C   UNL     1      10.354  -6.497  -0.081  1.00  0.00     0.029 A 
ATOM     44  N   UNL     1      12.464  -5.768   0.032  1.00  0.00    -0.354 N 
ATOM     45  C   UNL     1      13.621  -2.752   2.915  1.00  0.00     0.074 A 
ATOM     46  C   UNL     1      12.504  -2.372   3.749  1.00  0.00     0.031 C 
ATOM     47  C   UNL     1      11.044  -7.109  -1.057  1.00  0.00     0.029 A 
ATOM     48  C   UNL     1      12.422  -6.632  -1.035  1.00  0.00     0.049 A 
ATOM     49  H   UNL     1      13.284  -5.303   0.318  1.00  0.00     0.167 HD
ATOM     50  C   UNL     1      14.868  -2.236   3.025  1.00  0.00     0.037 A 
ATOM     51  C   UNL     1      13.384  -6.988  -1.908  1.00  0.00     0.037 A 
ATOM     52  C   UNL     1      15.985  -2.647   2.216  1.00  0.00     0.049 A 
ATOM     53  C   UNL     1      14.762  -6.407  -1.753  1.00  0.00     0.074 A 
ATOM     54  C   UNL     1      17.306  -2.244   2.305  1.00  0.00     0.029 A 
ATOM     55  N   UNL     1      15.911  -3.553   1.169  1.00  0.00    -0.354 N 
ATOM     56  N   UNL     1      15.202  -5.547  -0.865  1.00  0.00    -0.248 NA
ATOM     57  C   UNL     1      15.780  -6.850  -2.715  1.00  0.00     0.031 C 
ATOM     58  C   UNL     1      18.023  -2.871   1.282  1.00  0.00     0.029 A 
ATOM     59  C   UNL     1      17.159  -3.702   0.588  1.00  0.00     0.049 A 
ATOM     60  H   UNL     1      15.094  -4.020   0.882  1.00  0.00     0.167 HD
ATOM     61  C   UNL     1      16.550  -5.368  -1.145  1.00  0.00     0.074 A 
ATOM     62  C   UNL     1      16.860  -6.221  -2.273  1.00  0.00     0.031 C 
ATOM     63  C   UNL     1      17.450  -4.566  -0.527  1.00  0.00     0.037 A 
BRANCH  50  64
ATOM     64  C   UNL     1      15.101  -1.176   4.062  1.00  0.00     0.057 A 
ATOM     65  C   UNL     1      15.113  -1.471   5.431  1.00  0.00     0.134 A 
ATOM     66  C   UNL     1      15.381   0.143   3.683  1.00  0.00     0.134 A 
ATOM     67  F   UNL     1      14.843  -2.712   5.862  1.00  0.00    -0.206 F 
ATOM     68  C   UNL     1      15.381  -0.489   6.387  1.00  0.00     0.040 A 
ATOM     69  C   UNL     1      15.675   1.128   4.627  1.00  0.00     0.040 A 
ATOM     70  F   UNL     1      15.390   0.492   2.388  1.00  0.00    -0.206 F 
ATOM     71  C   UNL     1      15.673   0.813   5.985  1.00  0.00     0.006 A 
ENDBRANCH  50  64
BRANCH  51  72
ATOM     72  C   UNL     1      13.084  -7.942  -3.006  1.00  0.00     0.057 A 
ATOM     73  C   UNL     1      13.642  -9.226  -3.022  1.00  0.00     0.134 A 
ATOM     74  C   UNL     1      12.253  -7.588  -4.076  1.00  0.00     0.134 A 
ATOM     75  F   UNL     1      14.459  -9.619  -2.034  1.00  0.00    -0.206 F 
ATOM     76  C   UNL     1      13.411 -10.112  -4.076  1.00  0.00     0.040 A 
ATOM     77  C   UNL     1      11.990  -8.473  -5.122  1.00  0.00     0.040 A 
ATOM     78  F   UNL     1      11.679  -6.377  -4.116  1.00  0.00    -0.206 F 
ATOM     79  C   UNL     1      12.579  -9.736  -5.129  1.00  0.00     0.006 A 
ENDBRANCH  51  72
BRANCH  63  80
ATOM     80  C   UNL     1      18.862  -4.601  -1.034  1.00  0.00     0.057 A 
ATOM     81  C   UNL     1      19.222  -4.027  -2.259  1.00  0.00     0.134 A 
ATOM     82  C   UNL     1      19.879  -5.180  -0.265  1.00  0.00     0.134 A 
ATOM     83  F   UNL     1      18.291  -3.468  -3.048  1.00  0.00    -0.206 F 
ATOM     84  C   UNL     1      20.541  -4.047  -2.713  1.00  0.00     0.040 A 
ATOM     85  C   UNL     1      21.206  -5.182  -0.695  1.00  0.00     0.040 A 
ATOM     86  F   UNL     1      19.602  -5.739   0.923  1.00  0.00    -0.206 F 
ATOM     87  C   UNL     1      21.539  -4.619  -1.925  1.00  0.00     0.006 A 
ENDBRANCH  63  80
ENDBRANCH  37  38
ENDBRANCH  29  32
ENDBRANCH  27  28
ENDBRANCH  26  27
ENDBRANCH   1  26
TORSDOF 15
