REMARK SMILES C[C@H]1CN(c2ccc([N+](=O)[O-])c(C(=O)NCCCNC(=O)c3ccc(-c4c5nc(c(-c6c(F)cccc6F)c6ccc([nH]6)c(-c6c(F)cccc6F)c6nc(c(-c7c(F)cccc7F)c7ccc4[nH]7)C=C6)C=C5)cc3)c2)C[C@H](C)O1
REMARK SMILES IDX 17 1 16 2 15 3 13 4 14 5 12 7 5 8 6 9 76 10 7 11 8 12 4 13
REMARK SMILES IDX 1 14 2 15 3 16 80 17 78 18 77 19 79 20 9 21 10 22 11 23
REMARK SMILES IDX 18 24 19 25 20 26 21 28 22 29 23 30 75 31 24 32 74 33 25 34
REMARK SMILES IDX 26 35 27 36 68 37 28 38 73 39 67 40 69 41 29 42 72 43 66 44
REMARK SMILES IDX 65 45 30 47 56 48 39 49 55 50 40 51 43 52 54 53 70 54 41 55
REMARK SMILES IDX 42 56 53 58 71 59 44 60 31 61 32 62 37 63 33 64 34 65 36 66
REMARK SMILES IDX 38 67 35 68 57 69 58 70 63 71 59 72 60 73 62 74 64 75 61 76
REMARK SMILES IDX 45 77 46 78 51 79 47 80 48 81 50 82 52 83 49 84
REMARK H PARENT 15 6 19 27 69 46 43 57
REMARK Flexibility Score: inf
ROOT
ATOM      1  C   UNL     1       2.932   7.575  -1.284  1.00  0.00     0.042 C 
ENDROOT
BRANCH   1   2
ATOM      2  C   UNL     1       3.755   6.308  -1.444  1.00  0.00     0.118 C 
BRANCH   2   3
ATOM      3  N   UNL     1       5.074   6.382  -0.821  1.00  0.00    -0.352 N 
ATOM      4  C   UNL     1       5.733   5.698   0.176  1.00  0.00     0.258 C 
ATOM      5  O   UNL     1       6.817   6.165   0.516  1.00  0.00    -0.269 OA
ATOM      6  H   UNL     1       5.628   7.098  -1.208  1.00  0.00     0.163 HD
BRANCH   4   7
ATOM      7  C   UNL     1       5.168   4.531   0.911  1.00  0.00     0.119 A 
ATOM      8  C   UNL     1       3.216   3.092   1.263  1.00  0.00     0.038 A 
ATOM      9  C   UNL     1       3.675   2.822   2.557  1.00  0.00     0.033 A 
ATOM     10  C   UNL     1       4.053   3.844   0.432  1.00  0.00     0.047 A 
ATOM     11  C   UNL     1       4.917   3.284   2.991  1.00  0.00     0.088 A 
ATOM     12  C   UNL     1       5.649   4.143   2.163  1.00  0.00     0.282 A 
BRANCH   8  13
ATOM     13  N   UNL     1       1.989   2.642   0.834  1.00  0.00    -0.366 N 
ATOM     14  C   UNL     1       0.204   1.041  -2.114  1.00  0.00     0.040 C 
ATOM     15  C   UNL     1       0.692   1.218  -0.682  1.00  0.00     0.135 C 
ATOM     16  C   UNL     1       1.648   2.426  -0.580  1.00  0.00     0.148 C 
ATOM     17  O   UNL     1      -0.466   1.372   0.162  1.00  0.00    -0.372 OA
ATOM     18  C   UNL     1      -0.135   1.633   1.542  1.00  0.00     0.135 C 
ATOM     19  C   UNL     1       0.797   2.850   1.678  1.00  0.00     0.148 C 
ATOM     20  C   UNL     1       0.453   0.404   2.235  1.00  0.00     0.040 C 
ENDBRANCH   8  13
BRANCH  12  21
ATOM     21  N   UNL     1       6.993   4.472   2.601  1.00  0.00     0.063 N 
ATOM     22  O   UNL     1       7.100   5.056   3.689  1.00  0.00    -0.258 OA
ATOM     23  O   UNL     1       7.926   4.004   1.933  1.00  0.00    -0.258 OA
ENDBRANCH  12  21
ENDBRANCH   4   7
ENDBRANCH   2   3
ENDBRANCH   1   2
BRANCH   1  24
ATOM     24  C   UNL     1       3.495   8.784  -2.007  1.00  0.00     0.118 C 
BRANCH  24  25
ATOM     25  N   UNL     1       3.549   8.599  -3.451  1.00  0.00    -0.352 N 
ATOM     26  C   UNL     1       2.776   9.124  -4.459  1.00  0.00     0.251 C 
ATOM     27  H   UNL     1       4.262   7.994  -3.758  1.00  0.00     0.163 HD
ATOM     28  O   UNL     1       2.861   8.650  -5.588  1.00  0.00    -0.269 OA
BRANCH  26  29
ATOM     29  C   UNL     1       1.831  10.233  -4.198  1.00  0.00     0.039 A 
ATOM     30  C   UNL     1       0.610  10.256  -4.879  1.00  0.00     0.014 A 
ATOM     31  C   UNL     1       2.151  11.270  -3.321  1.00  0.00     0.014 A 
ATOM     32  C   UNL     1      -0.313  11.272  -4.619  1.00  0.00     0.010 A 
ATOM     33  C   UNL     1       1.192  12.217  -2.981  1.00  0.00     0.010 A 
ATOM     34  C   UNL     1      -0.048  12.237  -3.633  1.00  0.00    -0.014 A 
BRANCH  34  35
ATOM     35  C   UNL     1      -1.049  13.273  -3.273  1.00  0.00     0.031 A 
ATOM     36  C   UNL     1      -0.725  14.733  -3.444  1.00  0.00     0.074 A 
ATOM     37  C   UNL     1      -2.219  12.901  -2.718  1.00  0.00     0.049 A 
ATOM     38  N   UNL     1      -1.438  15.782  -3.118  1.00  0.00    -0.248 NA
ATOM     39  C   UNL     1       0.586  15.061  -4.029  1.00  0.00     0.031 C 
ATOM     40  C   UNL     1      -2.623  11.522  -2.438  1.00  0.00     0.029 A 
ATOM     41  N   UNL     1      -3.280  13.652  -2.277  1.00  0.00    -0.354 N 
ATOM     42  C   UNL     1      -0.655  16.885  -3.436  1.00  0.00     0.074 A 
ATOM     43  C   UNL     1       0.607  16.381  -3.929  1.00  0.00     0.031 C 
ATOM     44  C   UNL     1      -3.852  11.524  -1.898  1.00  0.00     0.029 A 
ATOM     45  C   UNL     1      -4.306  12.903  -1.756  1.00  0.00     0.049 A 
ATOM     46  H   UNL     1      -3.303  14.635  -2.329  1.00  0.00     0.167 HD
ATOM     47  C   UNL     1      -0.969  18.200  -3.347  1.00  0.00     0.037 A 
ATOM     48  C   UNL     1      -5.479  13.284  -1.216  1.00  0.00     0.037 A 
ATOM     49  C   UNL     1      -2.240  18.696  -2.890  1.00  0.00     0.049 A 
ATOM     50  C   UNL     1      -5.811  14.748  -1.147  1.00  0.00     0.074 A 
ATOM     51  C   UNL     1      -2.687  20.005  -2.841  1.00  0.00     0.029 A 
ATOM     52  N   UNL     1      -3.268  17.903  -2.401  1.00  0.00    -0.354 N 
ATOM     53  N   UNL     1      -5.095  15.777  -1.531  1.00  0.00    -0.248 NA
ATOM     54  C   UNL     1      -7.118  15.105  -0.578  1.00  0.00     0.031 C 
ATOM     55  C   UNL     1      -3.967  20.009  -2.276  1.00  0.00     0.029 A 
ATOM     56  C   UNL     1      -4.337  18.698  -2.022  1.00  0.00     0.049 A 
ATOM     57  H   UNL     1      -3.240  16.922  -2.332  1.00  0.00     0.167 HD
ATOM     58  C   UNL     1      -5.871  16.899  -1.272  1.00  0.00     0.074 A 
ATOM     59  C   UNL     1      -7.121  16.423  -0.717  1.00  0.00     0.031 C 
ATOM     60  C   UNL     1      -5.575  18.206  -1.474  1.00  0.00     0.037 A 
BRANCH  47  61
ATOM     61  C   UNL     1       0.076  19.196  -3.760  1.00  0.00     0.057 A 
ATOM     62  C   UNL     1       0.457  19.359  -5.099  1.00  0.00     0.134 A 
ATOM     63  C   UNL     1       0.680  20.032  -2.812  1.00  0.00     0.134 A 
ATOM     64  F   UNL     1      -0.073  18.582  -6.056  1.00  0.00    -0.206 F 
ATOM     65  C   UNL     1       1.417  20.299  -5.477  1.00  0.00     0.040 A 
ATOM     66  C   UNL     1       1.620  20.995  -3.181  1.00  0.00     0.040 A 
ATOM     67  F   UNL     1       0.358  19.934  -1.514  1.00  0.00    -0.206 F 
ATOM     68  C   UNL     1       1.996  21.127  -4.517  1.00  0.00     0.006 A 
ENDBRANCH  47  61
BRANCH  48  69
ATOM     69  C   UNL     1      -6.435  12.263  -0.716  1.00  0.00     0.057 A 
ATOM     70  C   UNL     1      -7.647  12.023  -1.375  1.00  0.00     0.134 A 
ATOM     71  C   UNL     1      -6.167  11.510   0.433  1.00  0.00     0.134 A 
ATOM     72  F   UNL     1      -7.969  12.725  -2.472  1.00  0.00    -0.206 F 
ATOM     73  C   UNL     1      -8.567  11.088  -0.898  1.00  0.00     0.040 A 
ATOM     74  C   UNL     1      -7.065  10.552   0.906  1.00  0.00     0.040 A 
ATOM     75  F   UNL     1      -5.019  11.684   1.105  1.00  0.00    -0.206 F 
ATOM     76  C   UNL     1      -8.274  10.345   0.244  1.00  0.00     0.006 A 
ENDBRANCH  48  69
BRANCH  60  77
ATOM     77  C   UNL     1      -6.633  19.210  -1.118  1.00  0.00     0.057 A 
ATOM     78  C   UNL     1      -6.960  19.499   0.213  1.00  0.00     0.134 A 
ATOM     79  C   UNL     1      -7.306  19.920  -2.120  1.00  0.00     0.134 A 
ATOM     80  F   UNL     1      -6.361  18.844   1.218  1.00  0.00    -0.206 F 
ATOM     81  C   UNL     1      -7.939  20.440   0.534  1.00  0.00     0.040 A 
ATOM     82  C   UNL     1      -8.267  20.884  -1.810  1.00  0.00     0.040 A 
ATOM     83  F   UNL     1      -7.033  19.699  -3.414  1.00  0.00    -0.206 F 
ATOM     84  C   UNL     1      -8.591  21.141  -0.480  1.00  0.00     0.006 A 
ENDBRANCH  60  77
ENDBRANCH  34  35
ENDBRANCH  26  29
ENDBRANCH  24  25
ENDBRANCH   1  24
TORSDOF 12
