REMARK SMILES O=C(NCCCNC(=O)c1cn(-c2ccccc2)c2c1N=C(O)C[C@@H]2c1cccs1)c1ccc(-c2c3nc(c(-c4c(F)cccc4F)c4ccc([nH]4)c(-c4c(F)cccc4F)c4nc(c(-c5c(F)cccc5F)c5ccc2[nH]5)C=C4)C=C3)cc1
REMARK SMILES IDX 4 1 3 2 1 3 2 4 31 6 32 7 84 8 33 9 83 10 34 11 35 12 36 13
REMARK SMILES IDX 77 14 37 15 82 16 76 17 78 18 38 19 81 20 75 21 74 22 39 24
REMARK SMILES IDX 65 25 48 26 64 27 49 28 52 29 63 30 79 31 50 32 51 33 62 35
REMARK SMILES IDX 80 36 53 37 40 38 41 39 46 40 42 41 43 42 45 43 47 44 44 45
REMARK SMILES IDX 66 46 67 47 72 48 68 49 69 50 71 51 73 52 70 53 54 54 55 55
REMARK SMILES IDX 60 56 56 57 57 58 59 59 61 60 58 61 5 62 6 63 7 64 8 65 9 67
REMARK SMILES IDX 10 68 11 69 20 70 12 71 19 72 21 73 25 74 22 75 24 76 13 77
REMARK SMILES IDX 14 78 18 79 15 80 17 81 16 82 26 83 27 84 30 85 28 86 29 87
REMARK SMILES IDX 23 88
REMARK H PARENT 3 5 78 23 52 34 7 66 23 89
REMARK Flexibility Score: inf
ROOT
ATOM      1  C   UNL     1       4.683   0.946  -0.530  1.00  0.00     0.118 C 
ENDROOT
BRANCH   1   2
ATOM      2  N   UNL     1       3.269   1.150  -0.294  1.00  0.00    -0.352 N 
ATOM      3  O   UNL     1       1.163   0.908   0.317  1.00  0.00    -0.269 OA
ATOM      4  C   UNL     1       2.212   0.337   0.004  1.00  0.00     0.251 C 
ATOM      5  H   UNL     1       3.008   2.097  -0.364  1.00  0.00     0.163 HD
BRANCH   4   6
ATOM      6  C   UNL     1       2.214  -1.152  -0.068  1.00  0.00     0.039 A 
ATOM      7  C   UNL     1       3.303  -1.956  -0.407  1.00  0.00     0.014 A 
ATOM      8  C   UNL     1       0.978  -1.779   0.183  1.00  0.00     0.014 A 
ATOM      9  C   UNL     1       3.148  -3.333  -0.565  1.00  0.00     0.010 A 
ATOM     10  C   UNL     1       0.821  -3.155   0.048  1.00  0.00     0.010 A 
ATOM     11  C   UNL     1       1.903  -3.931  -0.361  1.00  0.00    -0.014 A 
BRANCH  11  12
ATOM     12  C   UNL     1       1.805  -5.386  -0.474  1.00  0.00     0.031 A 
ATOM     13  C   UNL     1       2.553  -6.176   0.550  1.00  0.00     0.074 A 
ATOM     14  C   UNL     1       0.961  -6.011  -1.321  1.00  0.00     0.049 A 
ATOM     15  N   UNL     1       3.412  -7.130   0.373  1.00  0.00    -0.248 NA
ATOM     16  C   UNL     1       2.336  -5.825   1.962  1.00  0.00     0.031 C 
ATOM     17  C   UNL     1      -0.077  -5.408  -2.159  1.00  0.00     0.029 A 
ATOM     18  N   UNL     1       0.783  -7.350  -1.518  1.00  0.00    -0.354 N 
ATOM     19  C   UNL     1       3.723  -7.614   1.645  1.00  0.00     0.074 A 
ATOM     20  C   UNL     1       3.114  -6.710   2.585  1.00  0.00     0.031 C 
ATOM     21  C   UNL     1      -0.906  -6.379  -2.604  1.00  0.00     0.029 A 
ATOM     22  C   UNL     1      -0.388  -7.672  -2.188  1.00  0.00     0.049 A 
ATOM     23  H   UNL     1       1.429  -8.027  -1.213  1.00  0.00     0.167 HD
ATOM     24  C   UNL     1       4.307  -8.829   1.839  1.00  0.00     0.037 A 
ATOM     25  C   UNL     1      -0.932  -8.904  -2.334  1.00  0.00     0.037 A 
ATOM     26  C   UNL     1       4.991  -9.286   0.659  1.00  0.00     0.049 A 
ATOM     27  C   UNL     1       0.119  -9.912  -2.068  1.00  0.00     0.074 A 
ATOM     28  C   UNL     1       6.020  -8.803  -0.127  1.00  0.00     0.029 A 
ATOM     29  N   UNL     1       4.441 -10.315  -0.062  1.00  0.00    -0.354 N 
ATOM     30  N   UNL     1       1.130 -10.154  -2.852  1.00  0.00    -0.248 NA
ATOM     31  C   UNL     1       0.246 -10.422  -0.711  1.00  0.00     0.031 C 
ATOM     32  C   UNL     1       5.704  -9.224  -1.452  1.00  0.00     0.029 A 
ATOM     33  C   UNL     1       4.518  -9.954  -1.380  1.00  0.00     0.049 A 
ATOM     34  H   UNL     1       4.064 -11.150   0.299  1.00  0.00     0.167 HD
ATOM     35  C   UNL     1       2.175 -10.462  -1.995  1.00  0.00     0.074 A 
ATOM     36  C   UNL     1       1.544 -10.728  -0.707  1.00  0.00     0.031 C 
ATOM     37  C   UNL     1       3.470 -10.201  -2.338  1.00  0.00     0.037 A 
BRANCH  24  38
ATOM     38  C   UNL     1       3.973  -9.764   2.983  1.00  0.00     0.057 A 
ATOM     39  C   UNL     1       4.696 -10.965   3.127  1.00  0.00     0.134 A 
ATOM     40  C   UNL     1       2.790  -9.689   3.746  1.00  0.00     0.134 A 
ATOM     41  F   UNL     1       5.841 -11.167   2.458  1.00  0.00    -0.206 F 
ATOM     42  C   UNL     1       4.223 -12.044   3.885  1.00  0.00     0.040 A 
ATOM     43  C   UNL     1       2.336 -10.741   4.548  1.00  0.00     0.040 A 
ATOM     44  F   UNL     1       1.961  -8.641   3.684  1.00  0.00    -0.206 F 
ATOM     45  C   UNL     1       3.032 -11.939   4.589  1.00  0.00     0.006 A 
ENDBRANCH  24  38
BRANCH  25  46
ATOM     46  C   UNL     1      -2.360  -9.275  -2.441  1.00  0.00     0.057 A 
ATOM     47  C   UNL     1      -2.755 -10.519  -2.951  1.00  0.00     0.134 A 
ATOM     48  C   UNL     1      -3.361  -8.522  -1.802  1.00  0.00     0.134 A 
ATOM     49  F   UNL     1      -1.863 -11.330  -3.537  1.00  0.00    -0.206 F 
ATOM     50  C   UNL     1      -4.067 -10.994  -2.820  1.00  0.00     0.040 A 
ATOM     51  C   UNL     1      -4.676  -8.979  -1.674  1.00  0.00     0.040 A 
ATOM     52  F   UNL     1      -3.076  -7.357  -1.203  1.00  0.00    -0.206 F 
ATOM     53  C   UNL     1      -5.030 -10.226  -2.172  1.00  0.00     0.006 A 
ENDBRANCH  25  46
BRANCH  37  54
ATOM     54  C   UNL     1       3.764  -9.854  -3.768  1.00  0.00     0.057 A 
ATOM     55  C   UNL     1       3.261  -8.713  -4.412  1.00  0.00     0.134 A 
ATOM     56  C   UNL     1       4.704 -10.617  -4.469  1.00  0.00     0.134 A 
ATOM     57  F   UNL     1       2.439  -7.865  -3.780  1.00  0.00    -0.206 F 
ATOM     58  C   UNL     1       3.639  -8.378  -5.715  1.00  0.00     0.040 A 
ATOM     59  C   UNL     1       5.116 -10.273  -5.759  1.00  0.00     0.040 A 
ATOM     60  F   UNL     1       5.274 -11.686  -3.893  1.00  0.00    -0.206 F 
ATOM     61  C   UNL     1       4.574  -9.157  -6.391  1.00  0.00     0.006 A 
ENDBRANCH  37  54
ENDBRANCH  11  12
ENDBRANCH   4   6
ENDBRANCH   1   2
BRANCH   1  62
ATOM     62  C   UNL     1       5.040   0.618  -1.977  1.00  0.00     0.042 C 
BRANCH  62  63
ATOM     63  C   UNL     1       4.599   1.663  -2.995  1.00  0.00     0.118 C 
BRANCH  63  64
ATOM     64  N   UNL     1       5.266   2.942  -2.826  1.00  0.00    -0.352 N 
ATOM     65  C   UNL     1       6.023   3.655  -3.731  1.00  0.00     0.255 C 
ATOM     66  H   UNL     1       5.163   3.358  -1.939  1.00  0.00     0.163 HD
ATOM     67  O   UNL     1       6.601   4.662  -3.355  1.00  0.00    -0.269 OA
BRANCH  65  68
ATOM     68  C   UNL     1       6.172   3.128  -5.078  1.00  0.00     0.084 A 
ATOM     69  C   UNL     1       7.391   2.912  -5.698  1.00  0.00     0.107 A 
ATOM     70  C   UNL     1       5.201   2.707  -6.008  1.00  0.00     0.101 A 
ATOM     71  N   UNL     1       7.186   2.315  -6.930  1.00  0.00    -0.317 N 
ATOM     72  C   UNL     1       5.822   2.108  -7.074  1.00  0.00     0.058 A 
ATOM     73  N   UNL     1       3.828   2.693  -5.780  1.00  0.00    -0.215 NA
ATOM     74  C   UNL     1       5.131   1.199  -8.035  1.00  0.00     0.088 C 
ATOM     75  C   UNL     1       3.138   2.059  -6.665  1.00  0.00     0.187 C 
ATOM     76  C   UNL     1       3.607   1.423  -7.951  1.00  0.00     0.112 C 
BRANCH  71  77
ATOM     77  C   UNL     1       8.225   1.905  -7.802  1.00  0.00     0.045 A 
ATOM     78  C   UNL     1       8.105   2.086  -9.183  1.00  0.00     0.026 A 
ATOM     79  C   UNL     1       9.383   1.324  -7.267  1.00  0.00     0.026 A 
ATOM     80  C   UNL     1       9.138   1.673 -10.026  1.00  0.00     0.002 A 
ATOM     81  C   UNL     1      10.398   0.887  -8.119  1.00  0.00     0.002 A 
ATOM     82  C   UNL     1      10.277   1.064  -9.496  1.00  0.00     0.000 A 
ENDBRANCH  71  77
BRANCH  74  83
ATOM     83  C   UNL     1       5.451  -0.287  -7.862  1.00  0.00     0.014 A 
ATOM     84  C   UNL     1       5.199  -1.294  -8.781  1.00  0.00     0.016 A 
ATOM     85  S   UNL     1       6.173  -0.940  -6.443  1.00  0.00    -0.148 S 
ATOM     86  C   UNL     1       5.646  -2.573  -8.342  1.00  0.00     0.012 A 
ATOM     87  C   UNL     1       6.236  -2.512  -7.102  1.00  0.00     0.065 A 
ENDBRANCH  74  83
BRANCH  75  88
ATOM     88  O   UNL     1       1.803   1.982  -6.477  1.00  0.00    -0.496 OA
ATOM     89  H   UNL     1       1.417   2.350  -5.707  1.00  0.00     0.294 HD
ENDBRANCH  75  88
ENDBRANCH  65  68
ENDBRANCH  63  64
ENDBRANCH  62  63
ENDBRANCH   1  62
TORSDOF 13
