REMARK SMILES CSc1cccc(N2C[C@@H](C(=O)NCCCNC(=O)c3ccc(-c4c5nc(c(-c6c(F)cccc6F)c6ccc([nH]6)c(-c6c(F)cccc6F)c6nc(c(-c7c(F)cccc7F)c7ccc4[nH]7)C=C6)C=C5)cc3)CC2=O)c1
REMARK SMILES IDX 15 1 14 2 13 3 11 4 12 5 10 7 8 8 9 9 75 10 74 11 76 12 7 13
REMARK SMILES IDX 3 14 4 15 77 16 5 17 6 18 2 19 1 20 16 21 17 22 18 23 19 25
REMARK SMILES IDX 20 26 21 27 73 28 22 29 72 30 23 31 24 32 25 33 66 34 26 35
REMARK SMILES IDX 71 36 65 37 67 38 27 39 70 40 64 41 63 42 28 44 54 45 37 46
REMARK SMILES IDX 53 47 38 48 41 49 52 50 68 51 39 52 40 53 51 55 69 56 42 57
REMARK SMILES IDX 29 58 30 59 35 60 31 61 32 62 34 63 36 64 33 65 55 66 56 67
REMARK SMILES IDX 61 68 57 69 58 70 60 71 62 72 59 73 43 74 44 75 49 76 45 77
REMARK SMILES IDX 46 78 48 79 50 80 47 81
REMARK H PARENT 13 6 17 24 67 43 41 54
REMARK Flexibility Score: inf
ROOT
ATOM      1  C   UNL     1       3.191   7.853   3.539  1.00  0.00     0.042 C 
ENDROOT
BRANCH   1   2
ATOM      2  C   UNL     1       3.719   6.590   4.215  1.00  0.00     0.117 C 
BRANCH   2   3
ATOM      3  N   UNL     1       4.047   6.804   5.615  1.00  0.00    -0.356 N 
ATOM      4  C   UNL     1       3.506   6.319   6.761  1.00  0.00     0.225 C 
ATOM      5  O   UNL     1       4.030   6.671   7.821  1.00  0.00    -0.275 OA
ATOM      6  H   UNL     1       4.804   7.416   5.759  1.00  0.00     0.163 HD
BRANCH   4   7
ATOM      7  C   UNL     1       2.321   5.375   6.787  1.00  0.00     0.107 C 
ATOM      8  N   UNL     1       1.503   3.749   5.286  1.00  0.00    -0.312 N 
ATOM      9  C   UNL     1       2.615   4.023   6.164  1.00  0.00     0.139 C 
ATOM     10  C   UNL     1       0.622   4.822   5.182  1.00  0.00     0.227 C 
ATOM     11  C   UNL     1       1.073   5.914   6.112  1.00  0.00     0.116 C 
ATOM     12  O   UNL     1      -0.388   4.912   4.498  1.00  0.00    -0.274 OA
BRANCH   8  13
ATOM     13  C   UNL     1       1.392   2.537   4.563  1.00  0.00     0.045 A 
ATOM     14  C   UNL     1       0.772   1.326   2.529  1.00  0.00     0.009 A 
ATOM     15  C   UNL     1       1.135   0.127   3.145  1.00  0.00     0.015 A 
ATOM     16  C   UNL     1       0.872   2.519   3.261  1.00  0.00     0.041 A 
ATOM     17  C   UNL     1       1.643   0.127   4.444  1.00  0.00     0.003 A 
ATOM     18  C   UNL     1       1.797   1.328   5.139  1.00  0.00     0.026 A 
BRANCH  14  19
ATOM     19  S   UNL     1       0.152   1.429   0.853  1.00  0.00    -0.130 SA
ATOM     20  C   UNL     1       0.922  -0.010   0.061  1.00  0.00     0.091 C 
ENDBRANCH  14  19
ENDBRANCH   8  13
ENDBRANCH   4   7
ENDBRANCH   2   3
ENDBRANCH   1   2
BRANCH   1  21
ATOM     21  C   UNL     1       4.188   9.007   3.484  1.00  0.00     0.118 C 
BRANCH  21  22
ATOM     22  N   UNL     1       5.369   8.699   2.689  1.00  0.00    -0.352 N 
ATOM     23  C   UNL     1       5.835   9.262   1.525  1.00  0.00     0.251 C 
ATOM     24  H   UNL     1       5.925   7.968   3.043  1.00  0.00     0.163 HD
ATOM     25  O   UNL     1       6.761   8.724   0.924  1.00  0.00    -0.269 OA
BRANCH  23  26
ATOM     26  C   UNL     1       5.219  10.489   0.974  1.00  0.00     0.039 A 
ATOM     27  C   UNL     1       5.004  10.570  -0.405  1.00  0.00     0.014 A 
ATOM     28  C   UNL     1       4.872  11.564   1.796  1.00  0.00     0.014 A 
ATOM     29  C   UNL     1       4.362  11.687  -0.944  1.00  0.00     0.010 A 
ATOM     30  C   UNL     1       4.159  12.640   1.270  1.00  0.00     0.010 A 
ATOM     31  C   UNL     1       3.885  12.707  -0.104  1.00  0.00    -0.014 A 
BRANCH  31  32
ATOM     32  C   UNL     1       3.056  13.818  -0.641  1.00  0.00     0.031 A 
ATOM     33  C   UNL     1       3.526  15.243  -0.553  1.00  0.00     0.074 A 
ATOM     34  C   UNL     1       1.837  13.543  -1.145  1.00  0.00     0.049 A 
ATOM     35  N   UNL     1       2.907  16.340  -0.910  1.00  0.00    -0.248 NA
ATOM     36  C   UNL     1       4.856  15.468   0.033  1.00  0.00     0.031 C 
ATOM     37  C   UNL     1       1.243  12.207  -1.238  1.00  0.00     0.029 A 
ATOM     38  N   UNL     1       0.870  14.371  -1.660  1.00  0.00    -0.354 N 
ATOM     39  C   UNL     1       3.764  17.384  -0.584  1.00  0.00     0.074 A 
ATOM     40  C   UNL     1       4.926  16.792   0.045  1.00  0.00     0.031 C 
ATOM     41  C   UNL     1       0.027  12.304  -1.797  1.00  0.00     0.029 A 
ATOM     42  C   UNL     1      -0.267  13.709  -2.057  1.00  0.00     0.049 A 
ATOM     43  H   UNL     1       0.982  15.346  -1.739  1.00  0.00     0.167 HD
ATOM     44  C   UNL     1       3.605  18.711  -0.805  1.00  0.00     0.037 A 
ATOM     45  C   UNL     1      -1.425  14.179  -2.558  1.00  0.00     0.037 A 
ATOM     46  C   UNL     1       2.451  19.294  -1.441  1.00  0.00     0.049 A 
ATOM     47  C   UNL     1      -1.586  15.658  -2.769  1.00  0.00     0.074 A 
ATOM     48  C   UNL     1       2.228  20.620  -1.771  1.00  0.00     0.029 A 
ATOM     49  N   UNL     1       1.321  18.591  -1.830  1.00  0.00    -0.354 N 
ATOM     50  N   UNL     1      -0.733  16.625  -2.532  1.00  0.00    -0.248 NA
ATOM     51  C   UNL     1      -2.870  16.112  -3.321  1.00  0.00     0.031 C 
ATOM     52  C   UNL     1       0.939  20.728  -2.302  1.00  0.00     0.029 A 
ATOM     53  C   UNL     1       0.381  19.461  -2.361  1.00  0.00     0.049 A 
ATOM     54  H   UNL     1       1.203  17.617  -1.742  1.00  0.00     0.167 HD
ATOM     55  C   UNL     1      -1.368  17.797  -2.922  1.00  0.00     0.074 A 
ATOM     56  C   UNL     1      -2.668  17.417  -3.434  1.00  0.00     0.031 C 
ATOM     57  C   UNL     1      -0.914  19.073  -2.860  1.00  0.00     0.037 A 
BRANCH  44  58
ATOM     58  C   UNL     1       4.704  19.629  -0.350  1.00  0.00     0.057 A 
ATOM     59  C   UNL     1       5.960  19.648  -0.971  1.00  0.00     0.134 A 
ATOM     60  C   UNL     1       4.489  20.539   0.694  1.00  0.00     0.134 A 
ATOM     61  F   UNL     1       6.238  18.799  -1.971  1.00  0.00    -0.206 F 
ATOM     62  C   UNL     1       6.970  20.517  -0.552  1.00  0.00     0.040 A 
ATOM     63  C   UNL     1       5.480  21.433   1.101  1.00  0.00     0.040 A 
ATOM     64  F   UNL     1       3.307  20.582   1.327  1.00  0.00    -0.206 F 
ATOM     65  C   UNL     1       6.728  21.419   0.482  1.00  0.00     0.006 A 
ENDBRANCH  44  58
BRANCH  45  66
ATOM     66  C   UNL     1      -2.524  13.238  -2.895  1.00  0.00     0.057 A 
ATOM     67  C   UNL     1      -2.904  13.014  -4.223  1.00  0.00     0.134 A 
ATOM     68  C   UNL     1      -3.221  12.543  -1.899  1.00  0.00     0.134 A 
ATOM     69  F   UNL     1      -2.287  13.665  -5.220  1.00  0.00    -0.206 F 
ATOM     70  C   UNL     1      -3.949  12.148  -4.549  1.00  0.00     0.040 A 
ATOM     71  C   UNL     1      -4.249  11.651  -2.212  1.00  0.00     0.040 A 
ATOM     72  F   UNL     1      -2.901  12.707  -0.607  1.00  0.00    -0.206 F 
ATOM     73  C   UNL     1      -4.621  11.459  -3.541  1.00  0.00     0.006 A 
ENDBRANCH  45  66
BRANCH  57  74
ATOM     74  C   UNL     1      -1.825  20.151  -3.374  1.00  0.00     0.057 A 
ATOM     75  C   UNL     1      -2.990  20.523  -2.691  1.00  0.00     0.134 A 
ATOM     76  C   UNL     1      -1.516  20.849  -4.548  1.00  0.00     0.134 A 
ATOM     77  F   UNL     1      -3.353  19.885  -1.567  1.00  0.00    -0.206 F 
ATOM     78  C   UNL     1      -3.828  21.532  -3.170  1.00  0.00     0.040 A 
ATOM     79  C   UNL     1      -2.328  21.881  -5.021  1.00  0.00     0.040 A 
ATOM     80  F   UNL     1      -0.410  20.551  -5.248  1.00  0.00    -0.206 F 
ATOM     81  C   UNL     1      -3.493  22.219  -4.335  1.00  0.00     0.006 A 
ENDBRANCH  57  74
ENDBRANCH  31  32
ENDBRANCH  23  26
ENDBRANCH  21  22
ENDBRANCH   1  21
TORSDOF 12
