REMARK SMILES O=C(NCCCNC(=O)[C@@H]1CCCN1S(=O)(=O)c1ccc2c3c(cccc13)C(=O)N2)c1ccc(-c2c3nc(c(-c4c(F)cccc4F)c4ccc([nH]4)c(-c4c(F)cccc4F)c4nc(c(-c5c(F)cccc5F)c5ccc2[nH]5)C=C4)C=C3)cc1
REMARK SMILES IDX 5 1 4 2 3 3 1 4 2 5 31 7 32 8 84 9 33 10 83 11 34 12 35 13
REMARK SMILES IDX 36 14 77 15 37 16 82 17 76 18 78 19 38 20 81 21 75 22 74 23
REMARK SMILES IDX 39 25 65 26 48 27 64 28 49 29 52 30 63 31 79 32 50 33 51 34
REMARK SMILES IDX 62 36 80 37 53 38 40 39 41 40 46 41 42 42 43 43 45 44 47 45
REMARK SMILES IDX 44 46 66 47 67 48 72 49 68 50 69 51 71 52 73 53 70 54 54 55
REMARK SMILES IDX 55 56 60 57 56 58 57 59 59 60 61 61 58 62 6 63 7 64 8 65
REMARK SMILES IDX 9 67 10 68 11 69 14 70 12 71 13 72 15 73 16 74 17 75 18 76
REMARK SMILES IDX 19 77 27 78 20 79 22 80 26 81 21 82 23 83 25 84 30 85 24 86
REMARK SMILES IDX 28 87 29 89
REMARK H PARENT 3 6 78 24 52 35 7 66 30 88
REMARK Flexibility Score: inf
ROOT
ATOM      1  C   UNL     1       4.365  -0.708  -2.339  1.00  0.00     0.042 C 
ENDROOT
BRANCH   1   2
ATOM      2  C   UNL     1       4.200   0.406  -1.307  1.00  0.00     0.118 C 
BRANCH   2   3
ATOM      3  N   UNL     1       2.809   0.556  -0.913  1.00  0.00    -0.352 N 
ATOM      4  O   UNL     1       0.941  -0.041   0.179  1.00  0.00    -0.269 OA
ATOM      5  C   UNL     1       2.164   0.074   0.197  1.00  0.00     0.251 C 
ATOM      6  H   UNL     1       2.250   1.079  -1.532  1.00  0.00     0.163 HD
BRANCH   5   7
ATOM      7  C   UNL     1       2.918  -0.281   1.418  1.00  0.00     0.039 A 
ATOM      8  C   UNL     1       3.927   0.556   1.903  1.00  0.00     0.014 A 
ATOM      9  C   UNL     1       2.529  -1.406   2.155  1.00  0.00     0.014 A 
ATOM     10  C   UNL     1       4.595   0.232   3.082  1.00  0.00     0.010 A 
ATOM     11  C   UNL     1       3.166  -1.704   3.363  1.00  0.00     0.010 A 
ATOM     12  C   UNL     1       4.212  -0.893   3.830  1.00  0.00    -0.014 A 
BRANCH  12  13
ATOM     13  C   UNL     1       4.893  -1.184   5.116  1.00  0.00     0.031 A 
ATOM     14  C   UNL     1       5.823  -2.357   5.240  1.00  0.00     0.074 A 
ATOM     15  C   UNL     1       4.697  -0.362   6.165  1.00  0.00     0.049 A 
ATOM     16  N   UNL     1       6.544  -2.736   6.265  1.00  0.00    -0.248 NA
ATOM     17  C   UNL     1       5.962  -3.217   4.055  1.00  0.00     0.031 C 
ATOM     18  C   UNL     1       3.819   0.810   6.166  1.00  0.00     0.029 A 
ATOM     19  N   UNL     1       5.232  -0.379   7.428  1.00  0.00    -0.354 N 
ATOM     20  C   UNL     1       7.241  -3.860   5.843  1.00  0.00     0.074 A 
ATOM     21  C   UNL     1       6.808  -4.140   4.490  1.00  0.00     0.031 C 
ATOM     22  C   UNL     1       3.898   1.416   7.362  1.00  0.00     0.029 A 
ATOM     23  C   UNL     1       4.798   0.654   8.222  1.00  0.00     0.049 A 
ATOM     24  H   UNL     1       5.867  -1.065   7.735  1.00  0.00     0.167 HD
ATOM     25  C   UNL     1       8.176  -4.579   6.512  1.00  0.00     0.037 A 
ATOM     26  C   UNL     1       5.088   0.946   9.504  1.00  0.00     0.037 A 
ATOM     27  C   UNL     1       8.580  -4.320   7.871  1.00  0.00     0.049 A 
ATOM     28  C   UNL     1       6.045   0.061  10.256  1.00  0.00     0.074 A 
ATOM     29  C   UNL     1       9.506  -5.000   8.643  1.00  0.00     0.029 A 
ATOM     30  N   UNL     1       8.072  -3.302   8.665  1.00  0.00    -0.354 N 
ATOM     31  N   UNL     1       6.731  -0.973   9.832  1.00  0.00    -0.248 NA
ATOM     32  C   UNL     1       6.271   0.391  11.670  1.00  0.00     0.031 C 
ATOM     33  C   UNL     1       9.521  -4.426   9.920  1.00  0.00     0.029 A 
ATOM     34  C   UNL     1       8.648  -3.351   9.926  1.00  0.00     0.049 A 
ATOM     35  H   UNL     1       7.401  -2.642   8.377  1.00  0.00     0.167 HD
ATOM     36  C   UNL     1       7.495  -1.392  10.914  1.00  0.00     0.074 A 
ATOM     37  C   UNL     1       7.206  -0.485  12.004  1.00  0.00     0.031 C 
ATOM     38  C   UNL     1       8.356  -2.436  11.000  1.00  0.00     0.037 A 
BRANCH  25  39
ATOM     39  C   UNL     1       8.821  -5.718   5.776  1.00  0.00     0.057 A 
ATOM     40  C   UNL     1       8.583  -7.047   6.148  1.00  0.00     0.134 A 
ATOM     41  C   UNL     1       9.700  -5.497   4.706  1.00  0.00     0.134 A 
ATOM     42  F   UNL     1       7.760  -7.333   7.168  1.00  0.00    -0.206 F 
ATOM     43  C   UNL     1       9.192  -8.113   5.482  1.00  0.00     0.040 A 
ATOM     44  C   UNL     1      10.292  -6.555   4.014  1.00  0.00     0.040 A 
ATOM     45  F   UNL     1       9.964  -4.248   4.291  1.00  0.00    -0.206 F 
ATOM     46  C   UNL     1      10.043  -7.868   4.406  1.00  0.00     0.006 A 
ENDBRANCH  25  39
BRANCH  26  47
ATOM     47  C   UNL     1       4.469   2.118  10.177  1.00  0.00     0.057 A 
ATOM     48  C   UNL     1       3.099   2.157  10.462  1.00  0.00     0.134 A 
ATOM     49  C   UNL     1       5.249   3.193  10.621  1.00  0.00     0.134 A 
ATOM     50  F   UNL     1       2.294   1.163  10.061  1.00  0.00    -0.206 F 
ATOM     51  C   UNL     1       2.530   3.214  11.174  1.00  0.00     0.040 A 
ATOM     52  C   UNL     1       4.699   4.240  11.362  1.00  0.00     0.040 A 
ATOM     53  F   UNL     1       6.572   3.206  10.396  1.00  0.00    -0.206 F 
ATOM     54  C   UNL     1       3.334   4.252  11.641  1.00  0.00     0.006 A 
ENDBRANCH  26  47
BRANCH  38  55
ATOM     55  C   UNL     1       9.078  -2.615  12.307  1.00  0.00     0.057 A 
ATOM     56  C   UNL     1      10.455  -2.376  12.397  1.00  0.00     0.134 A 
ATOM     57  C   UNL     1       8.415  -3.014  13.476  1.00  0.00     0.134 A 
ATOM     58  F   UNL     1      11.155  -2.001  11.316  1.00  0.00    -0.206 F 
ATOM     59  C   UNL     1      11.144  -2.519  13.602  1.00  0.00     0.040 A 
ATOM     60  C   UNL     1       9.087  -3.127  14.694  1.00  0.00     0.040 A 
ATOM     61  F   UNL     1       7.093  -3.244  13.463  1.00  0.00    -0.206 F 
ATOM     62  C   UNL     1      10.457  -2.883  14.758  1.00  0.00     0.006 A 
ENDBRANCH  38  55
ENDBRANCH  12  13
ENDBRANCH   5   7
ENDBRANCH   2   3
ENDBRANCH   1   2
BRANCH   1  63
ATOM     63  C   UNL     1       3.683  -0.445  -3.679  1.00  0.00     0.117 C 
BRANCH  63  64
ATOM     64  N   UNL     1       4.258   0.660  -4.430  1.00  0.00    -0.355 N 
ATOM     65  C   UNL     1       5.238   0.771  -5.366  1.00  0.00     0.238 C 
ATOM     66  H   UNL     1       3.842   1.525  -4.212  1.00  0.00     0.163 HD
ATOM     67  O   UNL     1       5.400   1.918  -5.808  1.00  0.00    -0.273 OA
BRANCH  65  68
ATOM     68  C   UNL     1       6.123  -0.347  -5.875  1.00  0.00     0.162 C 
ATOM     69  C   UNL     1       5.636  -1.781  -5.770  1.00  0.00     0.032 C 
ATOM     70  N   UNL     1       7.610  -0.446  -5.667  1.00  0.00    -0.185 NA
ATOM     71  C   UNL     1       6.676  -2.521  -6.582  1.00  0.00     0.019 C 
ATOM     72  C   UNL     1       7.981  -1.801  -6.253  1.00  0.00     0.103 C 
BRANCH  70  73
ATOM     73  S   UNL     1       8.374  -0.209  -4.147  1.00  0.00     0.244 S 
ATOM     74  O   UNL     1       7.567  -0.882  -3.153  1.00  0.00    -0.207 OA
ATOM     75  O   UNL     1       9.745  -0.634  -4.345  1.00  0.00    -0.207 OA
BRANCH  73  76
ATOM     76  C   UNL     1       8.403   1.525  -3.724  1.00  0.00     0.090 A 
ATOM     77  C   UNL     1       7.167   2.136  -3.416  1.00  0.00     0.024 A 
ATOM     78  C   UNL     1       9.615   2.262  -3.514  1.00  0.00     0.005 A 
ATOM     79  C   UNL     1       7.027   3.507  -3.145  1.00  0.00     0.028 A 
ATOM     80  C   UNL     1       9.428   3.586  -3.216  1.00  0.00     0.019 A 
ATOM     81  C   UNL     1      10.986   1.877  -3.489  1.00  0.00     0.010 A 
ATOM     82  C   UNL     1       8.207   4.207  -3.074  1.00  0.00     0.050 A 
ATOM     83  C   UNL     1      10.409   4.526  -2.934  1.00  0.00     0.050 A 
ATOM     84  C   UNL     1      12.013   2.794  -3.169  1.00  0.00     0.002 A 
ATOM     85  N   UNL     1       8.437   5.536  -2.779  1.00  0.00    -0.321 N 
ATOM     86  C   UNL     1      11.744   4.141  -2.893  1.00  0.00     0.014 A 
ATOM     87  C   UNL     1       9.804   5.819  -2.670  1.00  0.00     0.256 C 
ATOM     88  H   UNL     1       7.725   6.205  -2.659  1.00  0.00     0.170 HD
ATOM     89  O   UNL     1      10.267   6.913  -2.401  1.00  0.00    -0.269 OA
ENDBRANCH  73  76
ENDBRANCH  70  73
ENDBRANCH  65  68
ENDBRANCH  63  64
ENDBRANCH   1  63
TORSDOF 12
