REMARK SMILES CC[C@@H](Sc1nnc2ccc3ccccc3n12)C(=O)Nc1cccc(C(=O)NCCCNC(=O)c2ccc(-c3c4nc(c(-c5c(F)cccc5F)c5ccc([nH]5)c(-c5c(F)cccc5F)c5nc(c(-c6c(F)cccc6F)c6ccc3[nH]6)C=C5)C=C4)cc2)c1
REMARK SMILES IDX 29 1 28 2 26 3 27 4 25 6 21 7 22 8 89 9 23 10 24 11 20 12
REMARK SMILES IDX 18 13 19 14 3 16 2 17 1 18 4 19 5 20 6 21 17 22 7 23 8 24
REMARK SMILES IDX 16 25 9 26 11 27 15 28 10 29 12 30 14 31 13 32 30 33 31 34
REMARK SMILES IDX 32 35 33 36 34 38 35 39 36 40 88 41 37 42 87 43 38 44 39 45
REMARK SMILES IDX 40 46 81 47 41 48 86 49 80 50 82 51 42 52 85 53 79 54 78 55
REMARK SMILES IDX 43 57 69 58 52 59 68 60 53 61 56 62 67 63 83 64 54 65 55 66
REMARK SMILES IDX 66 68 84 69 57 70 44 71 45 72 50 73 46 74 47 75 49 76 51 77
REMARK SMILES IDX 48 78 70 79 71 80 76 81 72 82 73 83 75 84 77 85 74 86 58 87
REMARK SMILES IDX 59 88 64 89 60 90 61 91 63 92 65 93 62 94
REMARK H PARENT 28 5 20 15 32 37 82 56 56 67
REMARK Flexibility Score: inf
ROOT
ATOM      1  C   UNL     1      -3.918  -2.764   5.312  1.00  0.00     0.118 C 
ENDROOT
BRANCH   1   2
ATOM      2  N   UNL     1      -4.698  -1.641   4.846  1.00  0.00    -0.352 N 
ATOM      3  C   UNL     1      -4.785  -0.971   3.650  1.00  0.00     0.251 C 
ATOM      4  O   UNL     1      -5.610  -0.068   3.589  1.00  0.00    -0.269 OA
ATOM      5  H   UNL     1      -5.299  -1.276   5.536  1.00  0.00     0.163 HD
BRANCH   3   6
ATOM      6  C   UNL     1      -3.927  -1.249   2.457  1.00  0.00     0.041 A 
ATOM      7  C   UNL     1      -2.169  -2.403   1.263  1.00  0.00     0.041 A 
ATOM      8  C   UNL     1      -2.340  -1.560   0.181  1.00  0.00     0.026 A 
ATOM      9  C   UNL     1      -3.117  -2.371   2.281  1.00  0.00     0.040 A 
ATOM     10  C   UNL     1      -3.194  -0.466   0.279  1.00  0.00     0.003 A 
ATOM     11  C   UNL     1      -3.928  -0.274   1.446  1.00  0.00     0.014 A 
BRANCH   7  12
ATOM     12  N   UNL     1      -1.093  -3.292   1.401  1.00  0.00    -0.325 N 
ATOM     13  C   UNL     1       0.264  -3.062   1.425  1.00  0.00     0.237 C 
ATOM     14  O   UNL     1       0.957  -4.043   1.747  1.00  0.00    -0.273 OA
ATOM     15  H   UNL     1      -1.350  -4.237   1.496  1.00  0.00     0.169 HD
BRANCH  13  16
ATOM     16  C   UNL     1       0.979  -1.685   1.225  1.00  0.00     0.144 C 
BRANCH  16  17
ATOM     17  C   UNL     1       0.548  -0.946  -0.034  1.00  0.00     0.021 C 
ATOM     18  C   UNL     1       1.456   0.088  -0.666  1.00  0.00     0.005 C 
ENDBRANCH  16  17
BRANCH  16  19
ATOM     19  S   UNL     1       0.963  -0.840   2.857  1.00  0.00    -0.072 SA
BRANCH  19  20
ATOM     20  C   UNL     1       1.412   0.819   2.641  1.00  0.00     0.196 A 
ATOM     21  N   UNL     1       0.592   1.780   3.019  1.00  0.00    -0.122 NA
ATOM     22  N   UNL     1       2.567   1.381   2.114  1.00  0.00    -0.270 N 
ATOM     23  N   UNL     1       1.128   2.983   2.651  1.00  0.00    -0.129 NA
ATOM     24  C   UNL     1       2.274   2.744   2.056  1.00  0.00     0.161 A 
ATOM     25  C   UNL     1       3.761   0.844   1.557  1.00  0.00     0.057 A 
ATOM     26  C   UNL     1       3.144   3.628   1.374  1.00  0.00     0.050 A 
ATOM     27  C   UNL     1       4.522   1.720   0.752  1.00  0.00    -0.001 A 
ATOM     28  C   UNL     1       4.145  -0.489   1.688  1.00  0.00     0.027 A 
ATOM     29  C   UNL     1       4.209   3.153   0.715  1.00  0.00     0.014 A 
ATOM     30  C   UNL     1       5.566   1.212  -0.026  1.00  0.00     0.010 A 
ATOM     31  C   UNL     1       5.183  -0.987   0.896  1.00  0.00     0.002 A 
ATOM     32  C   UNL     1       5.871  -0.148   0.021  1.00  0.00     0.001 A 
ENDBRANCH  19  20
ENDBRANCH  16  19
ENDBRANCH  13  16
ENDBRANCH   7  12
ENDBRANCH   3   6
ENDBRANCH   1   2
BRANCH   1  33
ATOM     33  C   UNL     1      -3.350  -2.603   6.709  1.00  0.00     0.042 C 
BRANCH  33  34
ATOM     34  C   UNL     1      -4.360  -2.365   7.823  1.00  0.00     0.118 C 
BRANCH  34  35
ATOM     35  N   UNL     1      -5.460  -3.304   7.869  1.00  0.00    -0.352 N 
ATOM     36  C   UNL     1      -5.660  -4.512   8.476  1.00  0.00     0.251 C 
ATOM     37  H   UNL     1      -6.239  -3.006   7.346  1.00  0.00     0.163 HD
ATOM     38  O   UNL     1      -6.820  -4.929   8.487  1.00  0.00    -0.269 OA
BRANCH  36  39
ATOM     39  C   UNL     1      -4.585  -5.389   9.010  1.00  0.00     0.039 A 
ATOM     40  C   UNL     1      -3.220  -5.104   8.989  1.00  0.00     0.014 A 
ATOM     41  C   UNL     1      -4.999  -6.664   9.437  1.00  0.00     0.014 A 
ATOM     42  C   UNL     1      -2.291  -6.118   9.174  1.00  0.00     0.010 A 
ATOM     43  C   UNL     1      -4.077  -7.668   9.679  1.00  0.00     0.010 A 
ATOM     44  C   UNL     1      -2.730  -7.411   9.454  1.00  0.00    -0.014 A 
BRANCH  44  45
ATOM     45  C   UNL     1      -1.732  -8.464   9.572  1.00  0.00     0.031 A 
ATOM     46  C   UNL     1      -0.760  -8.272  10.682  1.00  0.00     0.074 A 
ATOM     47  C   UNL     1      -1.762  -9.568   8.799  1.00  0.00     0.049 A 
ATOM     48  N   UNL     1       0.522  -8.117  10.607  1.00  0.00    -0.248 NA
ATOM     49  C   UNL     1      -1.306  -8.091  12.036  1.00  0.00     0.031 C 
ATOM     50  C   UNL     1      -2.802  -9.985   7.854  1.00  0.00     0.029 A 
ATOM     51  N   UNL     1      -0.891 -10.613   8.768  1.00  0.00    -0.354 N 
ATOM     52  C   UNL     1       0.972  -8.007  11.923  1.00  0.00     0.074 A 
ATOM     53  C   UNL     1      -0.201  -7.832  12.736  1.00  0.00     0.031 C 
ATOM     54  C   UNL     1      -2.619 -11.285   7.531  1.00  0.00     0.029 A 
ATOM     55  C   UNL     1      -1.380 -11.746   8.133  1.00  0.00     0.049 A 
ATOM     56  H   UNL     1       0.010 -10.569   9.162  1.00  0.00     0.167 HD
ATOM     57  C   UNL     1       2.259  -8.305  12.258  1.00  0.00     0.037 A 
ATOM     58  C   UNL     1      -0.835 -12.987   8.164  1.00  0.00     0.037 A 
ATOM     59  C   UNL     1       3.114  -8.271  11.098  1.00  0.00     0.049 A 
ATOM     60  C   UNL     1       0.581 -12.847   8.582  1.00  0.00     0.074 A 
ATOM     61  C   UNL     1       3.501  -7.303  10.191  1.00  0.00     0.029 A 
ATOM     62  N   UNL     1       3.463  -9.471  10.528  1.00  0.00    -0.354 N 
ATOM     63  N   UNL     1       1.498 -12.290   7.840  1.00  0.00    -0.248 NA
ATOM     64  C   UNL     1       0.874 -12.886  10.008  1.00  0.00     0.031 C 
ATOM     65  C   UNL     1       3.606  -7.987   8.944  1.00  0.00     0.029 A 
ATOM     66  C   UNL     1       3.331  -9.335   9.174  1.00  0.00     0.049 A 
ATOM     67  H   UNL     1       3.754 -10.280  11.007  1.00  0.00     0.167 HD
ATOM     68  C   UNL     1       2.258 -11.534   8.722  1.00  0.00     0.074 A 
ATOM     69  C   UNL     1       1.878 -12.005  10.053  1.00  0.00     0.031 C 
ATOM     70  C   UNL     1       2.904 -10.405   8.306  1.00  0.00     0.037 A 
BRANCH  57  71
ATOM     71  C   UNL     1       2.662  -9.051  13.517  1.00  0.00     0.057 A 
ATOM     72  C   UNL     1       1.775  -9.771  14.342  1.00  0.00     0.134 A 
ATOM     73  C   UNL     1       4.025  -9.355  13.708  1.00  0.00     0.134 A 
ATOM     74  F   UNL     1       0.451  -9.600  14.312  1.00  0.00    -0.206 F 
ATOM     75  C   UNL     1       2.198 -10.793  15.197  1.00  0.00     0.040 A 
ATOM     76  C   UNL     1       4.454 -10.406  14.527  1.00  0.00     0.040 A 
ATOM     77  F   UNL     1       4.980  -8.710  13.021  1.00  0.00    -0.206 F 
ATOM     78  C   UNL     1       3.534 -11.149  15.254  1.00  0.00     0.006 A 
ENDBRANCH  57  71
BRANCH  58  79
ATOM     79  C   UNL     1      -1.548 -14.284   8.160  1.00  0.00     0.057 A 
ATOM     80  C   UNL     1      -2.822 -14.413   8.746  1.00  0.00     0.134 A 
ATOM     81  C   UNL     1      -0.912 -15.481   7.807  1.00  0.00     0.134 A 
ATOM     82  F   UNL     1      -3.480 -13.340   9.209  1.00  0.00    -0.206 F 
ATOM     83  C   UNL     1      -3.431 -15.653   8.958  1.00  0.00     0.040 A 
ATOM     84  C   UNL     1      -1.509 -16.732   8.019  1.00  0.00     0.040 A 
ATOM     85  F   UNL     1       0.327 -15.466   7.293  1.00  0.00    -0.206 F 
ATOM     86  C   UNL     1      -2.771 -16.821   8.601  1.00  0.00     0.006 A 
ENDBRANCH  58  79
BRANCH  70  87
ATOM     87  C   UNL     1       2.950 -10.133   6.830  1.00  0.00     0.057 A 
ATOM     88  C   UNL     1       4.193 -10.013   6.203  1.00  0.00     0.134 A 
ATOM     89  C   UNL     1       1.816  -9.838   6.058  1.00  0.00     0.134 A 
ATOM     90  F   UNL     1       5.323 -10.218   6.898  1.00  0.00    -0.206 F 
ATOM     91  C   UNL     1       4.307  -9.629   4.865  1.00  0.00     0.040 A 
ATOM     92  C   UNL     1       1.914  -9.484   4.710  1.00  0.00     0.040 A 
ATOM     93  F   UNL     1       0.593  -9.825   6.601  1.00  0.00    -0.206 F 
ATOM     94  C   UNL     1       3.164  -9.373   4.111  1.00  0.00     0.006 A 
ENDBRANCH  70  87
ENDBRANCH  44  45
ENDBRANCH  36  39
ENDBRANCH  34  35
ENDBRANCH  33  34
ENDBRANCH   1  33
TORSDOF 15
