REMARK SMILES COc1c[nH]c(C[N@H+]2CCC[C@@H](c3ccc(C(=O)NCCCNC(=O)c4ccc(-c5c6nc(c(-c7c(F)cccc7F)c7ccc([nH]7)c(-c7c(F)cccc7F)c7nc(c(-c8c(F)cccc8F)c8ccc5[nH]8)C=C7)C=C6)cc4)cc3)C2)cc1=O
REMARK SMILES IDX 20 1 19 2 17 3 18 4 16 6 13 7 14 8 81 9 15 10 80 11 12 12
REMARK SMILES IDX 8 13 9 14 82 15 10 17 11 18 7 19 6 20 3 21 4 22 84 23 5 24
REMARK SMILES IDX 83 25 85 26 2 28 1 29 21 30 22 31 23 32 24 33 25 35 26 36
REMARK SMILES IDX 27 37 79 38 28 39 78 40 29 41 30 42 31 43 72 44 32 45 77 46
REMARK SMILES IDX 71 47 73 48 33 49 76 50 70 51 69 52 34 54 60 55 43 56 59 57
REMARK SMILES IDX 44 58 47 59 58 60 74 61 45 62 46 63 57 65 75 66 48 67 35 68
REMARK SMILES IDX 36 69 41 70 37 71 38 72 40 73 42 74 39 75 61 76 62 77 67 78
REMARK SMILES IDX 63 79 64 80 66 81 68 82 65 83 49 84 50 85 55 86 51 87 52 88
REMARK SMILES IDX 54 89 56 90 53 91
REMARK H PARENT 19 5 8 16 5 27 23 34 73 53 47 64
REMARK Flexibility Score: inf
ROOT
ATOM      1  C   UNL     1      -6.347   1.353  10.391  1.00  0.00     0.118 C 
ENDROOT
BRANCH   1   2
ATOM      2  N   UNL     1      -6.548   2.366   9.371  1.00  0.00    -0.352 N 
ATOM      3  C   UNL     1      -5.667   2.984   8.519  1.00  0.00     0.251 C 
ATOM      4  O   UNL     1      -6.121   3.760   7.680  1.00  0.00    -0.269 OA
ATOM      5  H   UNL     1      -7.481   2.663   9.274  1.00  0.00     0.163 HD
BRANCH   3   6
ATOM      6  C   UNL     1      -4.208   2.699   8.532  1.00  0.00     0.039 A 
ATOM      7  C   UNL     1      -1.465   2.053   8.384  1.00  0.00    -0.039 A 
ATOM      8  C   UNL     1      -2.181   2.406   7.230  1.00  0.00     0.005 A 
ATOM      9  C   UNL     1      -2.119   2.114   9.619  1.00  0.00     0.005 A 
ATOM     10  C   UNL     1      -3.542   2.714   7.303  1.00  0.00     0.014 A 
ATOM     11  C   UNL     1      -3.471   2.456   9.692  1.00  0.00     0.014 A 
BRANCH   7  12
ATOM     12  C   UNL     1      -0.020   1.588   8.329  1.00  0.00     0.074 C 
ATOM     13  N   UNL     1       1.551  -0.022   7.217  1.00  0.00    -0.329 N 
ATOM     14  C   UNL     1       2.481   1.076   6.913  1.00  0.00     0.262 C 
ATOM     15  C   UNL     1       0.165   0.457   7.295  1.00  0.00     0.270 C 
ATOM     16  H   UNL     1       1.792  -0.378   8.142  1.00  0.00     0.348 HD
ATOM     17  C   UNL     1       2.372   2.211   7.935  1.00  0.00     0.062 C 
ATOM     18  C   UNL     1       0.944   2.742   8.034  1.00  0.00     0.020 C 
BRANCH  13  19
ATOM     19  C   UNL     1       1.710  -1.164   6.292  1.00  0.00     0.317 C 
BRANCH  19  20
ATOM     20  C   UNL     1       1.466  -0.876   4.814  1.00  0.00     0.074 A 
ATOM     21  C   UNL     1       0.791  -0.024   2.169  1.00  0.00     0.182 A 
ATOM     22  C   UNL     1      -0.126  -0.243   3.122  1.00  0.00     0.133 A 
ATOM     23  C   UNL     1       2.217  -0.353   2.539  1.00  0.00     0.223 A 
ATOM     24  N   UNL     1       0.166  -0.710   4.374  1.00  0.00    -0.357 N 
ATOM     25  C   UNL     1       2.490  -0.756   3.949  1.00  0.00     0.083 A 
ATOM     26  O   UNL     1       3.154  -0.276   1.750  1.00  0.00    -0.286 OA
ATOM     27  H   UNL     1      -0.575  -0.936   4.981  1.00  0.00     0.166 HD
BRANCH  21  28
ATOM     28  O   UNL     1       0.413   0.536   0.964  1.00  0.00    -0.491 OA
ATOM     29  C   UNL     1       1.035  -0.040  -0.177  1.00  0.00     0.278 C 
ENDBRANCH  21  28
ENDBRANCH  19  20
ENDBRANCH  13  19
ENDBRANCH   7  12
ENDBRANCH   3   6
ENDBRANCH   1   2
BRANCH   1  30
ATOM     30  C   UNL     1      -6.326   1.970  11.788  1.00  0.00     0.042 C 
BRANCH  30  31
ATOM     31  C   UNL     1      -7.699   2.416  12.274  1.00  0.00     0.118 C 
BRANCH  31  32
ATOM     32  N   UNL     1      -8.550   1.288  12.616  1.00  0.00    -0.352 N 
ATOM     33  C   UNL     1      -9.178   0.989  13.799  1.00  0.00     0.251 C 
ATOM     34  H   UNL     1      -8.697   0.640  11.890  1.00  0.00     0.163 HD
ATOM     35  O   UNL     1      -9.677  -0.121  13.956  1.00  0.00    -0.269 OA
BRANCH  33  36
ATOM     36  C   UNL     1      -9.249   1.987  14.891  1.00  0.00     0.039 A 
ATOM     37  C   UNL     1      -9.091   1.549  16.210  1.00  0.00     0.014 A 
ATOM     38  C   UNL     1      -9.519   3.333  14.630  1.00  0.00     0.014 A 
ATOM     39  C   UNL     1      -9.158   2.467  17.261  1.00  0.00     0.010 A 
ATOM     40  C   UNL     1      -9.515   4.258  15.672  1.00  0.00     0.010 A 
ATOM     41  C   UNL     1      -9.347   3.832  16.997  1.00  0.00    -0.014 A 
BRANCH  41  42
ATOM     42  C   UNL     1      -9.389   4.828  18.097  1.00  0.00     0.031 A 
ATOM     43  C   UNL     1     -10.656   5.584  18.385  1.00  0.00     0.074 A 
ATOM     44  C   UNL     1      -8.271   5.094  18.797  1.00  0.00     0.049 A 
ATOM     45  N   UNL     1     -10.874   6.530  19.263  1.00  0.00    -0.248 NA
ATOM     46  C   UNL     1     -11.825   5.251  17.557  1.00  0.00     0.031 C 
ATOM     47  C   UNL     1      -6.970   4.457  18.587  1.00  0.00     0.029 A 
ATOM     48  N   UNL     1      -8.048   5.978  19.822  1.00  0.00    -0.354 N 
ATOM     49  C   UNL     1     -12.195   6.920  19.078  1.00  0.00     0.074 A 
ATOM     50  C   UNL     1     -12.714   6.141  17.974  1.00  0.00     0.031 C 
ATOM     51  C   UNL     1      -6.093   4.948  19.476  1.00  0.00     0.029 A 
ATOM     52  C   UNL     1      -6.758   5.958  20.293  1.00  0.00     0.049 A 
ATOM     53  H   UNL     1      -8.746   6.569  20.186  1.00  0.00     0.167 HD
ATOM     54  C   UNL     1     -12.915   7.830  19.776  1.00  0.00     0.037 A 
ATOM     55  C   UNL     1      -6.179   6.675  21.274  1.00  0.00     0.037 A 
ATOM     56  C   UNL     1     -12.405   8.582  20.892  1.00  0.00     0.049 A 
ATOM     57  C   UNL     1      -6.996   7.681  22.032  1.00  0.00     0.074 A 
ATOM     58  C   UNL     1     -13.075   9.471  21.713  1.00  0.00     0.029 A 
ATOM     59  N   UNL     1     -11.092   8.534  21.340  1.00  0.00    -0.354 N 
ATOM     60  N   UNL     1      -8.261   7.992  21.892  1.00  0.00    -0.248 NA
ATOM     61  C   UNL     1      -6.303   8.435  23.086  1.00  0.00     0.031 C 
ATOM     62  C   UNL     1     -12.157   9.993  22.633  1.00  0.00     0.029 A 
ATOM     63  C   UNL     1     -10.926   9.397  22.410  1.00  0.00     0.049 A 
ATOM     64  H   UNL     1     -10.384   7.970  20.953  1.00  0.00     0.167 HD
ATOM     65  C   UNL     1      -8.525   8.957  22.855  1.00  0.00     0.074 A 
ATOM     66  C   UNL     1      -7.288   9.174  23.578  1.00  0.00     0.031 C 
ATOM     67  C   UNL     1      -9.688   9.602  23.118  1.00  0.00     0.037 A 
BRANCH  54  68
ATOM     68  C   UNL     1     -14.333   8.062  19.340  1.00  0.00     0.057 A 
ATOM     69  C   UNL     1     -15.333   7.097  19.525  1.00  0.00     0.134 A 
ATOM     70  C   UNL     1     -14.705   9.267  18.730  1.00  0.00     0.134 A 
ATOM     71  F   UNL     1     -15.042   5.917  20.091  1.00  0.00    -0.206 F 
ATOM     72  C   UNL     1     -16.641   7.307  19.085  1.00  0.00     0.040 A 
ATOM     73  C   UNL     1     -16.016   9.499  18.311  1.00  0.00     0.040 A 
ATOM     74  F   UNL     1     -13.800  10.236  18.529  1.00  0.00    -0.206 F 
ATOM     75  C   UNL     1     -16.986   8.513  18.479  1.00  0.00     0.006 A 
ENDBRANCH  54  68
BRANCH  55  76
ATOM     76  C   UNL     1      -4.758   6.430  21.621  1.00  0.00     0.057 A 
ATOM     77  C   UNL     1      -4.417   5.760  22.802  1.00  0.00     0.134 A 
ATOM     78  C   UNL     1      -3.714   6.832  20.780  1.00  0.00     0.134 A 
ATOM     79  F   UNL     1      -5.374   5.365  23.653  1.00  0.00    -0.206 F 
ATOM     80  C   UNL     1      -3.087   5.506  23.139  1.00  0.00     0.040 A 
ATOM     81  C   UNL     1      -2.381   6.567  21.095  1.00  0.00     0.040 A 
ATOM     82  F   UNL     1      -3.978   7.471  19.631  1.00  0.00    -0.206 F 
ATOM     83  C   UNL     1      -2.064   5.904  22.280  1.00  0.00     0.006 A 
ENDBRANCH  55  76
BRANCH  67  84
ATOM     84  C   UNL     1      -9.682  10.584  24.252  1.00  0.00     0.057 A 
ATOM     85  C   UNL     1      -9.063  11.835  24.142  1.00  0.00     0.134 A 
ATOM     86  C   UNL     1     -10.332  10.285  25.456  1.00  0.00     0.134 A 
ATOM     87  F   UNL     1      -8.411  12.175  23.020  1.00  0.00    -0.206 F 
ATOM     88  C   UNL     1      -9.074  12.748  25.198  1.00  0.00     0.040 A 
ATOM     89  C   UNL     1     -10.370  11.199  26.510  1.00  0.00     0.040 A 
ATOM     90  F   UNL     1     -10.949   9.106  25.623  1.00  0.00    -0.206 F 
ATOM     91  C   UNL     1      -9.736  12.433  26.384  1.00  0.00     0.006 A 
ENDBRANCH  67  84
ENDBRANCH  41  42
ENDBRANCH  33  36
ENDBRANCH  31  32
ENDBRANCH  30  31
ENDBRANCH   1  30
TORSDOF 14
