REMARK SMILES CC(C)(C)OC(=O)N1C[C@H](Oc2ccncc2)C[C@H]1C(=O)NCCCNC(=O)c1ccc(-c2c3nc(c(-c4c(F)cccc4F)c4ccc([nH]4)c(-c4c(F)cccc4F)c4nc(c(-c5c(F)cccc5F)c5ccc2[nH]5)C=C4)C=C3)cc1
REMARK SMILES IDX 23 1 22 2 20 3 21 4 19 6 8 7 9 8 10 9 18 10 6 11 7 12 5 13
REMARK SMILES IDX 2 14 1 15 3 16 4 17 11 18 12 19 13 20 17 21 14 22 16 23
REMARK SMILES IDX 15 24 24 25 25 26 26 27 27 28 28 30 29 31 30 32 82 33 31 34
REMARK SMILES IDX 81 35 32 36 33 37 34 38 75 39 35 40 80 41 74 42 76 43 36 44
REMARK SMILES IDX 79 45 73 46 72 47 37 49 63 50 46 51 62 52 47 53 50 54 61 55
REMARK SMILES IDX 77 56 48 57 49 58 60 60 78 61 51 62 38 63 39 64 44 65 40 66
REMARK SMILES IDX 41 67 43 68 45 69 42 70 64 71 65 72 70 73 66 74 67 75 69 76
REMARK SMILES IDX 71 77 68 78 52 79 53 80 58 81 54 82 55 83 57 84 59 85 56 86
REMARK H PARENT 22 5 26 29 76 48 50 59
REMARK Flexibility Score: inf
ROOT
ATOM      1  C   UNL     1      -0.130   5.952  -0.141  1.00  0.00     0.117 C 
ENDROOT
BRANCH   1   2
ATOM      2  N   UNL     1      -0.110   6.788   1.036  1.00  0.00    -0.354 N 
ATOM      3  C   UNL     1       0.118   6.514   2.345  1.00  0.00     0.243 C 
ATOM      4  O   UNL     1       0.027   7.493   3.100  1.00  0.00    -0.273 OA
ATOM      5  H   UNL     1      -0.297   7.737   0.854  1.00  0.00     0.163 HD
BRANCH   3   6
ATOM      6  C   UNL     1       0.296   5.085   2.939  1.00  0.00     0.181 C 
ATOM      7  N   UNL     1       0.973   4.061   2.144  1.00  0.00    -0.292 N 
ATOM      8  C   UNL     1       2.340   3.877   2.593  1.00  0.00     0.169 C 
ATOM      9  C   UNL     1       2.234   4.113   4.101  1.00  0.00     0.195 C 
ATOM     10  C   UNL     1       1.151   5.192   4.229  1.00  0.00     0.082 C 
BRANCH   7  11
ATOM     11  C   UNL     1       0.267   3.166   1.366  1.00  0.00     0.411 C 
ATOM     12  O   UNL     1      -0.949   3.216   1.258  1.00  0.00    -0.224 OA
BRANCH  11  13
ATOM     13  O   UNL     1       1.084   2.319   0.688  1.00  0.00    -0.444 OA
BRANCH  13  14
ATOM     14  C   UNL     1       0.636   1.435  -0.383  1.00  0.00     0.106 C 
ATOM     15  C   UNL     1       1.315   0.085  -0.117  1.00  0.00     0.056 C 
ATOM     16  C   UNL     1       1.171   2.011  -1.700  1.00  0.00     0.056 C 
ATOM     17  C   UNL     1      -0.876   1.211  -0.507  1.00  0.00     0.056 C 
ENDBRANCH  13  14
ENDBRANCH  11  13
ENDBRANCH   7  11
BRANCH   9  18
ATOM     18  O   UNL     1       2.023   2.939   4.912  1.00  0.00    -0.488 OA
BRANCH  18  19
ATOM     19  C   UNL     1       0.886   2.216   4.692  1.00  0.00     0.122 A 
ATOM     20  C   UNL     1       0.877   1.194   3.754  1.00  0.00     0.066 A 
ATOM     21  C   UNL     1      -0.229   2.424   5.492  1.00  0.00     0.066 A 
ATOM     22  C   UNL     1      -0.302   0.490   3.573  1.00  0.00     0.115 A 
ATOM     23  C   UNL     1      -1.354   1.654   5.250  1.00  0.00     0.115 A 
ATOM     24  N   UNL     1      -1.420   0.700   4.297  1.00  0.00    -0.264 NA
ENDBRANCH  18  19
ENDBRANCH   9  18
ENDBRANCH   3   6
ENDBRANCH   1   2
BRANCH   1  25
ATOM     25  C   UNL     1      -1.510   5.866  -0.770  1.00  0.00     0.042 C 
BRANCH  25  26
ATOM     26  C   UNL     1      -1.778   7.031  -1.710  1.00  0.00     0.118 C 
BRANCH  26  27
ATOM     27  N   UNL     1      -0.826   7.076  -2.821  1.00  0.00    -0.352 N 
ATOM     28  C   UNL     1      -0.985   6.832  -4.160  1.00  0.00     0.251 C 
ATOM     29  H   UNL     1       0.089   7.326  -2.559  1.00  0.00     0.163 HD
ATOM     30  O   UNL     1       0.006   6.688  -4.871  1.00  0.00    -0.269 OA
BRANCH  28  31
ATOM     31  C   UNL     1      -2.335   6.732  -4.746  1.00  0.00     0.039 A 
ATOM     32  C   UNL     1      -2.566   5.823  -5.781  1.00  0.00     0.014 A 
ATOM     33  C   UNL     1      -3.370   7.545  -4.286  1.00  0.00     0.014 A 
ATOM     34  C   UNL     1      -3.856   5.678  -6.295  1.00  0.00     0.010 A 
ATOM     35  C   UNL     1      -4.671   7.307  -4.702  1.00  0.00     0.010 A 
ATOM     36  C   UNL     1      -4.927   6.386  -5.726  1.00  0.00    -0.014 A 
BRANCH  36  37
ATOM     37  C   UNL     1      -6.321   6.207  -6.199  1.00  0.00     0.031 A 
ATOM     38  C   UNL     1      -7.089   7.387  -6.731  1.00  0.00     0.074 A 
ATOM     39  C   UNL     1      -6.918   5.006  -6.075  1.00  0.00     0.049 A 
ATOM     40  N   UNL     1      -8.341   7.460  -7.103  1.00  0.00    -0.248 NA
ATOM     41  C   UNL     1      -6.365   8.667  -6.820  1.00  0.00     0.031 C 
ATOM     42  C   UNL     1      -6.299   3.802  -5.516  1.00  0.00     0.029 A 
ATOM     43  N   UNL     1      -8.187   4.603  -6.405  1.00  0.00    -0.354 N 
ATOM     44  C   UNL     1      -8.556   8.789  -7.444  1.00  0.00     0.074 A 
ATOM     45  C   UNL     1      -7.331   9.503  -7.169  1.00  0.00     0.031 C 
ATOM     46  C   UNL     1      -7.177   2.788  -5.575  1.00  0.00     0.029 A 
ATOM     47  C   UNL     1      -8.433   3.279  -6.130  1.00  0.00     0.049 A 
ATOM     48  H   UNL     1      -8.858   5.205  -6.800  1.00  0.00     0.167 HD
ATOM     49  C   UNL     1      -9.665   9.360  -7.970  1.00  0.00     0.037 A 
ATOM     50  C   UNL     1      -9.550   2.547  -6.302  1.00  0.00     0.037 A 
ATOM     51  C   UNL     1     -10.870   8.637  -8.276  1.00  0.00     0.049 A 
ATOM     52  C   UNL     1     -10.767   3.203  -6.892  1.00  0.00     0.074 A 
ATOM     53  C   UNL     1     -12.027   9.104  -8.873  1.00  0.00     0.029 A 
ATOM     54  N   UNL     1     -11.071   7.291  -8.008  1.00  0.00    -0.354 N 
ATOM     55  N   UNL     1     -10.933   4.445  -7.279  1.00  0.00    -0.248 NA
ATOM     56  C   UNL     1     -11.952   2.353  -7.074  1.00  0.00     0.031 C 
ATOM     57  C   UNL     1     -12.947   8.052  -8.923  1.00  0.00     0.029 A 
ATOM     58  C   UNL     1     -12.342   6.916  -8.408  1.00  0.00     0.049 A 
ATOM     59  H   UNL     1     -10.408   6.692  -7.595  1.00  0.00     0.167 HD
ATOM     60  C   UNL     1     -12.227   4.518  -7.778  1.00  0.00     0.074 A 
ATOM     61  C   UNL     1     -12.796   3.191  -7.658  1.00  0.00     0.031 C 
ATOM     62  C   UNL     1     -12.886   5.587  -8.289  1.00  0.00     0.037 A 
BRANCH  49  63
ATOM     63  C   UNL     1      -9.618  10.833  -8.256  1.00  0.00     0.057 A 
ATOM     64  C   UNL     1      -8.807  11.366  -9.269  1.00  0.00     0.134 A 
ATOM     65  C   UNL     1     -10.409  11.730  -7.527  1.00  0.00     0.134 A 
ATOM     66  F   UNL     1      -8.013  10.565  -9.996  1.00  0.00    -0.206 F 
ATOM     67  C   UNL     1      -8.762  12.737  -9.525  1.00  0.00     0.040 A 
ATOM     68  C   UNL     1     -10.396  13.100  -7.795  1.00  0.00     0.040 A 
ATOM     69  F   UNL     1     -11.211  11.289  -6.546  1.00  0.00    -0.206 F 
ATOM     70  C   UNL     1      -9.565  13.608  -8.791  1.00  0.00     0.006 A 
ENDBRANCH  49  63
BRANCH  50  71
ATOM     71  C   UNL     1      -9.561   1.108  -5.937  1.00  0.00     0.057 A 
ATOM     72  C   UNL     1      -9.637   0.115  -6.921  1.00  0.00     0.134 A 
ATOM     73  C   UNL     1      -9.504   0.688  -4.603  1.00  0.00     0.134 A 
ATOM     74  F   UNL     1      -9.710   0.454  -8.217  1.00  0.00    -0.206 F 
ATOM     75  C   UNL     1      -9.681  -1.240  -6.593  1.00  0.00     0.040 A 
ATOM     76  C   UNL     1      -9.519  -0.665  -4.261  1.00  0.00     0.040 A 
ATOM     77  F   UNL     1      -9.420   1.589  -3.612  1.00  0.00    -0.206 F 
ATOM     78  C   UNL     1      -9.617  -1.634  -5.257  1.00  0.00     0.006 A 
ENDBRANCH  50  71
BRANCH  62  79
ATOM     79  C   UNL     1     -14.280   5.356  -8.794  1.00  0.00     0.057 A 
ATOM     80  C   UNL     1     -15.354   5.119  -7.928  1.00  0.00     0.134 A 
ATOM     81  C   UNL     1     -14.556   5.413 -10.167  1.00  0.00     0.134 A 
ATOM     82  F   UNL     1     -15.155   5.040  -6.603  1.00  0.00    -0.206 F 
ATOM     83  C   UNL     1     -16.649   4.921  -8.409  1.00  0.00     0.040 A 
ATOM     84  C   UNL     1     -15.851   5.248 -10.658  1.00  0.00     0.040 A 
ATOM     85  F   UNL     1     -13.575   5.648 -11.051  1.00  0.00    -0.206 F 
ATOM     86  C   UNL     1     -16.901   4.994  -9.778  1.00  0.00     0.006 A 
ENDBRANCH  62  79
ENDBRANCH  36  37
ENDBRANCH  28  31
ENDBRANCH  26  27
ENDBRANCH  25  26
ENDBRANCH   1  25
TORSDOF 15
