REMARK SMILES O=C(NCCCNC(=O)c1cccc(OS(=O)(=O)c2cccc([N+](=O)[O-])c2)c1)c1ccc(-c2c3nc(c(-c4c(F)cccc4F)c4ccc([nH]4)c(-c4c(F)cccc4F)c4nc(c(-c5c(F)cccc5F)c5ccc2[nH]5)C=C4)C=C3)cc1
REMARK SMILES IDX 6 1 5 2 4 3 3 4 1 5 2 6 29 8 30 9 82 10 31 11 81 12 32 13
REMARK SMILES IDX 33 14 34 15 75 16 35 17 80 18 74 19 76 20 36 21 79 22 73 23
REMARK SMILES IDX 72 24 37 26 63 27 46 28 62 29 47 30 50 31 61 32 77 33 48 34
REMARK SMILES IDX 49 35 60 37 78 38 51 39 38 40 39 41 44 42 40 43 41 44 43 45
REMARK SMILES IDX 45 46 42 47 64 48 65 49 70 50 66 51 67 52 69 53 71 54 68 55
REMARK SMILES IDX 52 56 53 57 58 58 54 59 55 60 57 61 59 62 56 63 7 64 8 65
REMARK SMILES IDX 9 67 10 68 11 69 28 70 12 71 14 72 13 73 15 74 16 75 17 76
REMARK SMILES IDX 18 77 19 78 20 79 27 80 21 81 23 82 22 83 24 84 25 85 26 86
REMARK H PARENT 3 7 76 25 50 36 7 66
REMARK Flexibility Score: inf
ROOT
ATOM      1  C   UNL     1       4.611  -2.378   2.832  1.00  0.00     0.118 C 
ENDROOT
BRANCH   1   2
ATOM      2  C   UNL     1       5.049  -1.153   2.045  1.00  0.00     0.042 C 
BRANCH   2   3
ATOM      3  C   UNL     1       4.651  -1.180   0.577  1.00  0.00     0.118 C 
BRANCH   3   4
ATOM      4  N   UNL     1       3.210  -1.124   0.380  1.00  0.00    -0.352 N 
ATOM      5  O   UNL     1       1.205  -0.219  -0.094  1.00  0.00    -0.269 OA
ATOM      6  C   UNL     1       2.427  -0.144  -0.179  1.00  0.00     0.251 C 
ATOM      7  H   UNL     1       2.718  -1.915   0.699  1.00  0.00     0.163 HD
BRANCH   6   8
ATOM      8  C   UNL     1       3.043   1.015  -0.862  1.00  0.00     0.039 A 
ATOM      9  C   UNL     1       4.130   0.858  -1.724  1.00  0.00     0.014 A 
ATOM     10  C   UNL     1       2.493   2.284  -0.657  1.00  0.00     0.014 A 
ATOM     11  C   UNL     1       4.760   1.977  -2.260  1.00  0.00     0.010 A 
ATOM     12  C   UNL     1       3.072   3.398  -1.266  1.00  0.00     0.010 A 
ATOM     13  C   UNL     1       4.231   3.257  -2.046  1.00  0.00    -0.014 A 
BRANCH  13  14
ATOM     14  C   UNL     1       4.866   4.442  -2.674  1.00  0.00     0.031 A 
ATOM     15  C   UNL     1       5.474   5.525  -1.829  1.00  0.00     0.074 A 
ATOM     16  C   UNL     1       4.872   4.548  -4.016  1.00  0.00     0.049 A 
ATOM     17  N   UNL     1       5.994   6.668  -2.199  1.00  0.00    -0.248 NA
ATOM     18  C   UNL     1       5.492   5.299  -0.376  1.00  0.00     0.031 C 
ATOM     19  C   UNL     1       4.314   3.561  -4.942  1.00  0.00     0.029 A 
ATOM     20  N   UNL     1       5.356   5.537  -4.833  1.00  0.00    -0.354 N 
ATOM     21  C   UNL     1       6.374   7.309  -1.028  1.00  0.00     0.074 A 
ATOM     22  C   UNL     1       6.007   6.437   0.068  1.00  0.00     0.031 C 
ATOM     23  C   UNL     1       4.498   3.987  -6.200  1.00  0.00     0.029 A 
ATOM     24  C   UNL     1       5.130   5.301  -6.167  1.00  0.00     0.049 A 
ATOM     25  H   UNL     1       5.821   6.337  -4.497  1.00  0.00     0.167 HD
ATOM     26  C   UNL     1       6.978   8.514  -0.882  1.00  0.00     0.037 A 
ATOM     27  C   UNL     1       5.372   6.070  -7.244  1.00  0.00     0.037 A 
ATOM     28  C   UNL     1       7.351   9.370  -1.979  1.00  0.00     0.049 A 
ATOM     29  C   UNL     1       6.011   7.414  -7.057  1.00  0.00     0.074 A 
ATOM     30  C   UNL     1       8.001  10.592  -1.937  1.00  0.00     0.029 A 
ATOM     31  N   UNL     1       7.102   9.096  -3.316  1.00  0.00    -0.354 N 
ATOM     32  N   UNL     1       6.389   7.998  -5.946  1.00  0.00    -0.248 NA
ATOM     33  C   UNL     1       6.254   8.207  -8.269  1.00  0.00     0.031 C 
ATOM     34  C   UNL     1       8.103  11.078  -3.245  1.00  0.00     0.029 A 
ATOM     35  C   UNL     1       7.564  10.136  -4.106  1.00  0.00     0.049 A 
ATOM     36  H   UNL     1       6.662   8.282  -3.653  1.00  0.00     0.167 HD
ATOM     37  C   UNL     1       6.939   9.215  -6.325  1.00  0.00     0.074 A 
ATOM     38  C   UNL     1       6.847   9.283  -7.769  1.00  0.00     0.031 C 
ATOM     39  C   UNL     1       7.474  10.185  -5.545  1.00  0.00     0.037 A 
BRANCH  26  40
ATOM     40  C   UNL     1       7.244   8.989   0.517  1.00  0.00     0.057 A 
ATOM     41  C   UNL     1       8.225   8.403   1.328  1.00  0.00     0.134 A 
ATOM     42  C   UNL     1       6.520  10.062   1.054  1.00  0.00     0.134 A 
ATOM     43  F   UNL     1       8.946   7.365   0.881  1.00  0.00    -0.206 F 
ATOM     44  C   UNL     1       8.455   8.848   2.632  1.00  0.00     0.040 A 
ATOM     45  C   UNL     1       6.759  10.532   2.346  1.00  0.00     0.040 A 
ATOM     46  F   UNL     1       5.571  10.674   0.329  1.00  0.00    -0.206 F 
ATOM     47  C   UNL     1       7.724   9.919   3.143  1.00  0.00     0.006 A 
ENDBRANCH  26  40
BRANCH  27  48
ATOM     48  C   UNL     1       4.993   5.574  -8.589  1.00  0.00     0.057 A 
ATOM     49  C   UNL     1       5.964   5.160  -9.506  1.00  0.00     0.134 A 
ATOM     50  C   UNL     1       3.650   5.458  -8.969  1.00  0.00     0.134 A 
ATOM     51  F   UNL     1       7.266   5.261  -9.202  1.00  0.00    -0.206 F 
ATOM     52  C   UNL     1       5.613   4.648 -10.756  1.00  0.00     0.040 A 
ATOM     53  C   UNL     1       3.285   4.926 -10.205  1.00  0.00     0.040 A 
ATOM     54  F   UNL     1       2.674   5.829  -8.127  1.00  0.00    -0.206 F 
ATOM     55  C   UNL     1       4.269   4.522 -11.105  1.00  0.00     0.006 A 
ENDBRANCH  27  48
BRANCH  39  56
ATOM     56  C   UNL     1       8.045  11.386  -6.237  1.00  0.00     0.057 A 
ATOM     57  C   UNL     1       7.229  12.377  -6.795  1.00  0.00     0.134 A 
ATOM     58  C   UNL     1       9.432  11.578  -6.295  1.00  0.00     0.134 A 
ATOM     59  F   UNL     1       5.894  12.245  -6.784  1.00  0.00    -0.206 F 
ATOM     60  C   UNL     1       7.774  13.513  -7.398  1.00  0.00     0.040 A 
ATOM     61  C   UNL     1       9.987  12.719  -6.874  1.00  0.00     0.040 A 
ATOM     62  F   UNL     1      10.268  10.667  -5.772  1.00  0.00    -0.206 F 
ATOM     63  C   UNL     1       9.156  13.690  -7.430  1.00  0.00     0.006 A 
ENDBRANCH  39  56
ENDBRANCH  13  14
ENDBRANCH   6   8
ENDBRANCH   3   4
ENDBRANCH   2   3
ENDBRANCH   1   2
BRANCH   1  64
ATOM     64  N   UNL     1       5.228  -3.607   2.341  1.00  0.00    -0.352 N 
ATOM     65  C   UNL     1       6.044  -4.500   2.993  1.00  0.00     0.251 C 
ATOM     66  H   UNL     1       5.030  -3.828   1.403  1.00  0.00     0.163 HD
ATOM     67  O   UNL     1       6.628  -5.377   2.366  1.00  0.00    -0.269 OA
BRANCH  65  68
ATOM     68  C   UNL     1       6.220  -4.396   4.456  1.00  0.00     0.043 A 
ATOM     69  C   UNL     1       7.499  -4.467   5.007  1.00  0.00     0.014 A 
ATOM     70  C   UNL     1       5.104  -4.230   5.279  1.00  0.00     0.062 A 
ATOM     71  C   UNL     1       7.661  -4.296   6.383  1.00  0.00     0.005 A 
ATOM     72  C   UNL     1       5.269  -3.982   6.638  1.00  0.00     0.143 A 
ATOM     73  C   UNL     1       6.549  -4.035   7.193  1.00  0.00     0.048 A 
BRANCH  72  74
ATOM     74  O   UNL     1       4.231  -3.672   7.485  1.00  0.00    -0.379 OA
BRANCH  74  75
ATOM     75  S   UNL     1       2.862  -2.990   6.901  1.00  0.00     0.339 S 
ATOM     76  O   UNL     1       3.200  -1.756   6.224  1.00  0.00    -0.181 OA
ATOM     77  O   UNL     1       2.075  -4.011   6.226  1.00  0.00    -0.181 OA
BRANCH  75  78
ATOM     78  C   UNL     1       1.944  -2.563   8.362  1.00  0.00     0.112 A 
ATOM     79  C   UNL     1       1.770  -1.220   8.714  1.00  0.00     0.024 A 
ATOM     80  C   UNL     1       1.332  -3.586   9.093  1.00  0.00     0.109 A 
ATOM     81  C   UNL     1       0.983  -0.894   9.820  1.00  0.00     0.009 A 
ATOM     82  C   UNL     1       0.544  -3.246  10.197  1.00  0.00     0.270 A 
ATOM     83  C   UNL     1       0.368  -1.903  10.565  1.00  0.00     0.086 A 
BRANCH  82  84
ATOM     84  N   UNL     1      -0.115  -4.306  10.972  1.00  0.00     0.062 N 
ATOM     85  O   UNL     1      -0.812  -3.965  11.937  1.00  0.00    -0.258 OA
ATOM     86  O   UNL     1       0.074  -5.477  10.616  1.00  0.00    -0.258 OA
ENDBRANCH  82  84
ENDBRANCH  75  78
ENDBRANCH  74  75
ENDBRANCH  72  74
ENDBRANCH  65  68
ENDBRANCH   1  64
TORSDOF 14
