REMARK SMILES O=C(NCCCNC(=O)C1(O)CCC(F)(F)CC1)c1ccc(-c2c3nc(c(-c4c(F)cccc4F)c4ccc([nH]4)c(-c4c(F)cccc4F)c4nc(c(-c5c(F)cccc5F)c5ccc2[nH]5)C=C4)C=C3)cc1
REMARK SMILES IDX 4 1 3 2 1 3 2 4 19 6 20 7 72 8 21 9 71 10 22 11 23 12 24 13
REMARK SMILES IDX 65 14 25 15 70 16 64 17 66 18 26 19 69 20 63 21 62 22 27 24
REMARK SMILES IDX 53 25 36 26 52 27 37 28 40 29 51 30 67 31 38 32 39 33 50 35
REMARK SMILES IDX 68 36 41 37 28 38 29 39 34 40 30 41 31 42 33 43 35 44 32 45
REMARK SMILES IDX 54 46 55 47 60 48 56 49 57 50 59 51 61 52 58 53 42 54 43 55
REMARK SMILES IDX 48 56 44 57 45 58 47 59 49 60 46 61 5 62 6 63 7 64 8 65 9 67
REMARK SMILES IDX 10 68 12 69 18 70 13 71 17 72 14 73 15 74 16 75 11 76
REMARK H PARENT 3 5 66 23 40 34 7 66 11 77
REMARK Flexibility Score: inf
ROOT
ATOM      1  C   UNL     1       4.036  -0.205  -1.472  1.00  0.00     0.118 C 
ENDROOT
BRANCH   1   2
ATOM      2  N   UNL     1       2.669   0.143  -1.121  1.00  0.00    -0.352 N 
ATOM      3  O   UNL     1       0.852   0.268   0.195  1.00  0.00    -0.269 OA
ATOM      4  C   UNL     1       2.076   0.234   0.116  1.00  0.00     0.251 C 
ATOM      5  H   UNL     1       2.079   0.343  -1.883  1.00  0.00     0.163 HD
BRANCH   4   6
ATOM      6  C   UNL     1       2.895   0.293   1.350  1.00  0.00     0.039 A 
ATOM      7  C   UNL     1       4.069   1.048   1.400  1.00  0.00     0.014 A 
ATOM      8  C   UNL     1       2.437  -0.351   2.505  1.00  0.00     0.014 A 
ATOM      9  C   UNL     1       4.842   1.061   2.557  1.00  0.00     0.010 A 
ATOM     10  C   UNL     1       3.167  -0.261   3.695  1.00  0.00     0.010 A 
ATOM     11  C   UNL     1       4.384   0.436   3.728  1.00  0.00    -0.014 A 
BRANCH  11  12
ATOM     12  C   UNL     1       5.146   0.615   4.991  1.00  0.00     0.031 A 
ATOM     13  C   UNL     1       5.782  -0.548   5.697  1.00  0.00     0.074 A 
ATOM     14  C   UNL     1       5.272   1.860   5.495  1.00  0.00     0.049 A 
ATOM     15  N   UNL     1       6.488  -0.555   6.800  1.00  0.00    -0.248 NA
ATOM     16  C   UNL     1       5.598  -1.877   5.095  1.00  0.00     0.031 C 
ATOM     17  C   UNL     1       4.679   3.067   4.912  1.00  0.00     0.029 A 
ATOM     18  N   UNL     1       5.948   2.322   6.594  1.00  0.00    -0.354 N 
ATOM     19  C   UNL     1       6.817  -1.883   7.035  1.00  0.00     0.074 A 
ATOM     20  C   UNL     1       6.212  -2.659   5.973  1.00  0.00     0.031 C 
ATOM     21  C   UNL     1       5.054   4.134   5.631  1.00  0.00     0.029 A 
ATOM     22  C   UNL     1       5.860   3.683   6.760  1.00  0.00     0.049 A 
ATOM     23  H   UNL     1       6.449   1.736   7.206  1.00  0.00     0.167 HD
ATOM     24  C   UNL     1       7.561  -2.404   8.041  1.00  0.00     0.037 A 
ATOM     25  C   UNL     1       6.355   4.483   7.721  1.00  0.00     0.037 A 
ATOM     26  C   UNL     1       8.172  -1.625   9.089  1.00  0.00     0.049 A 
ATOM     27  C   UNL     1       7.163   3.876   8.830  1.00  0.00     0.074 A 
ATOM     28  C   UNL     1       8.977  -2.059  10.129  1.00  0.00     0.029 A 
ATOM     29  N   UNL     1       8.043  -0.251   9.233  1.00  0.00    -0.354 N 
ATOM     30  N   UNL     1       7.496   2.623   9.017  1.00  0.00    -0.248 NA
ATOM     31  C   UNL     1       7.660   4.793   9.864  1.00  0.00     0.031 C 
ATOM     32  C   UNL     1       9.296  -0.956  10.928  1.00  0.00     0.029 A 
ATOM     33  C   UNL     1       8.733   0.174  10.358  1.00  0.00     0.049 A 
ATOM     34  H   UNL     1       7.536   0.335   8.626  1.00  0.00     0.167 HD
ATOM     35  C   UNL     1       8.255   2.601  10.178  1.00  0.00     0.074 A 
ATOM     36  C   UNL     1       8.350   3.971  10.641  1.00  0.00     0.031 C 
ATOM     37  C   UNL     1       8.818   1.541  10.807  1.00  0.00     0.037 A 
BRANCH  24  38
ATOM     38  C   UNL     1       7.747  -3.894   8.071  1.00  0.00     0.057 A 
ATOM     39  C   UNL     1       8.569  -4.558   7.151  1.00  0.00     0.134 A 
ATOM     40  C   UNL     1       7.139  -4.669   9.067  1.00  0.00     0.134 A 
ATOM     41  F   UNL     1       9.175  -3.877   6.167  1.00  0.00    -0.206 F 
ATOM     42  C   UNL     1       8.764  -5.940   7.209  1.00  0.00     0.040 A 
ATOM     43  C   UNL     1       7.344  -6.048   9.150  1.00  0.00     0.040 A 
ATOM     44  F   UNL     1       6.346  -4.097   9.986  1.00  0.00    -0.206 F 
ATOM     45  C   UNL     1       8.156  -6.688   8.216  1.00  0.00     0.006 A 
ENDBRANCH  24  38
BRANCH  25  46
ATOM     46  C   UNL     1       6.090   5.943   7.676  1.00  0.00     0.057 A 
ATOM     47  C   UNL     1       7.114   6.858   7.410  1.00  0.00     0.134 A 
ATOM     48  C   UNL     1       4.803   6.455   7.883  1.00  0.00     0.134 A 
ATOM     49  F   UNL     1       8.370   6.430   7.219  1.00  0.00    -0.206 F 
ATOM     50  C   UNL     1       6.871   8.232   7.365  1.00  0.00     0.040 A 
ATOM     51  C   UNL     1       4.540   7.823   7.812  1.00  0.00     0.040 A 
ATOM     52  F   UNL     1       3.777   5.628   8.132  1.00  0.00    -0.206 F 
ATOM     53  C   UNL     1       5.579   8.717   7.559  1.00  0.00     0.006 A 
ENDBRANCH  25  46
BRANCH  37  54
ATOM     54  C   UNL     1       9.608   1.829  12.049  1.00  0.00     0.057 A 
ATOM     55  C   UNL     1       8.989   2.193  13.251  1.00  0.00     0.134 A 
ATOM     56  C   UNL     1      11.005   1.720  12.046  1.00  0.00     0.134 A 
ATOM     57  F   UNL     1       7.656   2.330  13.316  1.00  0.00    -0.206 F 
ATOM     58  C   UNL     1       9.733   2.464  14.401  1.00  0.00     0.040 A 
ATOM     59  C   UNL     1      11.757   1.962  13.196  1.00  0.00     0.040 A 
ATOM     60  F   UNL     1      11.659   1.369  10.929  1.00  0.00    -0.206 F 
ATOM     61  C   UNL     1      11.121   2.343  14.376  1.00  0.00     0.006 A 
ENDBRANCH  37  54
ENDBRANCH  11  12
ENDBRANCH   4   6
ENDBRANCH   1   2
BRANCH   1  62
ATOM     62  C   UNL     1       4.131  -1.615  -2.037  1.00  0.00     0.042 C 
BRANCH  62  63
ATOM     63  C   UNL     1       3.697  -1.725  -3.493  1.00  0.00     0.117 C 
BRANCH  63  64
ATOM     64  N   UNL     1       4.550  -0.995  -4.410  1.00  0.00    -0.354 N 
ATOM     65  C   UNL     1       5.406  -1.396  -5.376  1.00  0.00     0.251 C 
ATOM     66  H   UNL     1       4.495  -0.017  -4.309  1.00  0.00     0.163 HD
ATOM     67  O   UNL     1       5.555  -0.588  -6.308  1.00  0.00    -0.272 OA
BRANCH  65  68
ATOM     68  C   UNL     1       6.271  -2.696  -5.392  1.00  0.00     0.143 C 
ATOM     69  C   UNL     1       7.651  -2.400  -4.779  1.00  0.00     0.051 C 
ATOM     70  C   UNL     1       5.699  -4.027  -4.906  1.00  0.00     0.051 C 
ATOM     71  C   UNL     1       7.673  -2.544  -3.267  1.00  0.00     0.080 C 
ATOM     72  C   UNL     1       5.887  -4.362  -3.428  1.00  0.00     0.080 C 
ATOM     73  C   UNL     1       7.221  -3.930  -2.846  1.00  0.00     0.248 C 
ATOM     74  F   UNL     1       7.142  -3.978  -1.491  1.00  0.00    -0.207 F 
ATOM     75  F   UNL     1       8.171  -4.830  -3.208  1.00  0.00    -0.207 F 
BRANCH  68  76
ATOM     76  O   UNL     1       6.520  -2.930  -6.808  1.00  0.00    -0.380 OA
ATOM     77  H   UNL     1       6.890  -2.128  -7.209  1.00  0.00     0.212 HD
ENDBRANCH  68  76
ENDBRANCH  65  68
ENDBRANCH  63  64
ENDBRANCH  62  63
ENDBRANCH   1  62
TORSDOF 11
