REMARK SMILES Cc1ccc(N2CC[C@H]([NH+]3CCOCC3)[C@H](CCC(=O)NCCCNC(=O)c3ccc(-c4c5nc(c(-c6c(F)cccc6F)c6ccc([nH]6)c(-c6c(F)cccc6F)c6nc(c(-c7c(F)cccc7F)c7ccc4[nH]7)C=C6)C=C5)cc3)C2)nc1
REMARK SMILES IDX 22 1 21 2 19 3 20 4 18 6 17 7 16 8 6 9 7 10 82 11 8 12 9 13
REMARK SMILES IDX 5 14 1 15 2 16 3 17 84 18 4 19 83 20 10 21 11 22 15 23 12 25
REMARK SMILES IDX 14 26 13 27 23 28 24 29 25 30 26 31 27 33 28 34 29 35 81 36
REMARK SMILES IDX 30 37 80 38 31 39 32 40 33 41 74 42 34 43 79 44 73 45 75 46
REMARK SMILES IDX 35 47 78 48 72 49 71 50 36 52 62 53 45 54 61 55 46 56 49 57
REMARK SMILES IDX 60 58 76 59 47 60 48 61 59 63 77 64 50 65 37 66 38 67 43 68
REMARK SMILES IDX 39 69 40 70 42 71 44 72 41 73 63 74 64 75 69 76 65 77 66 78
REMARK SMILES IDX 68 79 70 80 67 81 51 82 52 83 57 84 53 85 54 86 56 87 58 88
REMARK SMILES IDX 55 89
REMARK H PARENT 21 5 10 24 25 32 75 51 49 62
REMARK Flexibility Score: inf
ROOT
ATOM      1  C   UNL     1      -7.233  -0.218  -3.638  1.00  0.00     0.117 C 
ENDROOT
BRANCH   1   2
ATOM      2  N   UNL     1      -6.344  -0.267  -4.789  1.00  0.00    -0.356 N 
ATOM      3  C   UNL     1      -5.083  -0.780  -4.900  1.00  0.00     0.220 C 
ATOM      4  O   UNL     1      -4.431  -0.497  -5.906  1.00  0.00    -0.275 OA
ATOM      5  H   UNL     1      -6.707   0.131  -5.613  1.00  0.00     0.163 HD
BRANCH   3   6
ATOM      6  C   UNL     1      -4.557  -1.767  -3.868  1.00  0.00     0.100 C 
BRANCH   6   7
ATOM      7  C   UNL     1      -3.735  -1.247  -2.665  1.00  0.00     0.021 C 
BRANCH   7   8
ATOM      8  C   UNL     1      -4.543  -0.598  -1.523  1.00  0.00     0.067 C 
ATOM      9  N   UNL     1      -3.016   0.241   0.262  1.00  0.00    -0.356 N 
ATOM     10  C   UNL     1      -3.659  -0.526   1.304  1.00  0.00     0.124 C 
ATOM     11  C   UNL     1      -3.800   0.616  -0.898  1.00  0.00     0.127 C 
ATOM     12  C   UNL     1      -4.273  -1.797   0.737  1.00  0.00     0.087 C 
ATOM     13  C   UNL     1      -5.240  -1.457  -0.402  1.00  0.00     0.190 C 
BRANCH   9  14
ATOM     14  C   UNL     1      -1.645   0.138   0.147  1.00  0.00     0.128 A 
ATOM     15  C   UNL     1       2.593  -0.209  -0.029  1.00  0.00     0.046 C 
ATOM     16  C   UNL     1       1.111  -0.043   0.035  1.00  0.00    -0.033 A 
ATOM     17  C   UNL     1       0.503   1.201  -0.094  1.00  0.00     0.009 A 
ATOM     18  C   UNL     1       0.279  -1.140   0.214  1.00  0.00     0.117 A 
ATOM     19  C   UNL     1      -0.886   1.289  -0.049  1.00  0.00     0.047 A 
ATOM     20  N   UNL     1      -1.069  -1.071   0.291  1.00  0.00    -0.239 NA
ENDBRANCH   9  14
BRANCH  13  21
ATOM     21  N   UNL     1      -6.186  -2.524  -0.805  1.00  0.00    -0.328 N 
ATOM     22  C   UNL     1      -7.134  -2.926   0.270  1.00  0.00     0.291 C 
ATOM     23  C   UNL     1      -5.684  -3.744  -1.451  1.00  0.00     0.291 C 
ATOM     24  H   UNL     1      -6.649  -2.011  -1.554  1.00  0.00     0.348 HD
ATOM     25  C   UNL     1      -6.716  -4.136   1.137  1.00  0.00     0.221 C 
ATOM     26  C   UNL     1      -5.255  -4.885  -0.531  1.00  0.00     0.221 C 
ATOM     27  O   UNL     1      -6.317  -5.256   0.346  1.00  0.00    -0.370 OA
ENDBRANCH  13  21
ENDBRANCH   7   8
ENDBRANCH   6   7
ENDBRANCH   3   6
ENDBRANCH   1   2
BRANCH   1  28
ATOM     28  C   UNL     1      -7.059   1.118  -2.913  1.00  0.00     0.042 C 
BRANCH  28  29
ATOM     29  C   UNL     1      -7.886   2.235  -3.500  1.00  0.00     0.118 C 
BRANCH  29  30
ATOM     30  N   UNL     1      -9.246   2.224  -2.995  1.00  0.00    -0.352 N 
ATOM     31  C   UNL     1      -9.942   3.222  -2.352  1.00  0.00     0.251 C 
ATOM     32  H   UNL     1      -9.741   1.384  -3.131  1.00  0.00     0.163 HD
ATOM     33  O   UNL     1     -11.014   2.965  -1.820  1.00  0.00    -0.269 OA
BRANCH  31  34
ATOM     34  C   UNL     1      -9.382   4.594  -2.271  1.00  0.00     0.039 A 
ATOM     35  C   UNL     1      -9.592   5.339  -1.108  1.00  0.00     0.014 A 
ATOM     36  C   UNL     1      -8.657   5.152  -3.327  1.00  0.00     0.014 A 
ATOM     37  C   UNL     1      -9.033   6.614  -0.988  1.00  0.00     0.010 A 
ATOM     38  C   UNL     1      -7.998   6.364  -3.157  1.00  0.00     0.010 A 
ATOM     39  C   UNL     1      -8.200   7.123  -1.998  1.00  0.00    -0.014 A 
BRANCH  39  40
ATOM     40  C   UNL     1      -7.572   8.465  -1.885  1.00  0.00     0.031 A 
ATOM     41  C   UNL     1      -7.885   9.527  -2.907  1.00  0.00     0.074 A 
ATOM     42  C   UNL     1      -6.686   8.713  -0.900  1.00  0.00     0.049 A 
ATOM     43  N   UNL     1      -7.392  10.733  -3.026  1.00  0.00    -0.248 NA
ATOM     44  C   UNL     1      -8.859   9.176  -3.956  1.00  0.00     0.031 C 
ATOM     45  C   UNL     1      -6.261   7.753   0.121  1.00  0.00     0.029 A 
ATOM     46  N   UNL     1      -5.978   9.850  -0.600  1.00  0.00    -0.354 N 
ATOM     47  C   UNL     1      -7.981  11.272  -4.164  1.00  0.00     0.074 A 
ATOM     48  C   UNL     1      -8.814  10.241  -4.740  1.00  0.00     0.031 C 
ATOM     49  C   UNL     1      -5.394   8.352   0.954  1.00  0.00     0.029 A 
ATOM     50  C   UNL     1      -5.167   9.720   0.502  1.00  0.00     0.049 A 
ATOM     51  H   UNL     1      -6.045  10.680  -1.124  1.00  0.00     0.167 HD
ATOM     52  C   UNL     1      -7.868  12.524  -4.666  1.00  0.00     0.037 A 
ATOM     53  C   UNL     1      -4.329  10.604   1.077  1.00  0.00     0.037 A 
ATOM     54  C   UNL     1      -7.065  13.558  -4.071  1.00  0.00     0.049 A 
ATOM     55  C   UNL     1      -4.211  11.985   0.490  1.00  0.00     0.074 A 
ATOM     56  C   UNL     1      -6.923  14.875  -4.470  1.00  0.00     0.029 A 
ATOM     57  N   UNL     1      -6.269  13.390  -2.948  1.00  0.00    -0.354 N 
ATOM     58  N   UNL     1      -4.827  12.500  -0.547  1.00  0.00    -0.248 NA
ATOM     59  C   UNL     1      -3.286  12.911   1.158  1.00  0.00     0.031 C 
ATOM     60  C   UNL     1      -6.003  15.492  -3.616  1.00  0.00     0.029 A 
ATOM     61  C   UNL     1      -5.616  14.575  -2.653  1.00  0.00     0.049 A 
ATOM     62  H   UNL     1      -6.181  12.553  -2.437  1.00  0.00     0.167 HD
ATOM     63  C   UNL     1      -4.389  13.815  -0.635  1.00  0.00     0.074 A 
ATOM     64  C   UNL     1      -3.470  14.024   0.463  1.00  0.00     0.031 C 
ATOM     65  C   UNL     1      -4.715  14.766  -1.545  1.00  0.00     0.037 A 
BRANCH  52  66
ATOM     66  C   UNL     1      -8.643  12.848  -5.911  1.00  0.00     0.057 A 
ATOM     67  C   UNL     1     -10.041  12.943  -5.908  1.00  0.00     0.134 A 
ATOM     68  C   UNL     1      -7.983  13.109  -7.119  1.00  0.00     0.134 A 
ATOM     69  F   UNL     1     -10.737  12.692  -4.788  1.00  0.00    -0.206 F 
ATOM     70  C   UNL     1     -10.756  13.261  -7.064  1.00  0.00     0.040 A 
ATOM     71  C   UNL     1      -8.684  13.457  -8.274  1.00  0.00     0.040 A 
ATOM     72  F   UNL     1      -6.645  13.041  -7.193  1.00  0.00    -0.206 F 
ATOM     73  C   UNL     1     -10.075  13.528  -8.250  1.00  0.00     0.006 A 
ENDBRANCH  52  66
BRANCH  53  74
ATOM     74  C   UNL     1      -3.547  10.225   2.282  1.00  0.00     0.057 A 
ATOM     75  C   UNL     1      -3.798  10.821   3.524  1.00  0.00     0.134 A 
ATOM     76  C   UNL     1      -2.512   9.284   2.219  1.00  0.00     0.134 A 
ATOM     77  F   UNL     1      -4.764  11.743   3.648  1.00  0.00    -0.206 F 
ATOM     78  C   UNL     1      -3.030  10.520   4.651  1.00  0.00     0.040 A 
ATOM     79  C   UNL     1      -1.755   8.951   3.344  1.00  0.00     0.040 A 
ATOM     80  F   UNL     1      -2.225   8.669   1.062  1.00  0.00    -0.206 F 
ATOM     81  C   UNL     1      -2.006   9.579   4.562  1.00  0.00     0.006 A 
ENDBRANCH  53  74
BRANCH  65  82
ATOM     82  C   UNL     1      -4.109  16.127  -1.365  1.00  0.00     0.057 A 
ATOM     83  C   UNL     1      -2.751  16.371  -1.604  1.00  0.00     0.134 A 
ATOM     84  C   UNL     1      -4.906  17.216  -0.989  1.00  0.00     0.134 A 
ATOM     85  F   UNL     1      -1.931  15.369  -1.956  1.00  0.00    -0.206 F 
ATOM     86  C   UNL     1      -2.202  17.645  -1.448  1.00  0.00     0.040 A 
ATOM     87  C   UNL     1      -4.375  18.499  -0.860  1.00  0.00     0.040 A 
ATOM     88  F   UNL     1      -6.217  17.052  -0.756  1.00  0.00    -0.206 F 
ATOM     89  C   UNL     1      -3.017  18.715  -1.083  1.00  0.00     0.006 A 
ENDBRANCH  65  82
ENDBRANCH  39  40
ENDBRANCH  31  34
ENDBRANCH  29  30
ENDBRANCH  28  29
ENDBRANCH   1  28
TORSDOF 14
