REMARK SMILES C[C@@H](C(=O)NCCCNC(=O)c1ccc(-c2c3nc(c(-c4c(F)cccc4F)c4ccc([nH]4)c(-c4c(F)cccc4F)c4nc(c(-c5c(F)cccc5F)c5ccc2[nH]5)C=C4)C=C3)cc1)c1ccc(-c2ccc3[nH]ccc3c2)cc1
REMARK SMILES IDX 7 1 6 2 5 3 3 4 4 5 2 7 1 8 66 9 67 10 80 11 68 12 79 13
REMARK SMILES IDX 69 14 70 15 71 16 78 17 72 18 77 19 73 20 76 21 74 22 75 23
REMARK SMILES IDX 8 25 9 26 10 27 11 29 12 30 13 31 65 32 14 33 64 34 15 35
REMARK SMILES IDX 16 36 17 37 58 38 18 39 63 40 57 41 59 42 19 43 62 44 56 45
REMARK SMILES IDX 55 46 20 48 46 49 29 50 45 51 30 52 33 53 44 54 60 55 31 56
REMARK SMILES IDX 32 57 43 59 61 60 34 61 21 62 22 63 27 64 23 65 24 66 26 67
REMARK SMILES IDX 28 68 25 69 47 70 48 71 53 72 49 73 50 74 52 75 54 76 51 77
REMARK SMILES IDX 35 78 36 79 41 80 37 81 38 82 40 83 42 84 39 85
REMARK H PARENT 5 6 74 24 9 28 59 47 33 58
REMARK Flexibility Score: inf
ROOT
ATOM      1  C   UNL     1       4.311   0.771  -1.125  1.00  0.00     0.042 C 
ENDROOT
BRANCH   1   2
ATOM      2  C   UNL     1       3.414   1.978  -0.854  1.00  0.00     0.117 C 
BRANCH   2   3
ATOM      3  N   UNL     1       2.304   2.031  -1.784  1.00  0.00    -0.356 N 
ATOM      4  C   UNL     1       1.004   1.640  -1.633  1.00  0.00     0.227 C 
ATOM      5  O   UNL     1       0.302   1.672  -2.646  1.00  0.00    -0.274 OA
ATOM      6  H   UNL     1       2.522   2.409  -2.667  1.00  0.00     0.163 HD
BRANCH   4   7
ATOM      7  C   UNL     1       0.477   1.220  -0.249  1.00  0.00     0.105 C 
ATOM      8  C   UNL     1       1.038  -0.145   0.167  1.00  0.00     0.023 C 
BRANCH   7   9
ATOM      9  C   UNL     1      -1.050   1.273  -0.199  1.00  0.00    -0.036 A 
ATOM     10  C   UNL     1      -1.690   2.522  -0.124  1.00  0.00     0.005 A 
ATOM     11  C   UNL     1      -1.849   0.123  -0.274  1.00  0.00     0.005 A 
ATOM     12  C   UNL     1      -3.085   2.614  -0.129  1.00  0.00     0.009 A 
ATOM     13  C   UNL     1      -3.242   0.216  -0.264  1.00  0.00     0.009 A 
ATOM     14  C   UNL     1      -3.877   1.462  -0.203  1.00  0.00    -0.018 A 
BRANCH  14  15
ATOM     15  C   UNL     1      -5.336   1.547  -0.265  1.00  0.00    -0.018 A 
ATOM     16  C   UNL     1      -5.970   1.831  -1.483  1.00  0.00     0.011 A 
ATOM     17  C   UNL     1      -6.117   1.318   0.882  1.00  0.00     0.019 A 
ATOM     18  C   UNL     1      -7.363   1.876  -1.597  1.00  0.00     0.027 A 
ATOM     19  C   UNL     1      -7.522   1.375   0.797  1.00  0.00    -0.000 A 
ATOM     20  C   UNL     1      -8.110   1.641  -0.440  1.00  0.00     0.045 A 
ATOM     21  C   UNL     1      -8.577   1.220   1.738  1.00  0.00     0.028 A 
ATOM     22  N   UNL     1      -9.473   1.613  -0.254  1.00  0.00    -0.361 N 
ATOM     23  C   UNL     1      -9.767   1.380   1.064  1.00  0.00     0.083 A 
ATOM     24  H   UNL     1     -10.142   1.743  -0.965  1.00  0.00     0.166 HD
ENDBRANCH  14  15
ENDBRANCH   7   9
ENDBRANCH   4   7
ENDBRANCH   2   3
ENDBRANCH   1   2
BRANCH   1  25
ATOM     25  C   UNL     1       5.035   0.820  -2.469  1.00  0.00     0.118 C 
BRANCH  25  26
ATOM     26  N   UNL     1       6.002   1.904  -2.542  1.00  0.00    -0.352 N 
ATOM     27  C   UNL     1       7.362   1.871  -2.724  1.00  0.00     0.251 C 
ATOM     28  H   UNL     1       5.620   2.806  -2.444  1.00  0.00     0.163 HD
ATOM     29  O   UNL     1       8.018   2.894  -2.552  1.00  0.00    -0.269 OA
BRANCH  27  30
ATOM     30  C   UNL     1       8.048   0.617  -3.105  1.00  0.00     0.039 A 
ATOM     31  C   UNL     1       9.273   0.316  -2.501  1.00  0.00     0.014 A 
ATOM     32  C   UNL     1       7.521  -0.243  -4.073  1.00  0.00     0.014 A 
ATOM     33  C   UNL     1       9.931  -0.875  -2.815  1.00  0.00     0.010 A 
ATOM     34  C   UNL     1       8.143  -1.464  -4.334  1.00  0.00     0.010 A 
ATOM     35  C   UNL     1       9.352  -1.795  -3.704  1.00  0.00    -0.014 A 
BRANCH  35  36
ATOM     36  C   UNL     1       9.981  -3.118  -3.954  1.00  0.00     0.031 A 
ATOM     37  C   UNL     1      10.490  -3.480  -5.322  1.00  0.00     0.074 A 
ATOM     38  C   UNL     1      10.038  -4.020  -2.954  1.00  0.00     0.049 A 
ATOM     39  N   UNL     1      11.010  -4.607  -5.737  1.00  0.00    -0.248 NA
ATOM     40  C   UNL     1      10.383  -2.449  -6.366  1.00  0.00     0.031 C 
ATOM     41  C   UNL     1       9.539  -3.807  -1.593  1.00  0.00     0.029 A 
ATOM     42  N   UNL     1      10.529  -5.301  -2.929  1.00  0.00    -0.354 N 
ATOM     43  C   UNL     1      11.281  -4.427  -7.088  1.00  0.00     0.074 A 
ATOM     44  C   UNL     1      10.829  -3.096  -7.434  1.00  0.00     0.031 C 
ATOM     45  C   UNL     1       9.766  -4.910  -0.863  1.00  0.00     0.029 A 
ATOM     46  C   UNL     1      10.387  -5.923  -1.711  1.00  0.00     0.049 A 
ATOM     47  H   UNL     1      10.944  -5.735  -3.709  1.00  0.00     0.167 HD
ATOM     48  C   UNL     1      11.870  -5.285  -7.954  1.00  0.00     0.037 A 
ATOM     49  C   UNL     1      10.708  -7.171  -1.323  1.00  0.00     0.037 A 
ATOM     50  C   UNL     1      12.340  -6.600  -7.603  1.00  0.00     0.049 A 
ATOM     51  C   UNL     1      11.346  -8.107  -2.312  1.00  0.00     0.074 A 
ATOM     52  C   UNL     1      13.009  -7.516  -8.397  1.00  0.00     0.029 A 
ATOM     53  N   UNL     1      12.187  -7.189  -6.357  1.00  0.00    -0.354 N 
ATOM     54  N   UNL     1      11.664  -7.894  -3.566  1.00  0.00    -0.248 NA
ATOM     55  C   UNL     1      11.673  -9.457  -1.831  1.00  0.00     0.031 C 
ATOM     56  C   UNL     1      13.217  -8.677  -7.647  1.00  0.00     0.029 A 
ATOM     57  C   UNL     1      12.724  -8.466  -6.369  1.00  0.00     0.049 A 
ATOM     58  H   UNL     1      11.761  -6.762  -5.579  1.00  0.00     0.167 HD
ATOM     59  C   UNL     1      12.252  -9.069  -4.014  1.00  0.00     0.074 A 
ATOM     60  C   UNL     1      12.264  -9.986  -2.893  1.00  0.00     0.031 C 
ATOM     61  C   UNL     1      12.737  -9.365  -5.244  1.00  0.00     0.037 A 
BRANCH  48  62
ATOM     62  C   UNL     1      12.048  -4.834  -9.375  1.00  0.00     0.057 A 
ATOM     63  C   UNL     1      12.990  -3.859  -9.727  1.00  0.00     0.134 A 
ATOM     64  C   UNL     1      11.319  -5.432 -10.411  1.00  0.00     0.134 A 
ATOM     65  F   UNL     1      13.715  -3.241  -8.782  1.00  0.00    -0.206 F 
ATOM     66  C   UNL     1      13.191  -3.485 -11.057  1.00  0.00     0.040 A 
ATOM     67  C   UNL     1      11.529  -5.084 -11.747  1.00  0.00     0.040 A 
ATOM     68  F   UNL     1      10.406  -6.378 -10.145  1.00  0.00    -0.206 F 
ATOM     69  C   UNL     1      12.466  -4.106 -12.072  1.00  0.00     0.006 A 
ENDBRANCH  48  62
BRANCH  49  70
ATOM     70  C   UNL     1      10.438  -7.617   0.068  1.00  0.00     0.057 A 
ATOM     71  C   UNL     1      11.486  -7.885   0.958  1.00  0.00     0.134 A 
ATOM     72  C   UNL     1       9.132  -7.815   0.532  1.00  0.00     0.134 A 
ATOM     73  F   UNL     1      12.759  -7.732   0.566  1.00  0.00    -0.206 F 
ATOM     74  C   UNL     1      11.246  -8.361   2.248  1.00  0.00     0.040 A 
ATOM     75  C   UNL     1       8.877  -8.264   1.829  1.00  0.00     0.040 A 
ATOM     76  F   UNL     1       8.084  -7.569  -0.268  1.00  0.00    -0.206 F 
ATOM     77  C   UNL     1       9.937  -8.548   2.687  1.00  0.00     0.006 A 
ENDBRANCH  49  70
BRANCH  61  78
ATOM     78  C   UNL     1      13.353 -10.720  -5.432  1.00  0.00     0.057 A 
ATOM     79  C   UNL     1      12.578 -11.886  -5.470  1.00  0.00     0.134 A 
ATOM     80  C   UNL     1      14.736 -10.857  -5.609  1.00  0.00     0.134 A 
ATOM     81  F   UNL     1      11.249 -11.826  -5.292  1.00  0.00    -0.206 F 
ATOM     82  C   UNL     1      13.159 -13.142  -5.651  1.00  0.00     0.040 A 
ATOM     83  C   UNL     1      15.325 -12.104  -5.820  1.00  0.00     0.040 A 
ATOM     84  F   UNL     1      15.535  -9.779  -5.593  1.00  0.00    -0.206 F 
ATOM     85  C   UNL     1      14.537 -13.252  -5.835  1.00  0.00     0.006 A 
ENDBRANCH  61  78
ENDBRANCH  35  36
ENDBRANCH  27  30
ENDBRANCH  25  26
ENDBRANCH   1  25
TORSDOF 12
