REMARK SMILES [NH3+][C@@H](CC(=O)NCCCNC(=O)c1ccc(-c2c3nc(c(-c4c(F)cccc4F)c4ccc([nH]4)c(-c4c(F)cccc4F)c4nc(c(-c5c(F)cccc5F)c5ccc2[nH]5)C=C4)C=C3)cc1)Cc1ccc(F)cc1
REMARK SMILES IDX 7 1 6 2 4 3 5 4 3 6 2 7 1 8 67 12 68 13 69 14 74 15 70 16
REMARK SMILES IDX 73 17 71 18 72 19 8 20 9 21 10 22 11 23 12 25 13 26 14 27
REMARK SMILES IDX 66 28 15 29 65 30 16 31 17 32 18 33 59 34 19 35 64 36 58 37
REMARK SMILES IDX 60 38 20 39 63 40 57 41 56 42 21 44 47 45 30 46 46 47 31 48
REMARK SMILES IDX 34 49 45 50 61 51 32 52 33 53 44 55 62 56 35 57 22 58 23 59
REMARK SMILES IDX 28 60 24 61 25 62 27 63 29 64 26 65 48 66 49 67 54 68 50 69
REMARK SMILES IDX 51 70 53 71 55 72 52 73 36 74 37 75 42 76 38 77 39 78 41 79
REMARK SMILES IDX 43 80 40 81
REMARK H PARENT 6 5 1 9 1 10 1 11 10 24 60 43 34 54
REMARK Flexibility Score: inf
ROOT
ATOM      1  C   UNL     1       1.971  -1.453  -1.615  1.00  0.00     0.117 C 
ENDROOT
BRANCH   1   2
ATOM      2  N   UNL     1       0.969  -0.975  -2.549  1.00  0.00    -0.356 N 
ATOM      3  C   UNL     1       0.473   0.277  -2.739  1.00  0.00     0.225 C 
ATOM      4  O   UNL     1      -0.432   0.422  -3.562  1.00  0.00    -0.275 OA
ATOM      5  H   UNL     1       0.587  -1.666  -3.138  1.00  0.00     0.163 HD
BRANCH   3   6
ATOM      6  C   UNL     1       1.013   1.461  -1.962  1.00  0.00     0.165 C 
BRANCH   6   7
ATOM      7  C   UNL     1       0.406   1.708  -0.568  1.00  0.00     0.194 C 
BRANCH   7   8
ATOM      8  N   UNL     1       1.242   1.160   0.509  1.00  0.00    -0.354 N 
ATOM      9  H   UNL     1       2.209   1.456   0.373  1.00  0.00     0.344 HD
ATOM     10  H   UNL     1       1.192   0.141   0.494  1.00  0.00     0.344 HD
ATOM     11  H   UNL     1       0.906   1.503   1.409  1.00  0.00     0.344 HD
ENDBRANCH   7   8
BRANCH   7  12
ATOM     12  C   UNL     1      -1.096   1.321  -0.462  1.00  0.00     0.101 C 
BRANCH  12  13
ATOM     13  C   UNL     1      -1.634   1.273   0.954  1.00  0.00    -0.042 A 
ATOM     14  C   UNL     1      -1.795   2.447   1.704  1.00  0.00     0.007 A 
ATOM     15  C   UNL     1      -1.921   0.033   1.549  1.00  0.00     0.007 A 
ATOM     16  C   UNL     1      -2.210   2.376   3.035  1.00  0.00     0.039 A 
ATOM     17  C   UNL     1      -2.331  -0.035   2.879  1.00  0.00     0.039 A 
ATOM     18  C   UNL     1      -2.465   1.138   3.612  1.00  0.00     0.123 A 
ATOM     19  F   UNL     1      -2.840   1.071   4.896  1.00  0.00    -0.207 F 
ENDBRANCH  12  13
ENDBRANCH   7  12
ENDBRANCH   6   7
ENDBRANCH   3   6
ENDBRANCH   1   2
BRANCH   1  20
ATOM     20  C   UNL     1       1.339  -2.218  -0.455  1.00  0.00     0.042 C 
BRANCH  20  21
ATOM     21  C   UNL     1       0.753  -3.574  -0.838  1.00  0.00     0.118 C 
BRANCH  21  22
ATOM     22  N   UNL     1       1.775  -4.552  -1.169  1.00  0.00    -0.352 N 
ATOM     23  C   UNL     1       2.033  -5.787  -0.630  1.00  0.00     0.251 C 
ATOM     24  H   UNL     1       2.381  -4.286  -1.899  1.00  0.00     0.163 HD
ATOM     25  O   UNL     1       3.068  -6.372  -0.951  1.00  0.00    -0.269 OA
BRANCH  23  26
ATOM     26  C   UNL     1       1.105  -6.426   0.333  1.00  0.00     0.039 A 
ATOM     27  C   UNL     1       1.648  -7.179   1.381  1.00  0.00     0.014 A 
ATOM     28  C   UNL     1      -0.282  -6.357   0.183  1.00  0.00     0.014 A 
ATOM     29  C   UNL     1       0.807  -7.826   2.291  1.00  0.00     0.010 A 
ATOM     30  C   UNL     1      -1.121  -6.941   1.134  1.00  0.00     0.010 A 
ATOM     31  C   UNL     1      -0.587  -7.698   2.188  1.00  0.00    -0.014 A 
BRANCH  31  32
ATOM     32  C   UNL     1      -1.494  -8.381   3.148  1.00  0.00     0.031 A 
ATOM     33  C   UNL     1      -2.434  -9.457   2.668  1.00  0.00     0.074 A 
ATOM     34  C   UNL     1      -1.510  -8.005   4.443  1.00  0.00     0.049 A 
ATOM     35  N   UNL     1      -3.339 -10.125   3.339  1.00  0.00    -0.248 NA
ATOM     36  C   UNL     1      -2.367  -9.811   1.241  1.00  0.00     0.031 C 
ATOM     37  C   UNL     1      -0.688  -6.944   5.028  1.00  0.00     0.029 A 
ATOM     38  N   UNL     1      -2.255  -8.468   5.499  1.00  0.00    -0.354 N 
ATOM     39  C   UNL     1      -3.964 -10.952   2.414  1.00  0.00     0.074 A 
ATOM     40  C   UNL     1      -3.363 -10.678   1.127  1.00  0.00     0.031 C 
ATOM     41  C   UNL     1      -0.965  -6.847   6.339  1.00  0.00     0.029 A 
ATOM     42  C   UNL     1      -2.001  -7.816   6.682  1.00  0.00     0.049 A 
ATOM     43  H   UNL     1      -2.910  -9.198   5.417  1.00  0.00     0.167 HD
ATOM     44  C   UNL     1      -4.936 -11.873   2.620  1.00  0.00     0.037 A 
ATOM     45  C   UNL     1      -2.545  -7.978   7.904  1.00  0.00     0.037 A 
ATOM     46  C   UNL     1      -5.497 -12.187   3.907  1.00  0.00     0.049 A 
ATOM     47  C   UNL     1      -3.592  -9.038   8.111  1.00  0.00     0.074 A 
ATOM     48  C   UNL     1      -6.432 -13.157   4.226  1.00  0.00     0.029 A 
ATOM     49  N   UNL     1      -5.171 -11.542   5.089  1.00  0.00    -0.354 N 
ATOM     50  N   UNL     1      -4.116  -9.864   7.238  1.00  0.00    -0.248 NA
ATOM     51  C   UNL     1      -4.112  -9.199   9.476  1.00  0.00     0.031 C 
ATOM     52  C   UNL     1      -6.696 -13.078   5.596  1.00  0.00     0.029 A 
ATOM     53  C   UNL     1      -5.894 -12.087   6.137  1.00  0.00     0.049 A 
ATOM     54  H   UNL     1      -4.522 -10.806   5.172  1.00  0.00     0.167 HD
ATOM     55  C   UNL     1      -4.997 -10.664   7.955  1.00  0.00     0.074 A 
ATOM     56  C   UNL     1      -4.928 -10.234   9.335  1.00  0.00     0.031 C 
ATOM     57  C   UNL     1      -5.793 -11.666   7.510  1.00  0.00     0.037 A 
BRANCH  44  58
ATOM     58  C   UNL     1      -5.455 -12.624   1.429  1.00  0.00     0.057 A 
ATOM     59  C   UNL     1      -4.698 -13.617   0.796  1.00  0.00     0.134 A 
ATOM     60  C   UNL     1      -6.754 -12.399   0.955  1.00  0.00     0.134 A 
ATOM     61  F   UNL     1      -3.443 -13.874   1.194  1.00  0.00    -0.206 F 
ATOM     62  C   UNL     1      -5.209 -14.352  -0.276  1.00  0.00     0.040 A 
ATOM     63  C   UNL     1      -7.285 -13.144  -0.100  1.00  0.00     0.040 A 
ATOM     64  F   UNL     1      -7.534 -11.466   1.521  1.00  0.00    -0.206 F 
ATOM     65  C   UNL     1      -6.510 -14.122  -0.720  1.00  0.00     0.006 A 
ENDBRANCH  44  58
BRANCH  45  66
ATOM     66  C   UNL     1      -2.103  -7.130   9.040  1.00  0.00     0.057 A 
ATOM     67  C   UNL     1      -1.370  -7.670  10.105  1.00  0.00     0.134 A 
ATOM     68  C   UNL     1      -2.436  -5.773   9.111  1.00  0.00     0.134 A 
ATOM     69  F   UNL     1      -1.037  -8.970  10.104  1.00  0.00    -0.206 F 
ATOM     70  C   UNL     1      -1.014  -6.901  11.213  1.00  0.00     0.040 A 
ATOM     71  C   UNL     1      -2.063  -4.984  10.200  1.00  0.00     0.040 A 
ATOM     72  F   UNL     1      -3.129  -5.194   8.120  1.00  0.00    -0.206 F 
ATOM     73  C   UNL     1      -1.360  -5.552  11.261  1.00  0.00     0.006 A 
ENDBRANCH  45  66
BRANCH  57  74
ATOM     74  C   UNL     1      -6.607 -12.404   8.531  1.00  0.00     0.057 A 
ATOM     75  C   UNL     1      -7.726 -11.829   9.145  1.00  0.00     0.134 A 
ATOM     76  C   UNL     1      -6.281 -13.721   8.880  1.00  0.00     0.134 A 
ATOM     77  F   UNL     1      -8.083 -10.567   8.863  1.00  0.00    -0.206 F 
ATOM     78  C   UNL     1      -8.477 -12.528  10.091  1.00  0.00     0.040 A 
ATOM     79  C   UNL     1      -7.040 -14.439   9.805  1.00  0.00     0.040 A 
ATOM     80  F   UNL     1      -5.226 -14.333   8.321  1.00  0.00    -0.206 F 
ATOM     81  C   UNL     1      -8.138 -13.840  10.418  1.00  0.00     0.006 A 
ENDBRANCH  57  74
ENDBRANCH  31  32
ENDBRANCH  23  26
ENDBRANCH  21  22
ENDBRANCH  20  21
ENDBRANCH   1  20
TORSDOF 14
