REMARK SMILES CC(C)(C)OC(=O)N1C[C@@H](Oc2cccnc2)C[C@H]1C(=O)NCCCNC(=O)c1ccc(-c2c3nc(c(-c4c(F)cccc4F)c4ccc([nH]4)c(-c4c(F)cccc4F)c4nc(c(-c5c(F)cccc5F)c5ccc2[nH]5)C=C4)C=C3)cc1
REMARK SMILES IDX 23 1 22 2 20 3 21 4 19 6 8 7 9 8 10 9 18 10 6 11 7 12 5 13
REMARK SMILES IDX 2 14 1 15 3 16 4 17 11 18 12 19 13 20 17 21 14 22 16 23
REMARK SMILES IDX 15 24 24 25 25 26 26 27 27 28 28 30 29 31 30 32 82 33 31 34
REMARK SMILES IDX 81 35 32 36 33 37 34 38 75 39 35 40 80 41 74 42 76 43 36 44
REMARK SMILES IDX 79 45 73 46 72 47 37 49 63 50 46 51 62 52 47 53 50 54 61 55
REMARK SMILES IDX 77 56 48 57 49 58 60 60 78 61 51 62 38 63 39 64 44 65 40 66
REMARK SMILES IDX 41 67 43 68 45 69 42 70 64 71 65 72 70 73 66 74 67 75 69 76
REMARK SMILES IDX 71 77 68 78 52 79 53 80 58 81 54 82 55 83 57 84 59 85 56 86
REMARK H PARENT 22 5 26 29 76 48 50 59
REMARK Flexibility Score: inf
ROOT
ATOM      1  C   UNL     1      -2.377   3.858   6.456  1.00  0.00     0.117 C 
ENDROOT
BRANCH   1   2
ATOM      2  N   UNL     1      -1.224   4.609   5.997  1.00  0.00    -0.354 N 
ATOM      3  C   UNL     1      -0.039   4.162   5.490  1.00  0.00     0.243 C 
ATOM      4  O   UNL     1       0.800   5.003   5.155  1.00  0.00    -0.273 OA
ATOM      5  H   UNL     1      -1.310   5.588   6.060  1.00  0.00     0.163 HD
BRANCH   3   6
ATOM      6  C   UNL     1       0.243   2.651   5.437  1.00  0.00     0.181 C 
ATOM      7  N   UNL     1       1.003   2.303   4.250  1.00  0.00    -0.292 N 
ATOM      8  C   UNL     1       2.354   1.878   4.553  1.00  0.00     0.169 C 
ATOM      9  C   UNL     1       2.299   1.500   6.031  1.00  0.00     0.195 C 
ATOM     10  C   UNL     1       1.089   2.225   6.637  1.00  0.00     0.082 C 
BRANCH   7  11
ATOM     11  C   UNL     1       0.383   2.314   3.027  1.00  0.00     0.411 C 
ATOM     12  O   UNL     1      -0.716   2.830   2.859  1.00  0.00    -0.224 OA
BRANCH  11  13
ATOM     13  O   UNL     1       1.077   1.630   2.089  1.00  0.00    -0.444 OA
BRANCH  13  14
ATOM     14  C   UNL     1       0.560   1.464   0.740  1.00  0.00     0.106 C 
ATOM     15  C   UNL     1       1.286   0.227   0.192  1.00  0.00     0.056 C 
ATOM     16  C   UNL     1       0.945   2.694  -0.083  1.00  0.00     0.056 C 
ATOM     17  C   UNL     1      -0.951   1.191   0.658  1.00  0.00     0.056 C 
ENDBRANCH  13  14
ENDBRANCH  11  13
ENDBRANCH   7  11
BRANCH   9  18
ATOM     18  O   UNL     1       3.522   1.582   6.754  1.00  0.00    -0.487 OA
BRANCH  18  19
ATOM     19  C   UNL     1       4.082   2.758   7.143  1.00  0.00     0.138 A 
ATOM     20  C   UNL     1       3.747   4.038   6.723  1.00  0.00     0.050 A 
ATOM     21  C   UNL     1       5.117   2.655   8.069  1.00  0.00     0.157 A 
ATOM     22  C   UNL     1       4.415   5.144   7.254  1.00  0.00     0.024 A 
ATOM     23  N   UNL     1       5.792   3.704   8.601  1.00  0.00    -0.261 NA
ATOM     24  C   UNL     1       5.420   4.929   8.181  1.00  0.00     0.111 A 
ENDBRANCH  18  19
ENDBRANCH   9  18
ENDBRANCH   3   6
ENDBRANCH   1   2
BRANCH   1  25
ATOM     25  C   UNL     1      -2.628   4.055   7.945  1.00  0.00     0.042 C 
BRANCH  25  26
ATOM     26  C   UNL     1      -2.986   5.487   8.329  1.00  0.00     0.118 C 
BRANCH  26  27
ATOM     27  N   UNL     1      -4.223   5.945   7.713  1.00  0.00    -0.352 N 
ATOM     28  C   UNL     1      -5.381   6.410   8.285  1.00  0.00     0.251 C 
ATOM     29  H   UNL     1      -4.231   5.916   6.729  1.00  0.00     0.163 HD
ATOM     30  O   UNL     1      -6.374   6.588   7.585  1.00  0.00    -0.269 OA
BRANCH  28  31
ATOM     31  C   UNL     1      -5.451   6.676   9.738  1.00  0.00     0.039 A 
ATOM     32  C   UNL     1      -6.602   6.295  10.434  1.00  0.00     0.014 A 
ATOM     33  C   UNL     1      -4.409   7.319  10.410  1.00  0.00     0.014 A 
ATOM     34  C   UNL     1      -6.678   6.494  11.814  1.00  0.00     0.010 A 
ATOM     35  C   UNL     1      -4.453   7.449  11.796  1.00  0.00     0.010 A 
ATOM     36  C   UNL     1      -5.588   7.039  12.512  1.00  0.00    -0.014 A 
BRANCH  36  37
ATOM     37  C   UNL     1      -5.612   7.184  13.989  1.00  0.00     0.031 A 
ATOM     38  C   UNL     1      -5.553   8.548  14.617  1.00  0.00     0.074 A 
ATOM     39  C   UNL     1      -5.612   6.083  14.765  1.00  0.00     0.049 A 
ATOM     40  N   UNL     1      -5.471   8.872  15.882  1.00  0.00    -0.248 NA
ATOM     41  C   UNL     1      -5.560   9.699  13.701  1.00  0.00     0.031 C 
ATOM     42  C   UNL     1      -5.622   4.702  14.279  1.00  0.00     0.029 A 
ATOM     43  N   UNL     1      -5.590   5.954  16.131  1.00  0.00    -0.354 N 
ATOM     44  C   UNL     1      -5.395  10.259  15.913  1.00  0.00     0.074 A 
ATOM     45  C   UNL     1      -5.398  10.712  14.539  1.00  0.00     0.031 C 
ATOM     46  C   UNL     1      -5.625   3.866  15.330  1.00  0.00     0.029 A 
ATOM     47  C   UNL     1      -5.580   4.649  16.561  1.00  0.00     0.049 A 
ATOM     48  H   UNL     1      -5.581   6.723  16.745  1.00  0.00     0.167 HD
ATOM     49  C   UNL     1      -5.348  11.080  16.988  1.00  0.00     0.037 A 
ATOM     50  C   UNL     1      -5.531   4.141  17.806  1.00  0.00     0.037 A 
ATOM     51  C   UNL     1      -5.380  10.631  18.355  1.00  0.00     0.049 A 
ATOM     52  C   UNL     1      -5.489   5.074  18.983  1.00  0.00     0.074 A 
ATOM     53  C   UNL     1      -5.402  11.391  19.512  1.00  0.00     0.029 A 
ATOM     54  N   UNL     1      -5.398   9.302  18.748  1.00  0.00    -0.354 N 
ATOM     55  N   UNL     1      -5.477   6.384  18.997  1.00  0.00    -0.248 NA
ATOM     56  C   UNL     1      -5.457   4.457  20.317  1.00  0.00     0.031 C 
ATOM     57  C   UNL     1      -5.399  10.520  20.607  1.00  0.00     0.029 A 
ATOM     58  C   UNL     1      -5.414   9.219  20.131  1.00  0.00     0.049 A 
ATOM     59  H   UNL     1      -5.398   8.531  18.136  1.00  0.00     0.167 HD
ATOM     60  C   UNL     1      -5.463   6.749  20.337  1.00  0.00     0.074 A 
ATOM     61  C   UNL     1      -5.479   5.522  21.106  1.00  0.00     0.031 C 
ATOM     62  C   UNL     1      -5.439   7.990  20.881  1.00  0.00     0.037 A 
BRANCH  49  63
ATOM     63  C   UNL     1      -5.264  12.555  16.726  1.00  0.00     0.057 A 
ATOM     64  C   UNL     1      -6.356  13.280  16.232  1.00  0.00     0.134 A 
ATOM     65  C   UNL     1      -4.088  13.264  17.001  1.00  0.00     0.134 A 
ATOM     66  F   UNL     1      -7.508  12.657  15.937  1.00  0.00    -0.206 F 
ATOM     67  C   UNL     1      -6.275  14.653  15.997  1.00  0.00     0.040 A 
ATOM     68  C   UNL     1      -4.003  14.642  16.793  1.00  0.00     0.040 A 
ATOM     69  F   UNL     1      -3.007  12.632  17.480  1.00  0.00    -0.206 F 
ATOM     70  C   UNL     1      -5.097  15.339  16.284  1.00  0.00     0.006 A 
ENDBRANCH  49  63
BRANCH  50  71
ATOM     71  C   UNL     1      -5.544   2.671  18.007  1.00  0.00     0.057 A 
ATOM     72  C   UNL     1      -6.674   2.026  18.521  1.00  0.00     0.134 A 
ATOM     73  C   UNL     1      -4.433   1.879  17.695  1.00  0.00     0.134 A 
ATOM     74  F   UNL     1      -7.762   2.736  18.856  1.00  0.00    -0.206 F 
ATOM     75  C   UNL     1      -6.695   0.647  18.735  1.00  0.00     0.040 A 
ATOM     76  C   UNL     1      -4.447   0.496  17.882  1.00  0.00     0.040 A 
ATOM     77  F   UNL     1      -3.323   2.438  17.191  1.00  0.00    -0.206 F 
ATOM     78  C   UNL     1      -5.579  -0.122  18.410  1.00  0.00     0.006 A 
ENDBRANCH  50  71
BRANCH  62  79
ATOM     79  C   UNL     1      -5.462   8.082  22.377  1.00  0.00     0.057 A 
ATOM     80  C   UNL     1      -4.336   7.779  23.152  1.00  0.00     0.134 A 
ATOM     81  C   UNL     1      -6.614   8.514  23.046  1.00  0.00     0.134 A 
ATOM     82  F   UNL     1      -3.207   7.346  22.571  1.00  0.00    -0.206 F 
ATOM     83  C   UNL     1      -4.361   7.885  24.543  1.00  0.00     0.040 A 
ATOM     84  C   UNL     1      -6.644   8.646  24.434  1.00  0.00     0.040 A 
ATOM     85  F   UNL     1      -7.724   8.826  22.360  1.00  0.00    -0.206 F 
ATOM     86  C   UNL     1      -5.516   8.326  25.188  1.00  0.00     0.006 A 
ENDBRANCH  62  79
ENDBRANCH  36  37
ENDBRANCH  28  31
ENDBRANCH  26  27
ENDBRANCH  25  26
ENDBRANCH   1  25
TORSDOF 15
