REMARK SMILES O=C(NCCCNC(=O)[C@H]1Cc2cc(O)ccc2C[NH2+]1)c1ccc(-c2c3nc(c(-c4c(F)cccc4F)c4ccc([nH]4)c(-c4c(F)cccc4F)c4nc(c(-c5c(F)cccc5F)c5ccc2[nH]5)C=C4)C=C3)cc1
REMARK SMILES IDX 4 1 3 2 1 3 2 4 21 6 22 7 74 8 23 9 73 10 24 11 25 12 26 13
REMARK SMILES IDX 67 14 27 15 72 16 66 17 68 18 28 19 71 20 65 21 64 22 29 24
REMARK SMILES IDX 55 25 38 26 54 27 39 28 42 29 53 30 69 31 40 32 41 33 52 35
REMARK SMILES IDX 70 36 43 37 30 38 31 39 36 40 32 41 33 42 35 43 37 44 34 45
REMARK SMILES IDX 56 46 57 47 62 48 58 49 59 50 61 51 63 52 60 53 44 54 45 55
REMARK SMILES IDX 50 56 46 57 47 58 49 59 51 60 48 61 5 62 6 63 7 64 8 65 9 67
REMARK SMILES IDX 10 68 11 69 20 70 12 71 19 72 13 75 18 76 14 77 17 78 16 79
REMARK SMILES IDX 15 80
REMARK H PARENT 3 5 68 23 42 34 7 66 20 73 20 74 15 81
REMARK Flexibility Score: inf
ROOT
ATOM      1  C   UNL     1       4.554  -1.192  -0.890  1.00  0.00     0.118 C 
ENDROOT
BRANCH   1   2
ATOM      2  N   UNL     1       3.166  -0.763  -1.010  1.00  0.00    -0.352 N 
ATOM      3  O   UNL     1       1.218   0.096  -0.329  1.00  0.00    -0.269 OA
ATOM      4  C   UNL     1       2.444   0.159  -0.300  1.00  0.00     0.251 C 
ATOM      5  H   UNL     1       2.660  -1.214  -1.723  1.00  0.00     0.163 HD
BRANCH   4   6
ATOM      6  C   UNL     1       3.100   1.252   0.452  1.00  0.00     0.039 A 
ATOM      7  C   UNL     1       2.428   1.804   1.550  1.00  0.00     0.014 A 
ATOM      8  C   UNL     1       4.281   1.846  -0.002  1.00  0.00     0.014 A 
ATOM      9  C   UNL     1       2.920   2.956   2.167  1.00  0.00     0.010 A 
ATOM     10  C   UNL     1       4.820   2.940   0.668  1.00  0.00     0.010 A 
ATOM     11  C   UNL     1       4.112   3.541   1.719  1.00  0.00    -0.014 A 
BRANCH  11  12
ATOM     12  C   UNL     1       4.556   4.865   2.220  1.00  0.00     0.031 A 
ATOM     13  C   UNL     1       4.569   6.039   1.272  1.00  0.00     0.074 A 
ATOM     14  C   UNL     1       4.964   5.016   3.492  1.00  0.00     0.049 A 
ATOM     15  N   UNL     1       5.023   7.252   1.456  1.00  0.00    -0.248 NA
ATOM     16  C   UNL     1       4.027   5.802  -0.077  1.00  0.00     0.031 C 
ATOM     17  C   UNL     1       5.013   3.957   4.501  1.00  0.00     0.029 A 
ATOM     18  N   UNL     1       5.421   6.128   4.151  1.00  0.00    -0.354 N 
ATOM     19  C   UNL     1       4.849   7.907   0.242  1.00  0.00     0.074 A 
ATOM     20  C   UNL     1       4.301   6.945  -0.686  1.00  0.00     0.031 C 
ATOM     21  C   UNL     1       5.456   4.476   5.658  1.00  0.00     0.029 A 
ATOM     22  C   UNL     1       5.750   5.892   5.463  1.00  0.00     0.049 A 
ATOM     23  H   UNL     1       5.505   7.011   3.725  1.00  0.00     0.167 HD
ATOM     24  C   UNL     1       5.092   9.204  -0.066  1.00  0.00     0.037 A 
ATOM     25  C   UNL     1       6.237   6.730   6.397  1.00  0.00     0.037 A 
ATOM     26  C   UNL     1       5.587  10.174   0.871  1.00  0.00     0.049 A 
ATOM     27  C   UNL     1       6.480   8.170   6.035  1.00  0.00     0.074 A 
ATOM     28  C   UNL     1       5.849  11.518   0.671  1.00  0.00     0.029 A 
ATOM     29  N   UNL     1       5.872   9.902   2.201  1.00  0.00    -0.354 N 
ATOM     30  N   UNL     1       6.303   8.777   4.887  1.00  0.00    -0.248 NA
ATOM     31  C   UNL     1       6.984   9.043   7.105  1.00  0.00     0.031 C 
ATOM     32  C   UNL     1       6.306  12.057   1.879  1.00  0.00     0.029 A 
ATOM     33  C   UNL     1       6.300  11.055   2.836  1.00  0.00     0.049 A 
ATOM     34  H   UNL     1       5.784   9.020   2.629  1.00  0.00     0.167 HD
ATOM     35  C   UNL     1       6.647  10.105   5.102  1.00  0.00     0.074 A 
ATOM     36  C   UNL     1       7.027  10.218   6.495  1.00  0.00     0.031 C 
ATOM     37  C   UNL     1       6.655  11.141   4.228  1.00  0.00     0.037 A 
BRANCH  24  38
ATOM     38  C   UNL     1       4.804   9.639  -1.473  1.00  0.00     0.057 A 
ATOM     39  C   UNL     1       5.844   9.938  -2.361  1.00  0.00     0.134 A 
ATOM     40  C   UNL     1       3.491   9.765  -1.949  1.00  0.00     0.134 A 
ATOM     41  F   UNL     1       7.124   9.840  -1.970  1.00  0.00    -0.206 F 
ATOM     42  C   UNL     1       5.589  10.341  -3.674  1.00  0.00     0.040 A 
ATOM     43  C   UNL     1       3.225  10.142  -3.266  1.00  0.00     0.040 A 
ATOM     44  F   UNL     1       2.450   9.476  -1.154  1.00  0.00    -0.206 F 
ATOM     45  C   UNL     1       4.276  10.436  -4.131  1.00  0.00     0.006 A 
ENDBRANCH  24  38
BRANCH  25  46
ATOM     46  C   UNL     1       6.506   6.245   7.772  1.00  0.00     0.057 A 
ATOM     47  C   UNL     1       7.587   5.402   8.053  1.00  0.00     0.134 A 
ATOM     48  C   UNL     1       5.703   6.645   8.846  1.00  0.00     0.134 A 
ATOM     49  F   UNL     1       8.390   4.979   7.066  1.00  0.00    -0.206 F 
ATOM     50  C   UNL     1       7.863   4.978   9.354  1.00  0.00     0.040 A 
ATOM     51  C   UNL     1       5.980   6.247  10.155  1.00  0.00     0.040 A 
ATOM     52  F   UNL     1       4.664   7.468   8.641  1.00  0.00    -0.206 F 
ATOM     53  C   UNL     1       7.064   5.410  10.411  1.00  0.00     0.006 A 
ENDBRANCH  25  46
BRANCH  37  54
ATOM     54  C   UNL     1       7.046  12.482   4.769  1.00  0.00     0.057 A 
ATOM     55  C   UNL     1       6.082  13.476   4.972  1.00  0.00     0.134 A 
ATOM     56  C   UNL     1       8.377  12.793   5.075  1.00  0.00     0.134 A 
ATOM     57  F   UNL     1       4.791  13.241   4.691  1.00  0.00    -0.206 F 
ATOM     58  C   UNL     1       6.427  14.735   5.464  1.00  0.00     0.040 A 
ATOM     59  C   UNL     1       8.731  14.041   5.588  1.00  0.00     0.040 A 
ATOM     60  F   UNL     1       9.343  11.877   4.915  1.00  0.00    -0.206 F 
ATOM     61  C   UNL     1       7.754  15.017   5.780  1.00  0.00     0.006 A 
ENDBRANCH  37  54
ENDBRANCH  11  12
ENDBRANCH   4   6
ENDBRANCH   1   2
BRANCH   1  62
ATOM     62  C   UNL     1       4.657  -2.533  -0.168  1.00  0.00     0.042 C 
BRANCH  62  63
ATOM     63  C   UNL     1       4.018  -3.667  -0.964  1.00  0.00     0.118 C 
BRANCH  63  64
ATOM     64  N   UNL     1       4.911  -4.188  -1.980  1.00  0.00    -0.351 N 
ATOM     65  C   UNL     1       5.783  -5.222  -2.034  1.00  0.00     0.278 C 
ATOM     66  H   UNL     1       4.877  -3.674  -2.819  1.00  0.00     0.163 HD
ATOM     67  O   UNL     1       6.371  -5.356  -3.121  1.00  0.00    -0.268 OA
BRANCH  65  68
ATOM     68  C   UNL     1       6.066  -6.257  -0.916  1.00  0.00     0.277 C 
ATOM     69  C   UNL     1       5.518  -6.001   0.482  1.00  0.00     0.111 C 
ATOM     70  N   UNL     1       5.591  -7.579  -1.402  1.00  0.00    -0.332 N 
ATOM     71  C   UNL     1       5.731  -7.152   1.431  1.00  0.00    -0.029 A 
ATOM     72  C   UNL     1       6.138  -8.656  -0.567  1.00  0.00     0.298 C 
ATOM     73  H   UNL     1       5.897  -7.713  -2.366  1.00  0.00     0.347 HD
ATOM     74  H   UNL     1       4.573  -7.605  -1.351  1.00  0.00     0.347 HD
ATOM     75  C   UNL     1       5.551  -6.957   2.805  1.00  0.00     0.050 A 
ATOM     76  C   UNL     1       5.917  -8.446   0.915  1.00  0.00     0.010 A 
ATOM     77  C   UNL     1       5.544  -8.049   3.660  1.00  0.00     0.115 A 
ATOM     78  C   UNL     1       5.933  -9.533   1.800  1.00  0.00     0.013 A 
ATOM     79  C   UNL     1       5.733  -9.337   3.170  1.00  0.00     0.046 A 
BRANCH  77  80
ATOM     80  O   UNL     1       5.317  -7.813   4.983  1.00  0.00    -0.508 OA
ATOM     81  H   UNL     1       5.193  -6.935   5.288  1.00  0.00     0.293 HD
ENDBRANCH  77  80
ENDBRANCH  65  68
ENDBRANCH  63  64
ENDBRANCH  62  63
ENDBRANCH   1  62
TORSDOF 11
