REMARK SMILES CCN(CC)C(=O)C[C@](C)(C(=O)NCCCNC(=O)c1ccc(-c2c3nc(c(-c4c(F)cccc4F)c4ccc([nH]4)c(-c4c(F)cccc4F)c4nc(c(-c5c(F)cccc5F)c5ccc2[nH]5)C=C4)C=C3)cc1)c1ccccc1
REMARK SMILES IDX 14 1 13 2 11 3 12 4 9 6 10 7 8 8 6 9 3 10 7 11 2 12 1 13
REMARK SMILES IDX 4 14 5 15 74 16 75 17 79 18 76 19 78 20 77 21 15 22 16 23
REMARK SMILES IDX 17 24 18 25 19 27 20 28 21 29 73 30 22 31 72 32 23 33 24 34
REMARK SMILES IDX 25 35 66 36 26 37 71 38 65 39 67 40 27 41 70 42 64 43 63 44
REMARK SMILES IDX 28 46 54 47 37 48 53 49 38 50 41 51 52 52 68 53 39 54 40 55
REMARK SMILES IDX 51 57 69 58 42 59 29 60 30 61 35 62 31 63 32 64 34 65 36 66
REMARK SMILES IDX 33 67 55 68 56 69 61 70 57 71 58 72 60 73 62 74 59 75 43 76
REMARK SMILES IDX 44 77 49 78 45 79 46 80 48 81 50 82 47 83
REMARK H PARENT 13 5 17 26 67 45 41 56
REMARK Flexibility Score: inf
ROOT
ATOM      1  C   UNL     1       1.555   3.644  -5.696  1.00  0.00     0.117 C 
ENDROOT
BRANCH   1   2
ATOM      2  N   UNL     1       2.398   2.595  -6.249  1.00  0.00    -0.355 N 
ATOM      3  C   UNL     1       3.009   1.505  -5.703  1.00  0.00     0.230 C 
ATOM      4  O   UNL     1       3.807   0.941  -6.459  1.00  0.00    -0.274 OA
ATOM      5  H   UNL     1       2.561   2.692  -7.215  1.00  0.00     0.163 HD
BRANCH   3   6
ATOM      6  C   UNL     1       2.700   1.002  -4.250  1.00  0.00     0.080 C 
ATOM      7  C   UNL     1       3.090   2.178  -3.312  1.00  0.00     0.027 C 
BRANCH   6   8
ATOM      8  C   UNL     1       1.180   0.640  -4.227  1.00  0.00     0.121 C 
BRANCH   8   9
ATOM      9  C   UNL     1       0.496   0.656  -2.873  1.00  0.00     0.223 C 
ATOM     10  N   UNL     1       0.338  -0.518  -2.148  1.00  0.00    -0.343 N 
ATOM     11  O   UNL     1       0.078   1.739  -2.448  1.00  0.00    -0.275 OA
BRANCH  10  12
ATOM     12  C   UNL     1      -0.186  -0.407  -0.783  1.00  0.00     0.116 C 
ATOM     13  C   UNL     1       0.727   0.404   0.134  1.00  0.00     0.027 C 
ENDBRANCH  10  12
BRANCH  10  14
ATOM     14  C   UNL     1       0.649  -1.869  -2.627  1.00  0.00     0.116 C 
ATOM     15  C   UNL     1      -0.290  -2.407  -3.698  1.00  0.00     0.027 C 
ENDBRANCH  10  14
ENDBRANCH   8   9
ENDBRANCH   6   8
BRANCH   6  16
ATOM     16  C   UNL     1       3.475  -0.323  -3.943  1.00  0.00    -0.032 A 
ATOM     17  C   UNL     1       3.398  -1.402  -4.859  1.00  0.00     0.005 A 
ATOM     18  C   UNL     1       4.122  -0.584  -2.721  1.00  0.00     0.005 A 
ATOM     19  C   UNL     1       3.892  -2.673  -4.551  1.00  0.00     0.000 A 
ATOM     20  C   UNL     1       4.627  -1.856  -2.417  1.00  0.00     0.000 A 
ATOM     21  C   UNL     1       4.497  -2.903  -3.323  1.00  0.00     0.000 A 
ENDBRANCH   6  16
ENDBRANCH   3   6
ENDBRANCH   1   2
BRANCH   1  22
ATOM     22  C   UNL     1       2.313   4.960  -5.562  1.00  0.00     0.042 C 
BRANCH  22  23
ATOM     23  C   UNL     1       2.837   5.501  -6.887  1.00  0.00     0.118 C 
BRANCH  23  24
ATOM     24  N   UNL     1       1.769   5.864  -7.808  1.00  0.00    -0.352 N 
ATOM     25  C   UNL     1       1.434   7.090  -8.330  1.00  0.00     0.251 C 
ATOM     26  H   UNL     1       1.199   5.117  -8.101  1.00  0.00     0.163 HD
ATOM     27  O   UNL     1       0.381   7.229  -8.939  1.00  0.00    -0.269 OA
BRANCH  25  28
ATOM     28  C   UNL     1       2.334   8.248  -8.138  1.00  0.00     0.039 A 
ATOM     29  C   UNL     1       1.780   9.489  -7.816  1.00  0.00     0.014 A 
ATOM     30  C   UNL     1       3.717   8.115  -8.285  1.00  0.00     0.014 A 
ATOM     31  C   UNL     1       2.619  10.580  -7.577  1.00  0.00     0.010 A 
ATOM     32  C   UNL     1       4.554   9.175  -7.952  1.00  0.00     0.010 A 
ATOM     33  C   UNL     1       4.015  10.422  -7.606  1.00  0.00    -0.014 A 
BRANCH  33  34
ATOM     34  C   UNL     1       4.928  11.552  -7.299  1.00  0.00     0.031 A 
ATOM     35  C   UNL     1       5.888  12.050  -8.346  1.00  0.00     0.074 A 
ATOM     36  C   UNL     1       4.942  12.087  -6.062  1.00  0.00     0.049 A 
ATOM     37  N   UNL     1       6.816  12.969  -8.249  1.00  0.00    -0.248 NA
ATOM     38  C   UNL     1       5.817  11.409  -9.669  1.00  0.00     0.031 C 
ATOM     39  C   UNL     1       4.095  11.662  -4.945  1.00  0.00     0.029 A 
ATOM     40  N   UNL     1       5.704  13.099  -5.534  1.00  0.00    -0.354 N 
ATOM     41  C   UNL     1       7.445  13.001  -9.487  1.00  0.00     0.074 A 
ATOM     42  C   UNL     1       6.837  11.970 -10.299  1.00  0.00     0.031 C 
ATOM     43  C   UNL     1       4.365  12.425  -3.874  1.00  0.00     0.029 A 
ATOM     44  C   UNL     1       5.432  13.361  -4.212  1.00  0.00     0.049 A 
ATOM     45  H   UNL     1       6.381  13.591  -6.052  1.00  0.00     0.167 HD
ATOM     46  C   UNL     1       8.423  13.832  -9.919  1.00  0.00     0.037 A 
ATOM     47  C   UNL     1       5.988  14.250  -3.367  1.00  0.00     0.037 A 
ATOM     48  C   UNL     1       9.008  14.874  -9.117  1.00  0.00     0.049 A 
ATOM     49  C   UNL     1       7.080  15.154  -3.867  1.00  0.00     0.074 A 
ATOM     50  C   UNL     1       9.964  15.807  -9.480  1.00  0.00     0.029 A 
ATOM     51  N   UNL     1       8.694  15.119  -7.789  1.00  0.00    -0.354 N 
ATOM     52  N   UNL     1       7.619  15.220  -5.061  1.00  0.00    -0.248 NA
ATOM     53  C   UNL     1       7.639  16.114  -2.904  1.00  0.00     0.031 C 
ATOM     54  C   UNL     1      10.264  16.584  -8.357  1.00  0.00     0.029 A 
ATOM     55  C   UNL     1       9.454  16.173  -7.311  1.00  0.00     0.049 A 
ATOM     56  H   UNL     1       8.029  14.617  -7.264  1.00  0.00     0.167 HD
ATOM     57  C   UNL     1       8.553  16.246  -5.002  1.00  0.00     0.074 A 
ATOM     58  C   UNL     1       8.498  16.783  -3.658  1.00  0.00     0.031 C 
ATOM     59  C   UNL     1       9.380  16.704  -5.973  1.00  0.00     0.037 A 
BRANCH  46  60
ATOM     60  C   UNL     1       8.918  13.649 -11.325  1.00  0.00     0.057 A 
ATOM     61  C   UNL     1       8.120  13.952 -12.437  1.00  0.00     0.134 A 
ATOM     62  C   UNL     1      10.219  13.193 -11.573  1.00  0.00     0.134 A 
ATOM     63  F   UNL     1       6.859  14.382 -12.273  1.00  0.00    -0.206 F 
ATOM     64  C   UNL     1       8.586  13.780 -13.742  1.00  0.00     0.040 A 
ATOM     65  C   UNL     1      10.708  13.046 -12.872  1.00  0.00     0.040 A 
ATOM     66  F   UNL     1      11.040  12.890 -10.556  1.00  0.00    -0.206 F 
ATOM     67  C   UNL     1       9.887  13.333 -13.961  1.00  0.00     0.006 A 
ENDBRANCH  46  60
BRANCH  47  68
ATOM     68  C   UNL     1       5.508  14.345  -1.964  1.00  0.00     0.057 A 
ATOM     69  C   UNL     1       4.809  15.472  -1.515  1.00  0.00     0.134 A 
ATOM     70  C   UNL     1       5.748  13.325  -1.036  1.00  0.00     0.134 A 
ATOM     71  F   UNL     1       4.563  16.491  -2.351  1.00  0.00    -0.206 F 
ATOM     72  C   UNL     1       4.386  15.592  -0.190  1.00  0.00     0.040 A 
ATOM     73  C   UNL     1       5.307  13.419   0.285  1.00  0.00     0.040 A 
ATOM     74  F   UNL     1       6.406  12.215  -1.404  1.00  0.00    -0.206 F 
ATOM     75  C   UNL     1       4.632  14.560   0.714  1.00  0.00     0.006 A 
ENDBRANCH  47  68
BRANCH  59  76
ATOM     76  C   UNL     1      10.262  17.871  -5.634  1.00  0.00     0.057 A 
ATOM     77  C   UNL     1      11.358  17.748  -4.770  1.00  0.00     0.134 A 
ATOM     78  C   UNL     1      10.033  19.125  -6.214  1.00  0.00     0.134 A 
ATOM     79  F   UNL     1      11.625  16.578  -4.172  1.00  0.00    -0.206 F 
ATOM     80  C   UNL     1      12.180  18.838  -4.477  1.00  0.00     0.040 A 
ATOM     81  C   UNL     1      10.866  20.214  -5.952  1.00  0.00     0.040 A 
ATOM     82  F   UNL     1       9.007  19.309  -7.059  1.00  0.00    -0.206 F 
ATOM     83  C   UNL     1      11.939  20.073  -5.075  1.00  0.00     0.006 A 
ENDBRANCH  59  76
ENDBRANCH  33  34
ENDBRANCH  25  28
ENDBRANCH  23  24
ENDBRANCH  22  23
ENDBRANCH   1  22
TORSDOF 15
