REMARK SMILES CCc1ccc2c(c1)C=C(C(=O)NCCCNC(=O)c1ccc(-c3c4nc(c(-c5c(F)cccc5F)c5ccc([nH]5)c(-c5c(F)cccc5F)c5nc(c(-c6c(F)cccc6F)c6ccc3[nH]6)C=C5)C=C4)cc1)[C@H](C(F)(F)F)O2
REMARK SMILES IDX 15 1 14 2 13 3 11 4 12 5 10 7 3 8 4 9 8 10 5 11 7 12 6 13
REMARK SMILES IDX 9 14 79 15 74 16 2 17 1 18 75 19 76 20 77 21 78 22 16 23
REMARK SMILES IDX 17 24 18 25 19 27 20 28 21 29 73 30 22 31 72 32 23 33 24 34
REMARK SMILES IDX 25 35 66 36 26 37 71 38 65 39 67 40 27 41 70 42 64 43 63 44
REMARK SMILES IDX 28 46 54 47 37 48 53 49 38 50 41 51 52 52 68 53 39 54 40 55
REMARK SMILES IDX 51 57 69 58 42 59 29 60 30 61 35 62 31 63 32 64 34 65 36 66
REMARK SMILES IDX 33 67 55 68 56 69 61 70 57 71 58 72 60 73 62 74 59 75 43 76
REMARK SMILES IDX 44 77 49 78 45 79 46 80 48 81 50 82 47 83
REMARK H PARENT 13 6 17 26 67 45 41 56
REMARK Flexibility Score: inf
ROOT
ATOM      1  C   UNL     1       2.420  -4.219  -4.599  1.00  0.00     0.042 C 
ENDROOT
BRANCH   1   2
ATOM      2  C   UNL     1       3.496  -3.276  -5.148  1.00  0.00     0.118 C 
BRANCH   2   3
ATOM      3  N   UNL     1       3.179  -2.861  -6.508  1.00  0.00    -0.352 N 
ATOM      4  C   UNL     1       2.550  -1.769  -7.019  1.00  0.00     0.251 C 
ATOM      5  O   UNL     1       2.331  -1.739  -8.228  1.00  0.00    -0.270 OA
ATOM      6  H   UNL     1       3.480  -3.499  -7.194  1.00  0.00     0.163 HD
BRANCH   4   7
ATOM      7  C   UNL     1       2.181  -0.594  -6.190  1.00  0.00     0.067 C 
ATOM      8  C   UNL     1       0.799   1.470  -2.036  1.00  0.00    -0.047 A 
ATOM      9  C   UNL     1       1.069   2.730  -2.591  1.00  0.00     0.007 A 
ATOM     10  C   UNL     1       0.943   0.340  -2.852  1.00  0.00     0.015 A 
ATOM     11  C   UNL     1       1.522   2.849  -3.908  1.00  0.00     0.047 A 
ATOM     12  C   UNL     1       1.410   0.458  -4.168  1.00  0.00     0.017 A 
ATOM     13  C   UNL     1       1.702   1.712  -4.691  1.00  0.00     0.128 A 
ATOM     14  C   UNL     1       1.687  -0.731  -4.952  1.00  0.00     0.025 C 
ATOM     15  O   UNL     1       2.228   1.899  -5.934  1.00  0.00    -0.475 OA
ATOM     16  C   UNL     1       2.228   0.775  -6.865  1.00  0.00     0.314 C 
BRANCH   8  17
ATOM     17  C   UNL     1       0.336   1.369  -0.601  1.00  0.00     0.032 C 
ATOM     18  C   UNL     1       0.852   0.150   0.159  1.00  0.00     0.009 C 
ENDBRANCH   8  17
BRANCH  16  19
ATOM     19  C   UNL     1       3.391   1.008  -7.855  1.00  0.00     0.429 C 
ATOM     20  F   UNL     1       3.143   0.504  -9.084  1.00  0.00    -0.167 F 
ATOM     21  F   UNL     1       3.607   2.338  -8.046  1.00  0.00    -0.167 F 
ATOM     22  F   UNL     1       4.557   0.483  -7.412  1.00  0.00    -0.167 F 
ENDBRANCH  16  19
ENDBRANCH   4   7
ENDBRANCH   2   3
ENDBRANCH   1   2
BRANCH   1  23
ATOM     23  C   UNL     1       2.474  -5.624  -5.197  1.00  0.00     0.118 C 
BRANCH  23  24
ATOM     24  N   UNL     1       3.603  -6.388  -4.691  1.00  0.00    -0.352 N 
ATOM     25  C   UNL     1       3.632  -7.605  -4.057  1.00  0.00     0.251 C 
ATOM     26  H   UNL     1       4.482  -5.966  -4.823  1.00  0.00     0.163 HD
ATOM     27  O   UNL     1       4.670  -7.976  -3.518  1.00  0.00    -0.269 OA
BRANCH  25  28
ATOM     28  C   UNL     1       2.431  -8.471  -4.005  1.00  0.00     0.039 A 
ATOM     29  C   UNL     1       2.167  -9.174  -2.824  1.00  0.00     0.014 A 
ATOM     30  C   UNL     1       1.605  -8.649  -5.118  1.00  0.00     0.014 A 
ATOM     31  C   UNL     1       1.054 -10.016  -2.745  1.00  0.00     0.010 A 
ATOM     32  C   UNL     1       0.462  -9.444  -5.020  1.00  0.00     0.010 A 
ATOM     33  C   UNL     1       0.178 -10.139  -3.835  1.00  0.00    -0.014 A 
BRANCH  33  34
ATOM     34  C   UNL     1      -1.032 -10.999  -3.754  1.00  0.00     0.031 A 
ATOM     35  C   UNL     1      -1.147 -12.228  -4.614  1.00  0.00     0.074 A 
ATOM     36  C   UNL     1      -2.047 -10.648  -2.941  1.00  0.00     0.049 A 
ATOM     37  N   UNL     1      -2.155 -13.053  -4.748  1.00  0.00    -0.248 NA
ATOM     38  C   UNL     1       0.019 -12.566  -5.447  1.00  0.00     0.031 C 
ATOM     39  C   UNL     1      -2.070  -9.468  -2.074  1.00  0.00     0.029 A 
ATOM     40  N   UNL     1      -3.262 -11.247  -2.717  1.00  0.00    -0.354 N 
ATOM     41  C   UNL     1      -1.749 -14.000  -5.680  1.00  0.00     0.074 A 
ATOM     42  C   UNL     1      -0.422 -13.622  -6.116  1.00  0.00     0.031 C 
ATOM     43  C   UNL     1      -3.233  -9.438  -1.403  1.00  0.00     0.029 A 
ATOM     44  C   UNL     1      -4.052 -10.572  -1.818  1.00  0.00     0.049 A 
ATOM     45  H   UNL     1      -3.541 -12.081  -3.159  1.00  0.00     0.167 HD
ATOM     46  C   UNL     1      -2.412 -15.098  -6.117  1.00  0.00     0.037 A 
ATOM     47  C   UNL     1      -5.300 -10.832  -1.386  1.00  0.00     0.037 A 
ATOM     48  C   UNL     1      -3.724 -15.486  -5.671  1.00  0.00     0.049 A 
ATOM     49  C   UNL     1      -6.022 -12.044  -1.908  1.00  0.00     0.074 A 
ATOM     50  C   UNL     1      -4.471 -16.591  -6.043  1.00  0.00     0.029 A 
ATOM     51  N   UNL     1      -4.483 -14.783  -4.748  1.00  0.00    -0.354 N 
ATOM     52  N   UNL     1      -5.611 -12.947  -2.764  1.00  0.00    -0.248 NA
ATOM     53  C   UNL     1      -7.382 -12.274  -1.400  1.00  0.00     0.031 C 
ATOM     54  C   UNL     1      -5.693 -16.543  -5.364  1.00  0.00     0.029 A 
ATOM     55  C   UNL     1      -5.691 -15.429  -4.542  1.00  0.00     0.049 A 
ATOM     56  H   UNL     1      -4.205 -13.950  -4.304  1.00  0.00     0.167 HD
ATOM     57  C   UNL     1      -6.645 -13.868  -2.871  1.00  0.00     0.074 A 
ATOM     58  C   UNL     1      -7.698 -13.422  -1.983  1.00  0.00     0.031 C 
ATOM     59  C   UNL     1      -6.718 -14.983  -3.637  1.00  0.00     0.037 A 
BRANCH  46  60
ATOM     60  C   UNL     1      -1.719 -15.974  -7.119  1.00  0.00     0.057 A 
ATOM     61  C   UNL     1      -0.645 -16.795  -6.753  1.00  0.00     0.134 A 
ATOM     62  C   UNL     1      -2.162 -16.041  -8.445  1.00  0.00     0.134 A 
ATOM     63  F   UNL     1      -0.166 -16.769  -5.500  1.00  0.00    -0.206 F 
ATOM     64  C   UNL     1      -0.026 -17.641  -7.674  1.00  0.00     0.040 A 
ATOM     65  C   UNL     1      -1.566 -16.900  -9.370  1.00  0.00     0.040 A 
ATOM     66  F   UNL     1      -3.191 -15.286  -8.860  1.00  0.00    -0.206 F 
ATOM     67  C   UNL     1      -0.492 -17.701  -8.986  1.00  0.00     0.006 A 
ENDBRANCH  46  60
BRANCH  47  68
ATOM     68  C   UNL     1      -5.956  -9.938  -0.398  1.00  0.00     0.057 A 
ATOM     69  C   UNL     1      -6.212 -10.372   0.908  1.00  0.00     0.134 A 
ATOM     70  C   UNL     1      -6.377  -8.649  -0.744  1.00  0.00     0.134 A 
ATOM     71  F   UNL     1      -5.849 -11.605   1.292  1.00  0.00    -0.206 F 
ATOM     72  C   UNL     1      -6.890  -9.569   1.826  1.00  0.00     0.040 A 
ATOM     73  C   UNL     1      -7.034  -7.825   0.172  1.00  0.00     0.040 A 
ATOM     74  F   UNL     1      -6.156  -8.171  -1.977  1.00  0.00    -0.206 F 
ATOM     75  C   UNL     1      -7.301  -8.290   1.459  1.00  0.00     0.006 A 
ENDBRANCH  47  68
BRANCH  59  76
ATOM     76  C   UNL     1      -7.955 -15.820  -3.511  1.00  0.00     0.057 A 
ATOM     77  C   UNL     1      -9.180 -15.417  -4.057  1.00  0.00     0.134 A 
ATOM     78  C   UNL     1      -7.910 -17.061  -2.862  1.00  0.00     0.134 A 
ATOM     79  F   UNL     1      -9.290 -14.233  -4.678  1.00  0.00    -0.206 F 
ATOM     80  C   UNL     1     -10.323 -16.208  -3.941  1.00  0.00     0.040 A 
ATOM     81  C   UNL     1      -9.041 -17.872  -2.761  1.00  0.00     0.040 A 
ATOM     82  F   UNL     1      -6.766 -17.508  -2.324  1.00  0.00    -0.206 F 
ATOM     83  C   UNL     1     -10.254 -17.443  -3.297  1.00  0.00     0.006 A 
ENDBRANCH  59  76
ENDBRANCH  33  34
ENDBRANCH  25  28
ENDBRANCH  23  24
ENDBRANCH   1  23
TORSDOF 12
