REMARK SMILES COc1ccc(C(=O)N[C@H](C(=O)NCCCNC(=O)c2ccc(-c3c4nc(c(-c5c(F)cccc5F)c5ccc([nH]5)c(-c5c(F)cccc5F)c5nc(c(-c6c(F)cccc6F)c6ccc3[nH]6)C=C5)C=C4)cc2)C2=C(C)N=N[C@H]2C)c(F)c1F
REMARK SMILES IDX 14 1 13 2 11 3 12 4 10 6 9 7 7 8 8 9 6 11 3 12 4 13 83 14
REMARK SMILES IDX 5 15 81 16 84 17 82 18 2 19 1 20 74 21 75 22 79 23 76 24
REMARK SMILES IDX 77 25 78 26 80 27 15 28 16 29 17 30 18 31 19 33 20 34 21 35
REMARK SMILES IDX 73 36 22 37 72 38 23 39 24 40 25 41 66 42 26 43 71 44 65 45
REMARK SMILES IDX 67 46 27 47 70 48 64 49 63 50 28 52 54 53 37 54 53 55 38 56
REMARK SMILES IDX 41 57 52 58 68 59 39 60 40 61 51 63 69 64 42 65 29 66 30 67
REMARK SMILES IDX 35 68 31 69 32 70 34 71 36 72 33 73 55 74 56 75 61 76 57 77
REMARK SMILES IDX 58 78 60 79 62 80 59 81 43 82 44 83 49 84 45 85 46 86 48 87
REMARK SMILES IDX 50 88 47 89
REMARK H PARENT 13 5 9 10 17 32 67 51 41 62
REMARK Flexibility Score: inf
ROOT
ATOM      1  C   UNL     1       0.024   7.672   2.672  1.00  0.00     0.117 C 
ENDROOT
BRANCH   1   2
ATOM      2  N   UNL     1       0.717   7.134   1.514  1.00  0.00    -0.354 N 
ATOM      3  C   UNL     1       0.309   7.106   0.198  1.00  0.00     0.247 C 
ATOM      4  O   UNL     1       1.096   6.609  -0.614  1.00  0.00    -0.272 OA
ATOM      5  H   UNL     1       1.599   6.736   1.694  1.00  0.00     0.163 HD
BRANCH   3   6
ATOM      6  C   UNL     1      -1.161   7.504  -0.213  1.00  0.00     0.202 C 
BRANCH   6   7
ATOM      7  N   UNL     1      -1.933   8.346   0.701  1.00  0.00    -0.336 N 
ATOM      8  C   UNL     1      -1.912   9.618   1.192  1.00  0.00     0.255 C 
ATOM      9  O   UNL     1      -2.701   9.834   2.117  1.00  0.00    -0.269 OA
ATOM     10  H   UNL     1      -2.695   7.845   1.072  1.00  0.00     0.165 HD
BRANCH   8  11
ATOM     11  C   UNL     1      -1.091  10.757   0.715  1.00  0.00     0.078 A 
ATOM     12  C   UNL     1       0.103  13.069  -0.355  1.00  0.00     0.157 A 
ATOM     13  C   UNL     1      -1.083  13.177   0.358  1.00  0.00     0.050 A 
ATOM     14  C   UNL     1       0.722  11.829  -0.476  1.00  0.00     0.201 A 
ATOM     15  C   UNL     1      -1.667  12.030   0.900  1.00  0.00     0.021 A 
ATOM     16  C   UNL     1       0.142  10.690   0.079  1.00  0.00     0.175 A 
ATOM     17  F   UNL     1       1.862  11.711  -1.173  1.00  0.00    -0.200 F 
ATOM     18  F   UNL     1       0.796   9.536  -0.061  1.00  0.00    -0.203 F 
BRANCH  12  19
ATOM     19  O   UNL     1       0.542  14.168  -1.036  1.00  0.00    -0.494 OA
ATOM     20  C   UNL     1       1.721  14.719  -0.457  1.00  0.00     0.278 C 
ENDBRANCH  12  19
ENDBRANCH   8  11
ENDBRANCH   6   7
BRANCH   6  21
ATOM     21  C   UNL     1      -1.425   7.779  -1.667  1.00  0.00     0.011 C 
ATOM     22  C   UNL     1      -1.600   6.893  -2.662  1.00  0.00     0.064 C 
ATOM     23  C   UNL     1      -1.472   9.104  -2.356  1.00  0.00     0.156 C 
ATOM     24  C   UNL     1      -1.653   5.404  -2.621  1.00  0.00     0.069 C 
ATOM     25  N   UNL     1      -1.686   7.484  -3.898  1.00  0.00    -0.160 NA
ATOM     26  N   UNL     1      -1.547   8.729  -3.795  1.00  0.00    -0.181 NA
ATOM     27  C   UNL     1      -2.709   9.959  -2.077  1.00  0.00     0.040 C 
ENDBRANCH   6  21
ENDBRANCH   3   6
ENDBRANCH   1   2
BRANCH   1  28
ATOM     28  C   UNL     1       0.641   7.316   4.012  1.00  0.00     0.042 C 
BRANCH  28  29
ATOM     29  C   UNL     1       1.944   8.051   4.298  1.00  0.00     0.118 C 
BRANCH  29  30
ATOM     30  N   UNL     1       1.772   9.466   4.623  1.00  0.00    -0.352 N 
ATOM     31  C   UNL     1       1.871  10.157   5.810  1.00  0.00     0.251 C 
ATOM     32  H   UNL     1       1.542  10.030   3.849  1.00  0.00     0.163 HD
ATOM     33  O   UNL     1       1.584  11.353   5.835  1.00  0.00    -0.269 OA
BRANCH  31  34
ATOM     34  C   UNL     1       2.278   9.482   7.064  1.00  0.00     0.039 A 
ATOM     35  C   UNL     1       1.664   9.841   8.270  1.00  0.00     0.014 A 
ATOM     36  C   UNL     1       3.268   8.503   7.071  1.00  0.00     0.014 A 
ATOM     37  C   UNL     1       1.975   9.151   9.447  1.00  0.00     0.010 A 
ATOM     38  C   UNL     1       3.471   7.725   8.204  1.00  0.00     0.010 A 
ATOM     39  C   UNL     1       2.844   8.049   9.415  1.00  0.00    -0.014 A 
BRANCH  39  40
ATOM     40  C   UNL     1       3.155   7.244  10.627  1.00  0.00     0.031 A 
ATOM     41  C   UNL     1       4.587   7.089  11.078  1.00  0.00     0.074 A 
ATOM     42  C   UNL     1       2.176   6.578  11.271  1.00  0.00     0.049 A 
ATOM     43  N   UNL     1       5.084   6.331  12.023  1.00  0.00    -0.248 NA
ATOM     44  C   UNL     1       5.602   7.851  10.332  1.00  0.00     0.031 C 
ATOM     45  C   UNL     1       0.758   6.583  10.904  1.00  0.00     0.029 A 
ATOM     46  N   UNL     1       2.229   5.755  12.369  1.00  0.00    -0.354 N 
ATOM     47  C   UNL     1       6.462   6.496  11.953  1.00  0.00     0.074 A 
ATOM     48  C   UNL     1       6.728   7.367  10.830  1.00  0.00     0.031 C 
ATOM     49  C   UNL     1       0.073   5.833  11.782  1.00  0.00     0.029 A 
ATOM     50  C   UNL     1       1.004   5.263  12.750  1.00  0.00     0.049 A 
ATOM     51  H   UNL     1       3.066   5.538  12.839  1.00  0.00     0.167 HD
ATOM     52  C   UNL     1       7.423   6.000  12.769  1.00  0.00     0.037 A 
ATOM     53  C   UNL     1       0.670   4.448  13.768  1.00  0.00     0.037 A 
ATOM     54  C   UNL     1       7.155   5.185  13.923  1.00  0.00     0.049 A 
ATOM     55  C   UNL     1       1.746   3.950  14.694  1.00  0.00     0.074 A 
ATOM     56  C   UNL     1       8.047   4.687  14.856  1.00  0.00     0.029 A 
ATOM     57  N   UNL     1       5.892   4.761  14.309  1.00  0.00    -0.354 N 
ATOM     58  N   UNL     1       3.039   4.162  14.650  1.00  0.00    -0.248 NA
ATOM     59  C   UNL     1       1.313   3.108  15.819  1.00  0.00     0.031 C 
ATOM     60  C   UNL     1       7.327   3.938  15.793  1.00  0.00     0.029 A 
ATOM     61  C   UNL     1       5.982   4.005  15.466  1.00  0.00     0.049 A 
ATOM     62  H   UNL     1       5.056   4.966  13.832  1.00  0.00     0.167 HD
ATOM     63  C   UNL     1       3.568   3.514  15.759  1.00  0.00     0.074 A 
ATOM     64  C   UNL     1       2.455   2.910  16.461  1.00  0.00     0.031 C 
ATOM     65  C   UNL     1       4.860   3.429  16.161  1.00  0.00     0.037 A 
BRANCH  52  66
ATOM     66  C   UNL     1       8.848   6.348  12.447  1.00  0.00     0.057 A 
ATOM     67  C   UNL     1       9.339   7.655  12.582  1.00  0.00     0.134 A 
ATOM     68  C   UNL     1       9.744   5.367  12.003  1.00  0.00     0.134 A 
ATOM     69  F   UNL     1       8.530   8.646  12.988  1.00  0.00    -0.206 F 
ATOM     70  C   UNL     1      10.654   7.981  12.248  1.00  0.00     0.040 A 
ATOM     71  C   UNL     1      11.071   5.675  11.697  1.00  0.00     0.040 A 
ATOM     72  F   UNL     1       9.345   4.095  11.858  1.00  0.00    -0.206 F 
ATOM     73  C   UNL     1      11.527   6.987  11.810  1.00  0.00     0.006 A 
ENDBRANCH  52  66
BRANCH  53  74
ATOM     74  C   UNL     1      -0.753   4.093  14.004  1.00  0.00     0.057 A 
ATOM     75  C   UNL     1      -1.450   4.614  15.101  1.00  0.00     0.134 A 
ATOM     76  C   UNL     1      -1.447   3.225  13.153  1.00  0.00     0.134 A 
ATOM     77  F   UNL     1      -0.833   5.438  15.962  1.00  0.00    -0.206 F 
ATOM     78  C   UNL     1      -2.777   4.268  15.358  1.00  0.00     0.040 A 
ATOM     79  C   UNL     1      -2.783   2.889  13.385  1.00  0.00     0.040 A 
ATOM     80  F   UNL     1      -0.840   2.700  12.079  1.00  0.00    -0.206 F 
ATOM     81  C   UNL     1      -3.449   3.405  14.495  1.00  0.00     0.006 A 
ENDBRANCH  53  74
BRANCH  65  82
ATOM     82  C   UNL     1       5.131   2.703  17.446  1.00  0.00     0.057 A 
ATOM     83  C   UNL     1       5.031   1.310  17.548  1.00  0.00     0.134 A 
ATOM     84  C   UNL     1       5.527   3.410  18.589  1.00  0.00     0.134 A 
ATOM     85  F   UNL     1       4.646   0.577  16.492  1.00  0.00    -0.206 F 
ATOM     86  C   UNL     1       5.289   0.648  18.749  1.00  0.00     0.040 A 
ATOM     87  C   UNL     1       5.813   2.757  19.788  1.00  0.00     0.040 A 
ATOM     88  F   UNL     1       5.651   4.745  18.555  1.00  0.00    -0.206 F 
ATOM     89  C   UNL     1       5.687   1.372  19.872  1.00  0.00     0.006 A 
ENDBRANCH  65  82
ENDBRANCH  39  40
ENDBRANCH  31  34
ENDBRANCH  29  30
ENDBRANCH  28  29
ENDBRANCH   1  28
TORSDOF 14
