REMARK SMILES CCc1sc(NC(=O)[C@H]2CC(C)=C(C)C[C@H]2C(=O)NCCCNC(=O)c2ccc(-c3c4nc(c(-c5c(F)cccc5F)c5ccc([nH]5)c(-c5c(F)cccc5F)c5nc(c(-c6c(F)cccc6F)c6ccc3[nH]6)C=C5)C=C4)cc2)nc1-c1ccccc1
REMARK SMILES IDX 20 1 19 2 17 3 18 4 16 6 9 7 10 8 11 9 15 10 12 11 13 12
REMARK SMILES IDX 14 13 7 14 6 15 8 17 5 18 3 19 4 20 81 21 80 22 2 23 1 24
REMARK SMILES IDX 82 25 83 26 87 27 84 28 86 29 85 30 21 31 22 32 23 33 24 34
REMARK SMILES IDX 25 36 26 37 27 38 79 39 28 40 78 41 29 42 30 43 31 44 72 45
REMARK SMILES IDX 32 46 77 47 71 48 73 49 33 50 76 51 70 52 69 53 34 55 60 56
REMARK SMILES IDX 43 57 59 58 44 59 47 60 58 61 74 62 45 63 46 64 57 66 75 67
REMARK SMILES IDX 48 68 35 69 36 70 41 71 37 72 38 73 40 74 42 75 39 76 61 77
REMARK SMILES IDX 62 78 67 79 63 80 64 81 66 82 68 83 65 84 49 85 50 86 55 87
REMARK SMILES IDX 51 88 52 89 54 90 56 91 53 92
REMARK H PARENT 19 5 6 16 23 35 73 54 47 65
REMARK Flexibility Score: inf
ROOT
ATOM      1  C   UNL     1       3.399  -5.914  -0.801  1.00  0.00     0.117 C 
ENDROOT
BRANCH   1   2
ATOM      2  N   UNL     1       3.011  -7.294  -0.596  1.00  0.00    -0.356 N 
ATOM      3  C   UNL     1       1.853  -7.955  -0.836  1.00  0.00     0.224 C 
ATOM      4  O   UNL     1       1.856  -9.167  -0.598  1.00  0.00    -0.275 OA
ATOM      5  H   UNL     1       3.722  -7.856  -0.211  1.00  0.00     0.163 HD
BRANCH   3   6
ATOM      6  C   UNL     1       0.635  -7.294  -1.483  1.00  0.00     0.095 C 
ATOM      7  C   UNL     1      -0.183  -6.253  -0.660  1.00  0.00     0.095 C 
ATOM      8  C   UNL     1      -0.105  -4.844  -1.217  1.00  0.00     0.045 C 
ATOM      9  C   UNL     1       0.315  -4.572  -2.624  1.00  0.00    -0.074 C 
ATOM     10  C   UNL     1       0.972  -6.952  -2.953  1.00  0.00     0.045 C 
ATOM     11  C   UNL     1       0.147  -3.127  -3.028  1.00  0.00     0.039 C 
ATOM     12  C   UNL     1       0.875  -5.516  -3.394  1.00  0.00    -0.074 C 
ATOM     13  C   UNL     1       1.548  -5.178  -4.698  1.00  0.00     0.039 C 
BRANCH   7  14
ATOM     14  C   UNL     1      -0.043  -6.433   0.882  1.00  0.00     0.230 C 
ATOM     15  N   UNL     1       0.140  -5.487   1.847  1.00  0.00    -0.302 N 
ATOM     16  H   UNL     1       0.246  -5.868   2.748  1.00  0.00     0.172 HD
ATOM     17  O   UNL     1      -0.070  -7.594   1.321  1.00  0.00    -0.274 OA
BRANCH  15  18
ATOM     18  C   UNL     1       0.208  -4.122   1.828  1.00  0.00     0.190 A 
ATOM     19  C   UNL     1       0.049  -1.838   1.111  1.00  0.00     0.034 A 
ATOM     20  S   UNL     1      -1.060  -3.176   1.198  1.00  0.00    -0.101 S 
ATOM     21  C   UNL     1       1.059  -2.098   2.032  1.00  0.00     0.087 A 
ATOM     22  N   UNL     1       1.134  -3.427   2.447  1.00  0.00    -0.220 NA
BRANCH  19  23
ATOM     23  C   UNL     1      -0.207  -0.770   0.085  1.00  0.00     0.046 C 
ATOM     24  C   UNL     1       0.369   0.609   0.326  1.00  0.00     0.010 C 
ENDBRANCH  19  23
BRANCH  21  25
ATOM     25  C   UNL     1       2.045  -1.119   2.459  1.00  0.00     0.001 A 
ATOM     26  C   UNL     1       1.641  -0.017   3.226  1.00  0.00     0.010 A 
ATOM     27  C   UNL     1       3.382  -1.222   2.062  1.00  0.00     0.010 A 
ATOM     28  C   UNL     1       2.541   1.009   3.521  1.00  0.00     0.001 A 
ATOM     29  C   UNL     1       4.284  -0.198   2.366  1.00  0.00     0.001 A 
ATOM     30  C   UNL     1       3.860   0.922   3.082  1.00  0.00     0.000 A 
ENDBRANCH  21  25
ENDBRANCH  15  18
ENDBRANCH   7  14
ENDBRANCH   3   6
ENDBRANCH   1   2
BRANCH   1  31
ATOM     31  C   UNL     1       3.466  -5.161   0.514  1.00  0.00     0.042 C 
BRANCH  31  32
ATOM     32  C   UNL     1       4.549  -5.646   1.464  1.00  0.00     0.118 C 
BRANCH  32  33
ATOM     33  N   UNL     1       5.858  -5.120   1.120  1.00  0.00    -0.352 N 
ATOM     34  C   UNL     1       6.679  -4.272   1.818  1.00  0.00     0.251 C 
ATOM     35  H   UNL     1       6.211  -5.418   0.251  1.00  0.00     0.163 HD
ATOM     36  O   UNL     1       7.659  -3.788   1.244  1.00  0.00    -0.269 OA
BRANCH  34  37
ATOM     37  C   UNL     1       6.409  -3.903   3.229  1.00  0.00     0.039 A 
ATOM     38  C   UNL     1       6.746  -2.612   3.652  1.00  0.00     0.014 A 
ATOM     39  C   UNL     1       5.891  -4.812   4.156  1.00  0.00     0.014 A 
ATOM     40  C   UNL     1       6.524  -2.223   4.975  1.00  0.00     0.010 A 
ATOM     41  C   UNL     1       5.591  -4.399   5.455  1.00  0.00     0.010 A 
ATOM     42  C   UNL     1       5.930  -3.109   5.885  1.00  0.00    -0.014 A 
BRANCH  42  43
ATOM     43  C   UNL     1       5.733  -2.722   7.305  1.00  0.00     0.031 A 
ATOM     44  C   UNL     1       6.514  -3.418   8.388  1.00  0.00     0.074 A 
ATOM     45  C   UNL     1       4.848  -1.760   7.628  1.00  0.00     0.049 A 
ATOM     46  N   UNL     1       6.489  -3.224   9.683  1.00  0.00    -0.248 NA
ATOM     47  C   UNL     1       7.430  -4.488   7.962  1.00  0.00     0.031 C 
ATOM     48  C   UNL     1       3.998  -1.038   6.681  1.00  0.00     0.029 A 
ATOM     49  N   UNL     1       4.520  -1.224   8.848  1.00  0.00    -0.354 N 
ATOM     50  C   UNL     1       7.371  -4.153  10.222  1.00  0.00     0.074 A 
ATOM     51  C   UNL     1       7.874  -4.947   9.122  1.00  0.00     0.031 C 
ATOM     52  C   UNL     1       3.268  -0.132   7.352  1.00  0.00     0.029 A 
ATOM     53  C   UNL     1       3.579  -0.226   8.775  1.00  0.00     0.049 A 
ATOM     54  H   UNL     1       4.921  -1.525   9.695  1.00  0.00     0.167 HD
ATOM     55  C   UNL     1       7.753  -4.315  11.511  1.00  0.00     0.037 A 
ATOM     56  C   UNL     1       3.035   0.530   9.748  1.00  0.00     0.037 A 
ATOM     57  C   UNL     1       7.279  -3.510  12.604  1.00  0.00     0.049 A 
ATOM     58  C   UNL     1       3.478   0.336  11.172  1.00  0.00     0.074 A 
ATOM     59  C   UNL     1       7.642  -3.565  13.938  1.00  0.00     0.029 A 
ATOM     60  N   UNL     1       6.337  -2.500  12.486  1.00  0.00    -0.354 N 
ATOM     61  N   UNL     1       4.362  -0.502  11.657  1.00  0.00    -0.248 NA
ATOM     62  C   UNL     1       2.855   1.203  12.183  1.00  0.00     0.031 C 
ATOM     63  C   UNL     1       6.896  -2.606  14.633  1.00  0.00     0.029 A 
ATOM     64  C   UNL     1       6.097  -1.931  13.725  1.00  0.00     0.049 A 
ATOM     65  H   UNL     1       5.902  -2.227  11.645  1.00  0.00     0.167 HD
ATOM     66  C   UNL     1       4.423  -0.245  13.020  1.00  0.00     0.074 A 
ATOM     67  C   UNL     1       3.494   0.835  13.284  1.00  0.00     0.031 C 
ATOM     68  C   UNL     1       5.181  -0.847  13.968  1.00  0.00     0.037 A 
BRANCH  55  69
ATOM     69  C   UNL     1       8.745  -5.403  11.801  1.00  0.00     0.057 A 
ATOM     70  C   UNL     1      10.088  -5.295  11.415  1.00  0.00     0.134 A 
ATOM     71  C   UNL     1       8.360  -6.561  12.486  1.00  0.00     0.134 A 
ATOM     72  F   UNL     1      10.518  -4.216  10.743  1.00  0.00    -0.206 F 
ATOM     73  C   UNL     1      11.006  -6.314  11.675  1.00  0.00     0.040 A 
ATOM     74  C   UNL     1       9.274  -7.576  12.773  1.00  0.00     0.040 A 
ATOM     75  F   UNL     1       7.090  -6.725  12.888  1.00  0.00    -0.206 F 
ATOM     76  C   UNL     1      10.600  -7.457  12.361  1.00  0.00     0.006 A 
ENDBRANCH  55  69
BRANCH  56  77
ATOM     77  C   UNL     1       2.039   1.575   9.405  1.00  0.00     0.057 A 
ATOM     78  C   UNL     1       2.369   2.933   9.474  1.00  0.00     0.134 A 
ATOM     79  C   UNL     1       0.736   1.245   9.015  1.00  0.00     0.134 A 
ATOM     80  F   UNL     1       3.597   3.310   9.861  1.00  0.00    -0.206 F 
ATOM     81  C   UNL     1       1.435   3.929   9.185  1.00  0.00     0.040 A 
ATOM     82  C   UNL     1      -0.203   2.230   8.702  1.00  0.00     0.040 A 
ATOM     83  F   UNL     1       0.360  -0.038   8.925  1.00  0.00    -0.206 F 
ATOM     84  C   UNL     1       0.144   3.577   8.793  1.00  0.00     0.006 A 
ENDBRANCH  56  77
BRANCH  68  85
ATOM     85  C   UNL     1       5.069  -0.326  15.370  1.00  0.00     0.057 A 
ATOM     86  C   UNL     1       3.952  -0.592  16.170  1.00  0.00     0.134 A 
ATOM     87  C   UNL     1       6.112   0.417  15.937  1.00  0.00     0.134 A 
ATOM     88  F   UNL     1       2.915  -1.289  15.681  1.00  0.00    -0.206 F 
ATOM     89  C   UNL     1       3.866  -0.119  17.480  1.00  0.00     0.040 A 
ATOM     90  C   UNL     1       6.048   0.877  17.253  1.00  0.00     0.040 A 
ATOM     91  F   UNL     1       7.214   0.700  15.225  1.00  0.00    -0.206 F 
ATOM     92  C   UNL     1       4.919   0.613  18.027  1.00  0.00     0.006 A 
ENDBRANCH  68  85
ENDBRANCH  42  43
ENDBRANCH  34  37
ENDBRANCH  32  33
ENDBRANCH  31  32
ENDBRANCH   1  31
TORSDOF 14
