REMARK SMILES Cc1cc(C[N@H+]2CC[C@@H](C(=O)NCCCNC(=O)c3ccc(-c4c5nc(c(-c6c(F)cccc6F)c6ccc([nH]6)c(-c6c(F)cccc6F)c6nc(c(-c7c(F)cccc7F)c7ccc4[nH]7)C=C6)C=C5)cc3)[C@@H]2C)ccc1Br
REMARK SMILES IDX 14 1 13 2 12 3 10 4 11 5 9 7 6 8 7 9 73 10 8 12 74 13 5 14
REMARK SMILES IDX 4 15 1 16 2 17 3 18 77 19 76 20 78 21 75 22 15 23 16 24
REMARK SMILES IDX 17 25 18 27 19 28 20 29 72 30 21 31 71 32 22 33 23 34 24 35
REMARK SMILES IDX 65 36 25 37 70 38 64 39 66 40 26 41 69 42 63 43 62 44 27 46
REMARK SMILES IDX 53 47 36 48 52 49 37 50 40 51 51 52 67 53 38 54 39 55 50 57
REMARK SMILES IDX 68 58 41 59 28 60 29 61 34 62 30 63 31 64 33 65 35 66 32 67
REMARK SMILES IDX 54 68 55 69 60 70 56 71 57 72 59 73 61 74 58 75 42 76 43 77
REMARK SMILES IDX 48 78 44 79 45 80 47 81 49 82 46 83
REMARK H PARENT 12 6 6 11 16 26 66 45 40 56
REMARK Flexibility Score: inf
ROOT
ATOM      1  C   UNL     1       1.507   0.458   0.978  1.00  0.00     0.042 C 
ENDROOT
BRANCH   1   2
ATOM      2  C   UNL     1       1.756   0.752  -1.179  1.00  0.00     0.117 C 
BRANCH   2   3
ATOM      3  N   UNL     1       1.708   2.068  -2.093  1.00  0.00    -0.356 N 
ATOM      4  C   UNL     1       2.611   2.794  -2.794  1.00  0.00     0.229 C 
ATOM      5  O   UNL     1       2.179   3.824  -3.328  1.00  0.00    -0.275 OA
ATOM      6  H   UNL     1       0.798   2.439  -2.162  1.00  0.00     0.163 HD
BRANCH   4   7
ATOM      7  C   UNL     1       4.084   2.441  -2.948  1.00  0.00     0.142 C 
ATOM      8  N   UNL     1       5.427   1.330  -1.280  1.00  0.00    -0.328 N 
ATOM      9  C   UNL     1       5.256   0.389  -2.387  1.00  0.00     0.263 C 
ATOM     10  C   UNL     1       4.936   2.649  -1.698  1.00  0.00     0.193 C 
ATOM     11  H   UNL     1       6.426   1.401  -1.085  1.00  0.00     0.348 HD
ATOM     12  C   UNL     1       4.357   1.031  -3.436  1.00  0.00     0.081 C 
ATOM     13  C   UNL     1       6.146   3.545  -1.976  1.00  0.00     0.076 C 
BRANCH   8  14
ATOM     14  C   UNL     1       4.928   0.874   0.022  1.00  0.00     0.299 C 
BRANCH  14  15
ATOM     15  C   UNL     1       3.430   0.729   0.099  1.00  0.00     0.007 A 
ATOM     16  C   UNL     1       0.263  -2.395  -0.431  1.00  0.00     0.045 C 
ATOM     17  C   UNL     1       0.892  -1.037  -0.393  1.00  0.00    -0.036 A 
ATOM     18  C   UNL     1       2.680  -0.893  -0.182  1.00  0.00     0.014 A 
ATOM     19  C   UNL     1      -0.140   0.444  -0.348  1.00  0.00     0.020 A 
ATOM     20  C   UNL     1       0.589   2.055  -0.014  1.00  0.00     0.016 A 
ATOM     21  Br  UNL     1      -1.984   0.344  -0.765  1.00  0.00    -0.051 Br
ATOM     22  C   UNL     1       2.374   2.199   0.228  1.00  0.00     0.011 A 
ENDBRANCH  14  15
ENDBRANCH   8  14
ENDBRANCH   4   7
ENDBRANCH   2   3
ENDBRANCH   1   2
BRANCH   1  23
ATOM     23  C   UNL     1       0.353   0.881   2.147  1.00  0.00     0.118 C 
BRANCH  23  24
ATOM     24  N   UNL     1      -0.792  -0.018   2.270  1.00  0.00    -0.352 N 
ATOM     25  C   UNL     1      -1.323  -0.597   3.383  1.00  0.00     0.251 C 
ATOM     26  H   UNL     1      -1.246  -0.238   1.425  1.00  0.00     0.163 HD
ATOM     27  O   UNL     1      -2.128  -1.516   3.285  1.00  0.00    -0.269 OA
BRANCH  25  28
ATOM     28  C   UNL     1      -0.928  -0.086   4.701  1.00  0.00     0.039 A 
ATOM     29  C   UNL     1      -0.724  -0.996   5.736  1.00  0.00     0.014 A 
ATOM     30  C   UNL     1      -0.803   1.292   4.910  1.00  0.00     0.014 A 
ATOM     31  C   UNL     1      -0.407  -0.513   6.997  1.00  0.00     0.010 A 
ATOM     32  C   UNL     1      -0.376   1.764   6.136  1.00  0.00     0.010 A 
ATOM     33  C   UNL     1      -0.235   0.867   7.198  1.00  0.00    -0.014 A 
BRANCH  33  34
ATOM     34  C   UNL     1       0.004   1.390   8.553  1.00  0.00     0.031 A 
ATOM     35  C   UNL     1      -1.052   2.229   9.212  1.00  0.00     0.074 A 
ATOM     36  C   UNL     1       1.164   1.091   9.161  1.00  0.00     0.049 A 
ATOM     37  N   UNL     1      -1.069   2.732  10.417  1.00  0.00    -0.248 NA
ATOM     38  C   UNL     1      -2.234   2.578   8.403  1.00  0.00     0.031 C 
ATOM     39  C   UNL     1       2.263   0.334   8.554  1.00  0.00     0.029 A 
ATOM     40  N   UNL     1       1.604   1.368  10.424  1.00  0.00    -0.354 N 
ATOM     41  C   UNL     1      -2.252   3.455  10.503  1.00  0.00     0.074 A 
ATOM     42  C   UNL     1      -2.890   3.394   9.210  1.00  0.00     0.031 C 
ATOM     43  C   UNL     1       3.229   0.159   9.468  1.00  0.00     0.029 A 
ATOM     44  C   UNL     1       2.829   0.817  10.706  1.00  0.00     0.049 A 
ATOM     45  H   UNL     1       1.093   1.909  11.068  1.00  0.00     0.167 HD
ATOM     46  C   UNL     1      -2.773   4.083  11.582  1.00  0.00     0.037 A 
ATOM     47  C   UNL     1       3.532   0.834  11.851  1.00  0.00     0.037 A 
ATOM     48  C   UNL     1      -2.122   4.103  12.864  1.00  0.00     0.049 A 
ATOM     49  C   UNL     1       2.920   1.516  13.042  1.00  0.00     0.074 A 
ATOM     50  C   UNL     1      -2.560   4.661  14.050  1.00  0.00     0.029 A 
ATOM     51  N   UNL     1      -0.883   3.529  13.120  1.00  0.00    -0.354 N 
ATOM     52  N   UNL     1       1.766   2.135  13.138  1.00  0.00    -0.248 NA
ATOM     53  C   UNL     1       3.698   1.492  14.285  1.00  0.00     0.031 C 
ATOM     54  C   UNL     1      -1.562   4.468  15.011  1.00  0.00     0.029 A 
ATOM     55  C   UNL     1      -0.529   3.739  14.440  1.00  0.00     0.049 A 
ATOM     56  H   UNL     1      -0.337   3.045  12.459  1.00  0.00     0.167 HD
ATOM     57  C   UNL     1       1.668   2.558  14.455  1.00  0.00     0.074 A 
ATOM     58  C   UNL     1       2.870   2.097  15.125  1.00  0.00     0.031 C 
ATOM     59  C   UNL     1       0.683   3.266  15.062  1.00  0.00     0.037 A 
BRANCH  46  60
ATOM     60  C   UNL     1      -4.090   4.785  11.411  1.00  0.00     0.057 A 
ATOM     61  C   UNL     1      -5.282   4.084  11.172  1.00  0.00     0.134 A 
ATOM     62  C   UNL     1      -4.172   6.180  11.488  1.00  0.00     0.134 A 
ATOM     63  F   UNL     1      -5.275   2.746  11.066  1.00  0.00    -0.206 F 
ATOM     64  C   UNL     1      -6.497   4.746  10.984  1.00  0.00     0.040 A 
ATOM     65  C   UNL     1      -5.387   6.852  11.332  1.00  0.00     0.040 A 
ATOM     66  F   UNL     1      -3.074   6.917  11.712  1.00  0.00    -0.206 F 
ATOM     67  C   UNL     1      -6.553   6.135  11.072  1.00  0.00     0.006 A 
ENDBRANCH  46  60
BRANCH  47  68
ATOM     68  C   UNL     1       4.847   0.151  11.926  1.00  0.00     0.057 A 
ATOM     69  C   UNL     1       5.026  -1.001  12.700  1.00  0.00     0.134 A 
ATOM     70  C   UNL     1       5.954   0.620  11.207  1.00  0.00     0.134 A 
ATOM     71  F   UNL     1       4.007  -1.499  13.416  1.00  0.00    -0.206 F 
ATOM     72  C   UNL     1       6.261  -1.648  12.776  1.00  0.00     0.040 A 
ATOM     73  C   UNL     1       7.187  -0.032  11.251  1.00  0.00     0.040 A 
ATOM     74  F   UNL     1       5.845   1.709  10.431  1.00  0.00    -0.206 F 
ATOM     75  C   UNL     1       7.345  -1.166  12.045  1.00  0.00     0.006 A 
ENDBRANCH  47  68
BRANCH  59  76
ATOM     76  C   UNL     1       0.871   3.559  16.521  1.00  0.00     0.057 A 
ATOM     77  C   UNL     1       1.833   4.471  16.972  1.00  0.00     0.134 A 
ATOM     78  C   UNL     1       0.061   2.938  17.480  1.00  0.00     0.134 A 
ATOM     79  F   UNL     1       2.646   5.090  16.102  1.00  0.00    -0.206 F 
ATOM     80  C   UNL     1       2.008   4.728  18.332  1.00  0.00     0.040 A 
ATOM     81  C   UNL     1       0.205   3.213  18.839  1.00  0.00     0.040 A 
ATOM     82  F   UNL     1      -0.888   2.065  17.110  1.00  0.00    -0.206 F 
ATOM     83  C   UNL     1       1.188   4.102  19.269  1.00  0.00     0.006 A 
ENDBRANCH  59  76
ENDBRANCH  33  34
ENDBRANCH  25  28
ENDBRANCH  23  24
ENDBRANCH   1  23
TORSDOF 12
