REMARK SMILES O=C(NCCCNC(=O)[C@@H]1CCCC[C@H]1C(=O)N[C@@H]1CONC1=O)c1ccc(-c2c3nc(c(-c4c(F)cccc4F)c4ccc([nH]4)c(-c4c(F)cccc4F)c4nc(c(-c5c(F)cccc5F)c5ccc2[nH]5)C=C4)C=C3)cc1
REMARK SMILES IDX 5 1 4 2 3 3 1 4 2 5 25 7 26 8 78 9 27 10 77 11 28 12 29 13
REMARK SMILES IDX 30 14 71 15 31 16 76 17 70 18 72 19 32 20 75 21 69 22 68 23
REMARK SMILES IDX 33 25 59 26 42 27 58 28 43 29 46 30 57 31 73 32 44 33 45 34
REMARK SMILES IDX 56 36 74 37 47 38 34 39 35 40 40 41 36 42 37 43 39 44 41 45
REMARK SMILES IDX 38 46 60 47 61 48 66 49 62 50 63 51 65 52 67 53 64 54 48 55
REMARK SMILES IDX 49 56 54 57 50 58 51 59 53 60 55 61 52 62 6 63 7 64 8 65
REMARK SMILES IDX 9 67 10 68 11 69 15 70 12 71 14 72 13 73 16 74 17 75 18 76
REMARK SMILES IDX 19 78 20 79 23 80 21 81 22 82 24 83
REMARK H PARENT 3 6 72 24 46 35 7 66 18 77 22 84
REMARK Flexibility Score: inf
ROOT
ATOM      1  C   UNL     1       4.597  -2.356  -0.839  1.00  0.00     0.042 C 
ENDROOT
BRANCH   1   2
ATOM      2  C   UNL     1       4.393  -0.874  -1.103  1.00  0.00     0.118 C 
BRANCH   2   3
ATOM      3  N   UNL     1       2.978  -0.501  -1.056  1.00  0.00    -0.352 N 
ATOM      4  O   UNL     1       1.065   0.293  -0.175  1.00  0.00    -0.269 OA
ATOM      5  C   UNL     1       2.292   0.299  -0.178  1.00  0.00     0.251 C 
ATOM      6  H   UNL     1       2.428  -0.888  -1.775  1.00  0.00     0.163 HD
BRANCH   5   7
ATOM      7  C   UNL     1       3.029   1.161   0.766  1.00  0.00     0.039 A 
ATOM      8  C   UNL     1       4.206   1.790   0.366  1.00  0.00     0.014 A 
ATOM      9  C   UNL     1       2.534   1.355   2.059  1.00  0.00     0.014 A 
ATOM     10  C   UNL     1       4.991   2.438   1.304  1.00  0.00     0.010 A 
ATOM     11  C   UNL     1       3.262   2.127   2.968  1.00  0.00     0.010 A 
ATOM     12  C   UNL     1       4.518   2.638   2.609  1.00  0.00    -0.014 A 
BRANCH  12  13
ATOM     13  C   UNL     1       5.349   3.428   3.550  1.00  0.00     0.031 A 
ATOM     14  C   UNL     1       5.873   2.821   4.821  1.00  0.00     0.074 A 
ATOM     15  C   UNL     1       5.674   4.691   3.211  1.00  0.00     0.049 A 
ATOM     16  N   UNL     1       6.645   3.360   5.731  1.00  0.00    -0.248 NA
ATOM     17  C   UNL     1       5.471   1.438   5.120  1.00  0.00     0.031 C 
ATOM     18  C   UNL     1       5.217   5.383   2.001  1.00  0.00     0.029 A 
ATOM     19  N   UNL     1       6.486   5.607   3.826  1.00  0.00    -0.354 N 
ATOM     20  C   UNL     1       6.798   2.397   6.720  1.00  0.00     0.074 A 
ATOM     21  C   UNL     1       6.015   1.250   6.315  1.00  0.00     0.031 C 
ATOM     22  C   UNL     1       5.810   6.581   1.927  1.00  0.00     0.029 A 
ATOM     23  C   UNL     1       6.620   6.778   3.121  1.00  0.00     0.049 A 
ATOM     24  H   UNL     1       6.930   5.442   4.689  1.00  0.00     0.167 HD
ATOM     25  C   UNL     1       7.531   2.464   7.858  1.00  0.00     0.037 A 
ATOM     26  C   UNL     1       7.306   7.897   3.411  1.00  0.00     0.037 A 
ATOM     27  C   UNL     1       8.321   3.608   8.240  1.00  0.00     0.049 A 
ATOM     28  C   UNL     1       8.087   7.950   4.690  1.00  0.00     0.074 A 
ATOM     29  C   UNL     1       9.127   3.765   9.354  1.00  0.00     0.029 A 
ATOM     30  N   UNL     1       8.401   4.792   7.519  1.00  0.00    -0.354 N 
ATOM     31  N   UNL     1       8.246   7.022   5.602  1.00  0.00    -0.248 NA
ATOM     32  C   UNL     1       8.783   9.209   4.982  1.00  0.00     0.031 C 
ATOM     33  C   UNL     1       9.646   5.064   9.338  1.00  0.00     0.029 A 
ATOM     34  C   UNL     1       9.221   5.693   8.179  1.00  0.00     0.049 A 
ATOM     35  H   UNL     1       7.942   4.965   6.666  1.00  0.00     0.167 HD
ATOM     36  C   UNL     1       9.086   7.571   6.560  1.00  0.00     0.074 A 
ATOM     37  C   UNL     1       9.414   8.908   6.107  1.00  0.00     0.031 C 
ATOM     38  C   UNL     1       9.545   7.018   7.709  1.00  0.00     0.037 A 
BRANCH  25  39
ATOM     39  C   UNL     1       7.486   1.284   8.788  1.00  0.00     0.057 A 
ATOM     40  C   UNL     1       8.070   0.052   8.466  1.00  0.00     0.134 A 
ATOM     41  C   UNL     1       6.873   1.394  10.044  1.00  0.00     0.134 A 
ATOM     42  F   UNL     1       8.666  -0.128   7.277  1.00  0.00    -0.206 F 
ATOM     43  C   UNL     1       8.022  -1.033   9.344  1.00  0.00     0.040 A 
ATOM     44  C   UNL     1       6.845   0.326  10.943  1.00  0.00     0.040 A 
ATOM     45  F   UNL     1       6.299   2.546  10.424  1.00  0.00    -0.206 F 
ATOM     46  C   UNL     1       7.414  -0.895  10.590  1.00  0.00     0.006 A 
ENDBRANCH  25  39
BRANCH  26  47
ATOM     47  C   UNL     1       7.279   9.050   2.476  1.00  0.00     0.057 A 
ATOM     48  C   UNL     1       8.430   9.453   1.790  1.00  0.00     0.134 A 
ATOM     49  C   UNL     1       6.104   9.776   2.245  1.00  0.00     0.134 A 
ATOM     50  F   UNL     1       9.590   8.806   1.977  1.00  0.00    -0.206 F 
ATOM     51  C   UNL     1       8.420  10.550   0.927  1.00  0.00     0.040 A 
ATOM     52  C   UNL     1       6.071  10.854   1.361  1.00  0.00     0.040 A 
ATOM     53  F   UNL     1       4.963   9.433   2.862  1.00  0.00    -0.206 F 
ATOM     54  C   UNL     1       7.235  11.251   0.707  1.00  0.00     0.006 A 
ENDBRANCH  26  47
BRANCH  38  55
ATOM     55  C   UNL     1      10.501   7.841   8.524  1.00  0.00     0.057 A 
ATOM     56  C   UNL     1      10.098   8.994   9.210  1.00  0.00     0.134 A 
ATOM     57  C   UNL     1      11.846   7.465   8.628  1.00  0.00     0.134 A 
ATOM     58  F   UNL     1       8.827   9.419   9.139  1.00  0.00    -0.206 F 
ATOM     59  C   UNL     1      11.006   9.763   9.939  1.00  0.00     0.040 A 
ATOM     60  C   UNL     1      12.756   8.206   9.382  1.00  0.00     0.040 A 
ATOM     61  F   UNL     1      12.297   6.366   8.004  1.00  0.00    -0.206 F 
ATOM     62  C   UNL     1      12.338   9.365  10.031  1.00  0.00     0.006 A 
ENDBRANCH  38  55
ENDBRANCH  12  13
ENDBRANCH   5   7
ENDBRANCH   2   3
ENDBRANCH   1   2
BRANCH   1  63
ATOM     63  C   UNL     1       3.997  -3.225  -1.935  1.00  0.00     0.117 C 
BRANCH  63  64
ATOM     64  N   UNL     1       4.948  -3.484  -2.994  1.00  0.00    -0.356 N 
ATOM     65  C   UNL     1       5.782  -4.490  -3.314  1.00  0.00     0.223 C 
ATOM     66  H   UNL     1       4.997  -2.742  -3.640  1.00  0.00     0.163 HD
ATOM     67  O   UNL     1       6.417  -4.290  -4.362  1.00  0.00    -0.275 OA
BRANCH  65  68
ATOM     68  C   UNL     1       6.077  -5.772  -2.501  1.00  0.00     0.091 C 
ATOM     69  C   UNL     1       6.244  -6.888  -3.562  1.00  0.00     0.014 C 
ATOM     70  C   UNL     1       5.144  -6.201  -1.354  1.00  0.00     0.091 C 
ATOM     71  C   UNL     1       6.476  -8.265  -2.971  1.00  0.00     0.001 C 
ATOM     72  C   UNL     1       5.104  -7.693  -0.969  1.00  0.00     0.014 C 
ATOM     73  C   UNL     1       5.289  -8.662  -2.119  1.00  0.00     0.001 C 
BRANCH  70  74
ATOM     74  C   UNL     1       5.323  -5.434  -0.037  1.00  0.00     0.224 C 
ATOM     75  O   UNL     1       4.317  -5.066   0.581  1.00  0.00    -0.275 OA
ATOM     76  N   UNL     1       6.504  -5.192   0.576  1.00  0.00    -0.342 N 
ATOM     77  H   UNL     1       6.415  -4.587   1.347  1.00  0.00     0.164 HD
BRANCH  76  78
ATOM     78  C   UNL     1       7.883  -5.623   0.354  1.00  0.00     0.202 C 
ATOM     79  C   UNL     1       8.162  -7.085   0.659  1.00  0.00     0.228 C 
ATOM     80  C   UNL     1       8.821  -4.989   1.357  1.00  0.00     0.268 C 
ATOM     81  O   UNL     1       9.531  -7.162   1.074  1.00  0.00    -0.271 OA
ATOM     82  N   UNL     1       9.803  -5.900   1.644  1.00  0.00    -0.233 N 
ATOM     83  O   UNL     1       8.743  -3.852   1.800  1.00  0.00    -0.270 OA
ATOM     84  H   UNL     1      10.603  -5.698   2.182  1.00  0.00     0.199 HD
ENDBRANCH  76  78
ENDBRANCH  70  74
ENDBRANCH  65  68
ENDBRANCH  63  64
ENDBRANCH   1  63
TORSDOF 12
