REMARK SMILES Cc1ccc(S(=O)(=O)Nc2ccccc2/C=C/C(=O)NCCCNC(=O)c2ccc(-c3c4nc(c(-c5c(F)cccc5F)c5ccc([nH]5)c(-c5c(F)cccc5F)c5nc(c(-c6c(F)cccc6F)c6ccc3[nH]6)C=C5)C=C4)cc2)cc1
REMARK SMILES IDX 21 1 20 2 18 3 19 4 17 6 16 7 15 8 10 9 11 10 12 11 14 12
REMARK SMILES IDX 13 13 9 14 6 16 7 17 8 18 5 19 1 20 2 21 3 22 82 23 4 24
REMARK SMILES IDX 81 25 22 26 23 27 24 28 25 29 26 31 27 32 28 33 80 34 29 35
REMARK SMILES IDX 79 36 30 37 31 38 32 39 73 40 33 41 78 42 72 43 74 44 34 45
REMARK SMILES IDX 77 46 71 47 70 48 35 50 61 51 44 52 60 53 45 54 48 55 59 56
REMARK SMILES IDX 75 57 46 58 47 59 58 61 76 62 49 63 36 64 37 65 42 66 38 67
REMARK SMILES IDX 39 68 41 69 43 70 40 71 62 72 63 73 68 74 64 75 65 76 67 77
REMARK SMILES IDX 69 78 66 79 50 80 51 81 56 82 52 83 53 84 55 85 57 86 54 87
REMARK H PARENT 20 5 9 15 24 30 74 49 48 60
REMARK Flexibility Score: inf
ROOT
ATOM      1  C   UNL     1      -0.625   0.861  -4.430  1.00  0.00     0.118 C 
ENDROOT
BRANCH   1   2
ATOM      2  N   UNL     1      -1.588  -0.182  -4.126  1.00  0.00    -0.352 N 
ATOM      3  C   UNL     1      -2.753  -0.103  -3.428  1.00  0.00     0.244 C 
ATOM      4  O   UNL     1      -3.524  -1.057  -3.402  1.00  0.00    -0.270 OA
ATOM      5  H   UNL     1      -1.367  -1.075  -4.475  1.00  0.00     0.163 HD
BRANCH   3   6
ATOM      6  C   UNL     1      -3.122   1.142  -2.717  1.00  0.00     0.072 C 
ATOM      7  C   UNL     1      -2.252   1.785  -1.928  1.00  0.00     0.016 C 
BRANCH   7   8
ATOM      8  C   UNL     1      -2.572   2.874  -1.001  1.00  0.00    -0.001 A 
ATOM      9  C   UNL     1      -3.477   2.705   0.066  1.00  0.00     0.056 A 
ATOM     10  C   UNL     1      -3.613   3.706   1.030  1.00  0.00     0.027 A 
ATOM     11  C   UNL     1      -2.850   4.874   0.940  1.00  0.00     0.002 A 
ATOM     12  C   UNL     1      -1.798   4.042  -1.069  1.00  0.00     0.010 A 
ATOM     13  C   UNL     1      -1.940   5.039  -0.104  1.00  0.00     0.001 A 
BRANCH   9  14
ATOM     14  N   UNL     1      -4.177   1.474   0.233  1.00  0.00    -0.279 N 
ATOM     15  H   UNL     1      -5.048   1.351  -0.210  1.00  0.00     0.180 HD
BRANCH  14  16
ATOM     16  S   UNL     1      -3.543   0.222   1.176  1.00  0.00     0.261 S 
ATOM     17  O   UNL     1      -4.189  -0.974   0.664  1.00  0.00    -0.201 OA
ATOM     18  O   UNL     1      -3.657   0.588   2.568  1.00  0.00    -0.201 OA
BRANCH  16  19
ATOM     19  C   UNL     1      -1.801   0.079   0.813  1.00  0.00     0.087 A 
ATOM     20  C   UNL     1       2.432  -0.238   0.062  1.00  0.00     0.044 C 
ATOM     21  C   UNL     1       0.955  -0.127   0.308  1.00  0.00    -0.051 A 
ATOM     22  C   UNL     1       0.091  -1.183  -0.017  1.00  0.00     0.005 A 
ATOM     23  C   UNL     1       0.432   1.010   0.933  1.00  0.00     0.005 A 
ATOM     24  C   UNL     1      -1.287  -1.076   0.214  1.00  0.00     0.022 A 
ATOM     25  C   UNL     1      -0.932   1.098   1.215  1.00  0.00     0.022 A 
ENDBRANCH  16  19
ENDBRANCH  14  16
ENDBRANCH   9  14
ENDBRANCH   7   8
ENDBRANCH   3   6
ENDBRANCH   1   2
BRANCH   1  26
ATOM     26  C   UNL     1       0.638   0.718  -3.589  1.00  0.00     0.042 C 
BRANCH  26  27
ATOM     27  C   UNL     1       1.673  -0.154  -4.266  1.00  0.00     0.118 C 
BRANCH  27  28
ATOM     28  N   UNL     1       2.396   0.538  -5.329  1.00  0.00    -0.352 N 
ATOM     29  C   UNL     1       3.432   0.124  -6.144  1.00  0.00     0.251 C 
ATOM     30  H   UNL     1       2.093   1.460  -5.495  1.00  0.00     0.163 HD
ATOM     31  O   UNL     1       3.916   0.920  -6.944  1.00  0.00    -0.269 OA
BRANCH  29  32
ATOM     32  C   UNL     1       3.815  -1.309  -6.208  1.00  0.00     0.039 A 
ATOM     33  C   UNL     1       4.066  -1.825  -7.489  1.00  0.00     0.014 A 
ATOM     34  C   UNL     1       3.484  -2.159  -5.168  1.00  0.00     0.014 A 
ATOM     35  C   UNL     1       3.627  -3.103  -7.793  1.00  0.00     0.010 A 
ATOM     36  C   UNL     1       2.859  -3.328  -5.501  1.00  0.00     0.010 A 
ATOM     37  C   UNL     1       2.888  -3.767  -6.827  1.00  0.00    -0.014 A 
BRANCH  37  38
ATOM     38  C   UNL     1       2.197  -5.019  -7.023  1.00  0.00     0.031 A 
ATOM     39  C   UNL     1       2.894  -6.219  -6.536  1.00  0.00     0.074 A 
ATOM     40  C   UNL     1       0.896  -4.986  -7.382  1.00  0.00     0.049 A 
ATOM     41  N   UNL     1       2.519  -7.421  -6.760  1.00  0.00    -0.248 NA
ATOM     42  C   UNL     1       4.127  -6.143  -5.754  1.00  0.00     0.031 C 
ATOM     43  C   UNL     1      -0.101  -6.043  -7.256  1.00  0.00     0.029 A 
ATOM     44  N   UNL     1       0.254  -3.998  -8.141  1.00  0.00    -0.354 N 
ATOM     45  C   UNL     1       3.257  -8.252  -5.945  1.00  0.00     0.074 A 
ATOM     46  C   UNL     1       4.294  -7.417  -5.399  1.00  0.00     0.031 C 
ATOM     47  C   UNL     1      -1.089  -5.814  -8.140  1.00  0.00     0.029 A 
ATOM     48  C   UNL     1      -0.667  -4.691  -8.961  1.00  0.00     0.049 A 
ATOM     49  H   UNL     1       0.412  -3.026  -8.111  1.00  0.00     0.167 HD
ATOM     50  C   UNL     1       2.792  -9.517  -5.750  1.00  0.00     0.037 A 
ATOM     51  C   UNL     1      -0.469  -4.756 -10.312  1.00  0.00     0.037 A 
ATOM     52  C   UNL     1       1.669  -9.758  -6.660  1.00  0.00     0.049 A 
ATOM     53  C   UNL     1      -0.222  -6.171 -10.781  1.00  0.00     0.074 A 
ATOM     54  C   UNL     1       0.297  -9.657  -6.498  1.00  0.00     0.029 A 
ATOM     55  N   UNL     1       1.908  -9.748  -8.031  1.00  0.00    -0.354 N 
ATOM     56  N   UNL     1       0.312  -7.106 -10.039  1.00  0.00    -0.248 NA
ATOM     57  C   UNL     1      -0.629  -6.659 -12.094  1.00  0.00     0.031 C 
ATOM     58  C   UNL     1      -0.279  -9.493  -7.787  1.00  0.00     0.029 A 
ATOM     59  C   UNL     1       0.737  -9.528  -8.729  1.00  0.00     0.049 A 
ATOM     60  H   UNL     1       2.791  -9.880  -8.447  1.00  0.00     0.167 HD
ATOM     61  C   UNL     1       0.293  -8.295 -10.724  1.00  0.00     0.074 A 
ATOM     62  C   UNL     1      -0.299  -7.959 -12.007  1.00  0.00     0.031 C 
ATOM     63  C   UNL     1       0.734  -9.472 -10.184  1.00  0.00     0.037 A 
BRANCH  50  64
ATOM     64  C   UNL     1       3.150 -10.430  -4.598  1.00  0.00     0.057 A 
ATOM     65  C   UNL     1       2.289 -11.495  -4.256  1.00  0.00     0.134 A 
ATOM     66  C   UNL     1       4.259 -10.301  -3.742  1.00  0.00     0.134 A 
ATOM     67  F   UNL     1       1.215 -11.798  -4.998  1.00  0.00    -0.206 F 
ATOM     68  C   UNL     1       2.477 -12.305  -3.128  1.00  0.00     0.040 A 
ATOM     69  C   UNL     1       4.446 -11.088  -2.595  1.00  0.00     0.040 A 
ATOM     70  F   UNL     1       5.250  -9.440  -3.976  1.00  0.00    -0.206 F 
ATOM     71  C   UNL     1       3.548 -12.091  -2.278  1.00  0.00     0.006 A 
ENDBRANCH  50  64
BRANCH  51  72
ATOM     72  C   UNL     1       0.173  -3.515 -10.839  1.00  0.00     0.057 A 
ATOM     73  C   UNL     1      -0.557  -2.315 -10.720  1.00  0.00     0.134 A 
ATOM     74  C   UNL     1       1.562  -3.400 -10.953  1.00  0.00     0.134 A 
ATOM     75  F   UNL     1      -1.897  -2.350 -10.637  1.00  0.00    -0.206 F 
ATOM     76  C   UNL     1       0.073  -1.083 -10.524  1.00  0.00     0.040 A 
ATOM     77  C   UNL     1       2.201  -2.162 -10.787  1.00  0.00     0.040 A 
ATOM     78  F   UNL     1       2.332  -4.490 -11.079  1.00  0.00    -0.206 F 
ATOM     79  C   UNL     1       1.461  -1.014 -10.507  1.00  0.00     0.006 A 
ENDBRANCH  51  72
BRANCH  63  80
ATOM     80  C   UNL     1       1.099 -10.720 -10.960  1.00  0.00     0.057 A 
ATOM     81  C   UNL     1       1.433 -10.732 -12.323  1.00  0.00     0.134 A 
ATOM     82  C   UNL     1       1.291 -11.957 -10.297  1.00  0.00     0.134 A 
ATOM     83  F   UNL     1       1.435  -9.614 -13.061  1.00  0.00    -0.206 F 
ATOM     84  C   UNL     1       1.847 -11.893 -12.990  1.00  0.00     0.040 A 
ATOM     85  C   UNL     1       1.773 -13.102 -10.937  1.00  0.00     0.040 A 
ATOM     86  F   UNL     1       1.054 -12.109  -8.986  1.00  0.00    -0.206 F 
ATOM     87  C   UNL     1       2.032 -13.080 -12.296  1.00  0.00     0.006 A 
ENDBRANCH  63  80
ENDBRANCH  37  38
ENDBRANCH  29  32
ENDBRANCH  27  28
ENDBRANCH  26  27
ENDBRANCH   1  26
TORSDOF 14
