REMARK SMILES O=C(NCCCNC(=O)[C@H](CO)NC(=O)[C@H](Cc1c[nH]c2ccccc12)NC(=O)c1ccc(F)cc1)c1ccc(-c2c3nc(c(-c4c(F)cccc4F)c4ccc([nH]4)c(-c4c(F)cccc4F)c4nc(c(-c5c(F)cccc5F)c5ccc2[nH]5)C=C4)C=C3)cc1
REMARK SMILES IDX 6 1 5 2 4 3 3 4 1 5 2 6 37 8 38 9 90 10 39 11 89 12 40 13
REMARK SMILES IDX 41 14 42 15 83 16 43 17 88 18 82 19 84 20 44 21 87 22 81 23
REMARK SMILES IDX 80 24 45 26 71 27 54 28 70 29 55 30 58 31 69 32 85 33 56 34
REMARK SMILES IDX 57 35 68 37 86 38 59 39 46 40 47 41 52 42 48 43 49 44 51 45
REMARK SMILES IDX 53 46 50 47 72 48 73 49 78 50 74 51 75 52 77 53 79 54 76 55
REMARK SMILES IDX 60 56 61 57 66 58 62 59 63 60 65 61 67 62 64 63 7 64 8 65
REMARK SMILES IDX 9 67 10 68 13 69 14 70 15 72 16 73 27 74 28 75 29 77 30 78
REMARK SMILES IDX 31 79 36 80 32 81 35 82 33 83 34 84 17 85 18 86 19 87 26 88
REMARK SMILES IDX 20 89 21 90 25 91 22 93 24 94 23 95 11 96 12 97
REMARK H PARENT 3 7 84 25 58 36 7 66 13 71 27 76 20 92 12 98
REMARK Flexibility Score: inf
ROOT
ATOM      1  C   UNL     1       7.916   1.796  13.860  1.00  0.00     0.117 C 
ENDROOT
BRANCH   1   2
ATOM      2  C   UNL     1       8.428   0.427  14.286  1.00  0.00     0.042 C 
BRANCH   2   3
ATOM      3  C   UNL     1       9.932   0.423  14.516  1.00  0.00     0.118 C 
BRANCH   3   4
ATOM      4  N   UNL     1      10.276   0.987  15.811  1.00  0.00    -0.352 N 
ATOM      5  O   UNL     1      10.621   0.947  18.037  1.00  0.00    -0.269 OA
ATOM      6  C   UNL     1      10.640   0.340  16.963  1.00  0.00     0.251 C 
ATOM      7  H   UNL     1      10.242   1.969  15.868  1.00  0.00     0.163 HD
BRANCH   6   8
ATOM      8  C   UNL     1      11.047  -1.080  16.926  1.00  0.00     0.039 A 
ATOM      9  C   UNL     1      11.851  -1.561  15.890  1.00  0.00     0.014 A 
ATOM     10  C   UNL     1      10.661  -1.935  17.962  1.00  0.00     0.014 A 
ATOM     11  C   UNL     1      12.146  -2.915  15.810  1.00  0.00     0.010 A 
ATOM     12  C   UNL     1      11.059  -3.275  17.942  1.00  0.00     0.010 A 
ATOM     13  C   UNL     1      11.793  -3.779  16.858  1.00  0.00    -0.014 A 
BRANCH  13  14
ATOM     14  C   UNL     1      12.306  -5.171  16.846  1.00  0.00     0.031 A 
ATOM     15  C   UNL     1      11.379  -6.349  16.796  1.00  0.00     0.074 A 
ATOM     16  C   UNL     1      13.642  -5.356  16.862  1.00  0.00     0.049 A 
ATOM     17  N   UNL     1      11.674  -7.624  16.789  1.00  0.00    -0.248 NA
ATOM     18  C   UNL     1       9.936  -6.067  16.757  1.00  0.00     0.031 C 
ATOM     19  C   UNL     1      14.638  -4.281  16.916  1.00  0.00     0.029 A 
ATOM     20  N   UNL     1      14.395  -6.500  16.816  1.00  0.00    -0.354 N 
ATOM     21  C   UNL     1      10.460  -8.296  16.759  1.00  0.00     0.074 A 
ATOM     22  C   UNL     1       9.420  -7.289  16.777  1.00  0.00     0.031 C 
ATOM     23  C   UNL     1      15.865  -4.812  16.842  1.00  0.00     0.029 A 
ATOM     24  C   UNL     1      15.749  -6.264  16.819  1.00  0.00     0.049 A 
ATOM     25  H   UNL     1      14.004  -7.403  16.783  1.00  0.00     0.167 HD
ATOM     26  C   UNL     1      10.240  -9.632  16.710  1.00  0.00     0.037 A 
ATOM     27  C   UNL     1      16.788  -7.119  16.828  1.00  0.00     0.037 A 
ATOM     28  C   UNL     1      11.287 -10.623  16.681  1.00  0.00     0.049 A 
ATOM     29  C   UNL     1      16.513  -8.593  16.821  1.00  0.00     0.074 A 
ATOM     30  C   UNL     1      11.163 -11.999  16.603  1.00  0.00     0.029 A 
ATOM     31  N   UNL     1      12.645 -10.346  16.732  1.00  0.00    -0.354 N 
ATOM     32  N   UNL     1      15.359  -9.213  16.771  1.00  0.00    -0.248 NA
ATOM     33  C   UNL     1      17.677  -9.485  16.880  1.00  0.00     0.031 C 
ATOM     34  C   UNL     1      12.443 -12.557  16.664  1.00  0.00     0.029 A 
ATOM     35  C   UNL     1      13.369 -11.527  16.717  1.00  0.00     0.049 A 
ATOM     36  H   UNL     1      13.037  -9.444  16.774  1.00  0.00     0.167 HD
ATOM     37  C   UNL     1      15.656 -10.568  16.777  1.00  0.00     0.074 A 
ATOM     38  C   UNL     1      17.101 -10.678  16.817  1.00  0.00     0.031 C 
ATOM     39  C   UNL     1      14.807 -11.623  16.755  1.00  0.00     0.037 A 
BRANCH  26  40
ATOM     40  C   UNL     1       8.818 -10.114  16.695  1.00  0.00     0.057 A 
ATOM     41  C   UNL     1       8.291 -10.816  17.789  1.00  0.00     0.134 A 
ATOM     42  C   UNL     1       7.998  -9.966  15.570  1.00  0.00     0.134 A 
ATOM     43  F   UNL     1       9.025 -11.002  18.896  1.00  0.00    -0.206 F 
ATOM     44  C   UNL     1       7.009 -11.367  17.756  1.00  0.00     0.040 A 
ATOM     45  C   UNL     1       6.703 -10.490  15.535  1.00  0.00     0.040 A 
ATOM     46  F   UNL     1       8.435  -9.297  14.493  1.00  0.00    -0.206 F 
ATOM     47  C   UNL     1       6.210 -11.203  16.627  1.00  0.00     0.006 A 
ENDBRANCH  26  40
BRANCH  27  48
ATOM     48  C   UNL     1      18.173  -6.586  16.847  1.00  0.00     0.057 A 
ATOM     49  C   UNL     1      18.672  -5.889  17.956  1.00  0.00     0.134 A 
ATOM     50  C   UNL     1      19.013  -6.715  15.736  1.00  0.00     0.134 A 
ATOM     51  F   UNL     1      17.912  -5.721  19.049  1.00  0.00    -0.206 F 
ATOM     52  C   UNL     1      19.944  -5.317  17.949  1.00  0.00     0.040 A 
ATOM     53  C   UNL     1      20.299  -6.173  15.727  1.00  0.00     0.040 A 
ATOM     54  F   UNL     1      18.597  -7.382  14.650  1.00  0.00    -0.206 F 
ATOM     55  C   UNL     1      20.764  -5.462  16.832  1.00  0.00     0.006 A 
ENDBRANCH  27  48
BRANCH  39  56
ATOM     56  C   UNL     1      15.411 -12.996  16.751  1.00  0.00     0.057 A 
ATOM     57  C   UNL     1      15.323 -13.809  15.614  1.00  0.00     0.134 A 
ATOM     58  C   UNL     1      16.010 -13.541  17.893  1.00  0.00     0.134 A 
ATOM     59  F   UNL     1      14.753 -13.350  14.490  1.00  0.00    -0.206 F 
ATOM     60  C   UNL     1      15.793 -15.123  15.618  1.00  0.00     0.040 A 
ATOM     61  C   UNL     1      16.510 -14.844  17.901  1.00  0.00     0.040 A 
ATOM     62  F   UNL     1      16.137 -12.809  19.010  1.00  0.00    -0.206 F 
ATOM     63  C   UNL     1      16.391 -15.643  16.764  1.00  0.00     0.006 A 
ENDBRANCH  39  56
ENDBRANCH  13  14
ENDBRANCH   6   8
ENDBRANCH   3   4
ENDBRANCH   2   3
ENDBRANCH   1   2
BRANCH   1  64
ATOM     64  N   UNL     1       8.341   2.074  12.505  1.00  0.00    -0.354 N 
ATOM     65  C   UNL     1       7.862   1.578  11.331  1.00  0.00     0.244 C 
ATOM     66  H   UNL     1       9.084   2.714  12.419  1.00  0.00     0.163 HD
ATOM     67  O   UNL     1       8.672   1.577  10.396  1.00  0.00    -0.273 OA
BRANCH  65  68
ATOM     68  C   UNL     1       6.355   1.264  11.096  1.00  0.00     0.197 C 
BRANCH  68  69
ATOM     69  N   UNL     1       6.248   0.693   9.758  1.00  0.00    -0.340 N 
ATOM     70  C   UNL     1       6.013   1.302   8.565  1.00  0.00     0.243 C 
ATOM     71  H   UNL     1       6.364  -0.284   9.712  1.00  0.00     0.164 HD
ATOM     72  O   UNL     1       5.989   0.531   7.603  1.00  0.00    -0.273 OA
BRANCH  70  73
ATOM     73  C   UNL     1       5.810   2.853   8.450  1.00  0.00     0.176 C 
BRANCH  73  74
ATOM     74  N   UNL     1       7.075   3.620   8.392  1.00  0.00    -0.340 N 
ATOM     75  C   UNL     1       7.397   4.900   8.788  1.00  0.00     0.251 C 
ATOM     76  H   UNL     1       7.827   3.123   7.995  1.00  0.00     0.164 HD
ATOM     77  O   UNL     1       8.289   5.508   8.200  1.00  0.00    -0.269 OA
BRANCH  75  78
ATOM     78  C   UNL     1       6.770   5.559   9.966  1.00  0.00     0.040 A 
ATOM     79  C   UNL     1       6.557   4.836  11.136  1.00  0.00     0.017 A 
ATOM     80  C   UNL     1       6.595   6.947  10.011  1.00  0.00     0.017 A 
ATOM     81  C   UNL     1       6.058   5.424  12.296  1.00  0.00     0.040 A 
ATOM     82  C   UNL     1       6.129   7.561  11.185  1.00  0.00     0.040 A 
ATOM     83  C   UNL     1       5.843   6.791  12.308  1.00  0.00     0.123 A 
ATOM     84  F   UNL     1       5.400   7.374  13.428  1.00  0.00    -0.207 F 
ENDBRANCH  75  78
ENDBRANCH  73  74
BRANCH  73  85
ATOM     85  C   UNL     1       4.916   3.160   7.218  1.00  0.00     0.072 C 
BRANCH  85  86
ATOM     86  C   UNL     1       5.490   2.972   5.829  1.00  0.00    -0.020 A 
ATOM     87  C   UNL     1       6.644   2.317   5.439  1.00  0.00     0.087 A 
ATOM     88  C   UNL     1       4.868   3.425   4.612  1.00  0.00     0.003 A 
ATOM     89  N   UNL     1       6.739   2.349   4.076  1.00  0.00    -0.361 N 
ATOM     90  C   UNL     1       5.677   3.035   3.545  1.00  0.00     0.046 A 
ATOM     91  C   UNL     1       3.680   4.128   4.322  1.00  0.00     0.010 A 
ATOM     92  H   UNL     1       7.464   1.938   3.552  1.00  0.00     0.166 HD
ATOM     93  C   UNL     1       5.376   3.324   2.210  1.00  0.00     0.026 A 
ATOM     94  C   UNL     1       3.362   4.429   2.991  1.00  0.00     0.001 A 
ATOM     95  C   UNL     1       4.203   4.037   1.953  1.00  0.00     0.002 A 
ENDBRANCH  85  86
ENDBRANCH  73  85
ENDBRANCH  70  73
ENDBRANCH  68  69
BRANCH  68  96
ATOM     96  C   UNL     1       5.561   0.408  12.081  1.00  0.00     0.191 C 
BRANCH  96  97
ATOM     97  O   UNL     1       6.210  -0.796  12.445  1.00  0.00    -0.394 OA
ATOM     98  H   UNL     1       6.330  -1.350  11.658  1.00  0.00     0.210 HD
ENDBRANCH  96  97
ENDBRANCH  68  96
ENDBRANCH  65  68
ENDBRANCH   1  64
TORSDOF 18
