REMARK SMILES Cc1ccc([C@H](CC(=O)NCCCNC(=O)c2ccc(-c3c4nc(c(-c5c(F)cccc5F)c5ccc([nH]5)c(-c5c(F)cccc5F)c5nc(c(-c6c(F)cccc6F)c6ccc3[nH]6)C=C5)C=C4)cc2)NC(=O)C(F)(F)F)cc1
REMARK SMILES IDX 11 1 10 2 8 3 9 4 7 6 6 7 5 8 1 9 2 10 3 11 79 12 4 13 78 14
REMARK SMILES IDX 71 15 72 16 73 18 74 19 75 20 76 21 77 22 12 23 13 24 14 25
REMARK SMILES IDX 15 26 16 28 17 29 18 30 70 31 19 32 69 33 20 34 21 35 22 36
REMARK SMILES IDX 63 37 23 38 68 39 62 40 64 41 24 42 67 43 61 44 60 45 25 47
REMARK SMILES IDX 51 48 34 49 50 50 35 51 38 52 49 53 65 54 36 55 37 56 48 58
REMARK SMILES IDX 66 59 39 60 26 61 27 62 32 63 28 64 29 65 31 66 33 67 30 68
REMARK SMILES IDX 52 69 53 70 58 71 54 72 55 73 57 74 59 75 56 76 40 77 41 78
REMARK SMILES IDX 46 79 42 80 43 81 45 82 47 83 44 84
REMARK H PARENT 10 5 71 17 14 27 64 46 38 57
REMARK Flexibility Score: inf
ROOT
ATOM      1  C   UNL     1      -1.853   2.676  -1.272  1.00  0.00     0.117 C 
ENDROOT
BRANCH   1   2
ATOM      2  N   UNL     1      -1.507   2.377   0.112  1.00  0.00    -0.356 N 
ATOM      3  C   UNL     1      -1.457   1.184   0.775  1.00  0.00     0.222 C 
ATOM      4  O   UNL     1      -1.100   1.175   1.953  1.00  0.00    -0.275 OA
ATOM      5  H   UNL     1      -1.271   3.162   0.657  1.00  0.00     0.163 HD
BRANCH   3   6
ATOM      6  C   UNL     1      -1.857  -0.095   0.078  1.00  0.00     0.129 C 
BRANCH   6   7
ATOM      7  C   UNL     1      -3.382  -0.245   0.037  1.00  0.00     0.122 C 
BRANCH   7   8
ATOM      8  C   UNL     1      -3.803  -0.987  -1.220  1.00  0.00    -0.025 A 
ATOM      9  C   UNL     1      -4.669  -2.888  -5.006  1.00  0.00     0.044 C 
ATOM     10  C   UNL     1      -4.398  -2.248  -3.676  1.00  0.00    -0.051 A 
ATOM     11  C   UNL     1      -4.681  -0.894  -3.492  1.00  0.00     0.004 A 
ATOM     12  C   UNL     1      -3.836  -2.974  -2.621  1.00  0.00     0.004 A 
ATOM     13  C   UNL     1      -4.397  -0.275  -2.275  1.00  0.00     0.006 A 
ATOM     14  C   UNL     1      -3.536  -2.350  -1.405  1.00  0.00     0.006 A 
ENDBRANCH   7   8
BRANCH   7  15
ATOM     15  N   UNL     1      -3.916  -0.882   1.236  1.00  0.00    -0.341 N 
ATOM     16  C   UNL     1      -4.719  -0.313   2.204  1.00  0.00     0.326 C 
ATOM     17  H   UNL     1      -3.675  -1.827   1.370  1.00  0.00     0.164 HD
ATOM     18  O   UNL     1      -5.064  -1.036   3.145  1.00  0.00    -0.265 OA
BRANCH  16  19
ATOM     19  C   UNL     1      -5.171   1.162   2.065  1.00  0.00     0.471 C 
ATOM     20  F   UNL     1      -4.123   2.031   1.985  1.00  0.00    -0.162 F 
ATOM     21  F   UNL     1      -5.898   1.368   0.926  1.00  0.00    -0.162 F 
ATOM     22  F   UNL     1      -5.950   1.596   3.094  1.00  0.00    -0.162 F 
ENDBRANCH  16  19
ENDBRANCH   7  15
ENDBRANCH   6   7
ENDBRANCH   3   6
ENDBRANCH   1   2
BRANCH   1  23
ATOM     23  C   UNL     1      -3.286   3.177  -1.435  1.00  0.00     0.042 C 
BRANCH  23  24
ATOM     24  C   UNL     1      -3.526   4.583  -0.913  1.00  0.00     0.118 C 
BRANCH  24  25
ATOM     25  N   UNL     1      -3.484   5.621  -1.932  1.00  0.00    -0.352 N 
ATOM     26  C   UNL     1      -3.627   6.993  -1.801  1.00  0.00     0.251 C 
ATOM     27  H   UNL     1      -3.332   5.301  -2.850  1.00  0.00     0.163 HD
ATOM     28  O   UNL     1      -3.628   7.696  -2.799  1.00  0.00    -0.269 OA
BRANCH  26  29
ATOM     29  C   UNL     1      -3.626   7.618  -0.451  1.00  0.00     0.039 A 
ATOM     30  C   UNL     1      -2.889   8.800  -0.281  1.00  0.00     0.014 A 
ATOM     31  C   UNL     1      -4.145   6.965   0.659  1.00  0.00     0.014 A 
ATOM     32  C   UNL     1      -2.454   9.162   0.993  1.00  0.00     0.010 A 
ATOM     33  C   UNL     1      -3.619   7.247   1.901  1.00  0.00     0.010 A 
ATOM     34  C   UNL     1      -2.720   8.306   2.057  1.00  0.00    -0.014 A 
BRANCH  34  35
ATOM     35  C   UNL     1      -2.054   8.360   3.352  1.00  0.00     0.031 A 
ATOM     36  C   UNL     1      -2.808   8.749   4.561  1.00  0.00     0.074 A 
ATOM     37  C   UNL     1      -0.810   7.845   3.462  1.00  0.00     0.049 A 
ATOM     38  N   UNL     1      -2.278   8.981   5.712  1.00  0.00    -0.248 NA
ATOM     39  C   UNL     1      -4.251   8.949   4.545  1.00  0.00     0.031 C 
ATOM     40  C   UNL     1      -0.136   7.403   4.679  1.00  0.00     0.029 A 
ATOM     41  N   UNL     1       0.190   7.805   2.479  1.00  0.00    -0.354 N 
ATOM     42  C   UNL     1      -3.293   9.108   6.634  1.00  0.00     0.074 A 
ATOM     43  C   UNL     1      -4.501   9.136   5.843  1.00  0.00     0.031 C 
ATOM     44  C   UNL     1       1.188   7.412   4.468  1.00  0.00     0.029 A 
ATOM     45  C   UNL     1       1.407   8.024   3.170  1.00  0.00     0.049 A 
ATOM     46  H   UNL     1       0.071   7.657   1.513  1.00  0.00     0.167 HD
ATOM     47  C   UNL     1      -2.984   9.073   7.964  1.00  0.00     0.037 A 
ATOM     48  C   UNL     1       2.139   9.158   2.956  1.00  0.00     0.037 A 
ATOM     49  C   UNL     1      -1.534   9.065   8.164  1.00  0.00     0.049 A 
ATOM     50  C   UNL     1       2.329  10.039   4.174  1.00  0.00     0.074 A 
ATOM     51  C   UNL     1      -0.588   8.083   8.412  1.00  0.00     0.029 A 
ATOM     52  N   UNL     1      -0.824  10.202   7.831  1.00  0.00    -0.354 N 
ATOM     53  N   UNL     1       1.755   9.833   5.326  1.00  0.00    -0.248 NA
ATOM     54  C   UNL     1       3.107  11.281   4.156  1.00  0.00     0.031 C 
ATOM     55  C   UNL     1       0.702   8.645   8.184  1.00  0.00     0.029 A 
ATOM     56  C   UNL     1       0.534   9.965   7.808  1.00  0.00     0.049 A 
ATOM     57  H   UNL     1      -1.237  11.075   7.636  1.00  0.00     0.167 HD
ATOM     58  C   UNL     1       1.996  10.900   6.147  1.00  0.00     0.074 A 
ATOM     59  C   UNL     1       2.866  11.772   5.383  1.00  0.00     0.031 C 
ATOM     60  C   UNL     1       1.420  11.029   7.373  1.00  0.00     0.037 A 
BRANCH  47  61
ATOM     61  C   UNL     1      -3.965   8.859   9.099  1.00  0.00     0.057 A 
ATOM     62  C   UNL     1      -3.512   8.384  10.348  1.00  0.00     0.134 A 
ATOM     63  C   UNL     1      -5.356   9.047   9.036  1.00  0.00     0.134 A 
ATOM     64  F   UNL     1      -2.208   8.242  10.620  1.00  0.00    -0.206 F 
ATOM     65  C   UNL     1      -4.375   8.031  11.396  1.00  0.00     0.040 A 
ATOM     66  C   UNL     1      -6.236   8.656  10.057  1.00  0.00     0.040 A 
ATOM     67  F   UNL     1      -5.944   9.682   8.020  1.00  0.00    -0.206 F 
ATOM     68  C   UNL     1      -5.747   8.133  11.241  1.00  0.00     0.006 A 
ENDBRANCH  47  61
BRANCH  48  69
ATOM     69  C   UNL     1       2.013   9.664   1.565  1.00  0.00     0.057 A 
ATOM     70  C   UNL     1       2.500   8.871   0.511  1.00  0.00     0.134 A 
ATOM     71  C   UNL     1       1.102  10.673   1.240  1.00  0.00     0.134 A 
ATOM     72  F   UNL     1       3.375   7.883   0.758  1.00  0.00    -0.206 F 
ATOM     73  C   UNL     1       2.008   8.996  -0.789  1.00  0.00     0.040 A 
ATOM     74  C   UNL     1       0.615  10.817  -0.063  1.00  0.00     0.040 A 
ATOM     75  F   UNL     1       0.578  11.454   2.196  1.00  0.00    -0.206 F 
ATOM     76  C   UNL     1       1.035   9.951  -1.071  1.00  0.00     0.006 A 
ENDBRANCH  48  69
BRANCH  60  77
ATOM     77  C   UNL     1       1.653  12.208   8.260  1.00  0.00     0.057 A 
ATOM     78  C   UNL     1       2.938  12.596   8.652  1.00  0.00     0.134 A 
ATOM     79  C   UNL     1       0.581  12.896   8.855  1.00  0.00     0.134 A 
ATOM     80  F   UNL     1       4.023  11.989   8.146  1.00  0.00    -0.206 F 
ATOM     81  C   UNL     1       3.147  13.610   9.593  1.00  0.00     0.040 A 
ATOM     82  C   UNL     1       0.774  13.881   9.825  1.00  0.00     0.040 A 
ATOM     83  F   UNL     1      -0.690  12.643   8.505  1.00  0.00    -0.206 F 
ATOM     84  C   UNL     1       2.062  14.242  10.197  1.00  0.00     0.006 A 
ENDBRANCH  60  77
ENDBRANCH  34  35
ENDBRANCH  26  29
ENDBRANCH  24  25
ENDBRANCH  23  24
ENDBRANCH   1  23
TORSDOF 14
