REMARK SMILES CCCNC(=O)[C@H](C)[NH2+][C@H](C)[C@@H](C)C(=O)NCCCNC(=O)c1ccc(-c2c3nc(c(-c4c(F)cccc4F)c4ccc([nH]4)c(-c4c(F)cccc4F)c4nc(c(-c5c(F)cccc5F)c5ccc2[nH]5)C=C4)C=C3)cc1
REMARK SMILES IDX 14 1 15 2 16 3 12 5 13 6 10 7 11 8 9 9 7 12 8 13 5 14 4 15
REMARK SMILES IDX 6 17 3 18 2 19 1 20 17 21 18 22 19 23 20 24 21 25 22 27
REMARK SMILES IDX 23 28 24 29 76 30 25 31 75 32 26 33 27 34 28 35 69 36 29 37
REMARK SMILES IDX 74 38 68 39 70 40 30 41 73 42 67 43 66 44 31 46 57 47 40 48
REMARK SMILES IDX 56 49 41 50 44 51 55 52 71 53 42 54 43 55 54 57 72 58 45 59
REMARK SMILES IDX 32 60 33 61 38 62 34 63 35 64 37 65 39 66 36 67 58 68 59 69
REMARK SMILES IDX 64 70 60 71 61 72 63 73 65 74 62 75 46 76 47 77 52 78 48 79
REMARK SMILES IDX 49 80 51 81 53 82 50 83
REMARK H PARENT 16 4 9 10 9 11 4 16 20 26 70 45 44 56
REMARK Flexibility Score: inf
ROOT
ATOM      1  C   UNL     1       1.316  -5.274   7.209  1.00  0.00     0.228 C 
ATOM      2  O   UNL     1       1.846  -6.365   6.968  1.00  0.00    -0.275 OA
ATOM      3  N   UNL     1       0.496  -5.229   8.289  1.00  0.00    -0.356 N 
ATOM      4  H   UNL     1       0.403  -6.091   8.755  1.00  0.00     0.163 HD
ENDROOT
BRANCH   1   5
ATOM      5  C   UNL     1       1.641  -4.053   6.352  1.00  0.00     0.133 C 
ATOM      6  C   UNL     1       2.475  -3.068   7.183  1.00  0.00     0.024 C 
BRANCH   5   7
ATOM      7  C   UNL     1       0.413  -3.438   5.625  1.00  0.00     0.192 C 
ATOM      8  C   UNL     1       0.692  -2.026   5.072  1.00  0.00     0.076 C 
BRANCH   7   9
ATOM      9  N   UNL     1      -0.308  -4.243   4.615  1.00  0.00    -0.333 N 
ATOM     10  H   UNL     1      -1.146  -4.604   5.071  1.00  0.00     0.347 HD
ATOM     11  H   UNL     1      -0.436  -3.588   3.844  1.00  0.00     0.347 HD
BRANCH   9  12
ATOM     12  C   UNL     1       0.357  -5.400   3.969  1.00  0.00     0.269 C 
ATOM     13  C   UNL     1      -0.773  -6.223   3.362  1.00  0.00     0.086 C 
BRANCH  12  14
ATOM     14  C   UNL     1       1.486  -4.950   2.996  1.00  0.00     0.277 C 
ATOM     15  N   UNL     1       2.049  -5.810   2.099  1.00  0.00    -0.351 N 
ATOM     16  H   UNL     1       3.012  -5.984   2.211  1.00  0.00     0.163 HD
ATOM     17  O   UNL     1       2.057  -3.860   3.102  1.00  0.00    -0.268 OA
BRANCH  15  18
ATOM     18  C   UNL     1       1.399  -6.499   1.000  1.00  0.00     0.116 C 
BRANCH  18  19
ATOM     19  C   UNL     1       1.182  -5.559  -0.191  1.00  0.00     0.018 C 
ATOM     20  C   UNL     1       2.490  -5.085  -0.813  1.00  0.00     0.006 C 
ENDBRANCH  18  19
ENDBRANCH  15  18
ENDBRANCH  12  14
ENDBRANCH   9  12
ENDBRANCH   7   9
ENDBRANCH   5   7
ENDBRANCH   1   5
BRANCH   3  21
ATOM     21  C   UNL     1      -0.268  -4.151   8.886  1.00  0.00     0.117 C 
BRANCH  21  22
ATOM     22  C   UNL     1      -1.770  -4.327   8.690  1.00  0.00     0.042 C 
BRANCH  22  23
ATOM     23  C   UNL     1      -2.324  -5.634   9.243  1.00  0.00     0.118 C 
BRANCH  23  24
ATOM     24  N   UNL     1      -2.064  -5.799  10.668  1.00  0.00    -0.352 N 
ATOM     25  C   UNL     1      -2.916  -5.774  11.739  1.00  0.00     0.251 C 
ATOM     26  H   UNL     1      -1.119  -5.953  10.898  1.00  0.00     0.163 HD
ATOM     27  O   UNL     1      -2.454  -5.723  12.882  1.00  0.00    -0.269 OA
BRANCH  25  28
ATOM     28  C   UNL     1      -4.379  -5.793  11.546  1.00  0.00     0.039 A 
ATOM     29  C   UNL     1      -5.180  -4.983  12.357  1.00  0.00     0.014 A 
ATOM     30  C   UNL     1      -4.970  -6.631  10.597  1.00  0.00     0.014 A 
ATOM     31  C   UNL     1      -6.563  -4.965  12.172  1.00  0.00     0.010 A 
ATOM     32  C   UNL     1      -6.338  -6.550  10.356  1.00  0.00     0.010 A 
ATOM     33  C   UNL     1      -7.149  -5.723  11.145  1.00  0.00    -0.014 A 
BRANCH  33  34
ATOM     34  C   UNL     1      -8.609  -5.675  10.886  1.00  0.00     0.031 A 
ATOM     35  C   UNL     1      -9.444  -6.915  11.048  1.00  0.00     0.074 A 
ATOM     36  C   UNL     1      -9.168  -4.538  10.429  1.00  0.00     0.049 A 
ATOM     37  N   UNL     1     -10.711  -7.102  10.774  1.00  0.00    -0.248 NA
ATOM     38  C   UNL     1      -8.756  -8.113  11.555  1.00  0.00     0.031 C 
ATOM     39  C   UNL     1      -8.455  -3.284  10.179  1.00  0.00     0.029 A 
ATOM     40  N   UNL     1     -10.465  -4.259  10.078  1.00  0.00    -0.354 N 
ATOM     41  C   UNL     1     -10.964  -8.438  11.055  1.00  0.00     0.074 A 
ATOM     42  C   UNL     1      -9.710  -9.029  11.470  1.00  0.00     0.031 C 
ATOM     43  C   UNL     1      -9.325  -2.366   9.730  1.00  0.00     0.029 A 
ATOM     44  C   UNL     1     -10.648  -2.974   9.627  1.00  0.00     0.049 A 
ATOM     45  H   UNL     1     -11.195  -4.916  10.143  1.00  0.00     0.167 HD
ATOM     46  C   UNL     1     -12.139  -9.108  10.997  1.00  0.00     0.037 A 
ATOM     47  C   UNL     1     -11.755  -2.359   9.174  1.00  0.00     0.037 A 
ATOM     48  C   UNL     1     -13.391  -8.511  10.614  1.00  0.00     0.049 A 
ATOM     49  C   UNL     1     -13.052  -3.117   9.133  1.00  0.00     0.074 A 
ATOM     50  C   UNL     1     -14.649  -9.088  10.578  1.00  0.00     0.029 A 
ATOM     51  N   UNL     1     -13.543  -7.195  10.201  1.00  0.00    -0.354 N 
ATOM     52  N   UNL     1     -13.289  -4.365   9.459  1.00  0.00    -0.248 NA
ATOM     53  C   UNL     1     -14.236  -2.380   8.671  1.00  0.00     0.031 C 
ATOM     54  C   UNL     1     -15.556  -8.130  10.113  1.00  0.00     0.029 A 
ATOM     55  C   UNL     1     -14.870  -6.945   9.896  1.00  0.00     0.049 A 
ATOM     56  H   UNL     1     -12.814  -6.536  10.135  1.00  0.00     0.167 HD
ATOM     57  C   UNL     1     -14.650  -4.557   9.263  1.00  0.00     0.074 A 
ATOM     58  C   UNL     1     -15.189  -3.293   8.803  1.00  0.00     0.031 C 
ATOM     59  C   UNL     1     -15.388  -5.679   9.445  1.00  0.00     0.037 A 
BRANCH  46  60
ATOM     60  C   UNL     1     -12.122 -10.563  11.366  1.00  0.00     0.057 A 
ATOM     61  C   UNL     1     -11.925 -10.986  12.687  1.00  0.00     0.134 A 
ATOM     62  C   UNL     1     -12.319 -11.552  10.394  1.00  0.00     0.134 A 
ATOM     63  F   UNL     1     -11.717 -10.089  13.664  1.00  0.00    -0.206 F 
ATOM     64  C   UNL     1     -11.895 -12.340  13.024  1.00  0.00     0.040 A 
ATOM     65  C   UNL     1     -12.319 -12.909  10.724  1.00  0.00     0.040 A 
ATOM     66  F   UNL     1     -12.519 -11.217   9.111  1.00  0.00    -0.206 F 
ATOM     67  C   UNL     1     -12.098 -13.306  12.041  1.00  0.00     0.006 A 
ENDBRANCH  46  60
BRANCH  47  68
ATOM     68  C   UNL     1     -11.689  -0.940   8.744  1.00  0.00     0.057 A 
ATOM     69  C   UNL     1     -12.266   0.074   9.517  1.00  0.00     0.134 A 
ATOM     70  C   UNL     1     -11.044  -0.564   7.560  1.00  0.00     0.134 A 
ATOM     71  F   UNL     1     -12.912  -0.228  10.653  1.00  0.00    -0.206 F 
ATOM     72  C   UNL     1     -12.218   1.411   9.121  1.00  0.00     0.040 A 
ATOM     73  C   UNL     1     -10.969   0.772   7.163  1.00  0.00     0.040 A 
ATOM     74  F   UNL     1     -10.464  -1.488   6.781  1.00  0.00    -0.206 F 
ATOM     75  C   UNL     1     -11.562   1.764   7.942  1.00  0.00     0.006 A 
ENDBRANCH  47  68
BRANCH  59  76
ATOM     76  C   UNL     1     -16.859  -5.581   9.175  1.00  0.00     0.057 A 
ATOM     77  C   UNL     1     -17.367  -5.513   7.872  1.00  0.00     0.134 A 
ATOM     78  C   UNL     1     -17.780  -5.594  10.231  1.00  0.00     0.134 A 
ATOM     79  F   UNL     1     -16.536  -5.484   6.819  1.00  0.00    -0.206 F 
ATOM     80  C   UNL     1     -18.739  -5.441   7.629  1.00  0.00     0.040 A 
ATOM     81  C   UNL     1     -19.154  -5.546   9.999  1.00  0.00     0.040 A 
ATOM     82  F   UNL     1     -17.357  -5.665  11.502  1.00  0.00    -0.206 F 
ATOM     83  C   UNL     1     -19.637  -5.465   8.694  1.00  0.00     0.006 A 
ENDBRANCH  59  76
ENDBRANCH  33  34
ENDBRANCH  25  28
ENDBRANCH  23  24
ENDBRANCH  22  23
ENDBRANCH  21  22
ENDBRANCH   3  21
TORSDOF 16
