REMARK SMILES C[C@@H]1CN(S(=O)(=O)c2ccc(Cl)c(C(=O)NCCCNC(=O)c3ccc(-c4c5nc(c(-c6c(F)cccc6F)c6ccc([nH]6)c(-c6c(F)cccc6F)c6nc(c(-c7c(F)cccc7F)c7ccc4[nH]7)C=C6)C=C5)cc3)c2Cl)C[C@H]1C
REMARK SMILES IDX 18 1 17 2 16 3 14 4 15 5 13 7 8 8 9 9 77 10 10 11 78 12
REMARK SMILES IDX 11 13 12 14 5 15 6 16 7 17 4 18 1 19 2 20 3 21 80 22 79 23
REMARK SMILES IDX 81 24 19 25 20 26 21 27 22 29 23 30 24 31 76 32 25 33 75 34
REMARK SMILES IDX 26 35 27 36 28 37 69 38 29 39 74 40 68 41 70 42 30 43 73 44
REMARK SMILES IDX 67 45 66 46 31 48 57 49 40 50 56 51 41 52 44 53 55 54 71 55
REMARK SMILES IDX 42 56 43 57 54 59 72 60 45 61 32 62 33 63 38 64 34 65 35 66
REMARK SMILES IDX 37 67 39 68 36 69 58 70 59 71 64 72 60 73 61 74 63 75 65 76
REMARK SMILES IDX 62 77 46 78 47 79 52 80 48 81 49 82 51 83 53 84 50 85
REMARK H PARENT 16 6 20 28 70 47 44 58
REMARK Flexibility Score: inf
ROOT
ATOM      1  C   UNL     1      -0.112  10.953   1.870  1.00  0.00     0.042 C 
ENDROOT
BRANCH   1   2
ATOM      2  C   UNL     1       0.993   9.942   2.207  1.00  0.00     0.118 C 
BRANCH   2   3
ATOM      3  N   UNL     1       0.728   9.327   3.497  1.00  0.00    -0.352 N 
ATOM      4  C   UNL     1       0.132   8.153   3.877  1.00  0.00     0.254 C 
ATOM      5  O   UNL     1      -0.246   8.085   5.049  1.00  0.00    -0.269 OA
ATOM      6  H   UNL     1       1.043   9.868   4.257  1.00  0.00     0.163 HD
BRANCH   4   7
ATOM      7  C   UNL     1      -0.064   6.947   3.024  1.00  0.00     0.078 A 
ATOM      8  C   UNL     1      -0.154   4.492   3.046  1.00  0.00     0.102 A 
ATOM      9  C   UNL     1      -0.964   4.532   1.905  1.00  0.00     0.025 A 
ATOM     10  C   UNL     1       0.351   5.692   3.575  1.00  0.00     0.075 A 
ATOM     11  C   UNL     1      -1.263   5.733   1.290  1.00  0.00     0.023 A 
ATOM     12  Cl  UNL     1       1.568   5.671   4.818  1.00  0.00    -0.082 Cl
ATOM     13  C   UNL     1      -0.883   6.937   1.883  1.00  0.00     0.055 A 
ATOM     14  Cl  UNL     1      -1.647   8.294   1.161  1.00  0.00    -0.083 Cl
BRANCH   8  15
ATOM     15  S   UNL     1      -0.120   2.915   3.889  1.00  0.00     0.244 S 
ATOM     16  O   UNL     1      -1.381   2.263   3.590  1.00  0.00    -0.207 OA
ATOM     17  O   UNL     1       0.278   3.089   5.267  1.00  0.00    -0.207 OA
BRANCH  15  18
ATOM     18  N   UNL     1       1.091   1.999   3.106  1.00  0.00    -0.197 NA
ATOM     19  C   UNL     1       1.127  -0.260   0.117  1.00  0.00     0.009 C 
ATOM     20  C   UNL     1       0.746   0.234   1.504  1.00  0.00     0.005 C 
ATOM     21  C   UNL     1       0.940   1.739   1.649  1.00  0.00     0.106 C 
ATOM     22  C   UNL     1       1.618  -0.311   2.631  1.00  0.00     0.005 C 
ATOM     23  C   UNL     1       1.319   0.668   3.770  1.00  0.00     0.106 C 
ATOM     24  C   UNL     1       1.295  -1.754   2.990  1.00  0.00     0.009 C 
ENDBRANCH  15  18
ENDBRANCH   8  15
ENDBRANCH   4   7
ENDBRANCH   2   3
ENDBRANCH   1   2
BRANCH   1  25
ATOM     25  C   UNL     1      -0.025  12.288   2.598  1.00  0.00     0.118 C 
BRANCH  25  26
ATOM     26  N   UNL     1       0.886  13.210   1.945  1.00  0.00    -0.352 N 
ATOM     27  C   UNL     1       0.630  14.361   1.239  1.00  0.00     0.251 C 
ATOM     28  H   UNL     1       1.839  12.973   2.020  1.00  0.00     0.163 HD
ATOM     29  O   UNL     1       1.531  14.854   0.564  1.00  0.00    -0.269 OA
BRANCH  27  30
ATOM     30  C   UNL     1      -0.702  15.017   1.263  1.00  0.00     0.039 A 
ATOM     31  C   UNL     1      -1.159  15.644   0.096  1.00  0.00     0.014 A 
ATOM     32  C   UNL     1      -1.471  15.099   2.427  1.00  0.00     0.014 A 
ATOM     33  C   UNL     1      -2.388  16.311   0.087  1.00  0.00     0.010 A 
ATOM     34  C   UNL     1      -2.733  15.695   2.397  1.00  0.00     0.010 A 
ATOM     35  C   UNL     1      -3.198  16.325   1.233  1.00  0.00    -0.014 A 
BRANCH  35  36
ATOM     36  C   UNL     1      -4.516  17.012   1.241  1.00  0.00     0.031 A 
ATOM     37  C   UNL     1      -4.753  18.194   2.141  1.00  0.00     0.074 A 
ATOM     38  C   UNL     1      -5.527  16.531   0.491  1.00  0.00     0.049 A 
ATOM     39  N   UNL     1      -5.852  18.878   2.342  1.00  0.00    -0.248 NA
ATOM     40  C   UNL     1      -3.610  18.647   2.948  1.00  0.00     0.031 C 
ATOM     41  C   UNL     1      -5.448  15.357  -0.378  1.00  0.00     0.029 A 
ATOM     42  N   UNL     1      -6.824  16.959   0.358  1.00  0.00    -0.354 N 
ATOM     43  C   UNL     1      -5.541  19.819   3.316  1.00  0.00     0.074 A 
ATOM     44  C   UNL     1      -4.164  19.589   3.697  1.00  0.00     0.031 C 
ATOM     45  C   UNL     1      -6.641  15.162  -0.961  1.00  0.00     0.029 A 
ATOM     46  C   UNL     1      -7.576  16.178  -0.485  1.00  0.00     0.049 A 
ATOM     47  H   UNL     1      -7.181  17.750   0.822  1.00  0.00     0.167 HD
ATOM     48  C   UNL     1      -6.323  20.797   3.833  1.00  0.00     0.037 A 
ATOM     49  C   UNL     1      -8.875  16.262  -0.830  1.00  0.00     0.037 A 
ATOM     50  C   UNL     1      -7.682  21.047   3.427  1.00  0.00     0.049 A 
ATOM     51  C   UNL     1      -9.717  17.374  -0.274  1.00  0.00     0.074 A 
ATOM     52  C   UNL     1      -8.527  22.069   3.822  1.00  0.00     0.029 A 
ATOM     53  N   UNL     1      -8.396  20.259   2.536  1.00  0.00    -0.354 N 
ATOM     54  N   UNL     1      -9.385  18.311   0.582  1.00  0.00    -0.248 NA
ATOM     55  C   UNL     1     -11.109  17.449  -0.738  1.00  0.00     0.031 C 
ATOM     56  C   UNL     1      -9.767  21.874   3.202  1.00  0.00     0.029 A 
ATOM     57  C   UNL     1      -9.680  20.757   2.388  1.00  0.00     0.049 A 
ATOM     58  H   UNL     1      -8.042  19.463   2.077  1.00  0.00     0.167 HD
ATOM     59  C   UNL     1     -10.519  19.095   0.747  1.00  0.00     0.074 A 
ATOM     60  C   UNL     1     -11.543  18.534  -0.110  1.00  0.00     0.031 C 
ATOM     61  C   UNL     1     -10.693  20.183   1.537  1.00  0.00     0.037 A 
BRANCH  48  62
ATOM     62  C   UNL     1      -5.723  21.664   4.903  1.00  0.00     0.057 A 
ATOM     63  C   UNL     1      -4.702  22.585   4.628  1.00  0.00     0.134 A 
ATOM     64  C   UNL     1      -6.173  21.579   6.226  1.00  0.00     0.134 A 
ATOM     65  F   UNL     1      -4.218  22.710   3.383  1.00  0.00    -0.206 F 
ATOM     66  C   UNL     1      -4.123  23.358   5.636  1.00  0.00     0.040 A 
ATOM     67  C   UNL     1      -5.621  22.367   7.238  1.00  0.00     0.040 A 
ATOM     68  F   UNL     1      -7.153  20.726   6.560  1.00  0.00    -0.206 F 
ATOM     69  C   UNL     1      -4.585  23.252   6.946  1.00  0.00     0.006 A 
ENDBRANCH  48  62
BRANCH  49  70
ATOM     70  C   UNL     1      -9.443  15.267  -1.772  1.00  0.00     0.057 A 
ATOM     71  C   UNL     1      -9.727  15.610  -3.099  1.00  0.00     0.134 A 
ATOM     72  C   UNL     1      -9.673  13.942  -1.382  1.00  0.00     0.134 A 
ATOM     73  F   UNL     1      -9.542  16.867  -3.525  1.00  0.00    -0.206 F 
ATOM     74  C   UNL     1     -10.222  14.671  -4.005  1.00  0.00     0.040 A 
ATOM     75  C   UNL     1     -10.148  12.988  -2.283  1.00  0.00     0.040 A 
ATOM     76  F   UNL     1      -9.411  13.552  -0.127  1.00  0.00    -0.206 F 
ATOM     77  C   UNL     1     -10.426  13.353  -3.599  1.00  0.00     0.006 A 
ENDBRANCH  49  70
BRANCH  61  78
ATOM     78  C   UNL     1     -12.038  20.847   1.502  1.00  0.00     0.057 A 
ATOM     79  C   UNL     1     -13.159  20.273   2.113  1.00  0.00     0.134 A 
ATOM     80  C   UNL     1     -12.203  22.093   0.884  1.00  0.00     0.134 A 
ATOM     81  F   UNL     1     -13.070  19.075   2.709  1.00  0.00    -0.206 F 
ATOM     82  C   UNL     1     -14.403  20.908   2.096  1.00  0.00     0.040 A 
ATOM     83  C   UNL     1     -13.435  22.748   0.881  1.00  0.00     0.040 A 
ATOM     84  F   UNL     1     -11.166  22.700   0.287  1.00  0.00    -0.206 F 
ATOM     85  C   UNL     1     -14.541  22.153   1.485  1.00  0.00     0.006 A 
ENDBRANCH  61  78
ENDBRANCH  35  36
ENDBRANCH  27  30
ENDBRANCH  25  26
ENDBRANCH   1  25
TORSDOF 12
