REMARK SMILES C[N@@H+]1CC[N@@H+](C)[C@H](C[NH2+]Cc2ccc(C(=O)NCCCNC(=O)c3ccc(-c4c5nc(c(-c6c(F)cccc6F)c6ccc([nH]6)c(-c6c(F)cccc6F)c6nc(c(-c7c(F)cccc7F)c7ccc4[nH]7)C=C6)C=C5)cc3)cn2)C1
REMARK SMILES IDX 18 1 17 2 15 3 16 4 14 6 11 7 12 8 79 9 13 10 78 11 10 12
REMARK SMILES IDX 9 13 8 16 7 17 1 18 2 19 3 20 80 21 4 23 5 24 6 25 19 27
REMARK SMILES IDX 20 28 21 29 22 30 23 32 24 33 25 34 77 35 26 36 76 37 27 38
REMARK SMILES IDX 28 39 29 40 70 41 30 42 75 43 69 44 71 45 31 46 74 47 68 48
REMARK SMILES IDX 67 49 32 51 58 52 41 53 57 54 42 55 45 56 56 57 72 58 43 59
REMARK SMILES IDX 44 60 55 62 73 63 46 64 33 65 34 66 39 67 35 68 36 69 38 70
REMARK SMILES IDX 40 71 37 72 59 73 60 74 65 75 61 76 62 77 64 78 66 79 63 80
REMARK SMILES IDX 47 81 48 82 53 83 49 84 50 85 52 86 54 87 51 88
REMARK H PARENT 17 5 9 14 9 15 2 22 5 26 21 31 71 50 45 61
REMARK Flexibility Score: inf
ROOT
ATOM      1  C   UNL     1      -2.538   5.658  -7.180  1.00  0.00     0.118 C 
ENDROOT
BRANCH   1   2
ATOM      2  N   UNL     1      -2.008   6.653  -6.267  1.00  0.00    -0.352 N 
ATOM      3  C   UNL     1      -2.055   6.778  -4.903  1.00  0.00     0.252 C 
ATOM      4  O   UNL     1      -1.511   7.765  -4.408  1.00  0.00    -0.269 OA
ATOM      5  H   UNL     1      -1.519   7.381  -6.715  1.00  0.00     0.163 HD
BRANCH   3   6
ATOM      6  C   UNL     1      -2.661   5.765  -4.007  1.00  0.00     0.058 A 
ATOM      7  C   UNL     1      -3.383   3.800  -2.213  1.00  0.00     0.094 A 
ATOM      8  C   UNL     1      -3.988   3.828  -3.463  1.00  0.00     0.030 A 
ATOM      9  N   UNL     1      -2.539   4.774  -1.792  1.00  0.00    -0.255 NA
ATOM     10  C   UNL     1      -3.638   4.837  -4.354  1.00  0.00     0.017 A 
ATOM     11  C   UNL     1      -2.189   5.718  -2.699  1.00  0.00     0.125 A 
BRANCH   7  12
ATOM     12  C   UNL     1      -3.550   2.576  -1.342  1.00  0.00     0.318 C 
BRANCH  12  13
ATOM     13  N   UNL     1      -2.307   1.802  -1.286  1.00  0.00    -0.336 N 
ATOM     14  H   UNL     1      -2.536   0.808  -1.262  1.00  0.00     0.346 HD
ATOM     15  H   UNL     1      -1.752   2.023  -2.112  1.00  0.00     0.346 HD
BRANCH  13  16
ATOM     16  C   UNL     1      -1.518   2.142  -0.087  1.00  0.00     0.332 C 
BRANCH  16  17
ATOM     17  C   UNL     1      -0.726   0.908   0.448  1.00  0.00     0.295 C 
ATOM     18  C   UNL     1       2.894  -0.106  -0.200  1.00  0.00     0.333 C 
ATOM     19  N   UNL     1       1.530  -0.194   0.308  1.00  0.00    -0.328 N 
ATOM     20  C   UNL     1       0.864  -1.421  -0.156  1.00  0.00     0.324 C 
ATOM     21  C   UNL     1       0.721   0.959  -0.131  1.00  0.00     0.334 C 
ATOM     22  H   UNL     1       1.599  -0.203   1.326  1.00  0.00     0.348 HD
ATOM     23  C   UNL     1      -0.554  -1.535   0.442  1.00  0.00     0.324 C 
ATOM     24  N   UNL     1      -1.435  -0.384   0.148  1.00  0.00    -0.321 N 
ATOM     25  C   UNL     1      -2.673  -0.522   0.925  1.00  0.00     0.333 C 
ATOM     26  H   UNL     1      -1.674  -0.369  -0.843  1.00  0.00     0.348 HD
ENDBRANCH  16  17
ENDBRANCH  13  16
ENDBRANCH  12  13
ENDBRANCH   7  12
ENDBRANCH   3   6
ENDBRANCH   1   2
BRANCH   1  27
ATOM     27  C   UNL     1      -3.943   6.039  -7.645  1.00  0.00     0.042 C 
BRANCH  27  28
ATOM     28  C   UNL     1      -3.959   7.242  -8.579  1.00  0.00     0.118 C 
BRANCH  28  29
ATOM     29  N   UNL     1      -3.385   6.925  -9.876  1.00  0.00    -0.352 N 
ATOM     30  C   UNL     1      -3.950   6.986 -11.124  1.00  0.00     0.251 C 
ATOM     31  H   UNL     1      -2.450   6.619  -9.855  1.00  0.00     0.163 HD
ATOM     32  O   UNL     1      -3.387   6.445 -12.069  1.00  0.00    -0.269 OA
BRANCH  30  33
ATOM     33  C   UNL     1      -5.231   7.695 -11.338  1.00  0.00     0.039 A 
ATOM     34  C   UNL     1      -6.154   7.152 -12.236  1.00  0.00     0.014 A 
ATOM     35  C   UNL     1      -5.500   8.915 -10.711  1.00  0.00     0.014 A 
ATOM     36  C   UNL     1      -7.361   7.811 -12.476  1.00  0.00     0.010 A 
ATOM     37  C   UNL     1      -6.733   9.535 -10.896  1.00  0.00     0.010 A 
ATOM     38  C   UNL     1      -7.668   8.998 -11.792  1.00  0.00    -0.014 A 
BRANCH  38  39
ATOM     39  C   UNL     1      -8.952   9.704 -12.020  1.00  0.00     0.031 A 
ATOM     40  C   UNL     1      -8.960  11.072 -12.644  1.00  0.00     0.074 A 
ATOM     41  C   UNL     1     -10.104   9.138 -11.613  1.00  0.00     0.049 A 
ATOM     42  N   UNL     1      -9.970  11.877 -12.861  1.00  0.00    -0.248 NA
ATOM     43  C   UNL     1      -7.657  11.620 -13.055  1.00  0.00     0.031 C 
ATOM     44  C   UNL     1     -10.219   7.834 -10.956  1.00  0.00     0.029 A 
ATOM     45  N   UNL     1     -11.396   9.591 -11.683  1.00  0.00    -0.354 N 
ATOM     46  C   UNL     1      -9.423  13.029 -13.413  1.00  0.00     0.074 A 
ATOM     47  C   UNL     1      -7.989  12.839 -13.455  1.00  0.00     0.031 C 
ATOM     48  C   UNL     1     -11.514   7.585 -10.701  1.00  0.00     0.029 A 
ATOM     49  C   UNL     1     -12.313   8.722 -11.145  1.00  0.00     0.049 A 
ATOM     50  H   UNL     1     -11.643  10.457 -12.081  1.00  0.00     0.167 HD
ATOM     51  C   UNL     1     -10.060  14.136 -13.864  1.00  0.00     0.037 A 
ATOM     52  C   UNL     1     -13.649   8.834 -11.019  1.00  0.00     0.037 A 
ATOM     53  C   UNL     1     -11.489  14.308 -13.848  1.00  0.00     0.049 A 
ATOM     54  C   UNL     1     -14.333  10.068 -11.536  1.00  0.00     0.074 A 
ATOM     55  C   UNL     1     -12.236  15.366 -14.335  1.00  0.00     0.029 A 
ATOM     56  N   UNL     1     -12.386  13.393 -13.318  1.00  0.00    -0.354 N 
ATOM     57  N   UNL     1     -13.809  11.124 -12.111  1.00  0.00    -0.248 NA
ATOM     58  C   UNL     1     -15.794  10.123 -11.395  1.00  0.00     0.031 C 
ATOM     59  C   UNL     1     -13.585  15.107 -14.067  1.00  0.00     0.029 A 
ATOM     60  C   UNL     1     -13.680  13.870 -13.451  1.00  0.00     0.049 A 
ATOM     61  H   UNL     1     -12.140  12.533 -12.907  1.00  0.00     0.167 HD
ATOM     62  C   UNL     1     -14.877  11.956 -12.422  1.00  0.00     0.074 A 
ATOM     63  C   UNL     1     -16.078  11.275 -11.985  1.00  0.00     0.031 C 
ATOM     64  C   UNL     1     -14.864  13.174 -13.016  1.00  0.00     0.037 A 
BRANCH  51  65
ATOM     65  C   UNL     1      -9.212  15.244 -14.417  1.00  0.00     0.057 A 
ATOM     66  C   UNL     1      -8.543  15.122 -15.642  1.00  0.00     0.134 A 
ATOM     67  C   UNL     1      -9.084  16.459 -13.730  1.00  0.00     0.134 A 
ATOM     68  F   UNL     1      -8.614  13.981 -16.344  1.00  0.00    -0.206 F 
ATOM     69  C   UNL     1      -7.757  16.157 -16.152  1.00  0.00     0.040 A 
ATOM     70  C   UNL     1      -8.322  17.510 -14.242  1.00  0.00     0.040 A 
ATOM     71  F   UNL     1      -9.702  16.645 -12.555  1.00  0.00    -0.206 F 
ATOM     72  C   UNL     1      -7.649  17.358 -15.453  1.00  0.00     0.006 A 
ENDBRANCH  51  65
BRANCH  52  73
ATOM     73  C   UNL     1     -14.429   7.734 -10.402  1.00  0.00     0.057 A 
ATOM     74  C   UNL     1     -15.266   6.922 -11.177  1.00  0.00     0.134 A 
ATOM     75  C   UNL     1     -14.359   7.465  -9.030  1.00  0.00     0.134 A 
ATOM     76  F   UNL     1     -15.387   7.142 -12.494  1.00  0.00    -0.206 F 
ATOM     77  C   UNL     1     -16.018   5.894 -10.608  1.00  0.00     0.040 A 
ATOM     78  C   UNL     1     -15.088   6.425  -8.451  1.00  0.00     0.040 A 
ATOM     79  F   UNL     1     -13.568   8.201  -8.235  1.00  0.00    -0.206 F 
ATOM     80  C   UNL     1     -15.926   5.640  -9.241  1.00  0.00     0.006 A 
ENDBRANCH  52  73
BRANCH  64  81
ATOM     81  C   UNL     1     -16.190  13.830 -13.256  1.00  0.00     0.057 A 
ATOM     82  C   UNL     1     -16.937  14.389 -12.212  1.00  0.00     0.134 A 
ATOM     83  C   UNL     1     -16.709  13.933 -14.553  1.00  0.00     0.134 A 
ATOM     84  F   UNL     1     -16.500  14.311 -10.946  1.00  0.00    -0.206 F 
ATOM     85  C   UNL     1     -18.165  15.008 -12.447  1.00  0.00     0.040 A 
ATOM     86  C   UNL     1     -17.924  14.571 -14.803  1.00  0.00     0.040 A 
ATOM     87  F   UNL     1     -16.038  13.424 -15.597  1.00  0.00    -0.206 F 
ATOM     88  C   UNL     1     -18.659  15.106 -13.747  1.00  0.00     0.006 A 
ENDBRANCH  64  81
ENDBRANCH  38  39
ENDBRANCH  30  33
ENDBRANCH  28  29
ENDBRANCH  27  28
ENDBRANCH   1  27
TORSDOF 14
