REMARK SMILES O=C(CCOc1cc(-c2ccncc2)nc(-c2ccc(C(F)(F)F)cc2)n1)NCCCNC(=O)c1ccc(-c2c3nc(c(-c4c(F)cccc4F)c4ccc([nH]4)c(-c4c(F)cccc4F)c4nc(c(-c5c(F)cccc5F)c5ccc2[nH]5)C=C4)C=C3)cc1
REMARK SMILES IDX 1 1 2 2 28 3 3 5 4 6 5 7 6 8 7 9 27 10 8 11 16 12 15 13 9 14
REMARK SMILES IDX 10 15 14 16 11 17 13 18 12 19 17 20 18 21 26 22 19 23 25 24
REMARK SMILES IDX 20 25 21 26 22 27 23 28 24 29 29 30 30 31 31 32 32 33 33 34
REMARK SMILES IDX 34 36 35 37 36 38 88 39 37 40 87 41 38 42 39 43 40 44 81 45
REMARK SMILES IDX 41 46 86 47 80 48 82 49 42 50 85 51 79 52 78 53 43 55 69 56
REMARK SMILES IDX 52 57 68 58 53 59 56 60 67 61 83 62 54 63 55 64 66 66 84 67
REMARK SMILES IDX 57 68 44 69 45 70 50 71 46 72 47 73 49 74 51 75 48 76 70 77
REMARK SMILES IDX 71 78 76 79 72 80 73 81 75 82 77 83 74 84 58 85 59 86 64 87
REMARK SMILES IDX 60 88 61 89 63 90 65 91 62 92
REMARK H PARENT 28 4 32 35 82 54 56 65
REMARK Flexibility Score: inf
ROOT
ATOM      1  O   UNL     1       1.653  -0.498  -1.146  1.00  0.00    -0.275 OA
ATOM      2  C   UNL     1       2.880  -0.436  -1.145  1.00  0.00     0.223 C 
ATOM      3  N   UNL     1       3.695  -1.460  -0.712  1.00  0.00    -0.356 N 
ATOM      4  H   UNL     1       4.667  -1.402  -0.855  1.00  0.00     0.163 HD
ENDROOT
BRANCH   2   5
ATOM      5  C   UNL     1       3.606   0.847  -1.459  1.00  0.00     0.141 C 
BRANCH   5   6
ATOM      6  C   UNL     1       3.549   1.752  -0.230  1.00  0.00     0.241 C 
BRANCH   6   7
ATOM      7  O   UNL     1       4.360   1.212   0.813  1.00  0.00    -0.477 OA
BRANCH   7   8
ATOM      8  C   UNL     1       3.766   0.902   2.004  1.00  0.00     0.217 A 
ATOM      9  C   UNL     1       2.524   0.312   2.134  1.00  0.00     0.097 A 
ATOM     10  N   UNL     1       4.614   1.037   3.033  1.00  0.00    -0.193 NA
ATOM     11  C   UNL     1       2.191  -0.174   3.388  1.00  0.00     0.078 A 
ATOM     12  C   UNL     1       4.189   0.606   4.226  1.00  0.00     0.163 A 
ATOM     13  N   UNL     1       3.011  -0.010   4.445  1.00  0.00    -0.228 NA
BRANCH  11  14
ATOM     14  C   UNL     1       1.044  -1.080   3.597  1.00  0.00     0.003 A 
ATOM     15  C   UNL     1       1.010  -2.355   3.012  1.00  0.00     0.030 A 
ATOM     16  C   UNL     1      -0.039  -0.735   4.403  1.00  0.00     0.030 A 
ATOM     17  C   UNL     1      -0.102  -3.168   3.162  1.00  0.00     0.111 A 
ATOM     18  C   UNL     1      -1.104  -1.623   4.517  1.00  0.00     0.111 A 
ATOM     19  N   UNL     1      -1.173  -2.819   3.893  1.00  0.00    -0.265 NA
ENDBRANCH  11  14
BRANCH  12  20
ATOM     20  C   UNL     1       5.139   0.693   5.336  1.00  0.00     0.019 A 
ATOM     21  C   UNL     1       5.134   1.795   6.199  1.00  0.00     0.012 A 
ATOM     22  C   UNL     1       6.086  -0.319   5.568  1.00  0.00     0.012 A 
ATOM     23  C   UNL     1       6.006   1.855   7.292  1.00  0.00     0.014 A 
ATOM     24  C   UNL     1       6.947  -0.275   6.669  1.00  0.00     0.014 A 
ATOM     25  C   UNL     1       6.898   0.804   7.558  1.00  0.00     0.056 A 
BRANCH  25  26
ATOM     26  C   UNL     1       7.787   0.848   8.775  1.00  0.00     0.416 C 
ATOM     27  F   UNL     1       8.845   1.690   8.619  1.00  0.00    -0.166 F 
ATOM     28  F   UNL     1       7.131   1.276   9.890  1.00  0.00    -0.166 F 
ATOM     29  F   UNL     1       8.320  -0.363   9.104  1.00  0.00    -0.166 F 
ENDBRANCH  25  26
ENDBRANCH  12  20
ENDBRANCH   7   8
ENDBRANCH   6   7
ENDBRANCH   5   6
ENDBRANCH   2   5
BRANCH   3  30
ATOM     30  C   UNL     1       3.139  -2.621  -0.049  1.00  0.00     0.117 C 
BRANCH  30  31
ATOM     31  C   UNL     1       4.150  -3.428   0.781  1.00  0.00     0.042 C 
BRANCH  31  32
ATOM     32  C   UNL     1       4.989  -2.622   1.785  1.00  0.00     0.118 C 
BRANCH  32  33
ATOM     33  N   UNL     1       4.473  -2.614   3.145  1.00  0.00    -0.352 N 
ATOM     34  C   UNL     1       4.645  -3.333   4.293  1.00  0.00     0.251 C 
ATOM     35  H   UNL     1       3.819  -1.890   3.273  1.00  0.00     0.163 HD
ATOM     36  O   UNL     1       4.104  -2.888   5.307  1.00  0.00    -0.269 OA
BRANCH  34  37
ATOM     37  C   UNL     1       5.380  -4.609   4.413  1.00  0.00     0.039 A 
ATOM     38  C   UNL     1       5.289  -5.274   5.653  1.00  0.00     0.014 A 
ATOM     39  C   UNL     1       6.055  -5.226   3.368  1.00  0.00     0.014 A 
ATOM     40  C   UNL     1       5.755  -6.577   5.802  1.00  0.00     0.010 A 
ATOM     41  C   UNL     1       6.472  -6.544   3.495  1.00  0.00     0.010 A 
ATOM     42  C   UNL     1       6.272  -7.244   4.691  1.00  0.00    -0.014 A 
BRANCH  42  43
ATOM     43  C   UNL     1       6.486  -8.705   4.685  1.00  0.00     0.031 A 
ATOM     44  C   UNL     1       7.846  -9.258   4.401  1.00  0.00     0.074 A 
ATOM     45  C   UNL     1       5.403  -9.504   4.760  1.00  0.00     0.049 A 
ATOM     46  N   UNL     1       8.197 -10.489   4.142  1.00  0.00    -0.248 NA
ATOM     47  C   UNL     1       8.951  -8.288   4.347  1.00  0.00     0.031 C 
ATOM     48  C   UNL     1       4.022  -9.049   4.954  1.00  0.00     0.029 A 
ATOM     49  N   UNL     1       5.287 -10.865   4.652  1.00  0.00    -0.354 N 
ATOM     50  C   UNL     1       9.556 -10.439   3.867  1.00  0.00     0.074 A 
ATOM     51  C   UNL     1       9.954  -9.050   3.936  1.00  0.00     0.031 C 
ATOM     52  C   UNL     1       3.204 -10.111   4.976  1.00  0.00     0.029 A 
ATOM     53  C   UNL     1       3.992 -11.314   4.747  1.00  0.00     0.049 A 
ATOM     54  H   UNL     1       6.058 -11.463   4.519  1.00  0.00     0.167 HD
ATOM     55  C   UNL     1      10.393 -11.468   3.600  1.00  0.00     0.037 A 
ATOM     56  C   UNL     1       3.498 -12.561   4.645  1.00  0.00     0.037 A 
ATOM     57  C   UNL     1       9.974 -12.845   3.565  1.00  0.00     0.049 A 
ATOM     58  C   UNL     1       4.455 -13.687   4.384  1.00  0.00     0.074 A 
ATOM     59  C   UNL     1      10.742 -13.977   3.372  1.00  0.00     0.029 A 
ATOM     60  N   UNL     1       8.663 -13.272   3.733  1.00  0.00    -0.354 N 
ATOM     61  N   UNL     1       5.751 -13.639   4.190  1.00  0.00    -0.248 NA
ATOM     62  C   UNL     1       3.885 -15.039   4.332  1.00  0.00     0.031 C 
ATOM     63  C   UNL     1       9.891 -15.088   3.388  1.00  0.00     0.029 A 
ATOM     64  C   UNL     1       8.599 -14.651   3.637  1.00  0.00     0.049 A 
ATOM     65  H   UNL     1       7.893 -12.681   3.896  1.00  0.00     0.167 HD
ATOM     66  C   UNL     1       6.159 -14.954   4.020  1.00  0.00     0.074 A 
ATOM     67  C   UNL     1       4.971 -15.776   4.150  1.00  0.00     0.031 C 
ATOM     68  C   UNL     1       7.401 -15.440   3.778  1.00  0.00     0.037 A 
BRANCH  55  69
ATOM     69  C   UNL     1      11.833 -11.137   3.336  1.00  0.00     0.057 A 
ATOM     70  C   UNL     1      12.674 -10.642   4.342  1.00  0.00     0.134 A 
ATOM     71  C   UNL     1      12.390 -11.321   2.064  1.00  0.00     0.134 A 
ATOM     72  F   UNL     1      12.200 -10.426   5.579  1.00  0.00    -0.206 F 
ATOM     73  C   UNL     1      14.006 -10.311   4.086  1.00  0.00     0.040 A 
ATOM     74  C   UNL     1      13.730 -11.023   1.804  1.00  0.00     0.040 A 
ATOM     75  F   UNL     1      11.645 -11.793   1.054  1.00  0.00    -0.206 F 
ATOM     76  C   UNL     1      14.539 -10.508   2.815  1.00  0.00     0.006 A 
ENDBRANCH  55  69
BRANCH  56  77
ATOM     77  C   UNL     1       2.045 -12.805   4.829  1.00  0.00     0.057 A 
ATOM     78  C   UNL     1       1.568 -13.459   5.970  1.00  0.00     0.134 A 
ATOM     79  C   UNL     1       1.099 -12.379   3.889  1.00  0.00     0.134 A 
ATOM     80  F   UNL     1       2.426 -13.900   6.902  1.00  0.00    -0.206 F 
ATOM     81  C   UNL     1       0.207 -13.702   6.162  1.00  0.00     0.040 A 
ATOM     82  C   UNL     1      -0.268 -12.592   4.079  1.00  0.00     0.040 A 
ATOM     83  F   UNL     1       1.488 -11.732   2.780  1.00  0.00    -0.206 F 
ATOM     84  C   UNL     1      -0.717 -13.262   5.215  1.00  0.00     0.006 A 
ENDBRANCH  56  77
BRANCH  68  85
ATOM     85  C   UNL     1       7.535 -16.929   3.676  1.00  0.00     0.057 A 
ATOM     86  C   UNL     1       7.068 -17.638   2.563  1.00  0.00     0.134 A 
ATOM     87  C   UNL     1       8.175 -17.654   4.689  1.00  0.00     0.134 A 
ATOM     88  F   UNL     1       6.434 -17.001   1.567  1.00  0.00    -0.206 F 
ATOM     89  C   UNL     1       7.214 -19.023   2.471  1.00  0.00     0.040 A 
ATOM     90  C   UNL     1       8.351 -19.034   4.596  1.00  0.00     0.040 A 
ATOM     91  F   UNL     1       8.651 -17.030   5.777  1.00  0.00    -0.206 F 
ATOM     92  C   UNL     1       7.864 -19.723   3.486  1.00  0.00     0.006 A 
ENDBRANCH  68  85
ENDBRANCH  42  43
ENDBRANCH  34  37
ENDBRANCH  32  33
ENDBRANCH  31  32
ENDBRANCH  30  31
ENDBRANCH   3  30
TORSDOF 16
