REMARK SMILES Cc1csc(C[C@@H](Cc2ccc(Br)cc2)C(=O)NCCCNC(=O)c2ccc(-c3c4nc(c(-c5c(F)cccc5F)c5ccc([nH]5)c(-c5c(F)cccc5F)c5nc(c(-c6c(F)cccc6F)c6ccc3[nH]6)C=C5)C=C4)cc2)n1
REMARK SMILES IDX 20 1 19 2 18 3 16 4 17 5 7 7 6 8 5 9 1 10 2 11 3 12 79 13
REMARK SMILES IDX 4 14 8 15 9 16 10 17 15 18 11 19 14 20 12 21 13 22 21 23
REMARK SMILES IDX 22 24 23 25 24 27 25 28 26 29 78 30 27 31 77 32 28 33 29 34
REMARK SMILES IDX 30 35 71 36 31 37 76 38 70 39 72 40 32 41 75 42 69 43 68 44
REMARK SMILES IDX 33 46 59 47 42 48 58 49 43 50 46 51 57 52 73 53 44 54 45 55
REMARK SMILES IDX 56 57 74 58 47 59 34 60 35 61 40 62 36 63 37 64 39 65 41 66
REMARK SMILES IDX 38 67 60 68 61 69 66 70 62 71 63 72 65 73 67 74 64 75 48 76
REMARK SMILES IDX 49 77 54 78 50 79 51 80 53 81 55 82 52 83
REMARK H PARENT 18 6 22 26 72 45 46 56
REMARK Flexibility Score: inf
ROOT
ATOM      1  C   UNL     1       2.231   5.407   2.299  1.00  0.00     0.042 C 
ENDROOT
BRANCH   1   2
ATOM      2  C   UNL     1       1.400   5.295   1.042  1.00  0.00     0.117 C 
BRANCH   2   3
ATOM      3  N   UNL     1       2.142   5.154  -0.189  1.00  0.00    -0.356 N 
ATOM      4  C   UNL     1       1.825   4.409  -1.286  1.00  0.00     0.223 C 
ATOM      5  O   UNL     1       2.424   4.672  -2.334  1.00  0.00    -0.275 OA
ATOM      6  H   UNL     1       2.985   5.660  -0.242  1.00  0.00     0.163 HD
BRANCH   4   7
ATOM      7  C   UNL     1       0.821   3.254  -1.242  1.00  0.00     0.089 C 
BRANCH   7   8
ATOM      8  C   UNL     1       1.270   2.212  -0.203  1.00  0.00     0.081 C 
BRANCH   8   9
ATOM      9  C   UNL     1       0.536   0.910  -0.269  1.00  0.00     0.094 A 
ATOM     10  C   UNL     1      -2.608  -0.806  -0.058  1.00  0.00     0.067 C 
ATOM     11  C   UNL     1      -1.157  -0.515  -0.150  1.00  0.00     0.048 A 
ATOM     12  C   UNL     1      -0.112  -1.417  -0.149  1.00  0.00     0.090 A 
ATOM     13  N   UNL     1      -0.772   0.806  -0.227  1.00  0.00    -0.247 NA
ATOM     14  S   UNL     1       1.384  -0.585  -0.252  1.00  0.00    -0.127 S 
ENDBRANCH   8   9
ENDBRANCH   7   8
BRANCH   7  15
ATOM     15  C   UNL     1      -0.665   3.700  -1.334  1.00  0.00     0.049 C 
BRANCH  15  16
ATOM     16  C   UNL     1      -1.326   4.417  -0.177  1.00  0.00    -0.047 A 
ATOM     17  C   UNL     1      -1.687   3.734   0.995  1.00  0.00     0.005 A 
ATOM     18  C   UNL     1      -1.551   5.803  -0.238  1.00  0.00     0.005 A 
ATOM     19  C   UNL     1      -2.143   4.430   2.118  1.00  0.00     0.016 A 
ATOM     20  C   UNL     1      -2.018   6.501   0.883  1.00  0.00     0.016 A 
ATOM     21  C   UNL     1      -2.283   5.813   2.064  1.00  0.00     0.017 A 
ATOM     22  Br  UNL     1      -2.791   6.763   3.617  1.00  0.00    -0.051 Br
ENDBRANCH  15  16
ENDBRANCH   7  15
ENDBRANCH   4   7
ENDBRANCH   2   3
ENDBRANCH   1   2
BRANCH   1  23
ATOM     23  C   UNL     1       2.795   6.800   2.510  1.00  0.00     0.118 C 
BRANCH  23  24
ATOM     24  N   UNL     1       1.765   7.829   2.654  1.00  0.00    -0.352 N 
ATOM     25  C   UNL     1       1.391   8.599   3.732  1.00  0.00     0.251 C 
ATOM     26  H   UNL     1       1.247   8.001   1.835  1.00  0.00     0.163 HD
ATOM     27  O   UNL     1       0.400   9.311   3.659  1.00  0.00    -0.269 OA
BRANCH  25  28
ATOM     28  C   UNL     1       2.175   8.550   4.983  1.00  0.00     0.039 A 
ATOM     29  C   UNL     1       1.510   8.556   6.212  1.00  0.00     0.014 A 
ATOM     30  C   UNL     1       3.566   8.488   4.944  1.00  0.00     0.014 A 
ATOM     31  C   UNL     1       2.240   8.402   7.393  1.00  0.00     0.010 A 
ATOM     32  C   UNL     1       4.275   8.203   6.100  1.00  0.00     0.010 A 
ATOM     33  C   UNL     1       3.624   8.172   7.341  1.00  0.00    -0.014 A 
BRANCH  33  34
ATOM     34  C   UNL     1       4.435   7.926   8.559  1.00  0.00     0.031 A 
ATOM     35  C   UNL     1       5.593   8.835   8.875  1.00  0.00     0.074 A 
ATOM     36  C   UNL     1       4.204   6.834   9.313  1.00  0.00     0.049 A 
ATOM     37  N   UNL     1       6.522   8.709   9.788  1.00  0.00    -0.248 NA
ATOM     38  C   UNL     1       5.760  10.018   8.013  1.00  0.00     0.031 C 
ATOM     39  C   UNL     1       3.156   5.839   9.072  1.00  0.00     0.029 A 
ATOM     40  N   UNL     1       4.854   6.365  10.427  1.00  0.00    -0.354 N 
ATOM     41  C   UNL     1       7.398   9.767   9.581  1.00  0.00     0.074 A 
ATOM     42  C   UNL     1       6.927  10.490   8.422  1.00  0.00     0.031 C 
ATOM     43  C   UNL     1       3.219   4.894  10.024  1.00  0.00     0.029 A 
ATOM     44  C   UNL     1       4.335   5.191  10.915  1.00  0.00     0.049 A 
ATOM     45  H   UNL     1       5.620   6.828  10.837  1.00  0.00     0.167 HD
ATOM     46  C   UNL     1       8.483  10.121  10.309  1.00  0.00     0.037 A 
ATOM     47  C   UNL     1       4.723   4.435  11.959  1.00  0.00     0.037 A 
ATOM     48  C   UNL     1       8.909   9.436  11.498  1.00  0.00     0.049 A 
ATOM     49  C   UNL     1       5.900   4.878  12.783  1.00  0.00     0.074 A 
ATOM     50  C   UNL     1       9.937   9.765  12.362  1.00  0.00     0.029 A 
ATOM     51  N   UNL     1       8.317   8.285  11.997  1.00  0.00    -0.354 N 
ATOM     52  N   UNL     1       6.679   5.920  12.618  1.00  0.00    -0.248 NA
ATOM     53  C   UNL     1       6.249   4.045  13.942  1.00  0.00     0.031 C 
ATOM     54  C   UNL     1       9.990   8.793  13.366  1.00  0.00     0.029 A 
ATOM     55  C   UNL     1       8.968   7.883  13.150  1.00  0.00     0.049 A 
ATOM     56  H   UNL     1       7.549   7.822  11.590  1.00  0.00     0.167 HD
ATOM     57  C   UNL     1       7.591   5.883  13.665  1.00  0.00     0.074 A 
ATOM     58  C   UNL     1       7.259   4.724  14.467  1.00  0.00     0.031 C 
ATOM     59  C   UNL     1       8.612   6.731  13.938  1.00  0.00     0.037 A 
BRANCH  46  60
ATOM     60  C   UNL     1       9.270  11.313   9.845  1.00  0.00     0.057 A 
ATOM     61  C   UNL     1       8.758  12.615   9.921  1.00  0.00     0.134 A 
ATOM     62  C   UNL     1      10.566  11.159   9.336  1.00  0.00     0.134 A 
ATOM     63  F   UNL     1       7.517  12.831  10.384  1.00  0.00    -0.206 F 
ATOM     64  C   UNL     1       9.492  13.717   9.480  1.00  0.00     0.040 A 
ATOM     65  C   UNL     1      11.322  12.256   8.920  1.00  0.00     0.040 A 
ATOM     66  F   UNL     1      11.120   9.941   9.239  1.00  0.00    -0.206 F 
ATOM     67  C   UNL     1      10.782  13.539   8.984  1.00  0.00     0.006 A 
ENDBRANCH  46  60
BRANCH  47  68
ATOM     68  C   UNL     1       3.975   3.201  12.305  1.00  0.00     0.057 A 
ATOM     69  C   UNL     1       3.178   3.141  13.455  1.00  0.00     0.134 A 
ATOM     70  C   UNL     1       4.038   2.054  11.505  1.00  0.00     0.134 A 
ATOM     71  F   UNL     1       3.091   4.202  14.270  1.00  0.00    -0.206 F 
ATOM     72  C   UNL     1       2.490   1.980  13.809  1.00  0.00     0.040 A 
ATOM     73  C   UNL     1       3.336   0.894  11.834  1.00  0.00     0.040 A 
ATOM     74  F   UNL     1       4.776   2.050  10.385  1.00  0.00    -0.206 F 
ATOM     75  C   UNL     1       2.564   0.852  12.994  1.00  0.00     0.006 A 
ENDBRANCH  47  68
BRANCH  59  76
ATOM     76  C   UNL     1       9.418   6.456  15.172  1.00  0.00     0.057 A 
ATOM     77  C   UNL     1      10.329   5.395  15.237  1.00  0.00     0.134 A 
ATOM     78  C   UNL     1       9.311   7.291  16.292  1.00  0.00     0.134 A 
ATOM     79  F   UNL     1      10.469   4.553  14.201  1.00  0.00    -0.206 F 
ATOM     80  C   UNL     1      11.091   5.161  16.382  1.00  0.00     0.040 A 
ATOM     81  C   UNL     1      10.086   7.082  17.432  1.00  0.00     0.040 A 
ATOM     82  F   UNL     1       8.463   8.330  16.288  1.00  0.00    -0.206 F 
ATOM     83  C   UNL     1      10.976   6.010  17.481  1.00  0.00     0.006 A 
ENDBRANCH  59  76
ENDBRANCH  33  34
ENDBRANCH  25  28
ENDBRANCH  23  24
ENDBRANCH   1  23
TORSDOF 14
