REMARK SMILES O=C(NCCCNC(=O)[C@H]1[C@H]2CC[C@H](CC2)[C@@H]1C(=O)Nc1sc2c(c1C(=O)N1CCCCC1)CCCC2)c1ccc(-c2c3nc(c(-c4c(F)cccc4F)c4ccc([nH]4)c(-c4c(F)cccc4F)c4nc(c(-c5c(F)cccc5F)c5ccc2[nH]5)C=C4)C=C3)cc1
REMARK SMILES IDX 5 1 4 2 3 3 1 4 2 5 38 7 39 8 91 9 40 10 90 11 41 12 42 13
REMARK SMILES IDX 43 14 84 15 44 16 89 17 83 18 85 19 45 20 88 21 82 22 81 23
REMARK SMILES IDX 46 25 72 26 55 27 71 28 56 29 59 30 70 31 86 32 57 33 58 34
REMARK SMILES IDX 69 36 87 37 60 38 47 39 48 40 53 41 49 42 50 43 52 44 54 45
REMARK SMILES IDX 51 46 73 47 74 48 79 49 75 50 76 51 78 52 80 53 77 54 61 55
REMARK SMILES IDX 62 56 67 57 63 58 64 59 66 60 68 61 65 62 6 63 7 64 8 65
REMARK SMILES IDX 9 67 10 68 11 69 17 70 12 71 16 72 14 73 13 74 15 75 18 76
REMARK SMILES IDX 19 77 20 78 21 80 22 81 25 82 23 83 24 84 37 85 34 86 36 87
REMARK SMILES IDX 35 88 26 89 27 90 28 91 29 92 33 93 30 94 32 95 31 96
REMARK H PARENT 3 6 85 24 59 35 7 66 20 79
REMARK Flexibility Score: inf
ROOT
ATOM      1  C   UNL     1       3.936  -2.833   0.234  1.00  0.00     0.042 C 
ENDROOT
BRANCH   1   2
ATOM      2  C   UNL     1       3.564  -1.442  -0.259  1.00  0.00     0.118 C 
BRANCH   2   3
ATOM      3  N   UNL     1       2.179  -1.055  -0.099  1.00  0.00    -0.352 N 
ATOM      4  O   UNL     1       0.440   0.291   0.394  1.00  0.00    -0.269 OA
ATOM      5  C   UNL     1       1.654   0.105   0.426  1.00  0.00     0.251 C 
ATOM      6  H   UNL     1       1.517  -1.715  -0.409  1.00  0.00     0.163 HD
BRANCH   5   7
ATOM      7  C   UNL     1       2.525   1.096   1.106  1.00  0.00     0.039 A 
ATOM      8  C   UNL     1       3.712   1.575   0.546  1.00  0.00     0.014 A 
ATOM      9  C   UNL     1       2.132   1.538   2.373  1.00  0.00     0.014 A 
ATOM     10  C   UNL     1       4.584   2.347   1.318  1.00  0.00     0.010 A 
ATOM     11  C   UNL     1       2.968   2.378   3.113  1.00  0.00     0.010 A 
ATOM     12  C   UNL     1       4.227   2.747   2.617  1.00  0.00    -0.014 A 
BRANCH  12  13
ATOM     13  C   UNL     1       5.163   3.543   3.457  1.00  0.00     0.031 A 
ATOM     14  C   UNL     1       5.702   2.985   4.750  1.00  0.00     0.074 A 
ATOM     15  C   UNL     1       5.521   4.782   3.069  1.00  0.00     0.049 A 
ATOM     16  N   UNL     1       6.469   3.560   5.644  1.00  0.00    -0.248 NA
ATOM     17  C   UNL     1       5.319   1.606   5.091  1.00  0.00     0.031 C 
ATOM     18  C   UNL     1       5.068   5.450   1.849  1.00  0.00     0.029 A 
ATOM     19  N   UNL     1       6.347   5.702   3.665  1.00  0.00    -0.354 N 
ATOM     20  C   UNL     1       6.628   2.631   6.667  1.00  0.00     0.074 A 
ATOM     21  C   UNL     1       5.867   1.459   6.290  1.00  0.00     0.031 C 
ATOM     22  C   UNL     1       5.643   6.660   1.771  1.00  0.00     0.029 A 
ATOM     23  C   UNL     1       6.463   6.874   2.960  1.00  0.00     0.049 A 
ATOM     24  H   UNL     1       6.812   5.537   4.517  1.00  0.00     0.167 HD
ATOM     25  C   UNL     1       7.346   2.741   7.811  1.00  0.00     0.037 A 
ATOM     26  C   UNL     1       7.138   8.004   3.242  1.00  0.00     0.037 A 
ATOM     27  C   UNL     1       8.138   3.889   8.173  1.00  0.00     0.049 A 
ATOM     28  C   UNL     1       7.929   8.098   4.514  1.00  0.00     0.074 A 
ATOM     29  C   UNL     1       8.938   4.068   9.289  1.00  0.00     0.029 A 
ATOM     30  N   UNL     1       8.231   5.052   7.426  1.00  0.00    -0.354 N 
ATOM     31  N   UNL     1       8.090   7.201   5.455  1.00  0.00    -0.248 NA
ATOM     32  C   UNL     1       8.632   9.364   4.762  1.00  0.00     0.031 C 
ATOM     33  C   UNL     1       9.492   5.352   9.232  1.00  0.00     0.029 A 
ATOM     34  C   UNL     1       9.066   5.957   8.062  1.00  0.00     0.049 A 
ATOM     35  H   UNL     1       7.773   5.212   6.569  1.00  0.00     0.167 HD
ATOM     36  C   UNL     1       8.931   7.783   6.394  1.00  0.00     0.074 A 
ATOM     37  C   UNL     1       9.256   9.106   5.903  1.00  0.00     0.031 C 
ATOM     38  C   UNL     1       9.393   7.266   7.558  1.00  0.00     0.037 A 
BRANCH  25  39
ATOM     39  C   UNL     1       7.303   1.588   8.773  1.00  0.00     0.057 A 
ATOM     40  C   UNL     1       7.977   0.387   8.522  1.00  0.00     0.134 A 
ATOM     41  C   UNL     1       6.615   1.702   9.988  1.00  0.00     0.134 A 
ATOM     42  F   UNL     1       8.645   0.210   7.372  1.00  0.00    -0.206 F 
ATOM     43  C   UNL     1       7.953  -0.668   9.437  1.00  0.00     0.040 A 
ATOM     44  C   UNL     1       6.603   0.663  10.921  1.00  0.00     0.040 A 
ATOM     45  F   UNL     1       5.955   2.829  10.295  1.00  0.00    -0.206 F 
ATOM     46  C   UNL     1       7.270  -0.528  10.644  1.00  0.00     0.006 A 
ENDBRANCH  25  39
BRANCH  26  47
ATOM     47  C   UNL     1       7.106   9.138   2.287  1.00  0.00     0.057 A 
ATOM     48  C   UNL     1       8.231   9.466   1.524  1.00  0.00     0.134 A 
ATOM     49  C   UNL     1       5.954   9.913   2.111  1.00  0.00     0.134 A 
ATOM     50  F   UNL     1       9.369   8.769   1.665  1.00  0.00    -0.206 F 
ATOM     51  C   UNL     1       8.218  10.534   0.627  1.00  0.00     0.040 A 
ATOM     52  C   UNL     1       5.919  10.969   1.200  1.00  0.00     0.040 A 
ATOM     53  F   UNL     1       4.842   9.642   2.810  1.00  0.00    -0.206 F 
ATOM     54  C   UNL     1       7.056  11.285   0.459  1.00  0.00     0.006 A 
ENDBRANCH  26  47
BRANCH  38  55
ATOM     55  C   UNL     1      10.336   8.116   8.356  1.00  0.00     0.057 A 
ATOM     56  C   UNL     1       9.895   9.229   9.082  1.00  0.00     0.134 A 
ATOM     57  C   UNL     1      11.700   7.806   8.409  1.00  0.00     0.134 A 
ATOM     58  F   UNL     1       8.602   9.587   9.060  1.00  0.00    -0.206 F 
ATOM     59  C   UNL     1      10.783  10.019   9.814  1.00  0.00     0.040 A 
ATOM     60  C   UNL     1      12.594   8.575   9.155  1.00  0.00     0.040 A 
ATOM     61  F   UNL     1      12.186   6.750   7.739  1.00  0.00    -0.206 F 
ATOM     62  C   UNL     1      12.137   9.690   9.855  1.00  0.00     0.006 A 
ENDBRANCH  38  55
ENDBRANCH  12  13
ENDBRANCH   5   7
ENDBRANCH   2   3
ENDBRANCH   1   2
BRANCH   1  63
ATOM     63  C   UNL     1       3.515  -3.994  -0.658  1.00  0.00     0.117 C 
BRANCH  63  64
ATOM     64  N   UNL     1       4.004  -3.894  -2.024  1.00  0.00    -0.356 N 
ATOM     65  C   UNL     1       4.920  -4.630  -2.718  1.00  0.00     0.224 C 
ATOM     66  H   UNL     1       3.601  -3.161  -2.542  1.00  0.00     0.163 HD
ATOM     67  O   UNL     1       5.109  -4.302  -3.892  1.00  0.00    -0.275 OA
BRANCH  65  68
ATOM     68  C   UNL     1       5.642  -5.821  -2.062  1.00  0.00     0.094 C 
ATOM     69  C   UNL     1       4.602  -6.968  -1.892  1.00  0.00     0.002 C 
ATOM     70  C   UNL     1       6.862  -6.314  -2.918  1.00  0.00     0.094 C 
ATOM     71  C   UNL     1       4.097  -7.451  -3.264  1.00  0.00     0.005 C 
ATOM     72  C   UNL     1       5.295  -8.133  -1.178  1.00  0.00     0.005 C 
ATOM     73  C   UNL     1       6.585  -7.810  -3.325  1.00  0.00     0.002 C 
ATOM     74  C   UNL     1       5.280  -7.860  -4.145  1.00  0.00     0.005 C 
ATOM     75  C   UNL     1       6.370  -8.720  -2.091  1.00  0.00     0.005 C 
BRANCH  70  76
ATOM     76  C   UNL     1       8.308  -6.200  -2.328  1.00  0.00     0.229 C 
ATOM     77  O   UNL     1       8.875  -7.188  -1.847  1.00  0.00    -0.274 OA
ATOM     78  N   UNL     1       9.097  -5.092  -2.536  1.00  0.00    -0.317 N 
ATOM     79  H   UNL     1      10.039  -5.292  -2.741  1.00  0.00     0.170 HD
BRANCH  78  80
ATOM     80  C   UNL     1       8.789  -3.748  -2.504  1.00  0.00     0.108 A 
ATOM     81  S   UNL     1       7.508  -3.261  -1.518  1.00  0.00    -0.122 S 
ATOM     82  C   UNL     1       9.502  -2.647  -2.999  1.00  0.00     0.078 A 
ATOM     83  C   UNL     1       7.488  -1.742  -2.228  1.00  0.00     0.011 A 
ATOM     84  C   UNL     1       8.686  -1.444  -2.839  1.00  0.00    -0.019 A 
ATOM     85  C   UNL     1       6.304  -0.853  -2.137  1.00  0.00     0.047 C 
ATOM     86  C   UNL     1       8.931  -0.048  -3.327  1.00  0.00     0.037 C 
ATOM     87  C   UNL     1       6.431   0.327  -3.095  1.00  0.00     0.006 C 
ATOM     88  C   UNL     1       7.815   0.950  -2.976  1.00  0.00     0.005 C 
BRANCH  82  89
ATOM     89  C   UNL     1      10.791  -2.812  -3.703  1.00  0.00     0.257 C 
ATOM     90  O   UNL     1      11.311  -3.921  -3.839  1.00  0.00    -0.269 OA
ATOM     91  N   UNL     1      11.331  -1.686  -4.325  1.00  0.00    -0.339 N 
ATOM     92  C   UNL     1      11.784  -1.849  -5.697  1.00  0.00     0.120 C 
ATOM     93  C   UNL     1      12.107  -0.716  -3.556  1.00  0.00     0.120 C 
ATOM     94  C   UNL     1      11.658  -0.523  -6.436  1.00  0.00     0.022 C 
ATOM     95  C   UNL     1      12.143   0.657  -4.242  1.00  0.00     0.022 C 
ATOM     96  C   UNL     1      12.461   0.573  -5.736  1.00  0.00     0.004 C 
ENDBRANCH  82  89
ENDBRANCH  78  80
ENDBRANCH  70  76
ENDBRANCH  65  68
ENDBRANCH  63  64
ENDBRANCH   1  63
TORSDOF 13
