REMARK SMILES O=C(/C=C/c1ccc(O)c(O)c1)NCCCNC(=O)c1ccc(-c2c3nc(c(-c4c(F)cccc4F)c4ccc([nH]4)c(-c4c(F)cccc4F)c4nc(c(-c5c(F)cccc5F)c5ccc2[nH]5)C=C4)C=C3)cc1
REMARK SMILES IDX 15 1 14 2 13 3 1 4 2 5 3 7 4 8 5 9 6 10 12 11 7 12 10 13
REMARK SMILES IDX 8 14 11 15 9 17 16 19 17 20 18 21 19 23 20 24 21 25 73 26
REMARK SMILES IDX 22 27 72 28 23 29 24 30 25 31 66 32 26 33 71 34 65 35 67 36
REMARK SMILES IDX 27 37 70 38 64 39 63 40 28 42 54 43 37 44 53 45 38 46 41 47
REMARK SMILES IDX 52 48 68 49 39 50 40 51 51 53 69 54 42 55 29 56 30 57 35 58
REMARK SMILES IDX 31 59 32 60 34 61 36 62 33 63 55 64 56 65 61 66 57 67 58 68
REMARK SMILES IDX 60 69 62 70 59 71 43 72 44 73 49 74 45 75 46 76 48 77 50 78
REMARK SMILES IDX 47 79
REMARK H PARENT 13 6 11 16 9 18 17 22 67 41 41 52
REMARK Flexibility Score: inf
ROOT
ATOM      1  C   UNL     1       2.535   2.618   2.126  1.00  0.00     0.042 C 
ENDROOT
BRANCH   1   2
ATOM      2  C   UNL     1       2.255   2.279   0.665  1.00  0.00     0.118 C 
BRANCH   2   3
ATOM      3  N   UNL     1       2.946   1.083   0.223  1.00  0.00    -0.352 N 
ATOM      4  O   UNL     1       1.115  -0.296   0.337  1.00  0.00    -0.270 OA
ATOM      5  C   UNL     1       2.306  -0.121   0.096  1.00  0.00     0.244 C 
ATOM      6  H   UNL     1       3.905   1.139   0.006  1.00  0.00     0.163 HD
BRANCH   5   7
ATOM      7  C   UNL     1       3.116  -1.251  -0.425  1.00  0.00     0.072 C 
ATOM      8  C   UNL     1       4.455  -1.344  -0.403  1.00  0.00     0.014 C 
BRANCH   8   9
ATOM      9  C   UNL     1       5.184  -2.522  -0.900  1.00  0.00    -0.022 A 
ATOM     10  C   UNL     1       4.801  -3.201  -2.070  1.00  0.00     0.012 A 
ATOM     11  C   UNL     1       6.325  -2.950  -0.210  1.00  0.00     0.058 A 
ATOM     12  C   UNL     1       5.523  -4.310  -2.529  1.00  0.00     0.051 A 
ATOM     13  C   UNL     1       7.036  -4.051  -0.671  1.00  0.00     0.157 A 
ATOM     14  C   UNL     1       6.639  -4.731  -1.818  1.00  0.00     0.157 A 
BRANCH  13  15
ATOM     15  O   UNL     1       8.140  -4.466   0.019  1.00  0.00    -0.504 OA
ATOM     16  H   UNL     1       8.629  -5.207  -0.281  1.00  0.00     0.293 HD
ENDBRANCH  13  15
BRANCH  14  17
ATOM     17  O   UNL     1       7.384  -5.808  -2.210  1.00  0.00    -0.504 OA
ATOM     18  H   UNL     1       7.145  -6.288  -2.978  1.00  0.00     0.293 HD
ENDBRANCH  14  17
ENDBRANCH   8   9
ENDBRANCH   5   7
ENDBRANCH   2   3
ENDBRANCH   1   2
BRANCH   1  19
ATOM     19  C   UNL     1       4.002   2.892   2.447  1.00  0.00     0.118 C 
BRANCH  19  20
ATOM     20  N   UNL     1       4.546   4.040   1.732  1.00  0.00    -0.352 N 
ATOM     21  C   UNL     1       5.217   5.143   2.197  1.00  0.00     0.251 C 
ATOM     22  H   UNL     1       4.409   4.021   0.757  1.00  0.00     0.163 HD
ATOM     23  O   UNL     1       5.482   6.059   1.420  1.00  0.00    -0.269 OA
BRANCH  21  24
ATOM     24  C   UNL     1       5.601   5.262   3.622  1.00  0.00     0.039 A 
ATOM     25  C   UNL     1       5.442   6.500   4.255  1.00  0.00     0.014 A 
ATOM     26  C   UNL     1       6.138   4.185   4.331  1.00  0.00     0.014 A 
ATOM     27  C   UNL     1       5.750   6.636   5.611  1.00  0.00     0.010 A 
ATOM     28  C   UNL     1       6.375   4.302   5.700  1.00  0.00     0.010 A 
ATOM     29  C   UNL     1       6.181   5.527   6.357  1.00  0.00    -0.014 A 
BRANCH  29  30
ATOM     30  C   UNL     1       6.412   5.627   7.822  1.00  0.00     0.031 A 
ATOM     31  C   UNL     1       7.784   5.405   8.396  1.00  0.00     0.074 A 
ATOM     32  C   UNL     1       5.371   5.857   8.646  1.00  0.00     0.049 A 
ATOM     33  N   UNL     1       8.163   5.383   9.650  1.00  0.00    -0.248 NA
ATOM     34  C   UNL     1       8.870   5.150   7.438  1.00  0.00     0.031 C 
ATOM     35  C   UNL     1       3.982   6.049   8.222  1.00  0.00     0.029 A 
ATOM     36  N   UNL     1       5.316   5.957  10.014  1.00  0.00    -0.354 N 
ATOM     37  C   UNL     1       9.523   5.100   9.631  1.00  0.00     0.074 A 
ATOM     38  C   UNL     1       9.893   4.909   8.245  1.00  0.00     0.031 C 
ATOM     39  C   UNL     1       3.218   6.263   9.305  1.00  0.00     0.029 A 
ATOM     40  C   UNL     1       4.050   6.183  10.500  1.00  0.00     0.049 A 
ATOM     41  H   UNL     1       6.108   5.875  10.593  1.00  0.00     0.167 HD
ATOM     42  C   UNL     1      10.389   5.026  10.670  1.00  0.00     0.037 A 
ATOM     43  C   UNL     1       3.607   6.300  11.766  1.00  0.00     0.037 A 
ATOM     44  C   UNL     1      10.024   5.234  12.048  1.00  0.00     0.049 A 
ATOM     45  C   UNL     1       4.585   6.197  12.903  1.00  0.00     0.074 A 
ATOM     46  C   UNL     1      10.842   5.235  13.165  1.00  0.00     0.029 A 
ATOM     47  N   UNL     1       8.734   5.471  12.498  1.00  0.00    -0.354 N 
ATOM     48  N   UNL     1       5.880   5.996  12.865  1.00  0.00    -0.248 NA
ATOM     49  C   UNL     1       4.041   6.343  14.261  1.00  0.00     0.031 C 
ATOM     50  C   UNL     1      10.040   5.425  14.295  1.00  0.00     0.029 A 
ATOM     51  C   UNL     1       8.730   5.596  13.878  1.00  0.00     0.049 A 
ATOM     52  H   UNL     1       7.939   5.540  11.922  1.00  0.00     0.167 HD
ATOM     53  C   UNL     1       6.309   6.021  14.186  1.00  0.00     0.074 A 
ATOM     54  C   UNL     1       5.138   6.271  15.001  1.00  0.00     0.031 C 
ATOM     55  C   UNL     1       7.560   5.853  14.679  1.00  0.00     0.037 A 
BRANCH  42  56
ATOM     56  C   UNL     1      11.823   4.707  10.356  1.00  0.00     0.057 A 
ATOM     57  C   UNL     1      12.658   5.622   9.700  1.00  0.00     0.134 A 
ATOM     58  C   UNL     1      12.387   3.487  10.749  1.00  0.00     0.134 A 
ATOM     59  F   UNL     1      12.178   6.805   9.288  1.00  0.00    -0.206 F 
ATOM     60  C   UNL     1      13.993   5.324   9.422  1.00  0.00     0.040 A 
ATOM     61  C   UNL     1      13.729   3.189  10.503  1.00  0.00     0.040 A 
ATOM     62  F   UNL     1      11.648   2.568  11.389  1.00  0.00    -0.206 F 
ATOM     63  C   UNL     1      14.534   4.107   9.831  1.00  0.00     0.006 A 
ENDBRANCH  42  56
BRANCH  43  64
ATOM     64  C   UNL     1       2.166   6.546  12.030  1.00  0.00     0.057 A 
ATOM     65  C   UNL     1       1.724   7.775  12.534  1.00  0.00     0.134 A 
ATOM     66  C   UNL     1       1.200   5.560  11.798  1.00  0.00     0.134 A 
ATOM     67  F   UNL     1       2.604   8.753  12.796  1.00  0.00    -0.206 F 
ATOM     68  C   UNL     1       0.378   8.008  12.818  1.00  0.00     0.040 A 
ATOM     69  C   UNL     1      -0.153   5.788  12.051  1.00  0.00     0.040 A 
ATOM     70  F   UNL     1       1.558   4.363  11.309  1.00  0.00    -0.206 F 
ATOM     71  C   UNL     1      -0.567   7.013  12.571  1.00  0.00     0.006 A 
ENDBRANCH  43  64
BRANCH  55  72
ATOM     72  C   UNL     1       7.736   5.973  16.165  1.00  0.00     0.057 A 
ATOM     73  C   UNL     1       7.269   4.993  17.050  1.00  0.00     0.134 A 
ATOM     74  C   UNL     1       8.415   7.069  16.715  1.00  0.00     0.134 A 
ATOM     75  F   UNL     1       6.599   3.925  16.590  1.00  0.00    -0.206 F 
ATOM     76  C   UNL     1       7.448   5.111  18.430  1.00  0.00     0.040 A 
ATOM     77  C   UNL     1       8.625   7.184  18.089  1.00  0.00     0.040 A 
ATOM     78  F   UNL     1       8.896   8.039  15.923  1.00  0.00    -0.206 F 
ATOM     79  C   UNL     1       8.135   6.205  18.952  1.00  0.00     0.006 A 
ENDBRANCH  55  72
ENDBRANCH  29  30
ENDBRANCH  21  24
ENDBRANCH  19  20
ENDBRANCH   1  19
TORSDOF 13
