REMARK SMILES COc1cc(/C=N/NC(=O)c2cc(Cl)ccc2O)ccc1OCC(=O)NCCCNC(=O)c1ccc(-c2c3nc(c(-c4c(F)cccc4F)c4ccc([nH]4)c(-c4c(F)cccc4F)c4nc(c(-c5c(F)cccc5F)c5ccc2[nH]5)C=C4)C=C3)cc1
REMARK SMILES IDX 24 1 25 2 26 3 23 5 22 6 21 7 3 8 4 9 5 10 20 11 19 12 2 13
REMARK SMILES IDX 1 14 6 15 7 16 8 17 9 18 10 20 11 21 12 22 17 23 13 24 16 25
REMARK SMILES IDX 14 26 15 27 18 28 27 30 28 31 29 32 30 33 31 34 32 36 33 37
REMARK SMILES IDX 34 38 86 39 35 40 85 41 36 42 37 43 38 44 79 45 39 46 84 47
REMARK SMILES IDX 78 48 80 49 40 50 83 51 77 52 76 53 41 55 67 56 50 57 66 58
REMARK SMILES IDX 51 59 54 60 65 61 81 62 52 63 53 64 64 66 82 67 55 68 42 69
REMARK SMILES IDX 43 70 48 71 44 72 45 73 47 74 49 75 46 76 68 77 69 78 74 79
REMARK SMILES IDX 70 80 71 81 73 82 75 83 72 84 56 85 57 86 62 87 58 88 59 89
REMARK SMILES IDX 61 90 63 91 60 92
REMARK H PARENT 26 4 8 19 18 29 30 35 80 54 54 65
REMARK Flexibility Score: inf
ROOT
ATOM      1  C   UNL     1       2.210   0.002   1.037  1.00  0.00     0.257 C 
ATOM      2  O   UNL     1       1.341  -0.842   1.263  1.00  0.00    -0.271 OA
ATOM      3  N   UNL     1       2.492   0.894   2.031  1.00  0.00    -0.353 N 
ATOM      4  H   UNL     1       1.843   0.926   2.770  1.00  0.00     0.163 HD
ENDROOT
BRANCH   1   5
ATOM      5  C   UNL     1       3.010   0.025  -0.272  1.00  0.00     0.329 C 
BRANCH   5   6
ATOM      6  O   UNL     1       3.206   1.283  -0.894  1.00  0.00    -0.480 OA
BRANCH   6   7
ATOM      7  C   UNL     1       2.152   1.960  -1.441  1.00  0.00     0.161 A 
ATOM      8  C   UNL     1       0.888   1.476  -1.804  1.00  0.00     0.161 A 
ATOM      9  C   UNL     1      -0.051   2.337  -2.395  1.00  0.00     0.060 A 
ATOM     10  C   UNL     1       0.257   3.686  -2.584  1.00  0.00    -0.002 A 
ATOM     11  C   UNL     1       2.449   3.314  -1.667  1.00  0.00     0.051 A 
ATOM     12  C   UNL     1       1.505   4.183  -2.215  1.00  0.00     0.014 A 
BRANCH   8  13
ATOM     13  O   UNL     1       0.608   0.140  -1.712  1.00  0.00    -0.493 OA
ATOM     14  C   UNL     1      -0.552  -0.137  -0.926  1.00  0.00     0.278 C 
ENDBRANCH   8  13
BRANCH  10  15
ATOM     15  C   UNL     1      -0.679   4.602  -3.261  1.00  0.00     0.141 C 
ATOM     16  N   UNL     1      -1.518   4.166  -4.150  1.00  0.00    -0.180 NA
BRANCH  16  17
ATOM     17  N   UNL     1      -2.251   5.089  -4.841  1.00  0.00    -0.243 N 
ATOM     18  C   UNL     1      -1.844   6.255  -5.469  1.00  0.00     0.275 C 
ATOM     19  H   UNL     1      -3.215   4.896  -4.902  1.00  0.00     0.194 HD
ATOM     20  O   UNL     1      -2.675   7.000  -5.987  1.00  0.00    -0.267 OA
BRANCH  18  21
ATOM     21  C   UNL     1      -0.412   6.629  -5.535  1.00  0.00     0.084 A 
ATOM     22  C   UNL     1      -0.099   7.974  -5.294  1.00  0.00     0.038 A 
ATOM     23  C   UNL     1       0.617   5.724  -5.826  1.00  0.00     0.128 A 
ATOM     24  C   UNL     1       1.232   8.384  -5.277  1.00  0.00     0.042 A 
ATOM     25  C   UNL     1       1.947   6.141  -5.808  1.00  0.00     0.048 A 
ATOM     26  Cl  UNL     1       1.617  10.025  -4.936  1.00  0.00    -0.084 Cl
ATOM     27  C   UNL     1       2.257   7.470  -5.518  1.00  0.00     0.024 A 
BRANCH  23  28
ATOM     28  O   UNL     1       0.408   4.405  -6.120  1.00  0.00    -0.507 OA
ATOM     29  H   UNL     1      -0.464   4.064  -6.147  1.00  0.00     0.293 HD
ENDBRANCH  23  28
ENDBRANCH  18  21
ENDBRANCH  16  17
ENDBRANCH  10  15
ENDBRANCH   6   7
ENDBRANCH   5   6
ENDBRANCH   1   5
BRANCH   3  30
ATOM     30  C   UNL     1       3.618   1.799   2.146  1.00  0.00     0.117 C 
BRANCH  30  31
ATOM     31  C   UNL     1       3.212   3.267   2.153  1.00  0.00     0.042 C 
BRANCH  31  32
ATOM     32  C   UNL     1       2.158   3.640   3.191  1.00  0.00     0.118 C 
BRANCH  32  33
ATOM     33  N   UNL     1       2.545   3.300   4.554  1.00  0.00    -0.352 N 
ATOM     34  C   UNL     1       2.849   4.097   5.628  1.00  0.00     0.251 C 
ATOM     35  H   UNL     1       2.598   2.334   4.734  1.00  0.00     0.163 HD
ATOM     36  O   UNL     1       3.317   3.587   6.646  1.00  0.00    -0.269 OA
BRANCH  34  37
ATOM     37  C   UNL     1       2.651   5.560   5.570  1.00  0.00     0.039 A 
ATOM     38  C   UNL     1       3.641   6.394   6.098  1.00  0.00     0.014 A 
ATOM     39  C   UNL     1       1.493   6.114   5.021  1.00  0.00     0.014 A 
ATOM     40  C   UNL     1       3.510   7.780   5.994  1.00  0.00     0.010 A 
ATOM     41  C   UNL     1       1.401   7.493   4.843  1.00  0.00     0.010 A 
ATOM     42  C   UNL     1       2.412   8.340   5.321  1.00  0.00    -0.014 A 
BRANCH  42  43
ATOM     43  C   UNL     1       2.318   9.804   5.082  1.00  0.00     0.031 A 
ATOM     44  C   UNL     1       1.183  10.600   5.663  1.00  0.00     0.074 A 
ATOM     45  C   UNL     1       3.217  10.402   4.275  1.00  0.00     0.049 A 
ATOM     46  N   UNL     1       0.888  11.864   5.494  1.00  0.00    -0.248 NA
ATOM     47  C   UNL     1       0.237   9.874   6.526  1.00  0.00     0.031 C 
ATOM     48  C   UNL     1       4.338   9.731   3.613  1.00  0.00     0.029 A 
ATOM     49  N   UNL     1       3.323  11.707   3.864  1.00  0.00    -0.354 N 
ATOM     50  C   UNL     1      -0.278  12.082   6.217  1.00  0.00     0.074 A 
ATOM     51  C   UNL     1      -0.668  10.807   6.780  1.00  0.00     0.031 C 
ATOM     52  C   UNL     1       5.030  10.632   2.898  1.00  0.00     0.029 A 
ATOM     53  C   UNL     1       4.379  11.933   3.014  1.00  0.00     0.049 A 
ATOM     54  H   UNL     1       2.702  12.415   4.151  1.00  0.00     0.167 HD
ATOM     55  C   UNL     1      -0.951  13.241   6.411  1.00  0.00     0.037 A 
ATOM     56  C   UNL     1       4.771  13.057   2.386  1.00  0.00     0.037 A 
ATOM     57  C   UNL     1      -0.550  14.511   5.863  1.00  0.00     0.049 A 
ATOM     58  C   UNL     1       3.995  14.327   2.602  1.00  0.00     0.074 A 
ATOM     59  C   UNL     1      -1.131  15.753   6.051  1.00  0.00     0.029 A 
ATOM     60  N   UNL     1       0.530  14.700   5.013  1.00  0.00    -0.354 N 
ATOM     61  N   UNL     1       2.934  14.531   3.344  1.00  0.00    -0.248 NA
ATOM     62  C   UNL     1       4.473  15.523   1.895  1.00  0.00     0.031 C 
ATOM     63  C   UNL     1      -0.434  16.684   5.274  1.00  0.00     0.029 A 
ATOM     64  C   UNL     1       0.615  16.034   4.646  1.00  0.00     0.049 A 
ATOM     65  H   UNL     1       1.146  13.992   4.715  1.00  0.00     0.167 HD
ATOM     66  C   UNL     1       2.634  15.881   3.216  1.00  0.00     0.074 A 
ATOM     67  C   UNL     1       3.636  16.450   2.338  1.00  0.00     0.031 C 
ATOM     68  C   UNL     1       1.619  16.587   3.773  1.00  0.00     0.037 A 
BRANCH  55  69
ATOM     69  C   UNL     1      -2.194  13.190   7.253  1.00  0.00     0.057 A 
ATOM     70  C   UNL     1      -2.144  12.955   8.633  1.00  0.00     0.134 A 
ATOM     71  C   UNL     1      -3.454  13.415   6.683  1.00  0.00     0.134 A 
ATOM     72  F   UNL     1      -0.971  12.720   9.241  1.00  0.00    -0.206 F 
ATOM     73  C   UNL     1      -3.303  12.918   9.412  1.00  0.00     0.040 A 
ATOM     74  C   UNL     1      -4.617  13.411   7.456  1.00  0.00     0.040 A 
ATOM     75  F   UNL     1      -3.576  13.654   5.369  1.00  0.00    -0.206 F 
ATOM     76  C   UNL     1      -4.543  13.154   8.824  1.00  0.00     0.006 A 
ENDBRANCH  55  69
BRANCH  56  77
ATOM     77  C   UNL     1       5.965  13.040   1.503  1.00  0.00     0.057 A 
ATOM     78  C   UNL     1       7.139  13.712   1.862  1.00  0.00     0.134 A 
ATOM     79  C   UNL     1       5.962  12.361   0.278  1.00  0.00     0.134 A 
ATOM     80  F   UNL     1       7.199  14.395   3.015  1.00  0.00    -0.206 F 
ATOM     81  C   UNL     1       8.258  13.730   1.028  1.00  0.00     0.040 A 
ATOM     82  C   UNL     1       7.082  12.348  -0.554  1.00  0.00     0.040 A 
ATOM     83  F   UNL     1       4.872  11.688  -0.121  1.00  0.00    -0.206 F 
ATOM     84  C   UNL     1       8.232  13.042  -0.183  1.00  0.00     0.006 A 
ENDBRANCH  56  77
BRANCH  68  85
ATOM     85  C   UNL     1       1.561  18.057   3.475  1.00  0.00     0.057 A 
ATOM     86  C   UNL     1       1.202  18.544   2.211  1.00  0.00     0.134 A 
ATOM     87  C   UNL     1       1.834  18.999   4.476  1.00  0.00     0.134 A 
ATOM     88  F   UNL     1       0.942  17.695   1.205  1.00  0.00    -0.206 F 
ATOM     89  C   UNL     1       1.142  19.913   1.947  1.00  0.00     0.040 A 
ATOM     90  C   UNL     1       1.748  20.370   4.232  1.00  0.00     0.040 A 
ATOM     91  F   UNL     1       2.174  18.601   5.711  1.00  0.00    -0.206 F 
ATOM     92  C   UNL     1       1.409  20.830   2.962  1.00  0.00     0.006 A 
ENDBRANCH  68  85
ENDBRANCH  42  43
ENDBRANCH  34  37
ENDBRANCH  32  33
ENDBRANCH  31  32
ENDBRANCH  30  31
ENDBRANCH   3  30
TORSDOF 17
