REMARK SMILES Cc1ccc([C@@H](CC(=O)NCCCNC(=O)c2ccc(-c3c4nc(c(-c5c(F)cccc5F)c5ccc([nH]5)c(-c5c(F)cccc5F)c5nc(c(-c6c(F)cccc6F)c6ccc3[nH]6)C=C5)C=C4)cc2)NC(=O)c2ccc(OC(F)F)cc2)cc1
REMARK SMILES IDX 8 1 9 2 10 3 7 5 6 6 5 7 1 8 2 9 3 10 85 11 4 12 84 13 71 14
REMARK SMILES IDX 72 15 73 17 74 18 75 19 83 20 76 21 82 22 77 23 78 24 79 25
REMARK SMILES IDX 80 26 81 27 11 28 12 29 13 30 14 31 15 32 16 34 17 35 18 36
REMARK SMILES IDX 70 37 19 38 69 39 20 40 21 41 22 42 63 43 23 44 68 45 62 46
REMARK SMILES IDX 64 47 24 48 67 49 61 50 60 51 25 53 51 54 34 55 50 56 35 57
REMARK SMILES IDX 38 58 49 59 65 60 36 61 37 62 48 64 66 65 39 66 26 67 27 68
REMARK SMILES IDX 32 69 28 70 29 71 31 72 33 73 30 74 52 75 53 76 58 77 54 78
REMARK SMILES IDX 55 79 57 80 59 81 56 82 40 83 41 84 46 85 42 86 43 87 45 88
REMARK SMILES IDX 47 89 44 90
REMARK H PARENT 10 4 71 16 14 33 64 52 38 63
REMARK Flexibility Score: inf
ROOT
ATOM      1  C   UNL     1      -3.630  -1.667  -1.385  1.00  0.00     0.222 C 
ATOM      2  O   UNL     1      -4.700  -2.174  -1.046  1.00  0.00    -0.275 OA
ATOM      3  N   UNL     1      -2.699  -2.477  -1.960  1.00  0.00    -0.356 N 
ATOM      4  H   UNL     1      -3.059  -3.278  -2.405  1.00  0.00     0.163 HD
ENDROOT
BRANCH   1   5
ATOM      5  C   UNL     1      -3.406  -0.175  -1.310  1.00  0.00     0.129 C 
BRANCH   5   6
ATOM      6  C   UNL     1      -3.236   0.462   0.087  1.00  0.00     0.122 C 
BRANCH   6   7
ATOM      7  C   UNL     1      -1.754   0.763   0.315  1.00  0.00    -0.025 A 
ATOM      8  C   UNL     1       2.531   1.200   0.041  1.00  0.00     0.044 C 
ATOM      9  C   UNL     1       1.047   1.124   0.245  1.00  0.00    -0.051 A 
ATOM     10  C   UNL     1       0.486   0.049   0.934  1.00  0.00     0.004 A 
ATOM     11  C   UNL     1       0.199   2.072  -0.332  1.00  0.00     0.004 A 
ATOM     12  C   UNL     1      -0.900  -0.113   0.993  1.00  0.00     0.006 A 
ATOM     13  C   UNL     1      -1.187   1.894  -0.297  1.00  0.00     0.006 A 
ENDBRANCH   6   7
BRANCH   6  14
ATOM     14  N   UNL     1      -3.835  -0.260   1.208  1.00  0.00    -0.345 N 
ATOM     15  C   UNL     1      -4.949   0.038   1.949  1.00  0.00     0.251 C 
ATOM     16  H   UNL     1      -3.367  -1.085   1.471  1.00  0.00     0.164 HD
ATOM     17  O   UNL     1      -5.074  -0.440   3.079  1.00  0.00    -0.269 OA
BRANCH  15  18
ATOM     18  C   UNL     1      -6.011   0.911   1.409  1.00  0.00     0.040 A 
ATOM     19  C   UNL     1      -6.633   1.847   2.238  1.00  0.00     0.017 A 
ATOM     20  C   UNL     1      -6.480   0.727   0.108  1.00  0.00     0.017 A 
ATOM     21  C   UNL     1      -7.671   2.638   1.735  1.00  0.00     0.047 A 
ATOM     22  C   UNL     1      -7.495   1.538  -0.401  1.00  0.00     0.047 A 
ATOM     23  C   UNL     1      -8.093   2.504   0.406  1.00  0.00     0.126 A 
BRANCH  23  24
ATOM     24  O   UNL     1      -9.105   3.342   0.033  1.00  0.00    -0.435 OA
BRANCH  24  25
ATOM     25  C   UNL     1      -9.479   3.364  -1.339  1.00  0.00     0.542 C 
ATOM     26  F   UNL     1      -8.404   3.668  -2.108  1.00  0.00    -0.167 F 
ATOM     27  F   UNL     1      -9.942   2.148  -1.718  1.00  0.00    -0.167 F 
ENDBRANCH  24  25
ENDBRANCH  23  24
ENDBRANCH  15  18
ENDBRANCH   6  14
ENDBRANCH   5   6
ENDBRANCH   1   5
BRANCH   3  28
ATOM     28  C   UNL     1      -1.253  -2.335  -2.014  1.00  0.00     0.117 C 
BRANCH  28  29
ATOM     29  C   UNL     1      -0.684  -3.080  -0.824  1.00  0.00     0.042 C 
BRANCH  29  30
ATOM     30  C   UNL     1       0.768  -3.505  -0.910  1.00  0.00     0.118 C 
BRANCH  30  31
ATOM     31  N   UNL     1       1.780  -2.484  -1.188  1.00  0.00    -0.352 N 
ATOM     32  C   UNL     1       3.146  -2.542  -0.919  1.00  0.00     0.251 C 
ATOM     33  H   UNL     1       1.457  -1.657  -1.614  1.00  0.00     0.163 HD
ATOM     34  O   UNL     1       3.938  -1.770  -1.464  1.00  0.00    -0.269 OA
BRANCH  32  35
ATOM     35  C   UNL     1       3.657  -3.623  -0.045  1.00  0.00     0.039 A 
ATOM     36  C   UNL     1       4.389  -4.640  -0.670  1.00  0.00     0.014 A 
ATOM     37  C   UNL     1       2.952  -3.858   1.125  1.00  0.00     0.014 A 
ATOM     38  C   UNL     1       4.065  -5.958  -0.381  1.00  0.00     0.010 A 
ATOM     39  C   UNL     1       2.543  -5.159   1.326  1.00  0.00     0.010 A 
ATOM     40  C   UNL     1       3.004  -6.185   0.481  1.00  0.00    -0.014 A 
BRANCH  40  41
ATOM     41  C   UNL     1       2.228  -7.417   0.538  1.00  0.00     0.031 A 
ATOM     42  C   UNL     1       2.265  -8.173   1.802  1.00  0.00     0.074 A 
ATOM     43  C   UNL     1       1.337  -7.728  -0.436  1.00  0.00     0.049 A 
ATOM     44  N   UNL     1       1.691  -9.304   1.992  1.00  0.00    -0.248 NA
ATOM     45  C   UNL     1       3.023  -7.713   2.962  1.00  0.00     0.031 C 
ATOM     46  C   UNL     1       0.181  -8.620  -0.329  1.00  0.00     0.029 A 
ATOM     47  N   UNL     1       1.402  -7.436  -1.808  1.00  0.00    -0.354 N 
ATOM     48  C   UNL     1       1.767  -9.597   3.333  1.00  0.00     0.074 A 
ATOM     49  C   UNL     1       2.679  -8.624   3.873  1.00  0.00     0.031 C 
ATOM     50  C   UNL     1      -0.180  -9.031  -1.554  1.00  0.00     0.029 A 
ATOM     51  C   UNL     1       0.834  -8.558  -2.473  1.00  0.00     0.049 A 
ATOM     52  H   UNL     1       1.766  -6.621  -2.224  1.00  0.00     0.167 HD
ATOM     53  C   UNL     1       0.959 -10.581   3.814  1.00  0.00     0.037 A 
ATOM     54  C   UNL     1       1.592  -9.360  -3.281  1.00  0.00     0.037 A 
ATOM     55  C   UNL     1       0.365 -11.329   2.702  1.00  0.00     0.049 A 
ATOM     56  C   UNL     1       1.733 -10.789  -2.791  1.00  0.00     0.074 A 
ATOM     57  C   UNL     1      -0.849 -11.318   2.040  1.00  0.00     0.029 A 
ATOM     58  N   UNL     1       1.226 -12.054   1.903  1.00  0.00    -0.354 N 
ATOM     59  N   UNL     1       1.249 -11.224  -1.660  1.00  0.00    -0.248 NA
ATOM     60  C   UNL     1       2.502 -11.820  -3.491  1.00  0.00     0.031 C 
ATOM     61  C   UNL     1      -0.676 -12.012   0.800  1.00  0.00     0.029 A 
ATOM     62  C   UNL     1       0.631 -12.465   0.732  1.00  0.00     0.049 A 
ATOM     63  H   UNL     1       2.159 -12.255   2.144  1.00  0.00     0.167 HD
ATOM     64  C   UNL     1       1.696 -12.496  -1.425  1.00  0.00     0.074 A 
ATOM     65  C   UNL     1       2.466 -12.835  -2.608  1.00  0.00     0.031 C 
ATOM     66  C   UNL     1       1.450 -13.155  -0.256  1.00  0.00     0.037 A 
BRANCH  53  67
ATOM     67  C   UNL     1       0.590 -10.822   5.260  1.00  0.00     0.057 A 
ATOM     68  C   UNL     1      -0.420 -11.755   5.570  1.00  0.00     0.134 A 
ATOM     69  C   UNL     1       1.093 -10.136   6.383  1.00  0.00     0.134 A 
ATOM     70  F   UNL     1      -0.984 -12.522   4.626  1.00  0.00    -0.206 F 
ATOM     71  C   UNL     1      -0.919 -11.945   6.866  1.00  0.00     0.040 A 
ATOM     72  C   UNL     1       0.610 -10.323   7.685  1.00  0.00     0.040 A 
ATOM     73  F   UNL     1       2.076  -9.241   6.310  1.00  0.00    -0.206 F 
ATOM     74  C   UNL     1      -0.412 -11.220   7.930  1.00  0.00     0.006 A 
ENDBRANCH  53  67
BRANCH  54  75
ATOM     75  C   UNL     1       2.643  -8.577  -3.987  1.00  0.00     0.057 A 
ATOM     76  C   UNL     1       2.216  -7.594  -4.900  1.00  0.00     0.134 A 
ATOM     77  C   UNL     1       3.906  -8.414  -3.413  1.00  0.00     0.134 A 
ATOM     78  F   UNL     1       1.024  -7.710  -5.506  1.00  0.00    -0.206 F 
ATOM     79  C   UNL     1       2.922  -6.402  -5.072  1.00  0.00     0.040 A 
ATOM     80  C   UNL     1       4.634  -7.234  -3.604  1.00  0.00     0.040 A 
ATOM     81  F   UNL     1       4.377  -9.310  -2.534  1.00  0.00    -0.206 F 
ATOM     82  C   UNL     1       4.111  -6.200  -4.379  1.00  0.00     0.006 A 
ENDBRANCH  54  75
BRANCH  66  83
ATOM     83  C   UNL     1       2.003 -14.517   0.060  1.00  0.00     0.057 A 
ATOM     84  C   UNL     1       1.883 -15.596  -0.823  1.00  0.00     0.134 A 
ATOM     85  C   UNL     1       2.567 -14.818   1.317  1.00  0.00     0.134 A 
ATOM     86  F   UNL     1       1.325 -15.437  -2.032  1.00  0.00    -0.206 F 
ATOM     87  C   UNL     1       2.317 -16.885  -0.485  1.00  0.00     0.040 A 
ATOM     88  C   UNL     1       2.945 -16.109   1.690  1.00  0.00     0.040 A 
ATOM     89  F   UNL     1       2.805 -13.865   2.231  1.00  0.00    -0.206 F 
ATOM     90  C   UNL     1       2.832 -17.148   0.781  1.00  0.00     0.006 A 
ENDBRANCH  66  83
ENDBRANCH  40  41
ENDBRANCH  32  35
ENDBRANCH  30  31
ENDBRANCH  29  30
ENDBRANCH  28  29
ENDBRANCH   3  28
TORSDOF 16
