REMARK SMILES COc1ccc(F)cc1[C@H](C)NC(=O)[C@H]1CC=CC[C@@H]1C(=O)NCCCNC(=O)c1ccc(-c2c3nc(c(-c4c(F)cccc4F)c4ccc([nH]4)c(-c4c(F)cccc4F)c4nc(c(-c5c(F)cccc5F)c5ccc2[nH]5)C=C4)C=C3)cc1
REMARK SMILES IDX 24 1 23 2 21 3 22 4 20 6 15 7 16 8 17 9 19 10 18 11 13 12
REMARK SMILES IDX 12 13 14 15 10 16 11 17 9 18 3 19 4 20 5 21 8 22 6 23 7 24
REMARK SMILES IDX 2 25 1 26 25 27 26 28 27 29 28 30 29 32 30 33 31 34 83 35
REMARK SMILES IDX 32 36 82 37 33 38 34 39 35 40 76 41 36 42 81 43 75 44 77 45
REMARK SMILES IDX 37 46 80 47 74 48 73 49 38 51 64 52 47 53 63 54 48 55 51 56
REMARK SMILES IDX 62 57 78 58 49 59 50 60 61 62 79 63 52 64 39 65 40 66 45 67
REMARK SMILES IDX 41 68 42 69 44 70 46 71 43 72 65 73 66 74 71 75 67 76 68 77
REMARK SMILES IDX 70 78 72 79 69 80 53 81 54 82 59 83 55 84 56 85 58 86 60 87
REMARK SMILES IDX 57 88
REMARK H PARENT 23 5 12 14 27 31 77 50 51 61
REMARK Flexibility Score: inf
ROOT
ATOM      1  C   UNL     1      -1.729  -6.776   3.810  1.00  0.00     0.117 C 
ENDROOT
BRANCH   1   2
ATOM      2  N   UNL     1      -1.803  -5.336   3.679  1.00  0.00    -0.356 N 
ATOM      3  C   UNL     1      -2.021  -4.555   2.594  1.00  0.00     0.224 C 
ATOM      4  O   UNL     1      -1.964  -3.338   2.792  1.00  0.00    -0.275 OA
ATOM      5  H   UNL     1      -1.673  -4.841   4.520  1.00  0.00     0.163 HD
BRANCH   3   6
ATOM      6  C   UNL     1      -2.256  -5.160   1.206  1.00  0.00     0.095 C 
ATOM      7  C   UNL     1      -2.421  -3.994   0.200  1.00  0.00     0.095 C 
ATOM      8  C   UNL     1      -3.779  -3.284   0.373  1.00  0.00     0.041 C 
ATOM      9  C   UNL     1      -4.920  -4.133   0.848  1.00  0.00    -0.030 C 
ATOM     10  C   UNL     1      -3.465  -6.116   1.165  1.00  0.00     0.041 C 
ATOM     11  C   UNL     1      -4.787  -5.420   1.176  1.00  0.00    -0.030 C 
BRANCH   7  12
ATOM     12  C   UNL     1      -2.238  -4.416  -1.256  1.00  0.00     0.224 C 
ATOM     13  N   UNL     1      -2.100  -3.447  -2.214  1.00  0.00    -0.349 N 
ATOM     14  H   UNL     1      -2.251  -3.740  -3.142  1.00  0.00     0.164 HD
ATOM     15  O   UNL     1      -2.222  -5.594  -1.611  1.00  0.00    -0.275 OA
BRANCH  13  16
ATOM     16  C   UNL     1      -1.759  -2.032  -2.045  1.00  0.00     0.113 C 
ATOM     17  C   UNL     1      -0.233  -1.886  -2.146  1.00  0.00     0.036 C 
BRANCH  16  18
ATOM     18  C   UNL     1      -2.516  -1.164  -3.042  1.00  0.00     0.019 A 
ATOM     19  C   UNL     1      -3.687  -0.465  -2.673  1.00  0.00     0.124 A 
ATOM     20  C   UNL     1      -4.342   0.375  -3.585  1.00  0.00     0.050 A 
ATOM     21  C   UNL     1      -3.872   0.497  -4.889  1.00  0.00     0.043 A 
ATOM     22  C   UNL     1      -2.075  -1.041  -4.372  1.00  0.00     0.049 A 
ATOM     23  C   UNL     1      -2.748  -0.216  -5.271  1.00  0.00     0.123 A 
ATOM     24  F   UNL     1      -2.289  -0.097  -6.524  1.00  0.00    -0.207 F 
BRANCH  19  25
ATOM     25  O   UNL     1      -4.127  -0.549  -1.375  1.00  0.00    -0.496 OA
ATOM     26  C   UNL     1      -5.529  -0.815  -1.269  1.00  0.00     0.278 C 
ENDBRANCH  19  25
ENDBRANCH  16  18
ENDBRANCH  13  16
ENDBRANCH   7  12
ENDBRANCH   3   6
ENDBRANCH   1   2
BRANCH   1  27
ATOM     27  C   UNL     1      -0.650  -7.206   4.789  1.00  0.00     0.042 C 
BRANCH  27  28
ATOM     28  C   UNL     1      -0.810  -6.622   6.187  1.00  0.00     0.118 C 
BRANCH  28  29
ATOM     29  N   UNL     1      -1.978  -7.127   6.897  1.00  0.00    -0.352 N 
ATOM     30  C   UNL     1      -2.054  -8.013   7.951  1.00  0.00     0.251 C 
ATOM     31  H   UNL     1      -2.844  -6.784   6.575  1.00  0.00     0.163 HD
ATOM     32  O   UNL     1      -3.130  -8.440   8.333  1.00  0.00    -0.269 OA
BRANCH  30  33
ATOM     33  C   UNL     1      -0.801  -8.475   8.585  1.00  0.00     0.039 A 
ATOM     34  C   UNL     1      -0.585  -9.844   8.753  1.00  0.00     0.014 A 
ATOM     35  C   UNL     1       0.183  -7.555   8.947  1.00  0.00     0.014 A 
ATOM     36  C   UNL     1       0.667 -10.296   9.177  1.00  0.00     0.010 A 
ATOM     37  C   UNL     1       1.456  -8.008   9.261  1.00  0.00     0.010 A 
ATOM     38  C   UNL     1       1.716  -9.383   9.372  1.00  0.00    -0.014 A 
BRANCH  38  39
ATOM     39  C   UNL     1       3.100  -9.814   9.695  1.00  0.00     0.031 A 
ATOM     40  C   UNL     1       3.751  -9.309  10.953  1.00  0.00     0.074 A 
ATOM     41  C   UNL     1       3.809 -10.546   8.813  1.00  0.00     0.049 A 
ATOM     42  N   UNL     1       5.007  -9.357  11.311  1.00  0.00    -0.248 NA
ATOM     43  C   UNL     1       2.876  -8.619  11.916  1.00  0.00     0.031 C 
ATOM     44  C   UNL     1       3.306 -11.073   7.544  1.00  0.00     0.029 A 
ATOM     45  N   UNL     1       5.120 -10.954   8.843  1.00  0.00    -0.354 N 
ATOM     46  C   UNL     1       5.079  -8.666  12.514  1.00  0.00     0.074 A 
ATOM     47  C   UNL     1       3.751  -8.175  12.805  1.00  0.00     0.031 C 
ATOM     48  C   UNL     1       4.287 -11.753   6.929  1.00  0.00     0.029 A 
ATOM     49  C   UNL     1       5.504 -11.662   7.729  1.00  0.00     0.049 A 
ATOM     50  H   UNL     1       5.728 -10.758   9.592  1.00  0.00     0.167 HD
ATOM     51  C   UNL     1       6.154  -8.477  13.313  1.00  0.00     0.037 A 
ATOM     52  C   UNL     1       6.705 -12.163   7.382  1.00  0.00     0.037 A 
ATOM     53  C   UNL     1       7.457  -9.022  13.052  1.00  0.00     0.049 A 
ATOM     54  C   UNL     1       7.883 -11.951   8.293  1.00  0.00     0.074 A 
ATOM     55  C   UNL     1       8.595  -8.941  13.834  1.00  0.00     0.029 A 
ATOM     56  N   UNL     1       7.790  -9.765  11.930  1.00  0.00    -0.354 N 
ATOM     57  N   UNL     1       7.934 -11.311   9.435  1.00  0.00    -0.248 NA
ATOM     58  C   UNL     1       9.169 -12.521   7.865  1.00  0.00     0.031 C 
ATOM     59  C   UNL     1       9.626  -9.613  13.173  1.00  0.00     0.029 A 
ATOM     60  C   UNL     1       9.119 -10.143  11.997  1.00  0.00     0.049 A 
ATOM     61  H   UNL     1       7.173  -9.990  11.196  1.00  0.00     0.167 HD
ATOM     62  C   UNL     1       9.246 -11.423   9.876  1.00  0.00     0.074 A 
ATOM     63  C   UNL     1       9.960 -12.193   8.879  1.00  0.00     0.031 C 
ATOM     64  C   UNL     1       9.805 -10.933  11.007  1.00  0.00     0.037 A 
BRANCH  51  65
ATOM     65  C   UNL     1       5.962  -7.664  14.557  1.00  0.00     0.057 A 
ATOM     66  C   UNL     1       6.543  -6.395  14.678  1.00  0.00     0.134 A 
ATOM     67  C   UNL     1       5.248  -8.157  15.656  1.00  0.00     0.134 A 
ATOM     68  F   UNL     1       7.245  -5.867  13.664  1.00  0.00    -0.206 F 
ATOM     69  C   UNL     1       6.426  -5.649  15.852  1.00  0.00     0.040 A 
ATOM     70  C   UNL     1       5.101  -7.409  16.825  1.00  0.00     0.040 A 
ATOM     71  F   UNL     1       4.656  -9.360  15.598  1.00  0.00    -0.206 F 
ATOM     72  C   UNL     1       5.699  -6.155  16.928  1.00  0.00     0.006 A 
ENDBRANCH  51  65
BRANCH  52  73
ATOM     73  C   UNL     1       6.846 -12.935   6.122  1.00  0.00     0.057 A 
ATOM     74  C   UNL     1       6.793 -12.317   4.868  1.00  0.00     0.134 A 
ATOM     75  C   UNL     1       7.011 -14.325   6.151  1.00  0.00     0.134 A 
ATOM     76  F   UNL     1       6.628 -10.989   4.773  1.00  0.00    -0.206 F 
ATOM     77  C   UNL     1       6.884 -13.054   3.686  1.00  0.00     0.040 A 
ATOM     78  C   UNL     1       7.124 -15.072   4.978  1.00  0.00     0.040 A 
ATOM     79  F   UNL     1       7.086 -14.970   7.324  1.00  0.00    -0.206 F 
ATOM     80  C   UNL     1       7.053 -14.437   3.740  1.00  0.00     0.006 A 
ENDBRANCH  52  73
BRANCH  64  81
ATOM     81  C   UNL     1      11.247 -11.238  11.268  1.00  0.00     0.057 A 
ATOM     82  C   UNL     1      11.607 -12.157  12.262  1.00  0.00     0.134 A 
ATOM     83  C   UNL     1      12.272 -10.531  10.631  1.00  0.00     0.134 A 
ATOM     84  F   UNL     1      10.667 -12.856  12.916  1.00  0.00    -0.206 F 
ATOM     85  C   UNL     1      12.939 -12.343  12.633  1.00  0.00     0.040 A 
ATOM     86  C   UNL     1      13.610 -10.722  10.980  1.00  0.00     0.040 A 
ATOM     87  F   UNL     1      11.989  -9.643   9.666  1.00  0.00    -0.206 F 
ATOM     88  C   UNL     1      13.944 -11.621  11.993  1.00  0.00     0.006 A 
ENDBRANCH  64  81
ENDBRANCH  38  39
ENDBRANCH  30  33
ENDBRANCH  28  29
ENDBRANCH  27  28
ENDBRANCH   1  27
TORSDOF 14
