REMARK SMILES Cc1ccccc1NC(=S)NN1C(=O)CS[C@H]1c1ccccc1C(=O)NCCCNC(=O)c1ccc(-c2c3nc(c(-c4c(F)cccc4F)c4ccc([nH]4)c(-c4c(F)cccc4F)c4nc(c(-c5c(F)cccc5F)c5ccc2[nH]5)C=C4)C=C3)cc1
REMARK SMILES IDX 24 1 25 2 26 3 23 5 18 6 19 7 20 8 22 9 21 10 17 11 12 12
REMARK SMILES IDX 13 13 14 14 15 15 16 16 11 17 9 19 10 20 8 21 7 23 1 24 2 25
REMARK SMILES IDX 3 26 4 27 6 28 5 29 27 30 28 31 29 32 30 33 31 34 32 36
REMARK SMILES IDX 33 37 34 38 86 39 35 40 85 41 36 42 37 43 38 44 79 45 39 46
REMARK SMILES IDX 84 47 78 48 80 49 40 50 83 51 77 52 76 53 41 55 67 56 50 57
REMARK SMILES IDX 66 58 51 59 54 60 65 61 81 62 52 63 53 64 64 66 82 67 55 68
REMARK SMILES IDX 42 69 43 70 48 71 44 72 45 73 47 74 49 75 46 76 68 77 69 78
REMARK SMILES IDX 74 79 70 80 71 81 73 82 75 83 72 84 56 85 57 86 62 87 58 88
REMARK SMILES IDX 59 89 61 90 63 91 60 92
REMARK H PARENT 26 4 11 18 8 22 30 35 80 54 54 65
REMARK Flexibility Score: inf
ROOT
ATOM      1  C   UNL     1      -1.410   4.586  -0.598  1.00  0.00     0.251 C 
ATOM      2  O   UNL     1      -0.529   5.392  -0.909  1.00  0.00    -0.269 OA
ATOM      3  N   UNL     1      -0.937   3.042  -0.366  1.00  0.00    -0.352 N 
ATOM      4  H   UNL     1       0.034   2.889  -0.307  1.00  0.00     0.163 HD
ENDROOT
BRANCH   1   5
ATOM      5  C   UNL     1      -3.065   5.193  -0.446  1.00  0.00     0.046 A 
ATOM      6  C   UNL     1      -4.337   4.363  -0.351  1.00  0.00    -0.001 A 
ATOM      7  C   UNL     1      -5.577   4.938  -0.060  1.00  0.00     0.007 A 
ATOM      8  C   UNL     1      -5.652   6.314   0.120  1.00  0.00     0.000 A 
ATOM      9  C   UNL     1      -3.229   6.575  -0.292  1.00  0.00     0.014 A 
ATOM     10  C   UNL     1      -4.508   7.118  -0.017  1.00  0.00     0.001 A 
BRANCH   6  11
ATOM     11  C   UNL     1      -4.293   2.919  -0.843  1.00  0.00     0.197 C 
ATOM     12  N   UNL     1      -2.837   2.918  -0.949  1.00  0.00    -0.236 N 
ATOM     13  C   UNL     1      -1.762   1.628  -1.862  1.00  0.00     0.252 C 
ATOM     14  O   UNL     1      -0.753   1.783  -2.526  1.00  0.00    -0.272 OA
ATOM     15  C   UNL     1      -2.662  -0.095  -0.884  1.00  0.00     0.174 C 
ATOM     16  S   UNL     1      -4.511   1.009   0.195  1.00  0.00    -0.120 SA
BRANCH  12  17
ATOM     17  N   UNL     1      -2.600   3.107   0.978  1.00  0.00    -0.270 N 
ATOM     18  H   UNL     1      -3.330   3.630   1.383  1.00  0.00     0.191 HD
BRANCH  17  19
ATOM     19  C   UNL     1      -1.579   2.657   2.031  1.00  0.00     0.189 C 
ATOM     20  S   UNL     1      -1.296   3.733   3.294  1.00  0.00    -0.039 S 
BRANCH  19  21
ATOM     21  N   UNL     1      -0.714   1.513   1.906  1.00  0.00    -0.331 N 
ATOM     22  H   UNL     1       0.171   1.718   1.525  1.00  0.00     0.169 HD
BRANCH  21  23
ATOM     23  C   UNL     1      -0.914   0.057   2.251  1.00  0.00     0.043 A 
ATOM     24  C   UNL     1       1.181  -1.572   2.435  1.00  0.00     0.046 C 
ATOM     25  C   UNL     1      -0.085  -1.017   1.740  1.00  0.00    -0.028 A 
ATOM     26  C   UNL     1      -0.665  -2.163   1.145  1.00  0.00     0.005 A 
ATOM     27  C   UNL     1      -1.964  -2.481   1.476  1.00  0.00     0.000 A 
ATOM     28  C   UNL     1      -2.182  -0.335   2.656  1.00  0.00     0.026 A 
ATOM     29  C   UNL     1      -2.687  -1.602   2.289  1.00  0.00     0.002 A 
ENDBRANCH  21  23
ENDBRANCH  19  21
ENDBRANCH  17  19
ENDBRANCH  12  17
ENDBRANCH   6  11
ENDBRANCH   1   5
BRANCH   3  30
ATOM     30  C   UNL     1      -2.065   1.471  -0.193  1.00  0.00     0.118 C 
BRANCH  30  31
ATOM     31  C   UNL     1      -3.421   1.139  -1.956  1.00  0.00     0.042 C 
BRANCH  31  32
ATOM     32  C   UNL     1      -2.704  -0.121  -3.208  1.00  0.00     0.118 C 
BRANCH  32  33
ATOM     33  N   UNL     1      -1.410  -0.766  -2.760  1.00  0.00    -0.352 N 
ATOM     34  C   UNL     1      -0.710  -1.949  -2.878  1.00  0.00     0.251 C 
ATOM     35  H   UNL     1      -0.902  -0.136  -2.200  1.00  0.00     0.163 HD
ATOM     36  O   UNL     1      -1.147  -3.077  -2.967  1.00  0.00    -0.269 OA
BRANCH  34  37
ATOM     37  C   UNL     1       0.763  -1.582  -2.845  1.00  0.00     0.039 A 
ATOM     38  C   UNL     1       1.754  -2.106  -2.014  1.00  0.00     0.014 A 
ATOM     39  C   UNL     1       0.994  -0.370  -3.510  1.00  0.00     0.014 A 
ATOM     40  C   UNL     1       2.907  -1.327  -1.784  1.00  0.00     0.010 A 
ATOM     41  C   UNL     1       1.947   0.494  -3.047  1.00  0.00     0.010 A 
ATOM     42  C   UNL     1       2.943   0.012  -2.209  1.00  0.00    -0.014 A 
BRANCH  42  43
ATOM     43  C   UNL     1       4.115   0.884  -2.268  1.00  0.00     0.031 A 
ATOM     44  C   UNL     1       4.988   0.580  -3.437  1.00  0.00     0.074 A 
ATOM     45  C   UNL     1       4.245   1.993  -1.495  1.00  0.00     0.049 A 
ATOM     46  N   UNL     1       6.274   0.625  -3.420  1.00  0.00    -0.248 NA
ATOM     47  C   UNL     1       4.468   0.015  -4.697  1.00  0.00     0.031 C 
ATOM     48  C   UNL     1       5.049   3.183  -1.750  1.00  0.00     0.029 A 
ATOM     49  N   UNL     1       3.707   2.262  -0.223  1.00  0.00    -0.354 N 
ATOM     50  C   UNL     1       6.675   0.505  -4.740  1.00  0.00     0.074 A 
ATOM     51  C   UNL     1       5.579  -0.121  -5.421  1.00  0.00     0.031 C 
ATOM     52  C   UNL     1       5.185   3.883  -0.605  1.00  0.00     0.029 A 
ATOM     53  C   UNL     1       4.628   3.086   0.479  1.00  0.00     0.049 A 
ATOM     54  H   UNL     1       2.844   1.936   0.121  1.00  0.00     0.167 HD
ATOM     55  C   UNL     1       7.750   1.223  -5.173  1.00  0.00     0.037 A 
ATOM     56  C   UNL     1       5.306   2.755   1.637  1.00  0.00     0.037 A 
ATOM     57  C   UNL     1       8.263   2.015  -4.063  1.00  0.00     0.049 A 
ATOM     58  C   UNL     1       6.789   2.726   1.479  1.00  0.00     0.074 A 
ATOM     59  C   UNL     1       7.986   3.320  -3.693  1.00  0.00     0.029 A 
ATOM     60  N   UNL     1       8.829   1.393  -2.962  1.00  0.00    -0.354 N 
ATOM     61  N   UNL     1       7.374   2.743   0.326  1.00  0.00    -0.248 NA
ATOM     62  C   UNL     1       7.679   2.393   2.589  1.00  0.00     0.031 C 
ATOM     63  C   UNL     1       8.359   3.469  -2.341  1.00  0.00     0.029 A 
ATOM     64  C   UNL     1       8.861   2.260  -1.887  1.00  0.00     0.049 A 
ATOM     65  H   UNL     1       9.162   0.466  -2.948  1.00  0.00     0.167 HD
ATOM     66  C   UNL     1       8.616   2.212   0.485  1.00  0.00     0.074 A 
ATOM     67  C   UNL     1       8.799   2.095   1.919  1.00  0.00     0.031 C 
ATOM     68  C   UNL     1       9.343   1.813  -0.592  1.00  0.00     0.037 A 
BRANCH  55  69
ATOM     69  C   UNL     1       8.090   1.548  -6.614  1.00  0.00     0.057 A 
ATOM     70  C   UNL     1       8.883   2.680  -6.905  1.00  0.00     0.134 A 
ATOM     71  C   UNL     1       7.671   0.839  -7.754  1.00  0.00     0.134 A 
ATOM     72  F   UNL     1       9.450   3.414  -5.939  1.00  0.00    -0.206 F 
ATOM     73  C   UNL     1       9.155   3.121  -8.204  1.00  0.00     0.040 A 
ATOM     74  C   UNL     1       7.917   1.282  -9.065  1.00  0.00     0.040 A 
ATOM     75  F   UNL     1       7.053  -0.343  -7.670  1.00  0.00    -0.206 F 
ATOM     76  C   UNL     1       8.653   2.434  -9.294  1.00  0.00     0.006 A 
ENDBRANCH  55  69
BRANCH  56  77
ATOM     77  C   UNL     1       4.792   1.701   2.600  1.00  0.00     0.057 A 
ATOM     78  C   UNL     1       3.580   2.014   3.181  1.00  0.00     0.134 A 
ATOM     79  C   UNL     1       4.927   0.421   2.066  1.00  0.00     0.134 A 
ATOM     80  F   UNL     1       3.477   2.968   4.114  1.00  0.00    -0.206 F 
ATOM     81  C   UNL     1       2.452   1.494   2.605  1.00  0.00     0.040 A 
ATOM     82  C   UNL     1       3.835  -0.102   1.429  1.00  0.00     0.040 A 
ATOM     83  F   UNL     1       6.130  -0.124   1.844  1.00  0.00    -0.206 F 
ATOM     84  C   UNL     1       2.622   0.570   1.573  1.00  0.00     0.006 A 
ENDBRANCH  56  77
BRANCH  68  85
ATOM     85  C   UNL     1      10.634   1.085  -0.445  1.00  0.00     0.057 A 
ATOM     86  C   UNL     1      10.921   0.193   0.596  1.00  0.00     0.134 A 
ATOM     87  C   UNL     1      11.659   1.296  -1.380  1.00  0.00     0.134 A 
ATOM     88  F   UNL     1       9.965  -0.253   1.425  1.00  0.00    -0.206 F 
ATOM     89  C   UNL     1      12.214  -0.277   0.822  1.00  0.00     0.040 A 
ATOM     90  C   UNL     1      12.932   0.767  -1.211  1.00  0.00     0.040 A 
ATOM     91  F   UNL     1      11.466   2.033  -2.483  1.00  0.00    -0.206 F 
ATOM     92  C   UNL     1      13.230   0.029  -0.074  1.00  0.00     0.006 A 
ENDBRANCH  68  85
ENDBRANCH  42  43
ENDBRANCH  34  37
ENDBRANCH  32  33
ENDBRANCH  31  32
ENDBRANCH  30  31
ENDBRANCH   3  30
TORSDOF 15
