REMARK SMILES O=C(CCCN1C(=O)/C(=C/c2cc(Br)ccc2O)SC1=S)NCCCNC(=O)c1ccc(-c2c3nc(c(-c4c(F)cccc4F)c4ccc([nH]4)c(-c4c(F)cccc4F)c4nc(c(-c5c(F)cccc5F)c5ccc2[nH]5)C=C4)C=C3)cc1
REMARK SMILES IDX 1 1 2 2 22 3 3 5 4 6 5 7 6 8 7 9 20 10 8 11 9 12 19 13 21 14
REMARK SMILES IDX 10 15 11 16 12 17 17 18 13 19 16 20 14 21 15 22 18 23 23 25
REMARK SMILES IDX 24 26 25 27 26 28 27 29 28 31 29 32 30 33 82 34 31 35 81 36
REMARK SMILES IDX 32 37 33 38 34 39 75 40 35 41 80 42 74 43 76 44 36 45 79 46
REMARK SMILES IDX 73 47 72 48 37 50 63 51 46 52 62 53 47 54 50 55 61 56 77 57
REMARK SMILES IDX 48 58 49 59 60 61 78 62 51 63 38 64 39 65 44 66 40 67 41 68
REMARK SMILES IDX 43 69 45 70 42 71 64 72 65 73 70 74 66 75 67 76 69 77 71 78
REMARK SMILES IDX 68 79 52 80 53 81 58 82 54 83 55 84 57 85 59 86 56 87
REMARK H PARENT 22 4 18 24 26 30 76 49 50 60
REMARK Flexibility Score: inf
ROOT
ATOM      1  O   UNL     1       0.866   0.078  -0.190  1.00  0.00    -0.275 OA
ATOM      2  C   UNL     1       2.084   0.123  -0.049  1.00  0.00     0.220 C 
ATOM      3  N   UNL     1       2.771   1.259   0.303  1.00  0.00    -0.356 N 
ATOM      4  H   UNL     1       3.745   1.206   0.439  1.00  0.00     0.163 HD
ENDROOT
BRANCH   2   5
ATOM      5  C   UNL     1       2.948  -1.101  -0.239  1.00  0.00     0.102 C 
BRANCH   5   6
ATOM      6  C   UNL     1       3.817  -1.030  -1.494  1.00  0.00     0.032 C 
BRANCH   6   7
ATOM      7  C   UNL     1       5.188  -0.351  -1.343  1.00  0.00     0.128 C 
BRANCH   7   8
ATOM      8  N   UNL     1       5.929  -0.651  -0.111  1.00  0.00    -0.293 N 
ATOM      9  C   UNL     1       6.374   0.406   0.671  1.00  0.00     0.266 C 
ATOM     10  C   UNL     1       6.326  -1.908   0.299  1.00  0.00     0.148 C 
ATOM     11  O   UNL     1       6.128   1.587   0.480  1.00  0.00    -0.268 OA
ATOM     12  C   UNL     1       7.176  -0.093   1.818  1.00  0.00     0.081 C 
ATOM     13  S   UNL     1       7.052  -1.806   1.894  1.00  0.00    -0.054 SA
ATOM     14  S   UNL     1       6.191  -3.364  -0.499  1.00  0.00    -0.052 S 
ATOM     15  C   UNL     1       7.894   0.709   2.620  1.00  0.00     0.033 C 
BRANCH  15  16
ATOM     16  C   UNL     1       8.713   0.217   3.740  1.00  0.00     0.019 A 
ATOM     17  C   UNL     1       8.315   0.514   5.049  1.00  0.00     0.027 A 
ATOM     18  C   UNL     1       9.837  -0.601   3.540  1.00  0.00     0.122 A 
ATOM     19  C   UNL     1       9.000  -0.047   6.127  1.00  0.00     0.018 A 
ATOM     20  C   UNL     1      10.511  -1.172   4.619  1.00  0.00     0.048 A 
ATOM     21  Br  UNL     1       8.438   0.332   7.892  1.00  0.00    -0.051 Br
ATOM     22  C   UNL     1      10.083  -0.901   5.918  1.00  0.00     0.019 A 
BRANCH  18  23
ATOM     23  O   UNL     1      10.263  -0.852   2.263  1.00  0.00    -0.507 OA
ATOM     24  H   UNL     1       9.812  -0.470   1.535  1.00  0.00     0.293 HD
ENDBRANCH  18  23
ENDBRANCH  15  16
ENDBRANCH   7   8
ENDBRANCH   6   7
ENDBRANCH   5   6
ENDBRANCH   2   5
BRANCH   3  25
ATOM     25  C   UNL     1       2.104   2.533   0.481  1.00  0.00     0.117 C 
BRANCH  25  26
ATOM     26  C   UNL     1       2.392   3.157   1.840  1.00  0.00     0.042 C 
BRANCH  26  27
ATOM     27  C   UNL     1       3.861   3.463   2.106  1.00  0.00     0.118 C 
BRANCH  27  28
ATOM     28  N   UNL     1       4.445   4.381   1.139  1.00  0.00    -0.352 N 
ATOM     29  C   UNL     1       5.186   5.518   1.343  1.00  0.00     0.251 C 
ATOM     30  H   UNL     1       4.284   4.152   0.196  1.00  0.00     0.163 HD
ATOM     31  O   UNL     1       5.473   6.244   0.396  1.00  0.00    -0.269 OA
BRANCH  29  32
ATOM     32  C   UNL     1       5.622   5.886   2.707  1.00  0.00     0.039 A 
ATOM     33  C   UNL     1       5.519   7.221   3.107  1.00  0.00     0.014 A 
ATOM     34  C   UNL     1       6.147   4.932   3.583  1.00  0.00     0.014 A 
ATOM     35  C   UNL     1       5.886   7.585   4.404  1.00  0.00     0.010 A 
ATOM     36  C   UNL     1       6.436   5.281   4.900  1.00  0.00     0.010 A 
ATOM     37  C   UNL     1       6.313   6.613   5.324  1.00  0.00    -0.014 A 
BRANCH  37  38
ATOM     38  C   UNL     1       6.631   6.982   6.728  1.00  0.00     0.031 A 
ATOM     39  C   UNL     1       8.025   6.807   7.268  1.00  0.00     0.074 A 
ATOM     40  C   UNL     1       5.652   7.439   7.534  1.00  0.00     0.049 A 
ATOM     41  N   UNL     1       8.483   7.055   8.470  1.00  0.00    -0.248 NA
ATOM     42  C   UNL     1       9.031   6.259   6.345  1.00  0.00     0.031 C 
ATOM     43  C   UNL     1       4.250   7.609   7.149  1.00  0.00     0.029 A 
ATOM     44  N   UNL     1       5.687   7.843   8.845  1.00  0.00    -0.354 N 
ATOM     45  C   UNL     1       9.823   6.688   8.447  1.00  0.00     0.074 A 
ATOM     46  C   UNL     1      10.088   6.143   7.134  1.00  0.00     0.031 C 
ATOM     47  C   UNL     1       3.566   8.111   8.190  1.00  0.00     0.029 A 
ATOM     48  C   UNL     1       4.469   8.261   9.326  1.00  0.00     0.049 A 
ATOM     49  H   UNL     1       6.507   7.834   9.390  1.00  0.00     0.167 HD
ATOM     50  C   UNL     1      10.755   6.818   9.422  1.00  0.00     0.037 A 
ATOM     51  C   UNL     1       4.118   8.712  10.545  1.00  0.00     0.037 A 
ATOM     52  C   UNL     1      10.492   7.371  10.726  1.00  0.00     0.049 A 
ATOM     53  C   UNL     1       5.168   8.830  11.616  1.00  0.00     0.074 A 
ATOM     54  C   UNL     1      11.381   7.588  11.765  1.00  0.00     0.029 A 
ATOM     55  N   UNL     1       9.248   7.788  11.173  1.00  0.00    -0.354 N 
ATOM     56  N   UNL     1       6.447   8.546  11.557  1.00  0.00    -0.248 NA
ATOM     57  C   UNL     1       4.727   9.344  12.919  1.00  0.00     0.031 C 
ATOM     58  C   UNL     1      10.664   8.085  12.859  1.00  0.00     0.029 A 
ATOM     59  C   UNL     1       9.341   8.239  12.481  1.00  0.00     0.049 A 
ATOM     60  H   UNL     1       8.420   7.767  10.641  1.00  0.00     0.167 HD
ATOM     61  C   UNL     1       6.968   8.879  12.802  1.00  0.00     0.074 A 
ATOM     62  C   UNL     1       5.869   9.402  13.587  1.00  0.00     0.031 C 
ATOM     63  C   UNL     1       8.242   8.763  13.253  1.00  0.00     0.037 A 
BRANCH  50  64
ATOM     64  C   UNL     1      12.149   6.350   9.114  1.00  0.00     0.057 A 
ATOM     65  C   UNL     1      12.966   7.016   8.189  1.00  0.00     0.134 A 
ATOM     66  C   UNL     1      12.696   5.242   9.773  1.00  0.00     0.134 A 
ATOM     67  F   UNL     1      12.503   8.079   7.513  1.00  0.00    -0.206 F 
ATOM     68  C   UNL     1      14.263   6.580   7.910  1.00  0.00     0.040 A 
ATOM     69  C   UNL     1      14.003   4.815   9.526  1.00  0.00     0.040 A 
ATOM     70  F   UNL     1      11.975   4.562  10.677  1.00  0.00    -0.206 F 
ATOM     71  C   UNL     1      14.787   5.480   8.586  1.00  0.00     0.006 A 
ENDBRANCH  50  64
BRANCH  51  72
ATOM     72  C   UNL     1       2.713   9.108  10.818  1.00  0.00     0.057 A 
ATOM     73  C   UNL     1       2.370  10.446  11.051  1.00  0.00     0.134 A 
ATOM     74  C   UNL     1       1.683   8.162  10.872  1.00  0.00     0.134 A 
ATOM     75  F   UNL     1       3.314  11.398  11.032  1.00  0.00    -0.206 F 
ATOM     76  C   UNL     1       1.061  10.824  11.354  1.00  0.00     0.040 A 
ATOM     77  C   UNL     1       0.364   8.530  11.144  1.00  0.00     0.040 A 
ATOM     78  F   UNL     1       1.942   6.865  10.649  1.00  0.00    -0.206 F 
ATOM     79  C   UNL     1       0.052   9.864  11.396  1.00  0.00     0.006 A 
ENDBRANCH  51  72
BRANCH  63  80
ATOM     80  C   UNL     1       8.524   9.256  14.644  1.00  0.00     0.057 A 
ATOM     81  C   UNL     1       8.034   8.601  15.782  1.00  0.00     0.134 A 
ATOM     82  C   UNL     1       9.312  10.396  14.847  1.00  0.00     0.134 A 
ATOM     83  F   UNL     1       7.263   7.510  15.660  1.00  0.00    -0.206 F 
ATOM     84  C   UNL     1       8.286   9.084  17.068  1.00  0.00     0.040 A 
ATOM     85  C   UNL     1       9.599  10.870  16.128  1.00  0.00     0.040 A 
ATOM     86  F   UNL     1       9.824  11.066  13.803  1.00  0.00    -0.206 F 
ATOM     87  C   UNL     1       9.076  10.219  17.243  1.00  0.00     0.006 A 
ENDBRANCH  63  80
ENDBRANCH  37  38
ENDBRANCH  29  32
ENDBRANCH  27  28
ENDBRANCH  26  27
ENDBRANCH  25  26
ENDBRANCH   3  25
TORSDOF 15
