REMARK SMILES C[C@H](NC(=O)c1cccc(NC(=O)c2ccccc2C(=O)NCCCNC(=O)c2ccc(-c3c4nc(c(-c5c(F)cccc5F)c5ccc([nH]5)c(-c5c(F)cccc5F)c5nc(c(-c6c(F)cccc6F)c6ccc3[nH]6)C=C5)C=C4)cc2)c1)c1ccccc1
REMARK SMILES IDX 20 1 21 2 22 3 19 5 14 6 15 7 16 8 18 9 17 10 12 11 11 12
REMARK SMILES IDX 13 14 10 15 6 16 7 17 83 18 8 19 9 20 4 21 3 22 5 24 2 25
REMARK SMILES IDX 1 26 84 27 85 28 89 29 86 30 88 31 87 32 23 33 24 34 25 35
REMARK SMILES IDX 26 36 27 37 28 39 29 40 30 41 82 42 31 43 81 44 32 45 33 46
REMARK SMILES IDX 34 47 75 48 35 49 80 50 74 51 76 52 36 53 79 54 73 55 72 56
REMARK SMILES IDX 37 58 63 59 46 60 62 61 47 62 50 63 61 64 77 65 48 66 49 67
REMARK SMILES IDX 60 69 78 70 51 71 38 72 39 73 44 74 40 75 41 76 43 77 45 78
REMARK SMILES IDX 42 79 64 80 65 81 70 82 66 83 67 84 69 85 71 86 68 87 52 88
REMARK SMILES IDX 53 89 58 90 54 91 55 92 57 93 59 94 56 95
REMARK H PARENT 22 4 11 13 3 23 26 38 76 57 50 68
REMARK Flexibility Score: inf
ROOT
ATOM      1  C   UNL     1       1.330  -4.580  -3.982  1.00  0.00     0.252 C 
ATOM      2  O   UNL     1       0.339  -4.713  -3.264  1.00  0.00    -0.269 OA
ATOM      3  N   UNL     1       1.468  -3.416  -4.691  1.00  0.00    -0.352 N 
ATOM      4  H   UNL     1       0.755  -2.752  -4.550  1.00  0.00     0.163 HD
ENDROOT
BRANCH   1   5
ATOM      5  C   UNL     1       2.273  -5.717  -4.125  1.00  0.00     0.052 A 
ATOM      6  C   UNL     1       3.673  -5.654  -4.058  1.00  0.00     0.052 A 
ATOM      7  C   UNL     1       4.429  -6.816  -4.307  1.00  0.00     0.014 A 
ATOM      8  C   UNL     1       3.806  -8.045  -4.521  1.00  0.00     0.001 A 
ATOM      9  C   UNL     1       1.659  -6.974  -4.297  1.00  0.00     0.014 A 
ATOM     10  C   UNL     1       2.420  -8.129  -4.488  1.00  0.00     0.001 A 
BRANCH   6  11
ATOM     11  C   UNL     1       4.477  -4.444  -3.788  1.00  0.00     0.256 C 
ATOM     12  N   UNL     1       4.254  -3.584  -2.740  1.00  0.00    -0.322 N 
ATOM     13  H   UNL     1       4.787  -2.758  -2.786  1.00  0.00     0.170 HD
ATOM     14  O   UNL     1       5.362  -4.166  -4.602  1.00  0.00    -0.269 OA
BRANCH  12  15
ATOM     15  C   UNL     1       3.417  -3.653  -1.617  1.00  0.00     0.042 A 
ATOM     16  C   UNL     1       2.125  -2.415   0.019  1.00  0.00     0.041 A 
ATOM     17  C   UNL     1       1.579  -3.608   0.497  1.00  0.00     0.014 A 
ATOM     18  C   UNL     1       3.091  -2.442  -0.991  1.00  0.00     0.040 A 
ATOM     19  C   UNL     1       1.980  -4.822  -0.056  1.00  0.00     0.003 A 
ATOM     20  C   UNL     1       2.901  -4.843  -1.105  1.00  0.00     0.026 A 
BRANCH  16  21
ATOM     21  C   UNL     1       1.786  -1.170   0.723  1.00  0.00     0.251 C 
ATOM     22  N   UNL     1       1.145  -0.118   0.133  1.00  0.00    -0.346 N 
ATOM     23  H   UNL     1       1.135   0.673   0.718  1.00  0.00     0.164 HD
ATOM     24  O   UNL     1       2.107  -1.083   1.907  1.00  0.00    -0.269 OA
BRANCH  22  25
ATOM     25  C   UNL     1       0.471   0.142  -1.137  1.00  0.00     0.109 C 
ATOM     26  C   UNL     1       0.892  -0.661  -2.355  1.00  0.00     0.036 C 
BRANCH  25  27
ATOM     27  C   UNL     1      -1.041   0.141  -0.988  1.00  0.00    -0.026 A 
ATOM     28  C   UNL     1      -1.747   1.356  -1.031  1.00  0.00     0.006 A 
ATOM     29  C   UNL     1      -1.768  -1.053  -0.871  1.00  0.00     0.006 A 
ATOM     30  C   UNL     1      -3.143   1.373  -0.993  1.00  0.00     0.000 A 
ATOM     31  C   UNL     1      -3.164  -1.034  -0.838  1.00  0.00     0.000 A 
ATOM     32  C   UNL     1      -3.851   0.177  -0.905  1.00  0.00     0.000 A 
ENDBRANCH  25  27
ENDBRANCH  22  25
ENDBRANCH  16  21
ENDBRANCH  12  15
ENDBRANCH   6  11
ENDBRANCH   1   5
BRANCH   3  33
ATOM     33  C   UNL     1       2.508  -3.020  -5.615  1.00  0.00     0.118 C 
BRANCH  33  34
ATOM     34  C   UNL     1       2.059  -2.023  -6.665  1.00  0.00     0.042 C 
BRANCH  34  35
ATOM     35  C   UNL     1       1.577  -0.682  -6.131  1.00  0.00     0.118 C 
BRANCH  35  36
ATOM     36  N   UNL     1       2.495  -0.001  -5.225  1.00  0.00    -0.352 N 
ATOM     37  C   UNL     1       2.818   1.337  -5.122  1.00  0.00     0.251 C 
ATOM     38  H   UNL     1       2.958  -0.589  -4.586  1.00  0.00     0.163 HD
ATOM     39  O   UNL     1       3.556   1.726  -4.235  1.00  0.00    -0.269 OA
BRANCH  37  40
ATOM     40  C   UNL     1       2.324   2.276  -6.153  1.00  0.00     0.039 A 
ATOM     41  C   UNL     1       3.248   3.107  -6.790  1.00  0.00     0.014 A 
ATOM     42  C   UNL     1       0.996   2.244  -6.573  1.00  0.00     0.014 A 
ATOM     43  C   UNL     1       2.868   3.802  -7.939  1.00  0.00     0.010 A 
ATOM     44  C   UNL     1       0.654   2.837  -7.780  1.00  0.00     0.010 A 
ATOM     45  C   UNL     1       1.589   3.610  -8.486  1.00  0.00    -0.014 A 
BRANCH  45  46
ATOM     46  C   UNL     1       1.211   4.187  -9.801  1.00  0.00     0.031 A 
ATOM     47  C   UNL     1       0.033   5.115  -9.900  1.00  0.00     0.074 A 
ATOM     48  C   UNL     1       1.862   3.800 -10.916  1.00  0.00     0.049 A 
ATOM     49  N   UNL     1      -0.526   5.634 -10.963  1.00  0.00    -0.248 NA
ATOM     50  C   UNL     1      -0.638   5.468  -8.638  1.00  0.00     0.031 C 
ATOM     51  C   UNL     1       2.969   2.841 -10.968  1.00  0.00     0.029 A 
ATOM     52  N   UNL     1       1.681   4.162 -12.228  1.00  0.00    -0.354 N 
ATOM     53  C   UNL     1      -1.630   6.337 -10.501  1.00  0.00     0.074 A 
ATOM     54  C   UNL     1      -1.699   6.130  -9.072  1.00  0.00     0.031 C 
ATOM     55  C   UNL     1       3.394   2.725 -12.237  1.00  0.00     0.029 A 
ATOM     56  C   UNL     1       2.570   3.571 -13.093  1.00  0.00     0.049 A 
ATOM     57  H   UNL     1       0.978   4.786 -12.522  1.00  0.00     0.167 HD
ATOM     58  C   UNL     1      -2.492   7.114 -11.198  1.00  0.00     0.037 A 
ATOM     59  C   UNL     1       2.710   3.704 -14.425  1.00  0.00     0.037 A 
ATOM     60  C   UNL     1      -2.382   7.372 -12.608  1.00  0.00     0.049 A 
ATOM     61  C   UNL     1       1.785   4.627 -15.168  1.00  0.00     0.074 A 
ATOM     62  C   UNL     1      -3.153   8.207 -13.396  1.00  0.00     0.029 A 
ATOM     63  N   UNL     1      -1.426   6.805 -13.437  1.00  0.00    -0.354 N 
ATOM     64  N   UNL     1       0.786   5.340 -14.707  1.00  0.00    -0.248 NA
ATOM     65  C   UNL     1       2.012   4.772 -16.613  1.00  0.00     0.031 C 
ATOM     66  C   UNL     1      -2.675   8.131 -14.709  1.00  0.00     0.029 A 
ATOM     67  C   UNL     1      -1.588   7.271 -14.730  1.00  0.00     0.049 A 
ATOM     68  H   UNL     1      -0.735   6.166 -13.149  1.00  0.00     0.167 HD
ATOM     69  C   UNL     1       0.283   6.038 -15.797  1.00  0.00     0.074 A 
ATOM     70  C   UNL     1       1.094   5.670 -16.940  1.00  0.00     0.031 C 
ATOM     71  C   UNL     1      -0.757   6.904 -15.848  1.00  0.00     0.037 A 
BRANCH  58  72
ATOM     72  C   UNL     1      -3.610   7.755 -10.430  1.00  0.00     0.057 A 
ATOM     73  C   UNL     1      -3.376   8.787  -9.512  1.00  0.00     0.134 A 
ATOM     74  C   UNL     1      -4.933   7.333 -10.606  1.00  0.00     0.134 A 
ATOM     75  F   UNL     1      -2.128   9.225  -9.284  1.00  0.00    -0.206 F 
ATOM     76  C   UNL     1      -4.413   9.353  -8.768  1.00  0.00     0.040 A 
ATOM     77  C   UNL     1      -5.983   7.911  -9.888  1.00  0.00     0.040 A 
ATOM     78  F   UNL     1      -5.228   6.352 -11.471  1.00  0.00    -0.206 F 
ATOM     79  C   UNL     1      -5.722   8.916  -8.960  1.00  0.00     0.006 A 
ENDBRANCH  58  72
BRANCH  59  80
ATOM     80  C   UNL     1       3.801   2.992 -15.135  1.00  0.00     0.057 A 
ATOM     81  C   UNL     1       4.920   3.688 -15.608  1.00  0.00     0.134 A 
ATOM     82  C   UNL     1       3.758   1.611 -15.358  1.00  0.00     0.134 A 
ATOM     83  F   UNL     1       5.009   5.016 -15.439  1.00  0.00    -0.206 F 
ATOM     84  C   UNL     1       5.949   3.041 -16.294  1.00  0.00     0.040 A 
ATOM     85  C   UNL     1       4.791   0.947 -16.024  1.00  0.00     0.040 A 
ATOM     86  F   UNL     1       2.718   0.887 -14.921  1.00  0.00    -0.206 F 
ATOM     87  C   UNL     1       5.888   1.664 -16.499  1.00  0.00     0.006 A 
ENDBRANCH  59  80
BRANCH  71  88
ATOM     88  C   UNL     1      -1.052   7.542 -17.171  1.00  0.00     0.057 A 
ATOM     89  C   UNL     1      -1.683   6.838 -18.203  1.00  0.00     0.134 A 
ATOM     90  C   UNL     1      -0.746   8.890 -17.394  1.00  0.00     0.134 A 
ATOM     91  F   UNL     1      -1.990   5.540 -18.052  1.00  0.00    -0.206 F 
ATOM     92  C   UNL     1      -1.985   7.449 -19.420  1.00  0.00     0.040 A 
ATOM     93  C   UNL     1      -1.062   9.518 -18.598  1.00  0.00     0.040 A 
ATOM     94  F   UNL     1      -0.147   9.619 -16.440  1.00  0.00    -0.206 F 
ATOM     95  C   UNL     1      -1.681   8.795 -19.617  1.00  0.00     0.006 A 
ENDBRANCH  71  88
ENDBRANCH  45  46
ENDBRANCH  37  40
ENDBRANCH  35  36
ENDBRANCH  34  35
ENDBRANCH  33  34
ENDBRANCH   3  33
TORSDOF 15
