REMARK SMILES Cc1ccc(C(=O)N2CCC(CC(=O)NCCCNC(=O)c3ccc(-c4c5nc(c(-c6c(F)cccc6F)c6ccc([nH]6)c(-c6c(F)cccc6F)c6nc(c(-c7c(F)cccc7F)c7ccc4[nH]7)C=C6)C=C5)cc3)CC2)cn1
REMARK SMILES IDX 17 1 16 2 15 3 13 4 14 5 12 7 11 8 6 9 7 10 8 11 9 12 77 13
REMARK SMILES IDX 10 14 76 15 5 16 1 17 2 18 3 19 79 20 4 21 78 22 18 23 19 24
REMARK SMILES IDX 20 25 21 27 22 28 23 29 75 30 24 31 74 32 25 33 26 34 27 35
REMARK SMILES IDX 68 36 28 37 73 38 67 39 69 40 29 41 72 42 66 43 65 44 30 46
REMARK SMILES IDX 56 47 39 48 55 49 40 50 43 51 54 52 70 53 41 54 42 55 53 57
REMARK SMILES IDX 71 58 44 59 31 60 32 61 37 62 33 63 34 64 36 65 38 66 35 67
REMARK SMILES IDX 57 68 58 69 63 70 59 71 60 72 62 73 64 74 61 75 45 76 46 77
REMARK SMILES IDX 51 78 47 79 48 80 50 81 52 82 49 83
REMARK H PARENT 15 6 19 26 69 45 43 56
REMARK Flexibility Score: inf
ROOT
ATOM      1  C   UNL     1      -7.726  -0.059  -3.238  1.00  0.00     0.042 C 
ENDROOT
BRANCH   1   2
ATOM      2  C   UNL     1      -8.809  -0.478  -2.245  1.00  0.00     0.117 C 
BRANCH   2   3
ATOM      3  N   UNL     1      -8.937  -1.926  -2.140  1.00  0.00    -0.356 N 
ATOM      4  C   UNL     1      -8.523  -2.793  -1.175  1.00  0.00     0.220 C 
ATOM      5  O   UNL     1      -8.709  -3.998  -1.355  1.00  0.00    -0.275 OA
ATOM      6  H   UNL     1      -9.401  -2.350  -2.898  1.00  0.00     0.163 HD
BRANCH   4   7
ATOM      7  C   UNL     1      -7.835  -2.291   0.077  1.00  0.00     0.103 C 
BRANCH   7   8
ATOM      8  C   UNL     1      -6.337  -2.634   0.108  1.00  0.00     0.002 C 
ATOM      9  C   UNL     1      -3.048  -0.519   0.424  1.00  0.00     0.255 C 
ATOM     10  O   UNL     1      -3.740   0.457   0.691  1.00  0.00    -0.269 OA
ATOM     11  N   UNL     1      -3.559  -1.806   0.324  1.00  0.00    -0.339 N 
ATOM     12  C   UNL     1      -4.066  -2.242  -0.965  1.00  0.00     0.120 C 
ATOM     13  C   UNL     1      -4.221  -2.379   1.484  1.00  0.00     0.120 C 
ATOM     14  C   UNL     1      -5.570  -1.999  -1.064  1.00  0.00     0.026 C 
ATOM     15  C   UNL     1      -5.731  -2.164   1.444  1.00  0.00     0.026 C 
BRANCH   9  16
ATOM     16  C   UNL     1      -1.579  -0.396   0.246  1.00  0.00     0.058 A 
ATOM     17  C   UNL     1       2.622   0.228   0.001  1.00  0.00     0.066 C 
ATOM     18  C   UNL     1       1.146  -0.020   0.072  1.00  0.00     0.037 A 
ATOM     19  C   UNL     1       0.640  -1.316   0.048  1.00  0.00     0.024 A 
ATOM     20  N   UNL     1       0.347   1.071   0.159  1.00  0.00    -0.261 NA
ATOM     21  C   UNL     1      -0.738  -1.504   0.136  1.00  0.00     0.017 A 
ATOM     22  C   UNL     1      -0.993   0.860   0.252  1.00  0.00     0.125 A 
ENDBRANCH   9  16
ENDBRANCH   7   8
ENDBRANCH   4   7
ENDBRANCH   2   3
ENDBRANCH   1   2
BRANCH   1  23
ATOM     23  C   UNL     1      -8.042  -0.411  -4.689  1.00  0.00     0.118 C 
BRANCH  23  24
ATOM     24  N   UNL     1      -8.747   0.665  -5.364  1.00  0.00    -0.352 N 
ATOM     25  C   UNL     1      -8.327   1.499  -6.372  1.00  0.00     0.251 C 
ATOM     26  H   UNL     1      -9.667   0.821  -5.051  1.00  0.00     0.163 HD
ATOM     27  O   UNL     1      -8.995   2.495  -6.641  1.00  0.00    -0.269 OA
BRANCH  25  28
ATOM     28  C   UNL     1      -7.087   1.228  -7.142  1.00  0.00     0.039 A 
ATOM     29  C   UNL     1      -6.282   2.312  -7.513  1.00  0.00     0.014 A 
ATOM     30  C   UNL     1      -6.758  -0.056  -7.587  1.00  0.00     0.014 A 
ATOM     31  C   UNL     1      -5.142   2.108  -8.299  1.00  0.00     0.010 A 
ATOM     32  C   UNL     1      -5.590  -0.267  -8.324  1.00  0.00     0.010 A 
ATOM     33  C   UNL     1      -4.780   0.815  -8.703  1.00  0.00    -0.014 A 
BRANCH  33  34
ATOM     34  C   UNL     1      -3.593   0.584  -9.569  1.00  0.00     0.031 A 
ATOM     35  C   UNL     1      -3.773   0.108 -10.986  1.00  0.00     0.074 A 
ATOM     36  C   UNL     1      -2.350   0.757  -9.080  1.00  0.00     0.049 A 
ATOM     37  N   UNL     1      -2.866  -0.235 -11.866  1.00  0.00    -0.248 NA
ATOM     38  C   UNL     1      -5.157  -0.016 -11.470  1.00  0.00     0.031 C 
ATOM     39  C   UNL     1      -2.026   1.190  -7.721  1.00  0.00     0.029 A 
ATOM     40  N   UNL     1      -1.126   0.579  -9.676  1.00  0.00    -0.354 N 
ATOM     41  C   UNL     1      -3.568  -0.648 -12.991  1.00  0.00     0.074 A 
ATOM     42  C   UNL     1      -4.976  -0.529 -12.679  1.00  0.00     0.031 C 
ATOM     43  C   UNL     1      -0.690   1.256  -7.590  1.00  0.00     0.029 A 
ATOM     44  C   UNL     1      -0.066   0.847  -8.845  1.00  0.00     0.049 A 
ATOM     45  H   UNL     1      -1.019   0.288 -10.610  1.00  0.00     0.167 HD
ATOM     46  C   UNL     1      -3.086  -1.077 -14.181  1.00  0.00     0.037 A 
ATOM     47  C   UNL     1       1.260   0.766  -9.068  1.00  0.00     0.037 A 
ATOM     48  C   UNL     1      -1.692  -1.147 -14.525  1.00  0.00     0.049 A 
ATOM     49  C   UNL     1       1.770   0.328 -10.411  1.00  0.00     0.074 A 
ATOM     50  C   UNL     1      -1.117  -1.513 -15.731  1.00  0.00     0.029 A 
ATOM     51  N   UNL     1      -0.652  -0.832 -13.666  1.00  0.00    -0.354 N 
ATOM     52  N   UNL     1       1.092  -0.035 -11.472  1.00  0.00    -0.248 NA
ATOM     53  C   UNL     1       3.229   0.290 -10.587  1.00  0.00     0.031 C 
ATOM     54  C   UNL     1       0.274  -1.433 -15.596  1.00  0.00     0.029 A 
ATOM     55  C   UNL     1       0.561  -1.000 -14.313  1.00  0.00     0.049 A 
ATOM     56  H   UNL     1      -0.760  -0.533 -12.734  1.00  0.00     0.167 HD
ATOM     57  C   UNL     1       2.039  -0.328 -12.444  1.00  0.00     0.074 A 
ATOM     58  C   UNL     1       3.339  -0.094 -11.851  1.00  0.00     0.031 C 
ATOM     59  C   UNL     1       1.846  -0.756 -13.714  1.00  0.00     0.037 A 
BRANCH  46  60
ATOM     60  C   UNL     1      -4.085  -1.508 -15.210  1.00  0.00     0.057 A 
ATOM     61  C   UNL     1      -4.814  -0.578 -15.961  1.00  0.00     0.134 A 
ATOM     62  C   UNL     1      -4.294  -2.866 -15.476  1.00  0.00     0.134 A 
ATOM     63  F   UNL     1      -4.665   0.737 -15.742  1.00  0.00    -0.206 F 
ATOM     64  C   UNL     1      -5.729  -0.985 -16.932  1.00  0.00     0.040 A 
ATOM     65  C   UNL     1      -5.195  -3.286 -16.456  1.00  0.00     0.040 A 
ATOM     66  F   UNL     1      -3.624  -3.805 -14.790  1.00  0.00    -0.206 F 
ATOM     67  C   UNL     1      -5.918  -2.343 -17.185  1.00  0.00     0.006 A 
ENDBRANCH  46  60
BRANCH  47  68
ATOM     68  C   UNL     1       2.209   1.128  -7.990  1.00  0.00     0.057 A 
ATOM     69  C   UNL     1       2.891   2.348  -8.015  1.00  0.00     0.134 A 
ATOM     70  C   UNL     1       2.458   0.264  -6.918  1.00  0.00     0.134 A 
ATOM     71  F   UNL     1       2.707   3.204  -9.031  1.00  0.00    -0.206 F 
ATOM     72  C   UNL     1       3.798   2.696  -7.013  1.00  0.00     0.040 A 
ATOM     73  C   UNL     1       3.351   0.606  -5.902  1.00  0.00     0.040 A 
ATOM     74  F   UNL     1       1.832  -0.919  -6.842  1.00  0.00    -0.206 F 
ATOM     75  C   UNL     1       4.027   1.824  -5.950  1.00  0.00     0.006 A 
ENDBRANCH  47  68
BRANCH  59  76
ATOM     76  C   UNL     1       3.064  -0.977 -14.554  1.00  0.00     0.057 A 
ATOM     77  C   UNL     1       3.836  -2.138 -14.430  1.00  0.00     0.134 A 
ATOM     78  C   UNL     1       3.447  -0.039 -15.520  1.00  0.00     0.134 A 
ATOM     79  F   UNL     1       3.525  -3.067 -13.514  1.00  0.00    -0.206 F 
ATOM     80  C   UNL     1       4.957  -2.354 -15.234  1.00  0.00     0.040 A 
ATOM     81  C   UNL     1       4.558  -0.250 -16.338  1.00  0.00     0.040 A 
ATOM     82  F   UNL     1       2.745   1.092 -15.687  1.00  0.00    -0.206 F 
ATOM     83  C   UNL     1       5.317  -1.410 -16.194  1.00  0.00     0.006 A 
ENDBRANCH  59  76
ENDBRANCH  33  34
ENDBRANCH  25  28
ENDBRANCH  23  24
ENDBRANCH   1  23
TORSDOF 12
