REMARK SMILES O=C(NCCCNC(=O)[C@H]1CC2(CCN(C(=O)c3cc4ccccc4[nH]3)CC2)CN1C(=O)C1CC1)c1ccc(-c2c3nc(c(-c4c(F)cccc4F)c4ccc([nH]4)c(-c4c(F)cccc4F)c4nc(c(-c5c(F)cccc5F)c5ccc2[nH]5)C=C4)C=C3)cc1
REMARK SMILES IDX 5 1 4 2 3 3 1 4 2 5 36 7 37 8 89 9 38 10 88 11 39 12 40 13
REMARK SMILES IDX 41 14 82 15 42 16 87 17 81 18 83 19 43 20 86 21 80 22 79 23
REMARK SMILES IDX 44 25 70 26 53 27 69 28 54 29 57 30 68 31 84 32 55 33 56 34
REMARK SMILES IDX 67 36 85 37 58 38 45 39 46 40 51 41 47 42 48 43 50 44 52 45
REMARK SMILES IDX 49 46 71 47 72 48 77 49 73 50 74 51 76 52 78 53 75 54 59 55
REMARK SMILES IDX 60 56 65 57 61 58 62 59 64 60 66 61 63 62 6 63 7 64 8 65
REMARK SMILES IDX 9 67 10 68 11 69 30 70 12 71 29 72 13 73 28 74 14 75 27 76
REMARK SMILES IDX 15 77 16 78 17 79 31 80 32 81 33 82 34 83 35 84 18 85 19 86
REMARK SMILES IDX 26 87 20 88 25 89 21 91 24 92 22 93 23 94
REMARK H PARENT 3 6 83 24 57 35 7 66 26 90
REMARK Flexibility Score: inf
ROOT
ATOM      1  C   UNL     1       6.409   6.040  -6.108  1.00  0.00     0.042 C 
ENDROOT
BRANCH   1   2
ATOM      2  C   UNL     1       5.312   5.800  -7.138  1.00  0.00     0.118 C 
BRANCH   2   3
ATOM      3  N   UNL     1       4.861   7.020  -7.787  1.00  0.00    -0.352 N 
ATOM      4  O   UNL     1       4.268   8.342  -9.516  1.00  0.00    -0.269 OA
ATOM      5  C   UNL     1       4.518   7.211  -9.101  1.00  0.00     0.251 C 
ATOM      6  H   UNL     1       4.793   7.813  -7.208  1.00  0.00     0.163 HD
BRANCH   5   7
ATOM      7  C   UNL     1       4.477   6.062 -10.028  1.00  0.00     0.039 A 
ATOM      8  C   UNL     1       3.793   4.890  -9.690  1.00  0.00     0.014 A 
ATOM      9  C   UNL     1       5.119   6.173 -11.266  1.00  0.00     0.014 A 
ATOM     10  C   UNL     1       3.826   3.798 -10.553  1.00  0.00     0.010 A 
ATOM     11  C   UNL     1       5.117   5.091 -12.148  1.00  0.00     0.010 A 
ATOM     12  C   UNL     1       4.487   3.891 -11.788  1.00  0.00    -0.014 A 
BRANCH  12  13
ATOM     13  C   UNL     1       4.463   2.738 -12.717  1.00  0.00     0.031 A 
ATOM     14  C   UNL     1       5.684   1.895 -12.930  1.00  0.00     0.074 A 
ATOM     15  C   UNL     1       3.314   2.441 -13.349  1.00  0.00     0.049 A 
ATOM     16  N   UNL     1       5.829   0.834 -13.683  1.00  0.00    -0.248 NA
ATOM     17  C   UNL     1       6.903   2.293 -12.209  1.00  0.00     0.031 C 
ATOM     18  C   UNL     1       2.065   3.195 -13.227  1.00  0.00     0.029 A 
ATOM     19  N   UNL     1       3.006   1.415 -14.204  1.00  0.00    -0.354 N 
ATOM     20  C   UNL     1       7.154   0.448 -13.543  1.00  0.00     0.074 A 
ATOM     21  C   UNL     1       7.776   1.391 -12.636  1.00  0.00     0.031 C 
ATOM     22  C   UNL     1       1.113   2.582 -13.947  1.00  0.00     0.029 A 
ATOM     23  C   UNL     1       1.692   1.412 -14.601  1.00  0.00     0.049 A 
ATOM     24  H   UNL     1       3.662   0.746 -14.504  1.00  0.00     0.167 HD
ATOM     25  C   UNL     1       7.793  -0.598 -14.119  1.00  0.00     0.037 A 
ATOM     26  C   UNL     1       1.027   0.559 -15.399  1.00  0.00     0.037 A 
ATOM     27  C   UNL     1       7.174  -1.548 -15.005  1.00  0.00     0.049 A 
ATOM     28  C   UNL     1       1.752  -0.603 -16.006  1.00  0.00     0.074 A 
ATOM     29  C   UNL     1       7.739  -2.651 -15.621  1.00  0.00     0.029 A 
ATOM     30  N   UNL     1       5.846  -1.507 -15.397  1.00  0.00    -0.354 N 
ATOM     31  N   UNL     1       3.005  -0.957 -15.861  1.00  0.00    -0.248 NA
ATOM     32  C   UNL     1       0.975  -1.476 -16.895  1.00  0.00     0.031 C 
ATOM     33  C   UNL     1       6.754  -3.272 -16.399  1.00  0.00     0.029 A 
ATOM     34  C   UNL     1       5.574  -2.562 -16.253  1.00  0.00     0.049 A 
ATOM     35  H   UNL     1       5.192  -0.830 -15.110  1.00  0.00     0.167 HD
ATOM     36  C   UNL     1       3.170  -2.090 -16.643  1.00  0.00     0.074 A 
ATOM     37  C   UNL     1       1.884  -2.376 -17.246  1.00  0.00     0.031 C 
ATOM     38  C   UNL     1       4.290  -2.822 -16.850  1.00  0.00     0.037 A 
BRANCH  25  39
ATOM     39  C   UNL     1       9.249  -0.761 -13.814  1.00  0.00     0.057 A 
ATOM     40  C   UNL     1       9.685  -1.369 -12.632  1.00  0.00     0.134 A 
ATOM     41  C   UNL     1      10.221  -0.338 -14.727  1.00  0.00     0.134 A 
ATOM     42  F   UNL     1       8.798  -1.783 -11.713  1.00  0.00    -0.206 F 
ATOM     43  C   UNL     1      11.043  -1.544 -12.363  1.00  0.00     0.040 A 
ATOM     44  C   UNL     1      11.582  -0.516 -14.475  1.00  0.00     0.040 A 
ATOM     45  F   UNL     1       9.864   0.254 -15.876  1.00  0.00    -0.206 F 
ATOM     46  C   UNL     1      11.996  -1.121 -13.289  1.00  0.00     0.006 A 
ENDBRANCH  25  39
BRANCH  26  47
ATOM     47  C   UNL     1      -0.415   0.772 -15.647  1.00  0.00     0.057 A 
ATOM     48  C   UNL     1      -1.377   0.019 -14.968  1.00  0.00     0.134 A 
ATOM     49  C   UNL     1      -0.862   1.756 -16.535  1.00  0.00     0.134 A 
ATOM     50  F   UNL     1      -1.001  -0.944 -14.114  1.00  0.00    -0.206 F 
ATOM     51  C   UNL     1      -2.740   0.237 -15.163  1.00  0.00     0.040 A 
ATOM     52  C   UNL     1      -2.222   1.992 -16.731  1.00  0.00     0.040 A 
ATOM     53  F   UNL     1       0.019   2.509 -17.209  1.00  0.00    -0.206 F 
ATOM     54  C   UNL     1      -3.166   1.231 -16.044  1.00  0.00     0.006 A 
ENDBRANCH  26  47
BRANCH  38  55
ATOM     55  C   UNL     1       4.168  -3.991 -17.773  1.00  0.00     0.057 A 
ATOM     56  C   UNL     1       4.227  -3.825 -19.162  1.00  0.00     0.134 A 
ATOM     57  C   UNL     1       4.008  -5.288 -17.275  1.00  0.00     0.134 A 
ATOM     58  F   UNL     1       4.365  -2.602 -19.694  1.00  0.00    -0.206 F 
ATOM     59  C   UNL     1       4.120  -4.913 -20.027  1.00  0.00     0.040 A 
ATOM     60  C   UNL     1       3.909  -6.386 -18.131  1.00  0.00     0.040 A 
ATOM     61  F   UNL     1       3.943  -5.506 -15.953  1.00  0.00    -0.206 F 
ATOM     62  C   UNL     1       3.963  -6.199 -19.511  1.00  0.00     0.006 A 
ENDBRANCH  38  55
ENDBRANCH  12  13
ENDBRANCH   5   7
ENDBRANCH   2   3
ENDBRANCH   1   2
BRANCH   1  63
ATOM     63  C   UNL     1       5.974   6.863  -4.900  1.00  0.00     0.117 C 
BRANCH  63  64
ATOM     64  N   UNL     1       4.920   6.209  -4.151  1.00  0.00    -0.354 N 
ATOM     65  C   UNL     1       4.896   5.685  -2.897  1.00  0.00     0.242 C 
ATOM     66  H   UNL     1       4.067   6.131  -4.638  1.00  0.00     0.163 HD
ATOM     67  O   UNL     1       3.885   5.045  -2.586  1.00  0.00    -0.273 OA
BRANCH  65  68
ATOM     68  C   UNL     1       6.110   5.707  -1.951  1.00  0.00     0.175 C 
ATOM     69  C   UNL     1       7.029   4.523  -2.290  1.00  0.00     0.044 C 
ATOM     70  N   UNL     1       6.984   6.871  -1.925  1.00  0.00    -0.330 N 
ATOM     71  C   UNL     1       8.492   5.011  -2.147  1.00  0.00    -0.006 C 
ATOM     72  C   UNL     1       8.372   6.494  -1.766  1.00  0.00     0.127 C 
ATOM     73  C   UNL     1       9.275   4.858  -3.472  1.00  0.00     0.030 C 
ATOM     74  C   UNL     1       9.252   4.238  -1.048  1.00  0.00     0.030 C 
ATOM     75  C   UNL     1       9.557   3.400  -3.827  1.00  0.00     0.120 C 
ATOM     76  C   UNL     1       9.562   2.792  -1.433  1.00  0.00     0.120 C 
ATOM     77  N   UNL     1      10.230   2.705  -2.728  1.00  0.00    -0.337 N 
ATOM     78  C   UNL     1      11.171   1.684  -2.905  1.00  0.00     0.270 C 
ATOM     79  O   UNL     1      11.367   0.840  -2.032  1.00  0.00    -0.267 OA
BRANCH  70  80
ATOM     80  C   UNL     1       6.619   8.173  -1.636  1.00  0.00     0.226 C 
ATOM     81  O   UNL     1       7.440   9.044  -1.372  1.00  0.00    -0.275 OA
BRANCH  80  82
ATOM     82  C   UNL     1       5.190   8.563  -1.778  1.00  0.00     0.079 C 
ATOM     83  C   UNL     1       4.070   8.019  -0.929  1.00  0.00     0.014 C 
ATOM     84  C   UNL     1       4.558   9.412  -0.694  1.00  0.00     0.014 C 
ENDBRANCH  80  82
ENDBRANCH  70  80
BRANCH  78  85
ATOM     85  C   UNL     1      11.917   1.654  -4.144  1.00  0.00     0.105 A 
ATOM     86  C   UNL     1      12.231   0.554  -4.925  1.00  0.00     0.042 A 
ATOM     87  N   UNL     1      12.564   2.730  -4.710  1.00  0.00    -0.351 N 
ATOM     88  C   UNL     1      13.011   0.993  -6.028  1.00  0.00     0.000 A 
ATOM     89  C   UNL     1      13.201   2.365  -5.873  1.00  0.00     0.046 A 
ATOM     90  H   UNL     1      12.570   3.640  -4.333  1.00  0.00     0.167 HD
ATOM     91  C   UNL     1      13.585   0.348  -7.140  1.00  0.00     0.010 A 
ATOM     92  C   UNL     1      13.941   3.131  -6.782  1.00  0.00     0.026 A 
ATOM     93  C   UNL     1      14.323   1.100  -8.061  1.00  0.00     0.001 A 
ATOM     94  C   UNL     1      14.497   2.471  -7.882  1.00  0.00     0.002 A 
ENDBRANCH  78  85
ENDBRANCH  65  68
ENDBRANCH  63  64
ENDBRANCH   1  63
TORSDOF 13
