REMARK SMILES CC1=NN(c2ccc(Cl)c(C(=O)NCCCNC(=O)c3ccc(-c4c5nc(c(-c6c(F)cccc6F)c6ccc([nH]6)c(-c6c(F)cccc6F)c6nc(c(-c7c(F)cccc7F)c7ccc4[nH]7)C=C6)C=C5)cc3)c2)C(=O)/C1=C\c1ccccc1Cl
REMARK SMILES IDX 15 1 14 2 13 3 11 4 12 5 10 7 5 8 6 9 74 10 7 11 8 12 9 13
REMARK SMILES IDX 4 14 1 15 2 16 3 17 77 18 75 19 78 20 76 21 79 22 80 23
REMARK SMILES IDX 84 24 81 25 83 26 85 27 82 28 16 29 17 30 18 31 19 33 20 34
REMARK SMILES IDX 21 35 73 36 22 37 72 38 23 39 24 40 25 41 66 42 26 43 71 44
REMARK SMILES IDX 65 45 67 46 27 47 70 48 64 49 63 50 28 52 54 53 37 54 53 55
REMARK SMILES IDX 38 56 41 57 52 58 68 59 39 60 40 61 51 63 69 64 42 65 29 66
REMARK SMILES IDX 30 67 35 68 31 69 32 70 34 71 36 72 33 73 55 74 56 75 61 76
REMARK SMILES IDX 57 77 58 78 60 79 62 80 59 81 43 82 44 83 49 84 45 85 46 86
REMARK SMILES IDX 48 87 50 88 47 89
REMARK H PARENT 13 6 17 32 67 51 41 62
REMARK Flexibility Score: inf
ROOT
ATOM      1  C   UNL     1       2.543   8.926   0.625  1.00  0.00     0.042 C 
ENDROOT
BRANCH   1   2
ATOM      2  C   UNL     1       3.097   7.544   0.928  1.00  0.00     0.118 C 
BRANCH   2   3
ATOM      3  N   UNL     1       2.355   6.788   1.926  1.00  0.00    -0.352 N 
ATOM      4  C   UNL     1       1.944   5.474   1.959  1.00  0.00     0.252 C 
ATOM      5  O   UNL     1       1.361   5.086   2.973  1.00  0.00    -0.269 OA
ATOM      6  H   UNL     1       2.100   7.311   2.720  1.00  0.00     0.163 HD
BRANCH   4   7
ATOM      7  C   UNL     1       2.095   4.531   0.817  1.00  0.00     0.060 A 
ATOM      8  C   UNL     1       1.171   2.601  -0.354  1.00  0.00     0.070 A 
ATOM      9  C   UNL     1       2.203   2.698  -1.292  1.00  0.00     0.030 A 
ATOM     10  C   UNL     1       1.050   3.590   0.629  1.00  0.00     0.044 A 
ATOM     11  C   UNL     1       3.239   3.599  -1.107  1.00  0.00     0.023 A 
ATOM     12  C   UNL     1       3.245   4.418   0.020  1.00  0.00     0.053 A 
ATOM     13  Cl  UNL     1       4.805   5.027   0.466  1.00  0.00    -0.083 Cl
BRANCH   8  14
ATOM     14  N   UNL     1       0.458   1.388  -0.287  1.00  0.00    -0.196 N 
ATOM     15  C   UNL     1      -2.557  -0.510   0.224  1.00  0.00     0.069 C 
ATOM     16  C   UNL     1      -1.182   0.045   0.056  1.00  0.00     0.071 C 
ATOM     17  N   UNL     1      -0.890   1.326   0.031  1.00  0.00    -0.169 NA
ATOM     18  C   UNL     1       0.009  -0.809  -0.118  1.00  0.00     0.065 C 
ATOM     19  C   UNL     1       1.088   0.143  -0.441  1.00  0.00     0.280 C 
ATOM     20  C   UNL     1       0.137  -2.128   0.094  1.00  0.00     0.025 C 
ATOM     21  O   UNL     1       2.240  -0.128  -0.734  1.00  0.00    -0.267 OA
BRANCH  20  22
ATOM     22  C   UNL     1       1.459  -2.785   0.128  1.00  0.00    -0.006 A 
ATOM     23  C   UNL     1       1.891  -3.502  -0.995  1.00  0.00     0.009 A 
ATOM     24  C   UNL     1       2.343  -2.635   1.216  1.00  0.00     0.048 A 
ATOM     25  C   UNL     1       3.186  -4.031  -1.043  1.00  0.00     0.001 A 
ATOM     26  C   UNL     1       3.639  -3.157   1.160  1.00  0.00     0.021 A 
ATOM     27  Cl  UNL     1       1.881  -1.790   2.656  1.00  0.00    -0.084 Cl
ATOM     28  C   UNL     1       4.061  -3.850   0.027  1.00  0.00     0.002 A 
ENDBRANCH  20  22
ENDBRANCH   8  14
ENDBRANCH   4   7
ENDBRANCH   2   3
ENDBRANCH   1   2
BRANCH   1  29
ATOM     29  C   UNL     1       2.583   9.910   1.785  1.00  0.00     0.118 C 
BRANCH  29  30
ATOM     30  N   UNL     1       3.931  10.260   2.221  1.00  0.00    -0.352 N 
ATOM     31  C   UNL     1       4.725  11.356   1.972  1.00  0.00     0.251 C 
ATOM     32  H   UNL     1       4.352   9.585   2.802  1.00  0.00     0.163 HD
ATOM     33  O   UNL     1       5.892  11.355   2.358  1.00  0.00    -0.269 OA
BRANCH  31  34
ATOM     34  C   UNL     1       4.219  12.519   1.208  1.00  0.00     0.039 A 
ATOM     35  C   UNL     1       5.062  13.132   0.274  1.00  0.00     0.014 A 
ATOM     36  C   UNL     1       2.935  13.022   1.406  1.00  0.00     0.014 A 
ATOM     37  C   UNL     1       4.576  14.160  -0.540  1.00  0.00     0.010 A 
ATOM     38  C   UNL     1       2.417  13.970   0.529  1.00  0.00     0.010 A 
ATOM     39  C   UNL     1       3.227  14.538  -0.465  1.00  0.00    -0.014 A 
BRANCH  39  40
ATOM     40  C   UNL     1       2.622  15.484  -1.439  1.00  0.00     0.031 A 
ATOM     41  C   UNL     1       2.000  16.769  -0.971  1.00  0.00     0.074 A 
ATOM     42  C   UNL     1       2.536  15.128  -2.737  1.00  0.00     0.049 A 
ATOM     43  N   UNL     1       1.323  17.658  -1.654  1.00  0.00    -0.248 NA
ATOM     44  C   UNL     1       2.128  17.081   0.460  1.00  0.00     0.031 C 
ATOM     45  C   UNL     1       3.059  13.887  -3.311  1.00  0.00     0.029 A 
ATOM     46  N   UNL     1       1.961  15.770  -3.805  1.00  0.00    -0.354 N 
ATOM     47  C   UNL     1       0.926  18.619  -0.733  1.00  0.00     0.074 A 
ATOM     48  C   UNL     1       1.393  18.178   0.564  1.00  0.00     0.031 C 
ATOM     49  C   UNL     1       2.811  13.872  -4.630  1.00  0.00     0.029 A 
ATOM     50  C   UNL     1       2.065  15.074  -4.986  1.00  0.00     0.049 A 
ATOM     51  H   UNL     1       1.517  16.645  -3.733  1.00  0.00     0.167 HD
ATOM     52  C   UNL     1       0.248  19.772  -0.951  1.00  0.00     0.037 A 
ATOM     53  C   UNL     1       1.599  15.362  -6.215  1.00  0.00     0.037 A 
ATOM     54  C   UNL     1      -0.196  20.214  -2.247  1.00  0.00     0.049 A 
ATOM     55  C   UNL     1       0.815  16.626  -6.426  1.00  0.00     0.074 A 
ATOM     56  C   UNL     1      -0.808  21.407  -2.588  1.00  0.00     0.029 A 
ATOM     57  N   UNL     1      -0.089  19.472  -3.414  1.00  0.00    -0.354 N 
ATOM     58  N   UNL     1       0.519  17.567  -5.562  1.00  0.00    -0.248 NA
ATOM     59  C   UNL     1       0.293  16.863  -7.778  1.00  0.00     0.031 C 
ATOM     60  C   UNL     1      -1.127  21.361  -3.950  1.00  0.00     0.029 A 
ATOM     61  C   UNL     1      -0.666  20.161  -4.469  1.00  0.00     0.049 A 
ATOM     62  H   UNL     1       0.335  18.586  -3.483  1.00  0.00     0.167 HD
ATOM     63  C   UNL     1      -0.209  18.515  -6.268  1.00  0.00     0.074 A 
ATOM     64  C   UNL     1      -0.295  18.043  -7.636  1.00  0.00     0.031 C 
ATOM     65  C   UNL     1      -0.757  19.673  -5.823  1.00  0.00     0.037 A 
BRANCH  52  66
ATOM     66  C   UNL     1      -0.064  20.625   0.246  1.00  0.00     0.057 A 
ATOM     67  C   UNL     1       0.937  21.294   0.964  1.00  0.00     0.134 A 
ATOM     68  C   UNL     1      -1.385  20.784   0.683  1.00  0.00     0.134 A 
ATOM     69  F   UNL     1       2.224  21.178   0.605  1.00  0.00    -0.206 F 
ATOM     70  C   UNL     1       0.640  22.056   2.096  1.00  0.00     0.040 A 
ATOM     71  C   UNL     1      -1.698  21.569   1.795  1.00  0.00     0.040 A 
ATOM     72  F   UNL     1      -2.395  20.180   0.038  1.00  0.00    -0.206 F 
ATOM     73  C   UNL     1      -0.682  22.198   2.511  1.00  0.00     0.006 A 
ENDBRANCH  52  66
BRANCH  53  74
ATOM     74  C   UNL     1       1.885  14.445  -7.347  1.00  0.00     0.057 A 
ATOM     75  C   UNL     1       2.786  14.813  -8.352  1.00  0.00     0.134 A 
ATOM     76  C   UNL     1       1.294  13.180  -7.441  1.00  0.00     0.134 A 
ATOM     77  F   UNL     1       3.370  16.020  -8.326  1.00  0.00    -0.206 F 
ATOM     78  C   UNL     1       3.086  13.959  -9.415  1.00  0.00     0.040 A 
ATOM     79  C   UNL     1       1.601  12.306  -8.486  1.00  0.00     0.040 A 
ATOM     80  F   UNL     1       0.426  12.766  -6.506  1.00  0.00    -0.206 F 
ATOM     81  C   UNL     1       2.498  12.697  -9.478  1.00  0.00     0.006 A 
ENDBRANCH  53  74
BRANCH  65  82
ATOM     82  C   UNL     1      -1.494  20.513  -6.824  1.00  0.00     0.057 A 
ATOM     83  C   UNL     1      -2.751  20.138  -7.315  1.00  0.00     0.134 A 
ATOM     84  C   UNL     1      -0.964  21.732  -7.265  1.00  0.00     0.134 A 
ATOM     85  F   UNL     1      -3.306  18.974  -6.944  1.00  0.00    -0.206 F 
ATOM     86  C   UNL     1      -3.448  20.939  -8.221  1.00  0.00     0.040 A 
ATOM     87  C   UNL     1      -1.663  22.554  -8.150  1.00  0.00     0.040 A 
ATOM     88  F   UNL     1       0.233  22.153  -6.829  1.00  0.00    -0.206 F 
ATOM     89  C   UNL     1      -2.908  22.156  -8.633  1.00  0.00     0.006 A 
ENDBRANCH  65  82
ENDBRANCH  39  40
ENDBRANCH  31  34
ENDBRANCH  29  30
ENDBRANCH   1  29
TORSDOF 12
