REMARK SMILES C[C@@H](C(=O)NCCCNC(=O)c1ccc(-c2c3nc(c(-c4c(F)cccc4F)c4ccc([nH]4)c(-c4c(F)cccc4F)c4nc(c(-c5c(F)cccc5F)c5ccc2[nH]5)C=C4)C=C3)cc1)c1ccc(C[SiH](C)C)cc1
REMARK SMILES IDX 6 1 5 2 3 3 4 4 2 6 1 7 66 8 67 9 75 10 68 11 74 12 69 13
REMARK SMILES IDX 70 14 71 15 72 16 73 17 7 19 8 20 9 21 10 22 11 24 12 25
REMARK SMILES IDX 13 26 65 27 14 28 64 29 15 30 16 31 17 32 58 33 18 34 63 35
REMARK SMILES IDX 57 36 59 37 19 38 62 39 56 40 55 41 20 43 46 44 29 45 45 46
REMARK SMILES IDX 30 47 33 48 44 49 60 50 31 51 32 52 43 54 61 55 34 56 21 57
REMARK SMILES IDX 22 58 27 59 23 60 24 61 26 62 28 63 25 64 47 65 48 66 53 67
REMARK SMILES IDX 49 68 50 69 52 70 54 71 51 72 35 73 36 74 41 75 37 76 38 77
REMARK SMILES IDX 40 78 42 79 39 80
REMARK H PARENT 5 5 71 18 9 23 59 42 33 53
REMARK Flexibility Score: inf
ROOT
ATOM      1  C   UNL     1       3.555   1.770   0.890  1.00  0.00     0.117 C 
ENDROOT
BRANCH   1   2
ATOM      2  N   UNL     1       2.496   2.595   0.342  1.00  0.00    -0.356 N 
ATOM      3  C   UNL     1       1.216   2.261  -0.001  1.00  0.00     0.227 C 
ATOM      4  O   UNL     1       0.659   3.015  -0.802  1.00  0.00    -0.274 OA
ATOM      5  H   UNL     1       2.735   3.538   0.195  1.00  0.00     0.163 HD
BRANCH   3   6
ATOM      6  C   UNL     1       0.560   1.004   0.602  1.00  0.00     0.105 C 
ATOM      7  C   UNL     1       0.988  -0.201  -0.247  1.00  0.00     0.023 C 
BRANCH   6   8
ATOM      8  C   UNL     1      -0.965   1.073   0.768  1.00  0.00    -0.036 A 
ATOM      9  C   UNL     1      -1.662   2.288   0.774  1.00  0.00     0.005 A 
ATOM     10  C   UNL     1      -1.720  -0.097   0.971  1.00  0.00     0.005 A 
ATOM     11  C   UNL     1      -3.056   2.328   0.868  1.00  0.00     0.004 A 
ATOM     12  C   UNL     1      -3.113  -0.058   1.099  1.00  0.00     0.004 A 
ATOM     13  C   UNL     1      -3.799   1.157   1.037  1.00  0.00    -0.051 A 
BRANCH  13  14
ATOM     14  C   UNL     1      -5.304   1.202   1.137  1.00  0.00     0.021 C 
BRANCH  14  15
ATOM     15  Si  UNL     1      -6.022   1.945   2.719  1.00  0.00     0.035 Si
ATOM     16  C   UNL     1      -5.478   3.715   2.939  1.00  0.00    -0.013 C 
ATOM     17  C   UNL     1      -7.885   1.865   2.651  1.00  0.00    -0.013 C 
ATOM     18  H   UNL     1      -5.544   1.194   3.826  1.00  0.00     0.014 H 
ENDBRANCH  14  15
ENDBRANCH  13  14
ENDBRANCH   6   8
ENDBRANCH   3   6
ENDBRANCH   1   2
BRANCH   1  19
ATOM     19  C   UNL     1       4.479   1.257  -0.217  1.00  0.00     0.042 C 
BRANCH  19  20
ATOM     20  C   UNL     1       5.188   2.356  -1.004  1.00  0.00     0.118 C 
BRANCH  20  21
ATOM     21  N   UNL     1       6.153   3.086  -0.198  1.00  0.00    -0.352 N 
ATOM     22  C   UNL     1       7.513   3.196  -0.346  1.00  0.00     0.251 C 
ATOM     23  H   UNL     1       5.775   3.575   0.569  1.00  0.00     0.163 HD
ATOM     24  O   UNL     1       8.187   3.698   0.553  1.00  0.00    -0.269 OA
BRANCH  22  25
ATOM     25  C   UNL     1       8.178   2.688  -1.565  1.00  0.00     0.039 A 
ATOM     26  C   UNL     1       9.349   1.937  -1.431  1.00  0.00     0.014 A 
ATOM     27  C   UNL     1       7.657   2.951  -2.835  1.00  0.00     0.014 A 
ATOM     28  C   UNL     1       9.950   1.379  -2.562  1.00  0.00     0.010 A 
ATOM     29  C   UNL     1       8.217   2.338  -3.954  1.00  0.00     0.010 A 
ATOM     30  C   UNL     1       9.361   1.535  -3.827  1.00  0.00    -0.014 A 
BRANCH  30  31
ATOM     31  C   UNL     1       9.895   0.829  -5.021  1.00  0.00     0.031 A 
ATOM     32  C   UNL     1      10.430   1.607  -6.191  1.00  0.00     0.074 A 
ATOM     33  C   UNL     1       9.812  -0.516  -5.085  1.00  0.00     0.049 A 
ATOM     34  N   UNL     1      10.832   1.170  -7.358  1.00  0.00    -0.248 NA
ATOM     35  C   UNL     1      10.502   3.069  -6.041  1.00  0.00     0.031 C 
ATOM     36  C   UNL     1       9.276  -1.382  -4.033  1.00  0.00     0.029 A 
ATOM     37  N   UNL     1      10.155  -1.390  -6.088  1.00  0.00    -0.354 N 
ATOM     38  C   UNL     1      11.182   2.300  -8.086  1.00  0.00     0.074 A 
ATOM     39  C   UNL     1      10.916   3.446  -7.242  1.00  0.00     0.031 C 
ATOM     40  C   UNL     1       9.332  -2.659  -4.441  1.00  0.00     0.029 A 
ATOM     41  C   UNL     1       9.859  -2.702  -5.801  1.00  0.00     0.049 A 
ATOM     42  H   UNL     1      10.573  -1.104  -6.932  1.00  0.00     0.167 HD
ATOM     43  C   UNL     1      11.688   2.372  -9.340  1.00  0.00     0.037 A 
ATOM     44  C   UNL     1       9.970  -3.811  -6.558  1.00  0.00     0.037 A 
ATOM     45  C   UNL     1      11.980   1.227 -10.162  1.00  0.00     0.049 A 
ATOM     46  C   UNL     1      10.511  -3.694  -7.957  1.00  0.00     0.074 A 
ATOM     47  C   UNL     1      12.585   1.196 -11.407  1.00  0.00     0.029 A 
ATOM     48  N   UNL     1      11.676  -0.084  -9.832  1.00  0.00    -0.354 N 
ATOM     49  N   UNL     1      10.931  -2.628  -8.594  1.00  0.00    -0.248 NA
ATOM     50  C   UNL     1      10.589  -4.933  -8.745  1.00  0.00     0.031 C 
ATOM     51  C   UNL     1      12.588  -0.126 -11.858  1.00  0.00     0.029 A 
ATOM     52  C   UNL     1      12.038  -0.926 -10.870  1.00  0.00     0.049 A 
ATOM     53  H   UNL     1      11.264  -0.373  -8.986  1.00  0.00     0.167 HD
ATOM     54  C   UNL     1      11.345  -3.070  -9.844  1.00  0.00     0.074 A 
ATOM     55  C   UNL     1      11.145  -4.503  -9.870  1.00  0.00     0.031 C 
ATOM     56  C   UNL     1      11.841  -2.353 -10.880  1.00  0.00     0.037 A 
BRANCH  43  57
ATOM     57  C   UNL     1      11.959   3.731  -9.916  1.00  0.00     0.057 A 
ATOM     58  C   UNL     1      13.021   4.528  -9.473  1.00  0.00     0.134 A 
ATOM     59  C   UNL     1      11.196   4.209 -10.990  1.00  0.00     0.134 A 
ATOM     60  F   UNL     1      13.786   4.131  -8.445  1.00  0.00    -0.206 F 
ATOM     61  C   UNL     1      13.308   5.758 -10.069  1.00  0.00     0.040 A 
ATOM     62  C   UNL     1      11.489   5.425 -11.610  1.00  0.00     0.040 A 
ATOM     63  F   UNL     1      10.169   3.491 -11.470  1.00  0.00    -0.206 F 
ATOM     64  C   UNL     1      12.547   6.204 -11.148  1.00  0.00     0.006 A 
ENDBRANCH  43  57
BRANCH  44  65
ATOM     65  C   UNL     1       9.542  -5.131  -6.026  1.00  0.00     0.057 A 
ATOM     66  C   UNL     1      10.470  -6.154  -5.792  1.00  0.00     0.134 A 
ATOM     67  C   UNL     1       8.194  -5.418  -5.778  1.00  0.00     0.134 A 
ATOM     68  F   UNL     1      11.774  -5.949  -6.029  1.00  0.00    -0.206 F 
ATOM     69  C   UNL     1      10.070  -7.421  -5.363  1.00  0.00     0.040 A 
ATOM     70  C   UNL     1       7.784  -6.671  -5.320  1.00  0.00     0.040 A 
ATOM     71  F   UNL     1       7.254  -4.481  -5.974  1.00  0.00    -0.206 F 
ATOM     72  C   UNL     1       8.723  -7.681  -5.123  1.00  0.00     0.006 A 
ENDBRANCH  44  65
BRANCH  56  73
ATOM     73  C   UNL     1      12.228  -3.103 -12.120  1.00  0.00     0.057 A 
ATOM     74  C   UNL     1      11.268  -3.639 -12.987  1.00  0.00     0.134 A 
ATOM     75  C   UNL     1      13.575  -3.237 -12.483  1.00  0.00     0.134 A 
ATOM     76  F   UNL     1       9.962  -3.558 -12.690  1.00  0.00    -0.206 F 
ATOM     77  C   UNL     1      11.634  -4.293 -14.164  1.00  0.00     0.040 A 
ATOM     78  C   UNL     1      13.952  -3.864 -13.671  1.00  0.00     0.040 A 
ATOM     79  F   UNL     1      14.544  -2.738 -11.701  1.00  0.00    -0.206 F 
ATOM     80  C   UNL     1      12.979  -4.398 -14.514  1.00  0.00     0.006 A 
ENDBRANCH  56  73
ENDBRANCH  30  31
ENDBRANCH  22  25
ENDBRANCH  20  21
ENDBRANCH  19  20
ENDBRANCH   1  19
TORSDOF 13
