REMARK SMILES C[C@H]1c2ccc(O)cc2OC(=O)[C@@H]1CC(=O)N[C@@H](CC1=c2ccccc2=NC1)C(=O)NCCCNC(=O)c1ccc(-c2c3nc(c(-c4c(F)cccc4F)c4ccc([nH]4)c(-c4c(F)cccc4F)c4nc(c(-c5c(F)cccc5F)c5ccc2[nH]5)C=C4)C=C3)cc1
REMARK SMILES IDX 32 1 31 2 29 3 30 4 18 6 17 7 15 8 16 9 14 11 13 12 1 13
REMARK SMILES IDX 2 14 3 15 4 16 9 17 11 18 5 19 8 20 10 21 12 22 6 23 7 24
REMARK SMILES IDX 19 26 20 27 21 28 28 29 22 30 26 31 27 32 23 33 25 34 24 35
REMARK SMILES IDX 33 36 34 37 35 38 36 39 37 41 38 42 39 43 91 44 40 45 90 46
REMARK SMILES IDX 41 47 42 48 43 49 84 50 44 51 89 52 83 53 85 54 45 55 88 56
REMARK SMILES IDX 82 57 81 58 46 60 72 61 55 62 71 63 56 64 59 65 70 66 86 67
REMARK SMILES IDX 57 68 58 69 69 71 87 72 60 73 47 74 48 75 53 76 49 77 50 78
REMARK SMILES IDX 52 79 54 80 51 81 73 82 74 83 79 84 75 85 76 86 78 87 80 88
REMARK SMILES IDX 77 89 61 90 62 91 67 92 63 93 64 94 66 95 68 96 65 97
REMARK H PARENT 31 5 17 10 7 25 35 40 85 59 59 70
REMARK Flexibility Score: inf
ROOT
ATOM      1  C   UNL     1       4.310   5.045  -5.747  1.00  0.00     0.117 C 
ENDROOT
BRANCH   1   2
ATOM      2  N   UNL     1       3.690   5.390  -4.501  1.00  0.00    -0.354 N 
ATOM      3  C   UNL     1       3.815   4.597  -3.387  1.00  0.00     0.242 C 
ATOM      4  O   UNL     1       3.997   5.176  -2.310  1.00  0.00    -0.273 OA
ATOM      5  H   UNL     1       3.160   6.218  -4.443  1.00  0.00     0.163 HD
BRANCH   3   6
ATOM      6  C   UNL     1       3.797   3.033  -3.446  1.00  0.00     0.175 C 
BRANCH   6   7
ATOM      7  N   UNL     1       2.870   2.383  -4.380  1.00  0.00    -0.344 N 
ATOM      8  C   UNL     1       1.633   1.853  -4.148  1.00  0.00     0.221 C 
ATOM      9  O   UNL     1       1.093   1.211  -5.051  1.00  0.00    -0.275 OA
ATOM     10  H   UNL     1       3.187   2.319  -5.310  1.00  0.00     0.164 HD
BRANCH   8  11
ATOM     11  C   UNL     1       0.911   2.081  -2.827  1.00  0.00     0.116 C 
BRANCH  11  12
ATOM     12  C   UNL     1       1.180   1.008  -1.745  1.00  0.00     0.116 C 
ATOM     13  C   UNL     1       0.293  -0.241   0.303  1.00  0.00     0.014 C 
ATOM     14  C   UNL     1       0.072   0.927  -0.667  1.00  0.00     0.034 C 
ATOM     15  C   UNL     1       0.037   2.237   0.082  1.00  0.00    -0.001 A 
ATOM     16  C   UNL     1      -1.143   2.754   0.622  1.00  0.00     0.011 A 
ATOM     17  C   UNL     1       1.212   2.986   0.194  1.00  0.00     0.138 A 
ATOM     18  C   UNL     1       2.455   1.293  -0.989  1.00  0.00     0.315 C 
ATOM     19  C   UNL     1      -1.148   4.028   1.199  1.00  0.00     0.047 A 
ATOM     20  C   UNL     1       1.216   4.267   0.733  1.00  0.00     0.093 A 
ATOM     21  O   UNL     1       2.443   2.451  -0.222  1.00  0.00    -0.426 OA
ATOM     22  O   UNL     1       3.457   0.593  -1.087  1.00  0.00    -0.251 OA
ATOM     23  C   UNL     1       0.024   4.783   1.223  1.00  0.00     0.119 A 
BRANCH  23  24
ATOM     24  O   UNL     1       0.042   6.048   1.732  1.00  0.00    -0.508 OA
ATOM     25  H   UNL     1      -0.745   6.427   2.071  1.00  0.00     0.293 HD
ENDBRANCH  23  24
ENDBRANCH  11  12
ENDBRANCH   8  11
ENDBRANCH   6   7
BRANCH   6  26
ATOM     26  C   UNL     1       5.137   2.239  -3.266  1.00  0.00     0.068 C 
BRANCH  26  27
ATOM     27  C   UNL     1       6.114   2.010  -4.411  1.00  0.00    -0.037 C 
ATOM     28  C   UNL     1       5.861   1.173  -5.431  1.00  0.00     0.001 A 
ATOM     29  C   UNL     1       6.883   3.194  -4.901  1.00  0.00     0.174 C 
ATOM     30  C   UNL     1       6.713   0.080  -5.910  1.00  0.00     0.010 A 
ATOM     31  C   UNL     1       5.860   2.196  -6.521  1.00  0.00     0.065 A 
ATOM     32  N   UNL     1       6.449   3.328  -6.308  1.00  0.00    -0.280 NA
ATOM     33  C   UNL     1       6.638  -0.242  -7.220  1.00  0.00     0.001 A 
ATOM     34  C   UNL     1       5.281   1.698  -7.781  1.00  0.00     0.028 A 
ATOM     35  C   UNL     1       5.692   0.456  -8.090  1.00  0.00     0.002 A 
ENDBRANCH  26  27
ENDBRANCH   6  26
ENDBRANCH   3   6
ENDBRANCH   1   2
BRANCH   1  36
ATOM     36  C   UNL     1       4.092   5.928  -6.959  1.00  0.00     0.042 C 
BRANCH  36  37
ATOM     37  C   UNL     1       5.079   7.096  -7.035  1.00  0.00     0.118 C 
BRANCH  37  38
ATOM     38  N   UNL     1       6.501   6.732  -7.146  1.00  0.00    -0.352 N 
ATOM     39  C   UNL     1       7.403   6.591  -8.178  1.00  0.00     0.251 C 
ATOM     40  H   UNL     1       6.906   6.543  -6.269  1.00  0.00     0.163 HD
ATOM     41  O   UNL     1       8.564   6.271  -7.915  1.00  0.00    -0.269 OA
BRANCH  39  42
ATOM     42  C   UNL     1       7.016   6.750  -9.597  1.00  0.00     0.039 A 
ATOM     43  C   UNL     1       6.027   7.639  -9.975  1.00  0.00     0.014 A 
ATOM     44  C   UNL     1       7.637   5.971 -10.585  1.00  0.00     0.014 A 
ATOM     45  C   UNL     1       5.436   7.518 -11.221  1.00  0.00     0.010 A 
ATOM     46  C   UNL     1       7.157   5.985 -11.903  1.00  0.00     0.010 A 
ATOM     47  C   UNL     1       5.986   6.691 -12.212  1.00  0.00    -0.014 A 
BRANCH  47  48
ATOM     48  C   UNL     1       5.279   6.576 -13.521  1.00  0.00     0.031 A 
ATOM     49  C   UNL     1       4.829   5.234 -14.048  1.00  0.00     0.074 A 
ATOM     50  C   UNL     1       4.923   7.699 -14.180  1.00  0.00     0.049 A 
ATOM     51  N   UNL     1       4.182   4.959 -15.155  1.00  0.00    -0.248 NA
ATOM     52  C   UNL     1       5.152   4.047 -13.241  1.00  0.00     0.031 C 
ATOM     53  C   UNL     1       5.282   9.062 -13.779  1.00  0.00     0.029 A 
ATOM     54  N   UNL     1       4.132   7.883 -15.286  1.00  0.00    -0.354 N 
ATOM     55  C   UNL     1       4.059   3.575 -15.194  1.00  0.00     0.074 A 
ATOM     56  C   UNL     1       4.718   3.061 -14.013  1.00  0.00     0.031 C 
ATOM     57  C   UNL     1       4.627   9.938 -14.551  1.00  0.00     0.029 A 
ATOM     58  C   UNL     1       3.896   9.205 -15.577  1.00  0.00     0.049 A 
ATOM     59  H   UNL     1       3.768   7.139 -15.819  1.00  0.00     0.167 HD
ATOM     60  C   UNL     1       3.444   2.800 -16.121  1.00  0.00     0.037 A 
ATOM     61  C   UNL     1       3.196   9.777 -16.573  1.00  0.00     0.037 A 
ATOM     62  C   UNL     1       2.753   3.312 -17.277  1.00  0.00     0.049 A 
ATOM     63  C   UNL     1       2.538   8.899 -17.594  1.00  0.00     0.074 A 
ATOM     64  C   UNL     1       2.114   2.609 -18.284  1.00  0.00     0.029 A 
ATOM     65  N   UNL     1       2.596   4.659 -17.570  1.00  0.00    -0.354 N 
ATOM     66  N   UNL     1       2.489   7.591 -17.645  1.00  0.00    -0.248 NA
ATOM     67  C   UNL     1       1.863   9.576 -18.708  1.00  0.00     0.031 C 
ATOM     68  C   UNL     1       1.594   3.530 -19.201  1.00  0.00     0.029 A 
ATOM     69  C   UNL     1       1.874   4.807 -18.744  1.00  0.00     0.049 A 
ATOM     70  H   UNL     1       2.946   5.400 -17.025  1.00  0.00     0.167 HD
ATOM     71  C   UNL     1       1.789   7.285 -18.803  1.00  0.00     0.074 A 
ATOM     72  C   UNL     1       1.399   8.546 -19.401  1.00  0.00     0.031 C 
ATOM     73  C   UNL     1       1.508   6.070 -19.331  1.00  0.00     0.037 A 
BRANCH  60  74
ATOM     74  C   UNL     1       3.507   1.311 -15.932  1.00  0.00     0.057 A 
ATOM     75  C   UNL     1       4.298   0.518 -16.773  1.00  0.00     0.134 A 
ATOM     76  C   UNL     1       2.766   0.656 -14.940  1.00  0.00     0.134 A 
ATOM     77  F   UNL     1       5.030   1.079 -17.748  1.00  0.00    -0.206 F 
ATOM     78  C   UNL     1       4.348  -0.871 -16.636  1.00  0.00     0.040 A 
ATOM     79  C   UNL     1       2.826  -0.730 -14.777  1.00  0.00     0.040 A 
ATOM     80  F   UNL     1       2.001   1.357 -14.089  1.00  0.00    -0.206 F 
ATOM     81  C   UNL     1       3.615  -1.498 -15.632  1.00  0.00     0.006 A 
ENDBRANCH  60  74
BRANCH  61  82
ATOM     82  C   UNL     1       3.133  11.256 -16.674  1.00  0.00     0.057 A 
ATOM     83  C   UNL     1       4.277  12.010 -16.968  1.00  0.00     0.134 A 
ATOM     84  C   UNL     1       1.940  11.954 -16.454  1.00  0.00     0.134 A 
ATOM     85  F   UNL     1       5.452  11.400 -17.183  1.00  0.00    -0.206 F 
ATOM     86  C   UNL     1       4.245  13.403 -17.013  1.00  0.00     0.040 A 
ATOM     87  C   UNL     1       1.887  13.347 -16.526  1.00  0.00     0.040 A 
ATOM     88  F   UNL     1       0.807  11.288 -16.189  1.00  0.00    -0.206 F 
ATOM     89  C   UNL     1       3.045  14.076 -16.796  1.00  0.00     0.006 A 
ENDBRANCH  61  82
BRANCH  73  90
ATOM     90  C   UNL     1       0.739   6.058 -20.617  1.00  0.00     0.057 A 
ATOM     91  C   UNL     1      -0.609   5.681 -20.641  1.00  0.00     0.134 A 
ATOM     92  C   UNL     1       1.335   6.420 -21.832  1.00  0.00     0.134 A 
ATOM     93  F   UNL     1      -1.236   5.320 -19.511  1.00  0.00    -0.206 F 
ATOM     94  C   UNL     1      -1.339   5.669 -21.829  1.00  0.00     0.040 A 
ATOM     95  C   UNL     1       0.608   6.434 -23.023  1.00  0.00     0.040 A 
ATOM     96  F   UNL     1       2.619   6.808 -21.870  1.00  0.00    -0.206 F 
ATOM     97  C   UNL     1      -0.733   6.054 -23.023  1.00  0.00     0.006 A 
ENDBRANCH  73  90
ENDBRANCH  47  48
ENDBRANCH  39  42
ENDBRANCH  37  38
ENDBRANCH  36  37
ENDBRANCH   1  36
TORSDOF 16
