REMARK SMILES C#CC[NH2+]CC(=O)N1CC[C@](CCC)(C(=O)NCCCNC(=O)c2ccc(-c3c4nc(c(-c5c(F)cccc5F)c5ccc([nH]5)c(-c5c(F)cccc5F)c5nc(c(-c6c(F)cccc6F)c6ccc3[nH]6)C=C5)C=C4)cc2)C1
REMARK SMILES IDX 15 1 16 2 17 3 11 5 8 6 9 7 78 8 10 9 6 10 7 11 5 12 4 13
REMARK SMILES IDX 3 16 2 17 1 18 12 19 13 20 14 21 18 22 19 23 20 24 21 25
REMARK SMILES IDX 22 26 23 28 24 29 25 30 77 31 26 32 76 33 27 34 28 35 29 36
REMARK SMILES IDX 70 37 30 38 75 39 69 40 71 41 31 42 74 43 68 44 67 45 32 47
REMARK SMILES IDX 58 48 41 49 57 50 42 51 45 52 56 53 72 54 43 55 44 56 55 58
REMARK SMILES IDX 73 59 46 60 33 61 34 62 39 63 35 64 36 65 38 66 40 67 37 68
REMARK SMILES IDX 59 69 60 70 65 71 61 72 62 73 64 74 66 75 63 76 47 77 48 78
REMARK SMILES IDX 53 79 49 80 50 81 52 82 54 83 51 84
REMARK H PARENT 17 4 4 14 4 15 21 27 71 46 45 57
REMARK Flexibility Score: inf
ROOT
ATOM      1  C   UNL     1      -5.284   5.157  -0.560  1.00  0.00     0.228 C 
ATOM      2  O   UNL     1      -6.514   5.168  -0.516  1.00  0.00    -0.274 OA
ATOM      3  N   UNL     1      -4.618   6.212   0.006  1.00  0.00    -0.355 N 
ATOM      4  H   UNL     1      -5.207   6.894   0.402  1.00  0.00     0.163 HD
ENDROOT
BRANCH   1   5
ATOM      5  C   UNL     1      -4.504   4.030  -1.236  1.00  0.00     0.068 C 
ATOM      6  N   UNL     1      -4.441   1.637  -0.868  1.00  0.00    -0.337 N 
ATOM      7  C   UNL     1      -3.240   2.209  -0.378  1.00  0.00     0.121 C 
ATOM      8  C   UNL     1      -5.343   2.716  -1.281  1.00  0.00     0.136 C 
ATOM      9  C   UNL     1      -3.393   3.664  -0.256  1.00  0.00     0.040 C 
BRANCH   6  10
ATOM     10  C   UNL     1      -4.588   0.289  -1.186  1.00  0.00     0.277 C 
ATOM     11  O   UNL     1      -5.297  -0.058  -2.134  1.00  0.00    -0.268 OA
BRANCH  10  12
ATOM     12  C   UNL     1      -3.989  -0.803  -0.226  1.00  0.00     0.362 C 
BRANCH  12  13
ATOM     13  N   UNL     1      -2.545  -1.190  -0.357  1.00  0.00    -0.328 N 
ATOM     14  H   UNL     1      -2.341  -1.977   0.258  1.00  0.00     0.347 HD
ATOM     15  H   UNL     1      -2.339  -1.465  -1.317  1.00  0.00     0.347 HD
BRANCH  13  16
ATOM     16  C   UNL     1      -1.743  -0.055   0.019  1.00  0.00     0.352 C 
BRANCH  16  17
ATOM     17  C   UNL     1      -0.223  -0.055   0.019  1.00  0.00    -0.047 C 
ATOM     18  C   UNL     1       1.081  -0.055   0.019  1.00  0.00     0.010 C 
ENDBRANCH  16  17
ENDBRANCH  13  16
ENDBRANCH  12  13
ENDBRANCH  10  12
ENDBRANCH   6  10
BRANCH   5  19
ATOM     19  C   UNL     1      -4.003   4.548  -2.611  1.00  0.00     0.018 C 
BRANCH  19  20
ATOM     20  C   UNL     1      -3.490   3.572  -3.678  1.00  0.00    -0.002 C 
ATOM     21  C   UNL     1      -4.577   2.886  -4.493  1.00  0.00     0.004 C 
ENDBRANCH  19  20
ENDBRANCH   5  19
ENDBRANCH   1   5
BRANCH   3  22
ATOM     22  C   UNL     1      -3.192   6.510   0.129  1.00  0.00     0.117 C 
BRANCH  22  23
ATOM     23  C   UNL     1      -2.824   7.867  -0.403  1.00  0.00     0.042 C 
BRANCH  23  24
ATOM     24  C   UNL     1      -3.498   8.973   0.360  1.00  0.00     0.118 C 
BRANCH  24  25
ATOM     25  N   UNL     1      -3.031   9.072   1.738  1.00  0.00    -0.352 N 
ATOM     26  C   UNL     1      -2.421  10.135   2.359  1.00  0.00     0.251 C 
ATOM     27  H   UNL     1      -3.170   8.273   2.296  1.00  0.00     0.163 HD
ATOM     28  O   UNL     1      -1.927  10.011   3.474  1.00  0.00    -0.269 OA
BRANCH  26  29
ATOM     29  C   UNL     1      -2.335  11.416   1.633  1.00  0.00     0.039 A 
ATOM     30  C   UNL     1      -1.122  12.102   1.593  1.00  0.00     0.014 A 
ATOM     31  C   UNL     1      -3.436  11.874   0.905  1.00  0.00     0.014 A 
ATOM     32  C   UNL     1      -0.992  13.205   0.750  1.00  0.00     0.010 A 
ATOM     33  C   UNL     1      -3.259  12.871  -0.038  1.00  0.00     0.010 A 
ATOM     34  C   UNL     1      -2.045  13.566  -0.108  1.00  0.00    -0.014 A 
BRANCH  34  35
ATOM     35  C   UNL     1      -1.927  14.695  -1.060  1.00  0.00     0.031 A 
ATOM     36  C   UNL     1      -2.895  15.845  -0.958  1.00  0.00     0.074 A 
ATOM     37  C   UNL     1      -1.019  14.651  -2.054  1.00  0.00     0.049 A 
ATOM     38  N   UNL     1      -3.039  16.876  -1.749  1.00  0.00    -0.248 NA
ATOM     39  C   UNL     1      -3.860  15.809   0.156  1.00  0.00     0.031 C 
ATOM     40  C   UNL     1      -0.074  13.557  -2.298  1.00  0.00     0.029 A 
ATOM     41  N   UNL     1      -0.749  15.549  -3.055  1.00  0.00    -0.354 N 
ATOM     42  C   UNL     1      -4.124  17.584  -1.247  1.00  0.00     0.074 A 
ATOM     43  C   UNL     1      -4.642  16.839  -0.124  1.00  0.00     0.031 C 
ATOM     44  C   UNL     1       0.690  13.865  -3.359  1.00  0.00     0.029 A 
ATOM     45  C   UNL     1       0.265  15.154  -3.893  1.00  0.00     0.049 A 
ATOM     46  H   UNL     1      -1.237  16.397  -3.162  1.00  0.00     0.167 HD
ATOM     47  C   UNL     1      -4.623  18.770  -1.664  1.00  0.00     0.037 A 
ATOM     48  C   UNL     1       0.787  15.765  -4.973  1.00  0.00     0.037 A 
ATOM     49  C   UNL     1      -4.062  19.541  -2.739  1.00  0.00     0.049 A 
ATOM     50  C   UNL     1       0.235  17.101  -5.391  1.00  0.00     0.074 A 
ATOM     51  C   UNL     1      -4.435  20.797  -3.181  1.00  0.00     0.029 A 
ATOM     52  N   UNL     1      -3.003  19.129  -3.531  1.00  0.00    -0.354 N 
ATOM     53  N   UNL     1      -0.737  17.799  -4.855  1.00  0.00    -0.248 NA
ATOM     54  C   UNL     1       0.858  17.738  -6.560  1.00  0.00     0.031 C 
ATOM     55  C   UNL     1      -3.622  21.131  -4.268  1.00  0.00     0.029 A 
ATOM     56  C   UNL     1      -2.718  20.102  -4.473  1.00  0.00     0.049 A 
ATOM     57  H   UNL     1      -2.524  18.274  -3.438  1.00  0.00     0.167 HD
ATOM     58  C   UNL     1      -0.821  18.968  -5.599  1.00  0.00     0.074 A 
ATOM     59  C   UNL     1       0.209  18.892  -6.615  1.00  0.00     0.031 C 
ATOM     60  C   UNL     1      -1.674  20.011  -5.459  1.00  0.00     0.037 A 
BRANCH  47  61
ATOM     61  C   UNL     1      -5.816  19.318  -0.942  1.00  0.00     0.057 A 
ATOM     62  C   UNL     1      -5.723  19.822   0.362  1.00  0.00     0.134 A 
ATOM     63  C   UNL     1      -7.062  19.390  -1.576  1.00  0.00     0.134 A 
ATOM     64  F   UNL     1      -4.562  19.766   1.032  1.00  0.00    -0.206 F 
ATOM     65  C   UNL     1      -6.830  20.366   1.014  1.00  0.00     0.040 A 
ATOM     66  C   UNL     1      -8.171  19.955  -0.944  1.00  0.00     0.040 A 
ATOM     67  F   UNL     1      -7.219  18.924  -2.824  1.00  0.00    -0.206 F 
ATOM     68  C   UNL     1      -8.056  20.443   0.357  1.00  0.00     0.006 A 
ENDBRANCH  47  61
BRANCH  48  69
ATOM     69  C   UNL     1       1.903  15.140  -5.727  1.00  0.00     0.057 A 
ATOM     70  C   UNL     1       3.187  15.700  -5.710  1.00  0.00     0.134 A 
ATOM     71  C   UNL     1       1.710  13.996  -6.509  1.00  0.00     0.134 A 
ATOM     72  F   UNL     1       3.431  16.806  -4.993  1.00  0.00    -0.206 F 
ATOM     73  C   UNL     1       4.230  15.163  -6.468  1.00  0.00     0.040 A 
ATOM     74  C   UNL     1       2.750  13.433  -7.251  1.00  0.00     0.040 A 
ATOM     75  F   UNL     1       0.507  13.405  -6.560  1.00  0.00    -0.206 F 
ATOM     76  C   UNL     1       4.012  14.025  -7.241  1.00  0.00     0.006 A 
ENDBRANCH  48  69
BRANCH  60  77
ATOM     77  C   UNL     1      -1.501  21.169  -6.395  1.00  0.00     0.057 A 
ATOM     78  C   UNL     1      -1.874  21.092  -7.742  1.00  0.00     0.134 A 
ATOM     79  C   UNL     1      -0.998  22.390  -5.928  1.00  0.00     0.134 A 
ATOM     80  F   UNL     1      -2.352  19.946  -8.250  1.00  0.00    -0.206 F 
ATOM     81  C   UNL     1      -1.732  22.184  -8.598  1.00  0.00     0.040 A 
ATOM     82  C   UNL     1      -0.877  23.496  -6.768  1.00  0.00     0.040 A 
ATOM     83  F   UNL     1      -0.633  22.530  -4.644  1.00  0.00    -0.206 F 
ATOM     84  C   UNL     1      -1.239  23.392  -8.109  1.00  0.00     0.006 A 
ENDBRANCH  60  77
ENDBRANCH  34  35
ENDBRANCH  26  29
ENDBRANCH  24  25
ENDBRANCH  23  24
ENDBRANCH  22  23
ENDBRANCH   3  22
TORSDOF 17
