REMARK SMILES COc1ccc(Cn2c(SCCC(=O)NCCCNC(=O)c3ccc(-c4c5nc(c(-c6c(F)cccc6F)c6ccc([nH]6)c(-c6c(F)cccc6F)c6nc(c(-c7c(F)cccc7F)c7ccc4[nH]7)C=C6)C=C5)cc3)nc3ccc(Cl)cc3c2=O)cc1
REMARK SMILES IDX 13 1 14 2 15 3 12 5 11 6 10 7 9 8 8 9 84 10 76 11 83 12
REMARK SMILES IDX 85 13 77 14 82 15 78 16 80 17 79 18 81 19 7 20 6 21 3 22
REMARK SMILES IDX 4 23 87 24 5 25 86 26 2 27 1 28 16 29 17 30 18 31 19 32
REMARK SMILES IDX 20 33 21 35 22 36 23 37 75 38 24 39 74 40 25 41 26 42 27 43
REMARK SMILES IDX 68 44 28 45 73 46 67 47 69 48 29 49 72 50 66 51 65 52 30 54
REMARK SMILES IDX 56 55 39 56 55 57 40 58 43 59 54 60 70 61 41 62 42 63 53 65
REMARK SMILES IDX 71 66 44 67 31 68 32 69 37 70 33 71 34 72 36 73 38 74 35 75
REMARK SMILES IDX 57 76 58 77 63 78 59 79 60 80 62 81 64 82 61 83 45 84 46 85
REMARK SMILES IDX 51 86 47 87 48 88 50 89 52 90 49 91
REMARK H PARENT 15 4 19 34 69 53 43 64
REMARK Flexibility Score: inf
ROOT
ATOM      1  C   UNL     1       4.009   7.650   0.001  1.00  0.00     0.220 C 
ATOM      2  O   UNL     1       3.119   7.596   0.850  1.00  0.00    -0.275 OA
ATOM      3  N   UNL     1       3.948   8.622  -0.947  1.00  0.00    -0.356 N 
ATOM      4  H   UNL     1       3.183   9.239  -0.896  1.00  0.00     0.163 HD
ENDROOT
BRANCH   1   5
ATOM      5  C   UNL     1       5.146   6.657  -0.012  1.00  0.00     0.111 C 
BRANCH   5   6
ATOM      6  C   UNL     1       4.588   5.250  -0.036  1.00  0.00     0.088 C 
BRANCH   6   7
ATOM      7  S   UNL     1       4.315   4.494  -1.638  1.00  0.00    -0.087 SA
BRANCH   7   8
ATOM      8  C   UNL     1       3.327   5.537  -2.637  1.00  0.00     0.171 A 
ATOM      9  N   UNL     1       1.961   5.344  -2.649  1.00  0.00    -0.283 N 
ATOM     10  C   UNL     1       1.292   5.398  -3.865  1.00  0.00     0.262 A 
ATOM     11  N   UNL     1       3.975   6.147  -3.579  1.00  0.00    -0.224 NA
ATOM     12  C   UNL     1       2.142   5.570  -5.050  1.00  0.00     0.067 A 
ATOM     13  O   UNL     1       0.074   5.367  -4.019  1.00  0.00    -0.269 OA
ATOM     14  C   UNL     1       3.353   6.222  -4.832  1.00  0.00     0.079 A 
ATOM     15  C   UNL     1       1.835   5.026  -6.295  1.00  0.00     0.036 A 
ATOM     16  C   UNL     1       4.128   6.599  -5.927  1.00  0.00     0.031 A 
ATOM     17  C   UNL     1       2.754   5.206  -7.326  1.00  0.00     0.042 A 
ATOM     18  C   UNL     1       3.827   6.086  -7.185  1.00  0.00     0.023 A 
ATOM     19  Cl  UNL     1       2.700   4.213  -8.730  1.00  0.00    -0.084 Cl
BRANCH   9  20
ATOM     20  C   UNL     1       1.161   5.339  -1.424  1.00  0.00     0.163 C 
BRANCH  20  21
ATOM     21  C   UNL     1       0.695   3.968  -1.002  1.00  0.00    -0.028 A 
ATOM     22  C   UNL     1      -0.021   1.327  -0.368  1.00  0.00     0.118 A 
ATOM     23  C   UNL     1      -0.771   2.056  -1.289  1.00  0.00     0.047 A 
ATOM     24  C   UNL     1       1.024   1.948   0.309  1.00  0.00     0.047 A 
ATOM     25  C   UNL     1      -0.413   3.366  -1.609  1.00  0.00     0.009 A 
ATOM     26  C   UNL     1       1.371   3.261  -0.002  1.00  0.00     0.009 A 
BRANCH  22  27
ATOM     27  O   UNL     1      -0.393   0.024  -0.190  1.00  0.00    -0.497 OA
ATOM     28  C   UNL     1       0.664  -0.842   0.215  1.00  0.00     0.278 C 
ENDBRANCH  22  27
ENDBRANCH  20  21
ENDBRANCH   9  20
ENDBRANCH   7   8
ENDBRANCH   6   7
ENDBRANCH   5   6
ENDBRANCH   1   5
BRANCH   3  29
ATOM     29  C   UNL     1       4.886   8.846  -2.022  1.00  0.00     0.117 C 
BRANCH  29  30
ATOM     30  C   UNL     1       4.392   9.742  -3.151  1.00  0.00     0.042 C 
BRANCH  30  31
ATOM     31  C   UNL     1       2.895   9.734  -3.489  1.00  0.00     0.118 C 
BRANCH  31  32
ATOM     32  N   UNL     1       2.649  10.819  -4.428  1.00  0.00    -0.352 N 
ATOM     33  C   UNL     1       2.273  10.844  -5.739  1.00  0.00     0.251 C 
ATOM     34  H   UNL     1       2.781  11.714  -4.039  1.00  0.00     0.163 HD
ATOM     35  O   UNL     1       2.617  11.828  -6.398  1.00  0.00    -0.269 OA
BRANCH  33  36
ATOM     36  C   UNL     1       1.420   9.818  -6.395  1.00  0.00     0.039 A 
ATOM     37  C   UNL     1       1.524   9.718  -7.791  1.00  0.00     0.014 A 
ATOM     38  C   UNL     1       0.368   9.162  -5.750  1.00  0.00     0.014 A 
ATOM     39  C   UNL     1       0.558   9.038  -8.541  1.00  0.00     0.010 A 
ATOM     40  C   UNL     1      -0.592   8.455  -6.506  1.00  0.00     0.010 A 
ATOM     41  C   UNL     1      -0.532   8.424  -7.912  1.00  0.00    -0.014 A 
BRANCH  41  42
ATOM     42  C   UNL     1      -1.622   7.822  -8.742  1.00  0.00     0.031 A 
ATOM     43  C   UNL     1      -2.946   8.515  -8.909  1.00  0.00     0.074 A 
ATOM     44  C   UNL     1      -1.424   6.680  -9.428  1.00  0.00     0.049 A 
ATOM     45  N   UNL     1      -3.986   8.143  -9.616  1.00  0.00    -0.248 NA
ATOM     46  C   UNL     1      -3.116   9.799  -8.217  1.00  0.00     0.031 C 
ATOM     47  C   UNL     1      -0.172   5.941  -9.455  1.00  0.00     0.029 A 
ATOM     48  N   UNL     1      -2.260   5.945 -10.236  1.00  0.00    -0.354 N 
ATOM     49  C   UNL     1      -4.929   9.149  -9.467  1.00  0.00     0.074 A 
ATOM     50  C   UNL     1      -4.350  10.133  -8.573  1.00  0.00     0.031 C 
ATOM     51  C   UNL     1      -0.323   4.842 -10.210  1.00  0.00     0.029 A 
ATOM     52  C   UNL     1      -1.688   4.789 -10.711  1.00  0.00     0.049 A 
ATOM     53  H   UNL     1      -3.179   6.220 -10.454  1.00  0.00     0.167 HD
ATOM     54  C   UNL     1      -6.153   9.258 -10.038  1.00  0.00     0.037 A 
ATOM     55  C   UNL     1      -2.186   3.786 -11.459  1.00  0.00     0.037 A 
ATOM     56  C   UNL     1      -6.745   8.298 -10.936  1.00  0.00     0.049 A 
ATOM     57  C   UNL     1      -3.590   3.868 -11.976  1.00  0.00     0.074 A 
ATOM     58  C   UNL     1      -7.977   8.361 -11.570  1.00  0.00     0.029 A 
ATOM     59  N   UNL     1      -6.162   7.103 -11.323  1.00  0.00    -0.354 N 
ATOM     60  N   UNL     1      -4.456   4.839 -11.844  1.00  0.00    -0.248 NA
ATOM     61  C   UNL     1      -4.079   2.725 -12.761  1.00  0.00     0.031 C 
ATOM     62  C   UNL     1      -8.157   7.185 -12.306  1.00  0.00     0.029 A 
ATOM     63  C   UNL     1      -7.022   6.406 -12.161  1.00  0.00     0.049 A 
ATOM     64  H   UNL     1      -5.270   6.793 -11.046  1.00  0.00     0.167 HD
ATOM     65  C   UNL     1      -5.578   4.444 -12.558  1.00  0.00     0.074 A 
ATOM     66  C   UNL     1      -5.285   3.143 -13.121  1.00  0.00     0.031 C 
ATOM     67  C   UNL     1      -6.740   5.115 -12.733  1.00  0.00     0.037 A 
BRANCH  54  68
ATOM     68  C   UNL     1      -6.959  10.473  -9.696  1.00  0.00     0.057 A 
ATOM     69  C   UNL     1      -6.681  11.722 -10.264  1.00  0.00     0.134 A 
ATOM     70  C   UNL     1      -8.060  10.379  -8.836  1.00  0.00     0.134 A 
ATOM     71  F   UNL     1      -5.636  11.875 -11.091  1.00  0.00    -0.206 F 
ATOM     72  C   UNL     1      -7.462  12.841  -9.976  1.00  0.00     0.040 A 
ATOM     73  C   UNL     1      -8.859  11.487  -8.555  1.00  0.00     0.040 A 
ATOM     74  F   UNL     1      -8.383   9.207  -8.268  1.00  0.00    -0.206 F 
ATOM     75  C   UNL     1      -8.559  12.724  -9.123  1.00  0.00     0.006 A 
ENDBRANCH  54  68
BRANCH  55  76
ATOM     76  C   UNL     1      -1.347   2.601 -11.766  1.00  0.00     0.057 A 
ATOM     77  C   UNL     1      -0.843   2.381 -13.052  1.00  0.00     0.134 A 
ATOM     78  C   UNL     1      -1.054   1.648 -10.783  1.00  0.00     0.134 A 
ATOM     79  F   UNL     1      -1.110   3.249 -14.039  1.00  0.00    -0.206 F 
ATOM     80  C   UNL     1      -0.090   1.246 -13.355  1.00  0.00     0.040 A 
ATOM     81  C   UNL     1      -0.287   0.518 -11.068  1.00  0.00     0.040 A 
ATOM     82  F   UNL     1      -1.512   1.803  -9.532  1.00  0.00    -0.206 F 
ATOM     83  C   UNL     1       0.192   0.312 -12.360  1.00  0.00     0.006 A 
ENDBRANCH  55  76
BRANCH  67  84
ATOM     84  C   UNL     1      -7.780   4.474 -13.601  1.00  0.00     0.057 A 
ATOM     85  C   UNL     1      -8.543   3.387 -13.157  1.00  0.00     0.134 A 
ATOM     86  C   UNL     1      -8.040   4.967 -14.886  1.00  0.00     0.134 A 
ATOM     87  F   UNL     1      -8.329   2.857 -11.944  1.00  0.00    -0.206 F 
ATOM     88  C   UNL     1      -9.521   2.804 -13.966  1.00  0.00     0.040 A 
ATOM     89  C   UNL     1      -9.029   4.405 -15.696  1.00  0.00     0.040 A 
ATOM     90  F   UNL     1      -7.344   6.006 -15.371  1.00  0.00    -0.206 F 
ATOM     91  C   UNL     1      -9.770   3.319 -15.237  1.00  0.00     0.006 A 
ENDBRANCH  67  84
ENDBRANCH  41  42
ENDBRANCH  33  36
ENDBRANCH  31  32
ENDBRANCH  30  31
ENDBRANCH  29  30
ENDBRANCH   3  29
TORSDOF 16
