REMARK SMILES CC(C)[NH2+][C@]1(C(=O)NCCCNC(=O)c2ccc(-c3c4nc(c(-c5c(F)cccc5F)c5ccc([nH]5)c(-c5c(F)cccc5F)c5nc(c(-c6c(F)cccc6F)c6ccc3[nH]6)C=C5)C=C4)cc2)CC[C@@H]([N@@H+](C)[C@@H](C)C(C)C)C1
REMARK SMILES IDX 9 1 8 2 6 3 7 4 5 6 69 7 79 8 70 9 71 10 4 11 2 14 1 15 3 16
REMARK SMILES IDX 72 17 73 18 74 20 75 21 76 22 77 23 78 24 10 25 11 26 12 27
REMARK SMILES IDX 13 28 14 30 15 31 16 32 68 33 17 34 67 35 18 36 19 37 20 38
REMARK SMILES IDX 61 39 21 40 66 41 60 42 62 43 22 44 65 45 59 46 58 47 23 49
REMARK SMILES IDX 49 50 32 51 48 52 33 53 36 54 47 55 63 56 34 57 35 58 46 60
REMARK SMILES IDX 64 61 37 62 24 63 25 64 30 65 26 66 27 67 29 68 31 69 28 70
REMARK SMILES IDX 50 71 51 72 56 73 52 74 53 75 55 76 57 77 54 78 38 79 39 80
REMARK SMILES IDX 44 81 40 82 41 83 43 84 45 85 42 86
REMARK H PARENT 8 5 4 12 4 13 72 19 12 29 62 48 36 59
REMARK Flexibility Score: inf
ROOT
ATOM      1  C   UNL     1       1.148   2.168   1.256  1.00  0.00     0.118 C 
ENDROOT
BRANCH   1   2
ATOM      2  N   UNL     1       0.152   1.173   0.913  1.00  0.00    -0.351 N 
ATOM      3  C   UNL     1      -0.974   0.757   1.569  1.00  0.00     0.281 C 
ATOM      4  O   UNL     1      -1.605  -0.152   1.021  1.00  0.00    -0.268 OA
ATOM      5  H   UNL     1       0.315   0.716   0.057  1.00  0.00     0.163 HD
BRANCH   3   6
ATOM      6  C   UNL     1      -1.394   1.378   2.957  1.00  0.00     0.181 C 
ATOM      7  C   UNL     1      -1.439   2.915   2.835  1.00  0.00     0.085 C 
ATOM      8  C   UNL     1      -2.878   1.020   3.233  1.00  0.00     0.144 C 
ATOM      9  C   UNL     1      -2.542   3.411   3.734  1.00  0.00     0.072 C 
ATOM     10  C   UNL     1      -3.566   2.286   3.790  1.00  0.00     0.191 C 
BRANCH   6  11
ATOM     11  N   UNL     1      -0.401   0.879   3.929  1.00  0.00    -0.331 N 
ATOM     12  H   UNL     1      -0.070  -0.011   3.557  1.00  0.00     0.347 HD
ATOM     13  H   UNL     1       0.231   1.677   3.996  1.00  0.00     0.347 HD
BRANCH  11  14
ATOM     14  C   UNL     1      -0.704   0.636   5.332  1.00  0.00     0.176 C 
ATOM     15  C   UNL     1       0.391  -0.298   5.865  1.00  0.00     0.075 C 
ATOM     16  C   UNL     1      -0.721   1.907   6.177  1.00  0.00     0.075 C 
ENDBRANCH  11  14
ENDBRANCH   6  11
BRANCH  10  17
ATOM     17  N   UNL     1      -4.926   2.617   3.319  1.00  0.00    -0.332 N 
ATOM     18  C   UNL     1      -5.592   3.472   4.315  1.00  0.00     0.333 C 
ATOM     19  H   UNL     1      -5.331   1.686   3.228  1.00  0.00     0.348 HD
BRANCH  17  20
ATOM     20  C   UNL     1      -5.180   3.108   1.931  1.00  0.00     0.183 C 
ATOM     21  C   UNL     1      -4.627   4.504   1.591  1.00  0.00     0.075 C 
BRANCH  20  22
ATOM     22  C   UNL     1      -4.860   2.076   0.805  1.00  0.00     0.041 C 
ATOM     23  C   UNL     1      -5.686   0.793   0.984  1.00  0.00     0.013 C 
ATOM     24  C   UNL     1      -5.104   2.611  -0.613  1.00  0.00     0.013 C 
ENDBRANCH  20  22
ENDBRANCH  17  20
ENDBRANCH  10  17
ENDBRANCH   3   6
ENDBRANCH   1   2
BRANCH   1  25
ATOM     25  C   UNL     1       2.528   1.569   1.436  1.00  0.00     0.042 C 
BRANCH  25  26
ATOM     26  C   UNL     1       3.140   1.087   0.136  1.00  0.00     0.118 C 
BRANCH  26  27
ATOM     27  N   UNL     1       3.400   2.178  -0.796  1.00  0.00    -0.352 N 
ATOM     28  C   UNL     1       4.589   2.702  -1.244  1.00  0.00     0.251 C 
ATOM     29  H   UNL     1       2.595   2.609  -1.162  1.00  0.00     0.163 HD
ATOM     30  O   UNL     1       4.593   3.760  -1.863  1.00  0.00    -0.269 OA
BRANCH  28  31
ATOM     31  C   UNL     1       5.861   2.002  -0.966  1.00  0.00     0.039 A 
ATOM     32  C   UNL     1       7.004   2.752  -0.676  1.00  0.00     0.014 A 
ATOM     33  C   UNL     1       5.934   0.609  -1.007  1.00  0.00     0.014 A 
ATOM     34  C   UNL     1       8.200   2.098  -0.373  1.00  0.00     0.010 A 
ATOM     35  C   UNL     1       7.084  -0.038  -0.579  1.00  0.00     0.010 A 
ATOM     36  C   UNL     1       8.241   0.697  -0.291  1.00  0.00    -0.014 A 
BRANCH  36  37
ATOM     37  C   UNL     1       9.494  -0.029   0.031  1.00  0.00     0.031 A 
ATOM     38  C   UNL     1      10.071  -1.000  -0.967  1.00  0.00     0.074 A 
ATOM     39  C   UNL     1      10.080   0.137   1.232  1.00  0.00     0.049 A 
ATOM     40  N   UNL     1      11.115  -1.781  -0.855  1.00  0.00    -0.248 NA
ATOM     41  C   UNL     1       9.357  -1.137  -2.248  1.00  0.00     0.031 C 
ATOM     42  C   UNL     1       9.592   1.009   2.302  1.00  0.00     0.029 A 
ATOM     43  N   UNL     1      11.216  -0.427   1.755  1.00  0.00    -0.354 N 
ATOM     44  C   UNL     1      11.168  -2.509  -2.038  1.00  0.00     0.074 A 
ATOM     45  C   UNL     1      10.011  -2.136  -2.819  1.00  0.00     0.031 C 
ATOM     46  C   UNL     1      10.443   0.949   3.339  1.00  0.00     0.029 A 
ATOM     47  C   UNL     1      11.511   0.006   3.025  1.00  0.00     0.049 A 
ATOM     48  H   UNL     1      11.767  -1.080   1.266  1.00  0.00     0.167 HD
ATOM     49  C   UNL     1      12.112  -3.385  -2.454  1.00  0.00     0.037 A 
ATOM     50  C   UNL     1      12.530  -0.323   3.840  1.00  0.00     0.037 A 
ATOM     51  C   UNL     1      13.276  -3.735  -1.684  1.00  0.00     0.049 A 
ATOM     52  C   UNL     1      13.565  -1.302   3.359  1.00  0.00     0.074 A 
ATOM     53  C   UNL     1      14.318  -4.577  -2.029  1.00  0.00     0.029 A 
ATOM     54  N   UNL     1      13.550  -3.258  -0.411  1.00  0.00    -0.354 N 
ATOM     55  N   UNL     1      13.637  -1.938   2.214  1.00  0.00    -0.248 NA
ATOM     56  C   UNL     1      14.670  -1.599   4.280  1.00  0.00     0.031 C 
ATOM     57  C   UNL     1      15.199  -4.647  -0.945  1.00  0.00     0.029 A 
ATOM     58  C   UNL     1      14.739  -3.800   0.050  1.00  0.00     0.049 A 
ATOM     59  H   UNL     1      12.984  -2.628   0.091  1.00  0.00     0.167 HD
ATOM     60  C   UNL     1      14.814  -2.674   2.260  1.00  0.00     0.074 A 
ATOM     61  C   UNL     1      15.427  -2.398   3.543  1.00  0.00     0.031 C 
ATOM     62  C   UNL     1      15.344  -3.500   1.323  1.00  0.00     0.037 A 
BRANCH  49  63
ATOM     63  C   UNL     1      11.921  -4.016  -3.804  1.00  0.00     0.057 A 
ATOM     64  C   UNL     1      11.999  -3.270  -4.990  1.00  0.00     0.134 A 
ATOM     65  C   UNL     1      11.664  -5.388  -3.925  1.00  0.00     0.134 A 
ATOM     66  F   UNL     1      12.227  -1.948  -4.948  1.00  0.00    -0.206 F 
ATOM     67  C   UNL     1      11.793  -3.857  -6.239  1.00  0.00     0.040 A 
ATOM     68  C   UNL     1      11.491  -5.992  -5.171  1.00  0.00     0.040 A 
ATOM     69  F   UNL     1      11.581  -6.164  -2.834  1.00  0.00    -0.206 F 
ATOM     70  C   UNL     1      11.545  -5.225  -6.332  1.00  0.00     0.006 A 
ENDBRANCH  49  63
BRANCH  50  71
ATOM     71  C   UNL     1      12.648   0.309   5.179  1.00  0.00     0.057 A 
ATOM     72  C   UNL     1      13.679   1.214   5.462  1.00  0.00     0.134 A 
ATOM     73  C   UNL     1      11.747   0.017   6.211  1.00  0.00     0.134 A 
ATOM     74  F   UNL     1      14.582   1.522   4.520  1.00  0.00    -0.206 F 
ATOM     75  C   UNL     1      13.827   1.784   6.727  1.00  0.00     0.040 A 
ATOM     76  C   UNL     1      11.867   0.602   7.473  1.00  0.00     0.040 A 
ATOM     77  F   UNL     1      10.730  -0.832   6.002  1.00  0.00    -0.206 F 
ATOM     78  C   UNL     1      12.915   1.480   7.736  1.00  0.00     0.006 A 
ENDBRANCH  50  71
BRANCH  62  79
ATOM     79  C   UNL     1      16.683  -4.111   1.624  1.00  0.00     0.057 A 
ATOM     80  C   UNL     1      16.854  -5.094   2.606  1.00  0.00     0.134 A 
ATOM     81  C   UNL     1      17.815  -3.720   0.896  1.00  0.00     0.134 A 
ATOM     82  F   UNL     1      15.813  -5.506   3.346  1.00  0.00    -0.206 F 
ATOM     83  C   UNL     1      18.110  -5.641   2.879  1.00  0.00     0.040 A 
ATOM     84  C   UNL     1      19.068  -4.283   1.137  1.00  0.00     0.040 A 
ATOM     85  F   UNL     1      17.720  -2.792  -0.068  1.00  0.00    -0.206 F 
ATOM     86  C   UNL     1      19.220  -5.239   2.138  1.00  0.00     0.006 A 
ENDBRANCH  62  79
ENDBRANCH  36  37
ENDBRANCH  28  31
ENDBRANCH  26  27
ENDBRANCH  25  26
ENDBRANCH   1  25
TORSDOF 15
