REMARK SMILES C[C@@H](NC(=O)/C(=C/c1ccc(Cl)cc1)NC(=O)c1ccc(C(C)(C)C)cc1)C(=O)NCCCNC(=O)c1ccc(-c2c3nc(c(-c4c(F)cccc4F)c4ccc([nH]4)c(-c4c(F)cccc4F)c4nc(c(-c5c(F)cccc5F)c5ccc2[nH]5)C=C4)C=C3)cc1
REMARK SMILES IDX 28 1 29 2 30 3 2 5 1 6 3 7 4 8 5 10 6 11 7 12 15 13 16 14
REMARK SMILES IDX 17 16 18 17 19 18 27 19 20 20 26 21 21 22 22 23 23 24 24 25
REMARK SMILES IDX 25 26 8 27 9 28 14 29 10 30 13 31 11 32 12 33 31 34 32 35
REMARK SMILES IDX 33 36 34 37 35 38 36 40 37 41 38 42 90 43 39 44 89 45 40 46
REMARK SMILES IDX 41 47 42 48 83 49 43 50 88 51 82 52 84 53 44 54 87 55 81 56
REMARK SMILES IDX 80 57 45 59 71 60 54 61 70 62 55 63 58 64 69 65 85 66 56 67
REMARK SMILES IDX 57 68 68 70 86 71 59 72 46 73 47 74 52 75 48 76 49 77 51 78
REMARK SMILES IDX 53 79 50 80 72 81 73 82 78 83 74 84 75 85 77 86 79 87 76 88
REMARK SMILES IDX 60 89 61 90 66 91 62 92 63 93 65 94 67 95 64 96
REMARK H PARENT 30 4 3 9 15 15 34 39 84 58 58 69
REMARK Flexibility Score: inf
ROOT
ATOM      1  C   UNL     1      -0.635   0.384   0.546  1.00  0.00     0.242 C 
ATOM      2  O   UNL     1      -1.073  -0.437   1.359  1.00  0.00    -0.273 OA
ATOM      3  N   UNL     1      -1.176   0.381  -0.700  1.00  0.00    -0.354 N 
ATOM      4  H   UNL     1      -1.904  -0.266  -0.844  1.00  0.00     0.163 HD
ENDROOT
BRANCH   1   5
ATOM      5  C   UNL     1       0.581   1.257   0.901  1.00  0.00     0.168 C 
ATOM      6  C   UNL     1       1.823   0.501   0.415  1.00  0.00     0.041 C 
BRANCH   5   7
ATOM      7  N   UNL     1       0.625   2.657   0.445  1.00  0.00    -0.339 N 
ATOM      8  C   UNL     1      -0.164   3.680   0.920  1.00  0.00     0.268 C 
ATOM      9  H   UNL     1       1.275   2.881  -0.260  1.00  0.00     0.164 HD
ATOM     10  O   UNL     1       0.361   4.671   1.420  1.00  0.00    -0.268 OA
BRANCH   8  11
ATOM     11  C   UNL     1      -1.637   3.642   0.631  1.00  0.00     0.107 C 
ATOM     12  C   UNL     1      -2.359   2.727   1.306  1.00  0.00     0.040 C 
BRANCH  11  13
ATOM     13  N   UNL     1      -2.235   4.564  -0.208  1.00  0.00    -0.317 N 
ATOM     14  C   UNL     1      -1.776   5.576  -1.018  1.00  0.00     0.255 C 
ATOM     15  H   UNL     1      -3.215   4.475  -0.230  1.00  0.00     0.170 HD
ATOM     16  O   UNL     1      -2.594   6.314  -1.569  1.00  0.00    -0.269 OA
BRANCH  14  17
ATOM     17  C   UNL     1      -0.351   5.817  -1.269  1.00  0.00     0.040 A 
ATOM     18  C   UNL     1       0.203   7.018  -0.832  1.00  0.00     0.014 A 
ATOM     19  C   UNL     1       0.421   4.912  -1.994  1.00  0.00     0.014 A 
ATOM     20  C   UNL     1       1.562   7.262  -1.030  1.00  0.00     0.005 A 
ATOM     21  C   UNL     1       1.786   5.159  -2.180  1.00  0.00     0.005 A 
ATOM     22  C   UNL     1       2.394   6.319  -1.667  1.00  0.00    -0.043 A 
BRANCH  22  23
ATOM     23  C   UNL     1       3.908   6.579  -1.766  1.00  0.00    -0.013 C 
ATOM     24  C   UNL     1       4.166   7.762  -2.720  1.00  0.00     0.016 C 
ATOM     25  C   UNL     1       4.475   6.919  -0.368  1.00  0.00     0.016 C 
ATOM     26  C   UNL     1       4.710   5.366  -2.288  1.00  0.00     0.016 C 
ENDBRANCH  22  23
ENDBRANCH  14  17
ENDBRANCH  11  13
BRANCH  12  27
ATOM     27  C   UNL     1      -3.768   2.314   1.125  1.00  0.00    -0.023 A 
ATOM     28  C   UNL     1      -4.433   2.364  -0.111  1.00  0.00     0.010 A 
ATOM     29  C   UNL     1      -4.422   1.700   2.203  1.00  0.00     0.010 A 
ATOM     30  C   UNL     1      -5.737   1.876  -0.248  1.00  0.00     0.021 A 
ATOM     31  C   UNL     1      -5.717   1.190   2.063  1.00  0.00     0.021 A 
ATOM     32  C   UNL     1      -6.373   1.289   0.840  1.00  0.00     0.041 A 
ATOM     33  Cl  UNL     1      -7.962   0.656   0.663  1.00  0.00    -0.084 Cl
ENDBRANCH  12  27
ENDBRANCH   8  11
ENDBRANCH   5   7
ENDBRANCH   1   5
BRANCH   3  34
ATOM     34  C   UNL     1      -0.833   1.196  -1.847  1.00  0.00     0.117 C 
BRANCH  34  35
ATOM     35  C   UNL     1      -1.115   0.467  -3.149  1.00  0.00     0.042 C 
BRANCH  35  36
ATOM     36  C   UNL     1      -2.603   0.332  -3.440  1.00  0.00     0.118 C 
BRANCH  36  37
ATOM     37  N   UNL     1      -3.195   1.557  -3.961  1.00  0.00    -0.352 N 
ATOM     38  C   UNL     1      -4.018   1.690  -5.059  1.00  0.00     0.251 C 
ATOM     39  H   UNL     1      -2.982   2.385  -3.474  1.00  0.00     0.163 HD
ATOM     40  O   UNL     1      -4.361   2.791  -5.464  1.00  0.00    -0.269 OA
BRANCH  38  41
ATOM     41  C   UNL     1      -4.443   0.466  -5.764  1.00  0.00     0.039 A 
ATOM     42  C   UNL     1      -4.145   0.326  -7.121  1.00  0.00     0.014 A 
ATOM     43  C   UNL     1      -5.032  -0.579  -5.048  1.00  0.00     0.014 A 
ATOM     44  C   UNL     1      -4.362  -0.904  -7.746  1.00  0.00     0.010 A 
ATOM     45  C   UNL     1      -5.176  -1.821  -5.652  1.00  0.00     0.010 A 
ATOM     46  C   UNL     1      -4.836  -1.998  -7.004  1.00  0.00    -0.014 A 
BRANCH  46  47
ATOM     47  C   UNL     1      -4.999  -3.343  -7.609  1.00  0.00     0.031 A 
ATOM     48  C   UNL     1      -6.368  -3.958  -7.676  1.00  0.00     0.074 A 
ATOM     49  C   UNL     1      -3.919  -4.049  -7.995  1.00  0.00     0.049 A 
ATOM     50  N   UNL     1      -6.713  -5.178  -7.993  1.00  0.00    -0.248 NA
ATOM     51  C   UNL     1      -7.496  -3.091  -7.296  1.00  0.00     0.031 C 
ATOM     52  C   UNL     1      -2.533  -3.580  -7.944  1.00  0.00     0.029 A 
ATOM     53  N   UNL     1      -3.819  -5.326  -8.488  1.00  0.00    -0.354 N 
ATOM     54  C   UNL     1      -8.089  -5.237  -7.813  1.00  0.00     0.074 A 
ATOM     55  C   UNL     1      -8.510  -3.942  -7.324  1.00  0.00     0.031 C 
ATOM     56  C   UNL     1      -1.723  -4.551  -8.401  1.00  0.00     0.029 A 
ATOM     57  C   UNL     1      -2.527  -5.722  -8.737  1.00  0.00     0.049 A 
ATOM     58  H   UNL     1      -4.600  -5.904  -8.649  1.00  0.00     0.167 HD
ATOM     59  C   UNL     1      -8.929  -6.271  -8.050  1.00  0.00     0.037 A 
ATOM     60  C   UNL     1      -2.046  -6.902  -9.173  1.00  0.00     0.037 A 
ATOM     61  C   UNL     1      -8.515  -7.540  -8.584  1.00  0.00     0.049 A 
ATOM     62  C   UNL     1      -3.002  -8.025  -9.461  1.00  0.00     0.074 A 
ATOM     63  C   UNL     1      -9.297  -8.633  -8.915  1.00  0.00     0.029 A 
ATOM     64  N   UNL     1      -7.204  -7.880  -8.878  1.00  0.00    -0.354 N 
ATOM     65  N   UNL     1      -4.305  -8.056  -9.322  1.00  0.00    -0.248 NA
ATOM     66  C   UNL     1      -2.423  -9.277  -9.969  1.00  0.00     0.031 C 
ATOM     67  C   UNL     1      -8.454  -9.643  -9.390  1.00  0.00     0.029 A 
ATOM     68  C   UNL     1      -7.153  -9.167  -9.384  1.00  0.00     0.049 A 
ATOM     69  H   UNL     1      -6.425  -7.293  -8.745  1.00  0.00     0.167 HD
ATOM     70  C   UNL     1      -4.705  -9.313  -9.755  1.00  0.00     0.074 A 
ATOM     71  C   UNL     1      -3.507 -10.017 -10.163  1.00  0.00     0.031 C 
ATOM     72  C   UNL     1      -5.953  -9.838  -9.810  1.00  0.00     0.037 A 
BRANCH  59  73
ATOM     73  C   UNL     1     -10.380  -6.063  -7.737  1.00  0.00     0.057 A 
ATOM     74  C   UNL     1     -11.192  -5.234  -8.521  1.00  0.00     0.134 A 
ATOM     75  C   UNL     1     -10.975  -6.711  -6.648  1.00  0.00     0.134 A 
ATOM     76  F   UNL     1     -10.677  -4.572  -9.568  1.00  0.00    -0.206 F 
ATOM     77  C   UNL     1     -12.539  -5.033  -8.216  1.00  0.00     0.040 A 
ATOM     78  C   UNL     1     -12.327  -6.538  -6.348  1.00  0.00     0.040 A 
ATOM     79  F   UNL     1     -10.254  -7.522  -5.859  1.00  0.00    -0.206 F 
ATOM     80  C   UNL     1     -13.111  -5.691  -7.129  1.00  0.00     0.006 A 
ENDBRANCH  59  73
BRANCH  60  81
ATOM     81  C   UNL     1      -0.588  -7.076  -9.390  1.00  0.00     0.057 A 
ATOM     82  C   UNL     1      -0.059  -7.145 -10.684  1.00  0.00     0.134 A 
ATOM     83  C   UNL     1       0.306  -7.185  -8.319  1.00  0.00     0.134 A 
ATOM     84  F   UNL     1      -0.870  -7.065 -11.749  1.00  0.00    -0.206 F 
ATOM     85  C   UNL     1       1.306  -7.332 -10.906  1.00  0.00     0.040 A 
ATOM     86  C   UNL     1       1.676  -7.353  -8.527  1.00  0.00     0.040 A 
ATOM     87  F   UNL     1      -0.139  -7.120  -7.056  1.00  0.00    -0.206 F 
ATOM     88  C   UNL     1       2.179  -7.433  -9.825  1.00  0.00     0.006 A 
ENDBRANCH  60  81
BRANCH  72  89
ATOM     89  C   UNL     1      -6.095 -11.216 -10.379  1.00  0.00     0.057 A 
ATOM     90  C   UNL     1      -5.755 -12.357  -9.644  1.00  0.00     0.134 A 
ATOM     91  C   UNL     1      -6.638 -11.401 -11.656  1.00  0.00     0.134 A 
ATOM     92  F   UNL     1      -5.219 -12.242  -8.419  1.00  0.00    -0.206 F 
ATOM     93  C   UNL     1      -5.940 -13.638 -10.165  1.00  0.00     0.040 A 
ATOM     94  C   UNL     1      -6.847 -12.677 -12.180  1.00  0.00     0.040 A 
ATOM     95  F   UNL     1      -6.990 -10.346 -12.406  1.00  0.00    -0.206 F 
ATOM     96  C   UNL     1      -6.495 -13.800 -11.434  1.00  0.00     0.006 A 
ENDBRANCH  72  89
ENDBRANCH  46  47
ENDBRANCH  38  41
ENDBRANCH  36  37
ENDBRANCH  35  36
ENDBRANCH  34  35
ENDBRANCH   3  34
TORSDOF 16
