REMARK SMILES O=C(NCCCNC(=O)[C@H]1CCc2[nH]nc(C(F)(F)F)c2C1)c1ccc(-c2c3nc(c(-c4c(F)cccc4F)c4ccc([nH]4)c(-c4c(F)cccc4F)c4nc(c(-c5c(F)cccc5F)c5ccc2[nH]5)C=C4)C=C3)cc1
REMARK SMILES IDX 4 1 3 2 1 3 2 4 23 6 24 7 76 8 25 9 75 10 26 11 27 12 28 13
REMARK SMILES IDX 69 14 29 15 74 16 68 17 70 18 30 19 73 20 67 21 66 22 31 24
REMARK SMILES IDX 57 25 40 26 56 27 41 28 44 29 55 30 71 31 42 32 43 33 54 35
REMARK SMILES IDX 72 36 45 37 32 38 33 39 38 40 34 41 35 42 37 43 39 44 36 45
REMARK SMILES IDX 58 46 59 47 64 48 60 49 61 50 63 51 65 52 62 53 46 54 47 55
REMARK SMILES IDX 52 56 48 57 49 58 51 59 53 60 50 61 5 62 6 63 7 64 8 65 9 67
REMARK SMILES IDX 10 68 11 69 22 70 12 71 21 72 13 73 16 74 14 75 15 76 17 78
REMARK SMILES IDX 18 79 19 80 20 81
REMARK H PARENT 3 5 70 23 44 34 7 66 14 77
REMARK Flexibility Score: inf
ROOT
ATOM      1  C   UNL     1       1.841  -1.102   3.669  1.00  0.00     0.118 C 
ENDROOT
BRANCH   1   2
ATOM      2  N   UNL     1       1.820   0.222   4.273  1.00  0.00    -0.352 N 
ATOM      3  O   UNL     1       1.379   2.429   4.416  1.00  0.00    -0.269 OA
ATOM      4  C   UNL     1       1.134   1.348   3.888  1.00  0.00     0.251 C 
ATOM      5  H   UNL     1       2.379   0.325   5.077  1.00  0.00     0.163 HD
BRANCH   4   6
ATOM      6  C   UNL     1       0.127   1.263   2.810  1.00  0.00     0.039 A 
ATOM      7  C   UNL     1      -0.802   0.219   2.780  1.00  0.00     0.014 A 
ATOM      8  C   UNL     1       0.117   2.240   1.813  1.00  0.00     0.014 A 
ATOM      9  C   UNL     1      -1.621   0.054   1.671  1.00  0.00     0.010 A 
ATOM     10  C   UNL     1      -0.781   2.131   0.751  1.00  0.00     0.010 A 
ATOM     11  C   UNL     1      -1.633   1.018   0.654  1.00  0.00    -0.014 A 
BRANCH  11  12
ATOM     12  C   UNL     1      -2.578   0.889  -0.481  1.00  0.00     0.031 A 
ATOM     13  C   UNL     1      -2.075   0.751  -1.889  1.00  0.00     0.074 A 
ATOM     14  C   UNL     1      -3.900   0.927  -0.233  1.00  0.00     0.049 A 
ATOM     15  N   UNL     1      -2.751   0.741  -3.010  1.00  0.00    -0.248 NA
ATOM     16  C   UNL     1      -0.620   0.621  -2.062  1.00  0.00     0.031 C 
ATOM     17  C   UNL     1      -4.505   1.051   1.095  1.00  0.00     0.029 A 
ATOM     18  N   UNL     1      -4.973   0.881  -1.085  1.00  0.00    -0.354 N 
ATOM     19  C   UNL     1      -1.806   0.635  -4.022  1.00  0.00     0.074 A 
ATOM     20  C   UNL     1      -0.507   0.604  -3.383  1.00  0.00     0.031 C 
ATOM     21  C   UNL     1      -5.839   1.059   0.971  1.00  0.00     0.029 A 
ATOM     22  C   UNL     1      -6.180   1.017  -0.446  1.00  0.00     0.049 A 
ATOM     23  H   UNL     1      -4.886   0.762  -2.058  1.00  0.00     0.167 HD
ATOM     24  C   UNL     1      -2.008   0.569  -5.360  1.00  0.00     0.037 A 
ATOM     25  C   UNL     1      -7.424   1.139  -0.943  1.00  0.00     0.037 A 
ATOM     26  C   UNL     1      -3.308   0.593  -5.981  1.00  0.00     0.049 A 
ATOM     27  C   UNL     1      -7.622   1.108  -2.429  1.00  0.00     0.074 A 
ATOM     28  C   UNL     1      -3.625   0.495  -7.325  1.00  0.00     0.029 A 
ATOM     29  N   UNL     1      -4.508   0.734  -5.298  1.00  0.00    -0.354 N 
ATOM     30  N   UNL     1      -6.724   0.985  -3.376  1.00  0.00    -0.248 NA
ATOM     31  C   UNL     1      -9.001   1.235  -2.916  1.00  0.00     0.031 C 
ATOM     32  C   UNL     1      -5.010   0.633  -7.459  1.00  0.00     0.029 A 
ATOM     33  C   UNL     1      -5.564   0.754  -6.194  1.00  0.00     0.049 A 
ATOM     34  H   UNL     1      -4.596   0.809  -4.320  1.00  0.00     0.167 HD
ATOM     35  C   UNL     1      -7.429   0.990  -4.571  1.00  0.00     0.074 A 
ATOM     36  C   UNL     1      -8.830   1.128  -4.227  1.00  0.00     0.031 C 
ATOM     37  C   UNL     1      -6.956   0.882  -5.836  1.00  0.00     0.037 A 
BRANCH  24  38
ATOM     38  C   UNL     1      -0.793   0.505  -6.242  1.00  0.00     0.057 A 
ATOM     39  C   UNL     1       0.037  -0.623  -6.291  1.00  0.00     0.134 A 
ATOM     40  C   UNL     1      -0.455   1.588  -7.064  1.00  0.00     0.134 A 
ATOM     41  F   UNL     1      -0.221  -1.692  -5.522  1.00  0.00    -0.206 F 
ATOM     42  C   UNL     1       1.177  -0.658  -7.098  1.00  0.00     0.040 A 
ATOM     43  C   UNL     1       0.666   1.554  -7.897  1.00  0.00     0.040 A 
ATOM     44  F   UNL     1      -1.209   2.697  -7.076  1.00  0.00    -0.206 F 
ATOM     45  C   UNL     1       1.491   0.432  -7.907  1.00  0.00     0.006 A 
ENDBRANCH  24  38
BRANCH  25  46
ATOM     46  C   UNL     1      -8.561   1.317  -0.009  1.00  0.00     0.057 A 
ATOM     47  C   UNL     1      -9.483   0.290   0.213  1.00  0.00     0.134 A 
ATOM     48  C   UNL     1      -8.717   2.498   0.730  1.00  0.00     0.134 A 
ATOM     49  F   UNL     1      -9.391  -0.859  -0.473  1.00  0.00    -0.206 F 
ATOM     50  C   UNL     1     -10.522   0.429   1.135  1.00  0.00     0.040 A 
ATOM     51  C   UNL     1      -9.734   2.641   1.673  1.00  0.00     0.040 A 
ATOM     52  F   UNL     1      -7.855   3.513   0.573  1.00  0.00    -0.206 F 
ATOM     53  C   UNL     1     -10.643   1.604   1.875  1.00  0.00     0.006 A 
ENDBRANCH  25  46
BRANCH  37  54
ATOM     54  C   UNL     1      -7.962   0.856  -6.948  1.00  0.00     0.057 A 
ATOM     55  C   UNL     1      -8.641   2.008  -7.363  1.00  0.00     0.134 A 
ATOM     56  C   UNL     1      -8.203  -0.330  -7.654  1.00  0.00     0.134 A 
ATOM     57  F   UNL     1      -8.466   3.171  -6.718  1.00  0.00    -0.206 F 
ATOM     58  C   UNL     1      -9.532   1.979  -8.438  1.00  0.00     0.040 A 
ATOM     59  C   UNL     1      -9.071  -0.365  -8.745  1.00  0.00     0.040 A 
ATOM     60  F   UNL     1      -7.579  -1.466  -7.310  1.00  0.00    -0.206 F 
ATOM     61  C   UNL     1      -9.740   0.792  -9.139  1.00  0.00     0.006 A 
ENDBRANCH  37  54
ENDBRANCH  11  12
ENDBRANCH   4   6
ENDBRANCH   1   2
BRANCH   1  62
ATOM     62  C   UNL     1       3.155  -1.415   2.968  1.00  0.00     0.042 C 
BRANCH  62  63
ATOM     63  C   UNL     1       4.346  -1.553   3.902  1.00  0.00     0.117 C 
BRANCH  63  64
ATOM     64  N   UNL     1       4.121  -2.570   4.906  1.00  0.00    -0.356 N 
ATOM     65  C   UNL     1       4.906  -3.582   5.340  1.00  0.00     0.223 C 
ATOM     66  H   UNL     1       3.244  -2.515   5.351  1.00  0.00     0.163 HD
ATOM     67  O   UNL     1       4.350  -4.421   6.053  1.00  0.00    -0.275 OA
BRANCH  65  68
ATOM     68  C   UNL     1       6.377  -3.694   4.926  1.00  0.00     0.083 C 
ATOM     69  C   UNL     1       7.199  -2.384   5.087  1.00  0.00     0.020 C 
ATOM     70  C   UNL     1       7.038  -4.796   5.808  1.00  0.00     0.053 C 
ATOM     71  C   UNL     1       7.139  -1.812   6.516  1.00  0.00     0.057 C 
ATOM     72  C   UNL     1       7.220  -4.275   7.201  1.00  0.00     0.006 A 
ATOM     73  C   UNL     1       7.263  -2.927   7.482  1.00  0.00     0.039 A 
ATOM     74  C   UNL     1       7.298  -4.920   8.465  1.00  0.00     0.169 A 
ATOM     75  N   UNL     1       7.336  -2.813   8.833  1.00  0.00    -0.282 N 
ATOM     76  N   UNL     1       7.392  -4.002   9.456  1.00  0.00    -0.171 NA
ATOM     77  H   UNL     1       7.347  -1.950   9.306  1.00  0.00     0.190 HD
BRANCH  74  78
ATOM     78  C   UNL     1       7.274  -6.401   8.743  1.00  0.00     0.435 C 
ATOM     79  F   UNL     1       8.344  -6.805   9.482  1.00  0.00    -0.164 F 
ATOM     80  F   UNL     1       6.159  -6.790   9.419  1.00  0.00    -0.164 F 
ATOM     81  F   UNL     1       7.308  -7.145   7.601  1.00  0.00    -0.164 F 
ENDBRANCH  74  78
ENDBRANCH  65  68
ENDBRANCH  63  64
ENDBRANCH  62  63
ENDBRANCH   1  62
TORSDOF 11
