REMARK SMILES [NH3+][C@@]1(C(=O)NCCCNC(=O)c2ccc(-c3c4nc(c(-c5c(F)cccc5F)c5ccc([nH]5)c(-c5c(F)cccc5F)c5nc(c(-c6c(F)cccc6F)c6ccc3[nH]6)C=C5)C=C4)cc2)CCC[C@H]([N@@H+]2CC[N@@H+]3CCC[C@@H]3C2)C1
REMARK SMILES IDX 7 1 6 2 5 3 3 4 4 5 2 7 66 8 79 9 67 10 69 11 68 12 1 13
REMARK SMILES IDX 70 17 71 18 78 19 72 21 77 22 73 23 76 24 74 25 75 27 8 28
REMARK SMILES IDX 9 29 10 30 11 32 12 33 13 34 65 35 14 36 64 37 15 38 16 39
REMARK SMILES IDX 17 40 58 41 18 42 63 43 57 44 59 45 19 46 62 47 56 48 55 49
REMARK SMILES IDX 20 51 46 52 29 53 45 54 30 55 33 56 44 57 60 58 31 59 32 60
REMARK SMILES IDX 43 62 61 63 34 64 21 65 22 66 27 67 23 68 24 69 26 70 28 71
REMARK SMILES IDX 25 72 47 73 48 74 53 75 49 76 50 77 52 78 54 79 51 80 35 81
REMARK SMILES IDX 36 82 41 83 37 84 38 85 40 86 42 87 39 88
REMARK H PARENT 5 6 1 14 1 15 1 16 70 20 73 26 9 31 59 50 33 61
REMARK Flexibility Score: inf
ROOT
ATOM      1  C   UNL     1      -3.987  -1.638  -2.869  1.00  0.00     0.042 C 
ENDROOT
BRANCH   1   2
ATOM      2  C   UNL     1      -3.333  -0.320  -2.512  1.00  0.00     0.118 C 
BRANCH   2   3
ATOM      3  N   UNL     1      -3.348  -0.067  -1.079  1.00  0.00    -0.351 N 
ATOM      4  C   UNL     1      -2.355   0.178  -0.178  1.00  0.00     0.281 C 
ATOM      5  O   UNL     1      -2.723   0.400   0.982  1.00  0.00    -0.268 OA
ATOM      6  H   UNL     1      -4.250  -0.074  -0.683  1.00  0.00     0.163 HD
BRANCH   4   7
ATOM      7  C   UNL     1      -0.843   0.098  -0.533  1.00  0.00     0.179 C 
ATOM      8  C   UNL     1      -0.319  -1.288  -0.104  1.00  0.00     0.079 C 
ATOM      9  C   UNL     1      -0.087   1.195   0.251  1.00  0.00     0.144 C 
ATOM     10  C   UNL     1       1.203  -1.426  -0.221  1.00  0.00     0.013 C 
ATOM     11  C   UNL     1       1.422   1.107  -0.030  1.00  0.00     0.191 C 
ATOM     12  C   UNL     1       1.955  -0.263   0.436  1.00  0.00     0.065 C 
BRANCH   7  13
ATOM     13  N   UNL     1      -0.608   0.329  -1.972  1.00  0.00    -0.345 N 
ATOM     14  H   UNL     1       0.392   0.269  -2.168  1.00  0.00     0.345 HD
ATOM     15  H   UNL     1      -0.950   1.255  -2.228  1.00  0.00     0.345 HD
ATOM     16  H   UNL     1      -1.103  -0.378  -2.515  1.00  0.00     0.345 HD
ENDBRANCH   7  13
BRANCH  11  17
ATOM     17  N   UNL     1       2.127   2.296   0.455  1.00  0.00    -0.323 N 
ATOM     18  C   UNL     1       3.372   2.567  -0.288  1.00  0.00     0.324 C 
ATOM     19  C   UNL     1       2.279   2.394   1.912  1.00  0.00     0.328 C 
ATOM     20  H   UNL     1       1.490   3.063   0.240  1.00  0.00     0.348 HD
ATOM     21  C   UNL     1       4.657   2.443   0.545  1.00  0.00     0.324 C 
ATOM     22  C   UNL     1       3.337   3.430   2.366  1.00  0.00     0.240 C 
ATOM     23  N   UNL     1       4.649   3.360   1.685  1.00  0.00    -0.323 N 
ATOM     24  C   UNL     1       3.647   3.301   3.859  1.00  0.00     0.077 C 
ATOM     25  C   UNL     1       5.677   3.037   2.671  1.00  0.00     0.263 C 
ATOM     26  H   UNL     1       4.853   4.273   1.279  1.00  0.00     0.348 HD
ATOM     27  C   UNL     1       5.126   3.623   3.955  1.00  0.00     0.068 C 
ENDBRANCH  11  17
ENDBRANCH   4   7
ENDBRANCH   2   3
ENDBRANCH   1   2
BRANCH   1  28
ATOM     28  C   UNL     1      -5.478  -1.642  -2.595  1.00  0.00     0.118 C 
BRANCH  28  29
ATOM     29  N   UNL     1      -6.188  -0.645  -3.390  1.00  0.00    -0.352 N 
ATOM     30  C   UNL     1      -6.983  -0.796  -4.501  1.00  0.00     0.251 C 
ATOM     31  H   UNL     1      -6.081   0.284  -3.082  1.00  0.00     0.163 HD
ATOM     32  O   UNL     1      -7.282   0.177  -5.181  1.00  0.00    -0.269 OA
BRANCH  30  33
ATOM     33  C   UNL     1      -7.461  -2.142  -4.877  1.00  0.00     0.039 A 
ATOM     34  C   UNL     1      -7.508  -2.504  -6.225  1.00  0.00     0.014 A 
ATOM     35  C   UNL     1      -7.861  -3.046  -3.893  1.00  0.00     0.014 A 
ATOM     36  C   UNL     1      -7.886  -3.801  -6.574  1.00  0.00     0.010 A 
ATOM     37  C   UNL     1      -8.107  -4.367  -4.231  1.00  0.00     0.010 A 
ATOM     38  C   UNL     1      -8.145  -4.755  -5.576  1.00  0.00    -0.014 A 
BRANCH  38  39
ATOM     39  C   UNL     1      -8.498  -6.158  -5.903  1.00  0.00     0.031 A 
ATOM     40  C   UNL     1      -9.815  -6.720  -5.439  1.00  0.00     0.074 A 
ATOM     41  C   UNL     1      -7.608  -6.943  -6.540  1.00  0.00     0.049 A 
ATOM     42  N   UNL     1     -10.265  -7.946  -5.516  1.00  0.00    -0.248 NA
ATOM     43  C   UNL     1     -10.733  -5.789  -4.760  1.00  0.00     0.031 C 
ATOM     44  C   UNL     1      -6.277  -6.528  -6.991  1.00  0.00     0.029 A 
ATOM     45  N   UNL     1      -7.684  -8.263  -6.907  1.00  0.00    -0.354 N 
ATOM     46  C   UNL     1     -11.502  -7.933  -4.884  1.00  0.00     0.074 A 
ATOM     47  C   UNL     1     -11.701  -6.600  -4.364  1.00  0.00     0.031 C 
ATOM     48  C   UNL     1      -5.674  -7.564  -7.595  1.00  0.00     0.029 A 
ATOM     49  C   UNL     1      -6.553  -8.727  -7.533  1.00  0.00     0.049 A 
ATOM     50  H   UNL     1      -8.475  -8.824  -6.737  1.00  0.00     0.167 HD
ATOM     51  C   UNL     1     -12.407  -8.933  -4.776  1.00  0.00     0.037 A 
ATOM     52  C   UNL     1      -6.255  -9.957  -7.992  1.00  0.00     0.037 A 
ATOM     53  C   UNL     1     -12.217 -10.249  -5.322  1.00  0.00     0.049 A 
ATOM     54  C   UNL     1      -7.275 -11.054  -7.852  1.00  0.00     0.074 A 
ATOM     55  C   UNL     1     -13.091 -11.321  -5.312  1.00  0.00     0.029 A 
ATOM     56  N   UNL     1     -11.070 -10.671  -5.977  1.00  0.00    -0.354 N 
ATOM     57  N   UNL     1      -8.468 -11.011  -7.308  1.00  0.00    -0.248 NA
ATOM     58  C   UNL     1      -6.911 -12.370  -8.395  1.00  0.00     0.031 C 
ATOM     59  C   UNL     1     -12.455 -12.406  -5.921  1.00  0.00     0.029 A 
ATOM     60  C   UNL     1     -11.207 -11.994  -6.362  1.00  0.00     0.049 A 
ATOM     61  H   UNL     1     -10.276 -10.113  -6.145  1.00  0.00     0.167 HD
ATOM     62  C   UNL     1      -9.009 -12.279  -7.476  1.00  0.00     0.074 A 
ATOM     63  C   UNL     1      -8.019 -13.065  -8.183  1.00  0.00     0.031 C 
ATOM     64  C   UNL     1     -10.216 -12.753  -7.081  1.00  0.00     0.037 A 
BRANCH  51  65
ATOM     65  C   UNL     1     -13.689  -8.634  -4.053  1.00  0.00     0.057 A 
ATOM     66  C   UNL     1     -14.650  -7.762  -4.582  1.00  0.00     0.134 A 
ATOM     67  C   UNL     1     -13.982  -9.248  -2.829  1.00  0.00     0.134 A 
ATOM     68  F   UNL     1     -14.427  -7.128  -5.744  1.00  0.00    -0.206 F 
ATOM     69  C   UNL     1     -15.843  -7.492  -3.909  1.00  0.00     0.040 A 
ATOM     70  C   UNL     1     -15.185  -9.011  -2.162  1.00  0.00     0.040 A 
ATOM     71  F   UNL     1     -13.109 -10.097  -2.266  1.00  0.00    -0.206 F 
ATOM     72  C   UNL     1     -16.117  -8.124  -2.699  1.00  0.00     0.006 A 
ENDBRANCH  51  65
BRANCH  52  73
ATOM     73  C   UNL     1      -4.943 -10.218  -8.639  1.00  0.00     0.057 A 
ATOM     74  C   UNL     1      -4.854 -10.512 -10.005  1.00  0.00     0.134 A 
ATOM     75  C   UNL     1      -3.749 -10.201  -7.906  1.00  0.00     0.134 A 
ATOM     76  F   UNL     1      -5.963 -10.559 -10.758  1.00  0.00    -0.206 F 
ATOM     77  C   UNL     1      -3.633 -10.809 -10.612  1.00  0.00     0.040 A 
ATOM     78  C   UNL     1      -2.518 -10.467  -8.507  1.00  0.00     0.040 A 
ATOM     79  F   UNL     1      -3.762  -9.915  -6.596  1.00  0.00    -0.206 F 
ATOM     80  C   UNL     1      -2.459 -10.784  -9.863  1.00  0.00     0.006 A 
ENDBRANCH  52  73
BRANCH  64  81
ATOM     81  C   UNL     1     -10.556 -14.168  -7.448  1.00  0.00     0.057 A 
ATOM     82  C   UNL     1      -9.937 -15.264  -6.836  1.00  0.00     0.134 A 
ATOM     83  C   UNL     1     -11.552 -14.433  -8.397  1.00  0.00     0.134 A 
ATOM     84  F   UNL     1      -8.967 -15.078  -5.928  1.00  0.00    -0.206 F 
ATOM     85  C   UNL     1     -10.281 -16.575  -7.171  1.00  0.00     0.040 A 
ATOM     86  C   UNL     1     -11.926 -15.737  -8.717  1.00  0.00     0.040 A 
ATOM     87  F   UNL     1     -12.192 -13.427  -9.013  1.00  0.00    -0.206 F 
ATOM     88  C   UNL     1     -11.284 -16.813  -8.108  1.00  0.00     0.006 A 
ENDBRANCH  64  81
ENDBRANCH  38  39
ENDBRANCH  30  33
ENDBRANCH  28  29
ENDBRANCH   1  28
TORSDOF 12
