REMARK SMILES C[C@@H](CC(=O)NCCCNC(=O)c1ccc(-c2c3nc(c(-c4c(F)cccc4F)c4ccc([nH]4)c(-c4c(F)cccc4F)c4nc(c(-c5c(F)cccc5F)c5ccc2[nH]5)C=C4)C=C3)cc1)NC(=O)CCCN1C(=O)CN(C)C1=O
REMARK SMILES IDX 4 1 5 2 6 3 3 5 2 6 1 7 67 8 68 9 69 11 70 12 71 13 72 14
REMARK SMILES IDX 73 15 74 16 79 17 75 18 76 19 77 20 80 21 78 22 7 23 8 24
REMARK SMILES IDX 9 25 10 26 11 27 12 29 13 30 14 31 66 32 15 33 65 34 16 35
REMARK SMILES IDX 17 36 18 37 59 38 19 39 64 40 58 41 60 42 20 43 63 44 57 45
REMARK SMILES IDX 56 46 21 48 47 49 30 50 46 51 31 52 34 53 45 54 61 55 32 56
REMARK SMILES IDX 33 57 44 59 62 60 35 61 22 62 23 63 28 64 24 65 25 66 27 67
REMARK SMILES IDX 29 68 26 69 48 70 49 71 54 72 50 73 51 74 53 75 55 76 52 77
REMARK SMILES IDX 36 78 37 79 42 80 38 81 39 82 41 83 43 84 40 85
REMARK H PARENT 6 4 67 10 10 28 60 47 34 58
REMARK Flexibility Score: inf
ROOT
ATOM      1  C   UNL     1       0.194  -0.408   3.046  1.00  0.00     0.222 C 
ATOM      2  O   UNL     1      -0.761  -0.564   3.809  1.00  0.00    -0.275 OA
ATOM      3  N   UNL     1       0.858   0.779   3.085  1.00  0.00    -0.356 N 
ATOM      4  H   UNL     1       0.513   1.406   3.761  1.00  0.00     0.163 HD
ENDROOT
BRANCH   1   5
ATOM      5  C   UNL     1       0.620  -1.510   2.110  1.00  0.00     0.124 C 
BRANCH   5   6
ATOM      6  C   UNL     1      -0.014  -1.483   0.721  1.00  0.00     0.088 C 
ATOM      7  C   UNL     1       0.111  -0.155  -0.002  1.00  0.00     0.031 C 
BRANCH   6   8
ATOM      8  N   UNL     1      -1.406  -1.869   0.639  1.00  0.00    -0.353 N 
ATOM      9  C   UNL     1      -1.969  -2.327  -0.530  1.00  0.00     0.220 C 
ATOM     10  H   UNL     1      -1.968  -1.802   1.445  1.00  0.00     0.163 HD
ATOM     11  O   UNL     1      -3.117  -1.996  -0.819  1.00  0.00    -0.275 OA
BRANCH   9  12
ATOM     12  C   UNL     1      -1.166  -3.300  -1.385  1.00  0.00     0.102 C 
BRANCH  12  13
ATOM     13  C   UNL     1      -0.320  -2.776  -2.554  1.00  0.00     0.032 C 
BRANCH  13  14
ATOM     14  C   UNL     1       1.153  -2.362  -2.369  1.00  0.00     0.131 C 
BRANCH  14  15
ATOM     15  N   UNL     1       2.041  -3.142  -1.520  1.00  0.00    -0.263 N 
ATOM     16  C   UNL     1       3.171  -2.602  -0.952  1.00  0.00     0.250 C 
ATOM     17  C   UNL     1       1.983  -4.478  -1.245  1.00  0.00     0.326 C 
ATOM     18  O   UNL     1       3.533  -1.434  -1.018  1.00  0.00    -0.272 OA
ATOM     19  C   UNL     1       3.936  -3.690  -0.222  1.00  0.00     0.221 C 
ATOM     20  N   UNL     1       3.016  -4.784  -0.375  1.00  0.00    -0.318 N 
ATOM     21  O   UNL     1       1.167  -5.282  -1.671  1.00  0.00    -0.248 OA
ATOM     22  C   UNL     1       3.253  -6.080   0.211  1.00  0.00     0.149 C 
ENDBRANCH  14  15
ENDBRANCH  13  14
ENDBRANCH  12  13
ENDBRANCH   9  12
ENDBRANCH   6   8
ENDBRANCH   5   6
ENDBRANCH   1   5
BRANCH   3  23
ATOM     23  C   UNL     1       1.983   1.301   2.316  1.00  0.00     0.117 C 
BRANCH  23  24
ATOM     24  C   UNL     1       1.597   2.452   1.381  1.00  0.00     0.042 C 
BRANCH  24  25
ATOM     25  C   UNL     1       0.856   3.596   2.053  1.00  0.00     0.118 C 
BRANCH  25  26
ATOM     26  N   UNL     1       1.782   4.534   2.655  1.00  0.00    -0.352 N 
ATOM     27  C   UNL     1       2.093   5.807   2.244  1.00  0.00     0.251 C 
ATOM     28  H   UNL     1       2.247   4.219   3.464  1.00  0.00     0.163 HD
ATOM     29  O   UNL     1       3.120   6.343   2.649  1.00  0.00    -0.269 OA
BRANCH  27  30
ATOM     30  C   UNL     1       1.202   6.528   1.304  1.00  0.00     0.039 A 
ATOM     31  C   UNL     1       1.773   7.306   0.293  1.00  0.00     0.014 A 
ATOM     32  C   UNL     1      -0.189   6.468   1.435  1.00  0.00     0.014 A 
ATOM     33  C   UNL     1       0.950   7.982  -0.612  1.00  0.00     0.010 A 
ATOM     34  C   UNL     1      -1.006   7.074   0.483  1.00  0.00     0.010 A 
ATOM     35  C   UNL     1      -0.446   7.847  -0.545  1.00  0.00    -0.014 A 
BRANCH  35  36
ATOM     36  C   UNL     1      -1.333   8.499  -1.542  1.00  0.00     0.031 A 
ATOM     37  C   UNL     1      -2.317   9.553  -1.114  1.00  0.00     0.074 A 
ATOM     38  C   UNL     1      -1.294   8.101  -2.828  1.00  0.00     0.049 A 
ATOM     39  N   UNL     1      -3.203  10.199  -1.830  1.00  0.00    -0.248 NA
ATOM     40  C   UNL     1      -2.322   9.910   0.313  1.00  0.00     0.031 C 
ATOM     41  C   UNL     1      -0.407   7.068  -3.364  1.00  0.00     0.029 A 
ATOM     42  N   UNL     1      -2.020   8.515  -3.916  1.00  0.00    -0.354 N 
ATOM     43  C   UNL     1      -3.875  11.030  -0.941  1.00  0.00     0.074 A 
ATOM     44  C   UNL     1      -3.336  10.760   0.374  1.00  0.00     0.031 C 
ATOM     45  C   UNL     1      -0.616   6.954  -4.685  1.00  0.00     0.029 A 
ATOM     46  C   UNL     1      -1.683   7.869  -5.080  1.00  0.00     0.049 A 
ATOM     47  H   UNL     1      -2.716   9.210  -3.867  1.00  0.00     0.167 HD
ATOM     48  C   UNL     1      -4.837  11.949  -1.200  1.00  0.00     0.037 A 
ATOM     49  C   UNL     1      -2.181   7.992  -6.324  1.00  0.00     0.037 A 
ATOM     50  C   UNL     1      -5.372  12.211  -2.511  1.00  0.00     0.049 A 
ATOM     51  C   UNL     1      -3.290   8.974  -6.578  1.00  0.00     0.074 A 
ATOM     52  C   UNL     1      -6.309  13.157  -2.888  1.00  0.00     0.029 A 
ATOM     53  N   UNL     1      -5.028  11.511  -3.659  1.00  0.00    -0.354 N 
ATOM     54  N   UNL     1      -3.865   9.806  -5.744  1.00  0.00    -0.248 NA
ATOM     55  C   UNL     1      -3.821   9.031  -7.947  1.00  0.00     0.031 C 
ATOM     56  C   UNL     1      -6.579  12.987  -4.251  1.00  0.00     0.029 A 
ATOM     57  C   UNL     1      -5.765  11.976  -4.737  1.00  0.00     0.049 A 
ATOM     58  H   UNL     1      -4.359  10.790  -3.701  1.00  0.00     0.167 HD
ATOM     59  C   UNL     1      -4.809  10.501  -6.489  1.00  0.00     0.074 A 
ATOM     60  C   UNL     1      -4.718  10.003  -7.846  1.00  0.00     0.031 C 
ATOM     61  C   UNL     1      -5.671  11.466  -6.084  1.00  0.00     0.037 A 
BRANCH  48  62
ATOM     62  C   UNL     1      -5.381  12.720  -0.028  1.00  0.00     0.057 A 
ATOM     63  C   UNL     1      -4.596  13.635   0.689  1.00  0.00     0.134 A 
ATOM     64  C   UNL     1      -6.705  12.544   0.393  1.00  0.00     0.134 A 
ATOM     65  F   UNL     1      -3.316  13.849   0.346  1.00  0.00    -0.206 F 
ATOM     66  C   UNL     1      -5.091  14.306   1.809  1.00  0.00     0.040 A 
ATOM     67  C   UNL     1      -7.222  13.235   1.491  1.00  0.00     0.040 A 
ATOM     68  F   UNL     1      -7.519  11.695  -0.252  1.00  0.00    -0.206 F 
ATOM     69  C   UNL     1      -6.410  14.109   2.211  1.00  0.00     0.006 A 
ENDBRANCH  48  62
BRANCH  49  70
ATOM     70  C   UNL     1      -1.609   7.183  -7.429  1.00  0.00     0.057 A 
ATOM     71  C   UNL     1      -0.843   7.784  -8.434  1.00  0.00     0.134 A 
ATOM     72  C   UNL     1      -1.789   5.796  -7.498  1.00  0.00     0.134 A 
ATOM     73  F   UNL     1      -0.651   9.112  -8.433  1.00  0.00    -0.206 F 
ATOM     74  C   UNL     1      -0.282   7.038  -9.471  1.00  0.00     0.040 A 
ATOM     75  C   UNL     1      -1.213   5.034  -8.515  1.00  0.00     0.040 A 
ATOM     76  F   UNL     1      -2.506   5.159  -6.561  1.00  0.00    -0.206 F 
ATOM     77  C   UNL     1      -0.459   5.656  -9.508  1.00  0.00     0.006 A 
ENDBRANCH  49  70
BRANCH  61  78
ATOM     78  C   UNL     1      -6.574  12.063  -7.125  1.00  0.00     0.057 A 
ATOM     79  C   UNL     1      -7.644  11.346  -7.677  1.00  0.00     0.134 A 
ATOM     80  C   UNL     1      -6.398  13.387  -7.549  1.00  0.00     0.134 A 
ATOM     81  F   UNL     1      -7.859  10.069  -7.327  1.00  0.00    -0.206 F 
ATOM     82  C   UNL     1      -8.493  11.918  -8.626  1.00  0.00     0.040 A 
ATOM     83  C   UNL     1      -7.259  13.979  -8.474  1.00  0.00     0.040 A 
ATOM     84  F   UNL     1      -5.398  14.134  -7.056  1.00  0.00    -0.206 F 
ATOM     85  C   UNL     1      -8.307  13.242  -9.020  1.00  0.00     0.006 A 
ENDBRANCH  61  78
ENDBRANCH  35  36
ENDBRANCH  27  30
ENDBRANCH  25  26
ENDBRANCH  24  25
ENDBRANCH  23  24
ENDBRANCH   3  23
TORSDOF 16
