REMARK SMILES C=CC[C@@]1(C(=O)NCCCNC(=O)c2ccc(-c3c4nc(c(-c5c(F)cccc5F)c5ccc([nH]5)c(-c5c(F)cccc5F)c5nc(c(-c6c(F)cccc6F)c6ccc3[nH]6)C=C5)C=C4)cc2)CCCN(C(=O)c2ccc3c(c2)OCO3)C1
REMARK SMILES IDX 9 1 8 2 7 3 5 4 6 5 4 7 68 8 83 9 69 10 71 11 70 12 3 13
REMARK SMILES IDX 2 14 1 15 72 16 73 17 74 18 75 19 79 20 76 21 78 22 77 23
REMARK SMILES IDX 80 24 82 25 81 26 10 27 11 28 12 29 13 31 14 32 15 33 67 34
REMARK SMILES IDX 16 35 66 36 17 37 18 38 19 39 60 40 20 41 65 42 59 43 61 44
REMARK SMILES IDX 21 45 64 46 58 47 57 48 22 50 48 51 31 52 47 53 32 54 35 55
REMARK SMILES IDX 46 56 62 57 33 58 34 59 45 61 63 62 36 63 23 64 24 65 29 66
REMARK SMILES IDX 25 67 26 68 28 69 30 70 27 71 49 72 50 73 55 74 51 75 52 76
REMARK SMILES IDX 54 77 56 78 53 79 37 80 38 81 43 82 39 83 40 84 42 85 44 86
REMARK SMILES IDX 41 87
REMARK H PARENT 7 6 11 30 61 49 35 60
REMARK Flexibility Score: inf
ROOT
ATOM      1  C   UNL     1       2.150  -0.150  -1.355  1.00  0.00     0.042 C 
ENDROOT
BRANCH   1   2
ATOM      2  C   UNL     1       1.230  -1.354  -1.213  1.00  0.00     0.117 C 
BRANCH   2   3
ATOM      3  N   UNL     1       0.078  -1.045  -0.381  1.00  0.00    -0.355 N 
ATOM      4  C   UNL     1      -1.254  -0.956  -0.635  1.00  0.00     0.228 C 
ATOM      5  O   UNL     1      -1.947  -0.556   0.307  1.00  0.00    -0.274 OA
ATOM      6  H   UNL     1       0.311  -0.862   0.558  1.00  0.00     0.163 HD
BRANCH   4   7
ATOM      7  C   UNL     1      -1.875  -1.320  -2.001  1.00  0.00     0.070 C 
ATOM      8  C   UNL     1      -3.435  -1.234  -1.913  1.00  0.00     0.021 C 
ATOM      9  C   UNL     1      -1.522  -2.782  -2.362  1.00  0.00     0.137 C 
ATOM     10  C   UNL     1      -4.082  -2.326  -1.052  1.00  0.00     0.023 C 
ATOM     11  N   UNL     1      -2.145  -3.752  -1.476  1.00  0.00    -0.338 N 
ATOM     12  C   UNL     1      -3.606  -3.715  -1.448  1.00  0.00     0.120 C 
BRANCH   7  13
ATOM     13  C   UNL     1      -1.326  -0.359  -3.105  1.00  0.00     0.045 C 
BRANCH  13  14
ATOM     14  C   UNL     1      -2.164   0.842  -3.456  1.00  0.00    -0.034 C 
ATOM     15  C   UNL     1      -1.857   2.105  -3.136  1.00  0.00     0.004 C 
ENDBRANCH  13  14
ENDBRANCH   7  13
BRANCH  11  16
ATOM     16  C   UNL     1      -1.348  -4.567  -0.674  1.00  0.00     0.254 C 
ATOM     17  O   UNL     1      -0.151  -4.397  -0.472  1.00  0.00    -0.269 OA
BRANCH  16  18
ATOM     18  C   UNL     1      -2.003  -5.759  -0.107  1.00  0.00     0.043 A 
ATOM     19  C   UNL     1      -2.231  -5.860   1.278  1.00  0.00     0.018 A 
ATOM     20  C   UNL     1      -2.506  -6.702  -1.011  1.00  0.00     0.064 A 
ATOM     21  C   UNL     1      -3.046  -6.887   1.766  1.00  0.00     0.051 A 
ATOM     22  C   UNL     1      -3.332  -7.670  -0.500  1.00  0.00     0.166 A 
ATOM     23  C   UNL     1      -3.607  -7.754   0.846  1.00  0.00     0.165 A 
ATOM     24  O   UNL     1      -4.018  -8.585  -1.234  1.00  0.00    -0.454 OA
ATOM     25  O   UNL     1      -4.508  -8.736   1.118  1.00  0.00    -0.454 OA
ATOM     26  C   UNL     1      -4.881  -9.133  -0.219  1.00  0.00     0.468 C 
ENDBRANCH  16  18
ENDBRANCH  11  16
ENDBRANCH   4   7
ENDBRANCH   2   3
ENDBRANCH   1   2
BRANCH   1  27
ATOM     27  C   UNL     1       2.813   0.264  -0.051  1.00  0.00     0.118 C 
BRANCH  27  28
ATOM     28  N   UNL     1       3.786  -0.714   0.412  1.00  0.00    -0.352 N 
ATOM     29  C   UNL     1       5.144  -0.595   0.572  1.00  0.00     0.251 C 
ATOM     30  H   UNL     1       3.414  -1.595   0.646  1.00  0.00     0.163 HD
ATOM     31  O   UNL     1       5.828  -1.592   0.782  1.00  0.00    -0.269 OA
BRANCH  29  32
ATOM     32  C   UNL     1       5.794   0.730   0.467  1.00  0.00     0.039 A 
ATOM     33  C   UNL     1       7.003   0.834  -0.225  1.00  0.00     0.014 A 
ATOM     34  C   UNL     1       5.226   1.863   1.055  1.00  0.00     0.014 A 
ATOM     35  C   UNL     1       7.605   2.084  -0.385  1.00  0.00     0.010 A 
ATOM     36  C   UNL     1       5.778   3.118   0.820  1.00  0.00     0.010 A 
ATOM     37  C   UNL     1       6.976   3.242   0.102  1.00  0.00    -0.014 A 
BRANCH  37  38
ATOM     38  C   UNL     1       7.555   4.589  -0.134  1.00  0.00     0.031 A 
ATOM     39  C   UNL     1       7.986   5.442   1.028  1.00  0.00     0.074 A 
ATOM     40  C   UNL     1       7.624   5.073  -1.390  1.00  0.00     0.049 A 
ATOM     41  N   UNL     1       8.442   6.670   1.026  1.00  0.00    -0.248 NA
ATOM     42  C   UNL     1       7.862   4.851   2.370  1.00  0.00     0.031 C 
ATOM     43  C   UNL     1       7.182   4.367  -2.595  1.00  0.00     0.029 A 
ATOM     44  N   UNL     1       8.076   6.280  -1.861  1.00  0.00    -0.354 N 
ATOM     45  C   UNL     1       8.636   7.003   2.361  1.00  0.00     0.074 A 
ATOM     46  C   UNL     1       8.209   5.867   3.148  1.00  0.00     0.031 C 
ATOM     47  C   UNL     1       7.398   5.147  -3.666  1.00  0.00     0.029 A 
ATOM     48  C   UNL     1       7.957   6.420  -3.223  1.00  0.00     0.049 A 
ATOM     49  H   UNL     1       8.451   6.979  -1.279  1.00  0.00     0.167 HD
ATOM     50  C   UNL     1       9.143   8.145   2.881  1.00  0.00     0.037 A 
ATOM     51  C   UNL     1       8.251   7.462  -4.024  1.00  0.00     0.037 A 
ATOM     52  C   UNL     1       9.605   9.258   2.094  1.00  0.00     0.049 A 
ATOM     53  C   UNL     1       8.830   8.711  -3.419  1.00  0.00     0.074 A 
ATOM     54  C   UNL     1      10.218  10.421   2.526  1.00  0.00     0.029 A 
ATOM     55  N   UNL     1       9.501   9.347   0.715  1.00  0.00    -0.354 N 
ATOM     56  N   UNL     1       9.092   8.976  -2.162  1.00  0.00    -0.248 NA
ATOM     57  C   UNL     1       9.163   9.803  -4.345  1.00  0.00     0.031 C 
ATOM     58  C   UNL     1      10.441  11.236   1.412  1.00  0.00     0.029 A 
ATOM     59  C   UNL     1      10.013  10.559   0.282  1.00  0.00     0.049 A 
ATOM     60  H   UNL     1       9.120   8.653   0.130  1.00  0.00     0.167 HD
ATOM     61  C   UNL     1       9.641  10.252  -2.149  1.00  0.00     0.074 A 
ATOM     62  C   UNL     1       9.692  10.700  -3.525  1.00  0.00     0.031 C 
ATOM     63  C   UNL     1      10.062  10.988  -1.092  1.00  0.00     0.037 A 
BRANCH  50  64
ATOM     64  C   UNL     1       9.233   8.255   4.375  1.00  0.00     0.057 A 
ATOM     65  C   UNL     1      10.165   7.518   5.117  1.00  0.00     0.134 A 
ATOM     66  C   UNL     1       8.419   9.157   5.073  1.00  0.00     0.134 A 
ATOM     67  F   UNL     1      10.967   6.630   4.511  1.00  0.00    -0.206 F 
ATOM     68  C   UNL     1      10.274   7.662   6.502  1.00  0.00     0.040 A 
ATOM     69  C   UNL     1       8.536   9.329   6.453  1.00  0.00     0.040 A 
ATOM     70  F   UNL     1       7.510   9.898   4.423  1.00  0.00    -0.206 F 
ATOM     71  C   UNL     1       9.464   8.577   7.172  1.00  0.00     0.006 A 
ENDBRANCH  50  64
BRANCH  51  72
ATOM     72  C   UNL     1       8.007   7.372  -5.486  1.00  0.00     0.057 A 
ATOM     73  C   UNL     1       9.068   7.327  -6.397  1.00  0.00     0.134 A 
ATOM     74  C   UNL     1       6.708   7.351  -6.008  1.00  0.00     0.134 A 
ATOM     75  F   UNL     1      10.336   7.363  -5.959  1.00  0.00    -0.206 F 
ATOM     76  C   UNL     1       8.849   7.292  -7.775  1.00  0.00     0.040 A 
ATOM     77  C   UNL     1       6.473   7.288  -7.383  1.00  0.00     0.040 A 
ATOM     78  F   UNL     1       5.647   7.383  -5.189  1.00  0.00    -0.206 F 
ATOM     79  C   UNL     1       7.547   7.269  -8.271  1.00  0.00     0.006 A 
ENDBRANCH  51  72
BRANCH  63  80
ATOM     80  C   UNL     1      10.644  12.340  -1.384  1.00  0.00     0.057 A 
ATOM     81  C   UNL     1       9.845  13.415  -1.790  1.00  0.00     0.134 A 
ATOM     82  C   UNL     1      12.014  12.577  -1.217  1.00  0.00     0.134 A 
ATOM     83  F   UNL     1       8.527  13.250  -1.981  1.00  0.00    -0.206 F 
ATOM     84  C   UNL     1      10.392  14.674  -2.043  1.00  0.00     0.040 A 
ATOM     85  C   UNL     1      12.569  13.838  -1.440  1.00  0.00     0.040 A 
ATOM     86  F   UNL     1      12.834  11.591  -0.821  1.00  0.00    -0.206 F 
ATOM     87  C   UNL     1      11.757  14.889  -1.860  1.00  0.00     0.006 A 
ENDBRANCH  63  80
ENDBRANCH  37  38
ENDBRANCH  29  32
ENDBRANCH  27  28
ENDBRANCH   1  27
TORSDOF 14
