REMARK SMILES Cc1ccc(S(=O)(=O)n2cc(C(=O)C(=O)N[C@@H](Cc3c[nH]c4ccccc34)C(=O)NCCCNC(=O)c3ccc(-c4c5nc(c(-c6c(F)cccc6F)c6ccc([nH]6)c(-c6c(F)cccc6F)c6nc(c(-c7c(F)cccc7F)c7ccc4[nH]7)C=C6)C=C5)cc3)c3ccccc32)cc1
REMARK SMILES IDX 28 1 29 2 30 3 17 5 16 6 14 7 15 8 12 10 13 11 11 12 9 13
REMARK SMILES IDX 10 14 96 15 91 16 95 17 92 18 94 19 93 20 6 21 7 22 8 23
REMARK SMILES IDX 5 24 1 25 2 26 3 27 98 28 4 29 97 30 18 31 19 32 20 33 27 34
REMARK SMILES IDX 21 35 22 36 26 37 23 39 25 40 24 41 31 42 32 43 33 44 34 45
REMARK SMILES IDX 35 46 36 48 37 49 38 50 90 51 39 52 89 53 40 54 41 55 42 56
REMARK SMILES IDX 83 57 43 58 88 59 82 60 84 61 44 62 87 63 81 64 80 65 45 67
REMARK SMILES IDX 71 68 54 69 70 70 55 71 58 72 69 73 85 74 56 75 57 76 68 78
REMARK SMILES IDX 86 79 59 80 46 81 47 82 52 83 48 84 49 85 51 86 53 87 50 88
REMARK SMILES IDX 72 89 73 90 78 91 74 92 75 93 77 94 79 95 76 96 60 97 61 98
REMARK SMILES IDX 66 99 62 100 63 101 65 102 67 103 64 104
REMARK H PARENT 30 4 16 9 21 38 34 47 84 66 58 77
REMARK Flexibility Score: inf
ROOT
ATOM      1  C   UNL     1     -11.634   1.638  -1.230  1.00  0.00     0.242 C 
ATOM      2  O   UNL     1     -11.940   0.501  -1.614  1.00  0.00    -0.273 OA
ATOM      3  N   UNL     1     -12.206   2.658  -1.925  1.00  0.00    -0.354 N 
ATOM      4  H   UNL     1     -12.342   2.461  -2.880  1.00  0.00     0.163 HD
ENDROOT
BRANCH   1   5
ATOM      5  C   UNL     1     -10.745   1.800   0.027  1.00  0.00     0.176 C 
BRANCH   5   6
ATOM      6  N   UNL     1      -9.657   2.790  -0.076  1.00  0.00    -0.337 N 
ATOM      7  C   UNL     1      -8.297   2.616  -0.372  1.00  0.00     0.293 C 
ATOM      8  O   UNL     1      -7.518   3.532  -0.242  1.00  0.00    -0.265 OA
ATOM      9  H   UNL     1      -9.929   3.722   0.088  1.00  0.00     0.164 HD
BRANCH   7  10
ATOM     10  C   UNL     1      -7.796   1.270  -0.930  1.00  0.00     0.252 C 
ATOM     11  O   UNL     1      -8.471   0.803  -1.848  1.00  0.00    -0.283 OA
BRANCH  10  12
ATOM     12  C   UNL     1      -6.653   0.517  -0.362  1.00  0.00     0.054 A 
ATOM     13  N   UNL     1      -4.683  -0.220   0.513  1.00  0.00    -0.240 N 
ATOM     14  C   UNL     1      -5.348   0.900  -0.003  1.00  0.00     0.117 A 
ATOM     15  C   UNL     1      -5.640  -1.242   0.653  1.00  0.00     0.065 A 
ATOM     16  C   UNL     1      -6.681  -0.906  -0.206  1.00  0.00     0.012 A 
ATOM     17  C   UNL     1      -5.535  -2.533   1.212  1.00  0.00     0.028 A 
ATOM     18  C   UNL     1      -7.514  -1.940  -0.686  1.00  0.00     0.011 A 
ATOM     19  C   UNL     1      -6.321  -3.547   0.668  1.00  0.00     0.002 A 
ATOM     20  C   UNL     1      -7.269  -3.263  -0.303  1.00  0.00     0.001 A 
BRANCH  13  21
ATOM     21  S   UNL     1      -3.141  -0.875  -0.017  1.00  0.00     0.268 S 
ATOM     22  O   UNL     1      -3.409  -1.266  -1.391  1.00  0.00    -0.201 OA
ATOM     23  O   UNL     1      -2.870  -1.873   1.010  1.00  0.00    -0.201 OA
BRANCH  21  24
ATOM     24  C   UNL     1      -1.586  -0.057  -0.074  1.00  0.00     0.088 A 
ATOM     25  C   UNL     1       2.623   0.952  -0.036  1.00  0.00     0.044 C 
ATOM     26  C   UNL     1       1.152   0.647  -0.091  1.00  0.00    -0.051 A 
ATOM     27  C   UNL     1       0.784  -0.664  -0.350  1.00  0.00     0.005 A 
ATOM     28  C   UNL     1       0.140   1.603   0.157  1.00  0.00     0.005 A 
ATOM     29  C   UNL     1      -0.559  -0.998  -0.353  1.00  0.00     0.022 A 
ATOM     30  C   UNL     1      -1.240   1.259   0.173  1.00  0.00     0.022 A 
ENDBRANCH  21  24
ENDBRANCH  13  21
ENDBRANCH  10  12
ENDBRANCH   7  10
ENDBRANCH   5   6
BRANCH   5  31
ATOM     31  C   UNL     1     -11.552   1.847   1.361  1.00  0.00     0.072 C 
BRANCH  31  32
ATOM     32  C   UNL     1     -12.343   3.087   1.696  1.00  0.00    -0.020 A 
ATOM     33  C   UNL     1     -13.726   3.164   1.792  1.00  0.00     0.087 A 
ATOM     34  C   UNL     1     -11.854   4.411   1.967  1.00  0.00     0.003 A 
ATOM     35  N   UNL     1     -14.081   4.475   1.980  1.00  0.00    -0.361 N 
ATOM     36  C   UNL     1     -12.957   5.267   2.006  1.00  0.00     0.046 A 
ATOM     37  C   UNL     1     -10.571   4.980   2.102  1.00  0.00     0.010 A 
ATOM     38  H   UNL     1     -15.005   4.801   2.082  1.00  0.00     0.166 HD
ATOM     39  C   UNL     1     -12.837   6.661   2.051  1.00  0.00     0.026 A 
ATOM     40  C   UNL     1     -10.430   6.371   2.112  1.00  0.00     0.001 A 
ATOM     41  C   UNL     1     -11.547   7.199   2.060  1.00  0.00     0.002 A 
ENDBRANCH  31  32
ENDBRANCH   5  31
ENDBRANCH   1   5
BRANCH   3  42
ATOM     42  C   UNL     1     -12.653   3.981  -1.531  1.00  0.00     0.117 C 
BRANCH  42  43
ATOM     43  C   UNL     1     -11.634   5.088  -1.723  1.00  0.00     0.042 C 
BRANCH  43  44
ATOM     44  C   UNL     1     -12.262   6.333  -2.336  1.00  0.00     0.118 C 
BRANCH  44  45
ATOM     45  N   UNL     1     -13.037   7.197  -1.444  1.00  0.00    -0.352 N 
ATOM     46  C   UNL     1     -13.856   8.270  -1.788  1.00  0.00     0.251 C 
ATOM     47  H   UNL     1     -12.971   6.994  -0.483  1.00  0.00     0.163 HD
ATOM     48  O   UNL     1     -14.472   8.897  -0.933  1.00  0.00    -0.269 OA
BRANCH  46  49
ATOM     49  C   UNL     1     -14.082   8.544  -3.232  1.00  0.00     0.039 A 
ATOM     50  C   UNL     1     -15.383   8.364  -3.706  1.00  0.00     0.014 A 
ATOM     51  C   UNL     1     -12.997   8.477  -4.097  1.00  0.00     0.014 A 
ATOM     52  C   UNL     1     -15.562   7.747  -4.940  1.00  0.00     0.010 A 
ATOM     53  C   UNL     1     -13.164   7.752  -5.261  1.00  0.00     0.010 A 
ATOM     54  C   UNL     1     -14.437   7.299  -5.632  1.00  0.00    -0.014 A 
BRANCH  54  55
ATOM     55  C   UNL     1     -14.502   6.237  -6.634  1.00  0.00     0.031 A 
ATOM     56  C   UNL     1     -14.197   6.527  -8.047  1.00  0.00     0.074 A 
ATOM     57  C   UNL     1     -14.813   4.963  -6.293  1.00  0.00     0.049 A 
ATOM     58  N   UNL     1     -14.716   5.883  -9.038  1.00  0.00    -0.248 NA
ATOM     59  C   UNL     1     -13.293   7.592  -8.457  1.00  0.00     0.031 C 
ATOM     60  C   UNL     1     -14.708   3.773  -7.138  1.00  0.00     0.029 A 
ATOM     61  N   UNL     1     -15.487   4.512  -5.153  1.00  0.00    -0.354 N 
ATOM     62  C   UNL     1     -14.030   6.245 -10.171  1.00  0.00     0.074 A 
ATOM     63  C   UNL     1     -13.193   7.352  -9.767  1.00  0.00     0.031 C 
ATOM     64  C   UNL     1     -15.523   2.823  -6.658  1.00  0.00     0.029 A 
ATOM     65  C   UNL     1     -16.260   3.394  -5.549  1.00  0.00     0.049 A 
ATOM     66  H   UNL     1     -15.434   4.899  -4.249  1.00  0.00     0.167 HD
ATOM     67  C   UNL     1     -14.144   5.494 -11.304  1.00  0.00     0.037 A 
ATOM     68  C   UNL     1     -17.617   3.394  -5.408  1.00  0.00     0.037 A 
ATOM     69  C   UNL     1     -15.044   4.356 -11.121  1.00  0.00     0.049 A 
ATOM     70  C   UNL     1     -18.378   3.356  -6.718  1.00  0.00     0.074 A 
ATOM     71  C   UNL     1     -14.857   3.004 -10.881  1.00  0.00     0.029 A 
ATOM     72  N   UNL     1     -16.386   4.595 -10.886  1.00  0.00    -0.354 N 
ATOM     73  N   UNL     1     -17.826   3.237  -7.894  1.00  0.00    -0.248 NA
ATOM     74  C   UNL     1     -19.826   3.564  -6.805  1.00  0.00     0.031 C 
ATOM     75  C   UNL     1     -16.110   2.435 -10.513  1.00  0.00     0.029 A 
ATOM     76  C   UNL     1     -17.058   3.441 -10.530  1.00  0.00     0.049 A 
ATOM     77  H   UNL     1     -16.810   5.480 -10.962  1.00  0.00     0.167 HD
ATOM     78  C   UNL     1     -18.773   3.453  -8.863  1.00  0.00     0.074 A 
ATOM     79  C   UNL     1     -20.012   3.637  -8.133  1.00  0.00     0.031 C 
ATOM     80  C   UNL     1     -18.469   3.528 -10.193  1.00  0.00     0.037 A 
BRANCH  67  81
ATOM     81  C   UNL     1     -13.223   5.667 -12.486  1.00  0.00     0.057 A 
ATOM     82  C   UNL     1     -12.847   4.571 -13.282  1.00  0.00     0.134 A 
ATOM     83  C   UNL     1     -12.639   6.888 -12.864  1.00  0.00     0.134 A 
ATOM     84  F   UNL     1     -13.415   3.367 -13.140  1.00  0.00    -0.206 F 
ATOM     85  C   UNL     1     -11.858   4.655 -14.270  1.00  0.00     0.040 A 
ATOM     86  C   UNL     1     -11.602   6.978 -13.803  1.00  0.00     0.040 A 
ATOM     87  F   UNL     1     -13.078   8.055 -12.371  1.00  0.00    -0.206 F 
ATOM     88  C   UNL     1     -11.195   5.851 -14.499  1.00  0.00     0.006 A 
ENDBRANCH  67  81
BRANCH  68  89
ATOM     89  C   UNL     1     -18.041   4.113  -4.178  1.00  0.00     0.057 A 
ATOM     90  C   UNL     1     -17.631   3.589  -2.938  1.00  0.00     0.134 A 
ATOM     91  C   UNL     1     -18.415   5.457  -4.213  1.00  0.00     0.134 A 
ATOM     92  F   UNL     1     -17.274   2.299  -2.835  1.00  0.00    -0.206 F 
ATOM     93  C   UNL     1     -17.439   4.406  -1.823  1.00  0.00     0.040 A 
ATOM     94  C   UNL     1     -18.252   6.279  -3.094  1.00  0.00     0.040 A 
ATOM     95  F   UNL     1     -18.808   6.029  -5.360  1.00  0.00    -0.206 F 
ATOM     96  C   UNL     1     -17.709   5.767  -1.915  1.00  0.00     0.006 A 
ENDBRANCH  68  89
BRANCH  80  97
ATOM     97  C   UNL     1     -19.497   3.720 -11.278  1.00  0.00     0.057 A 
ATOM     98  C   UNL     1     -20.727   3.047 -11.280  1.00  0.00     0.134 A 
ATOM     99  C   UNL     1     -19.235   4.498 -12.424  1.00  0.00     0.134 A 
ATOM    100  F   UNL     1     -21.058   2.206 -10.289  1.00  0.00    -0.206 F 
ATOM    101  C   UNL     1     -21.658   3.188 -12.317  1.00  0.00     0.040 A 
ATOM    102  C   UNL     1     -20.133   4.606 -13.490  1.00  0.00     0.040 A 
ATOM    103  F   UNL     1     -18.104   5.206 -12.557  1.00  0.00    -0.206 F 
ATOM    104  C   UNL     1     -21.359   3.963 -13.432  1.00  0.00     0.006 A 
ENDBRANCH  80  97
ENDBRANCH  54  55
ENDBRANCH  46  49
ENDBRANCH  44  45
ENDBRANCH  43  44
ENDBRANCH  42  43
ENDBRANCH   3  42
TORSDOF 17
