REMARK SMILES O=C(NCCCNC(=O)c1ccc(C[NH2+]Cc2cc(F)ccc2F)nc1)c1ccc(-c2c3nc(c(-c4c(F)cccc4F)c4ccc([nH]4)c(-c4c(F)cccc4F)c4nc(c(-c5c(F)cccc5F)c5ccc2[nH]5)C=C4)C=C3)cc1
REMARK SMILES IDX 6 1 5 2 4 3 3 4 1 5 2 6 27 8 28 9 80 10 29 11 79 12 30 13
REMARK SMILES IDX 31 14 32 15 73 16 33 17 78 18 72 19 74 20 34 21 77 22 71 23
REMARK SMILES IDX 70 24 35 26 61 27 44 28 60 29 45 30 48 31 59 32 75 33 46 34
REMARK SMILES IDX 47 35 58 37 76 38 49 39 36 40 37 41 42 42 38 43 39 44 41 45
REMARK SMILES IDX 43 46 40 47 62 48 63 49 68 50 64 51 65 52 67 53 69 54 66 55
REMARK SMILES IDX 50 56 51 57 56 58 52 59 53 60 55 61 57 62 54 63 7 64 8 65
REMARK SMILES IDX 9 67 10 68 11 69 26 70 12 71 25 72 13 73 14 74 15 75 16 78
REMARK SMILES IDX 17 79 18 80 23 81 19 82 22 83 24 84 20 85 21 86
REMARK H PARENT 3 7 74 25 48 36 7 66 15 76 15 77
REMARK Flexibility Score: inf
ROOT
ATOM      1  C   UNL     1       4.315  -0.320   3.658  1.00  0.00     0.118 C 
ENDROOT
BRANCH   1   2
ATOM      2  C   UNL     1       4.875   0.225   2.350  1.00  0.00     0.042 C 
BRANCH   2   3
ATOM      3  C   UNL     1       4.516  -0.607   1.127  1.00  0.00     0.118 C 
BRANCH   3   4
ATOM      4  N   UNL     1       3.080  -0.659   0.886  1.00  0.00    -0.352 N 
ATOM      5  O   UNL     1       1.105  -0.115  -0.040  1.00  0.00    -0.269 OA
ATOM      6  C   UNL     1       2.330  -0.128  -0.132  1.00  0.00     0.251 C 
ATOM      7  H   UNL     1       2.566  -1.155   1.563  1.00  0.00     0.163 HD
BRANCH   6   8
ATOM      8  C   UNL     1       2.983   0.443  -1.330  1.00  0.00     0.039 A 
ATOM      9  C   UNL     1       4.070  -0.195  -1.932  1.00  0.00     0.014 A 
ATOM     10  C   UNL     1       2.463   1.614  -1.888  1.00  0.00     0.014 A 
ATOM     11  C   UNL     1       4.723   0.407  -3.001  1.00  0.00     0.010 A 
ATOM     12  C   UNL     1       3.066   2.173  -3.017  1.00  0.00     0.010 A 
ATOM     13  C   UNL     1       4.218   1.587  -3.566  1.00  0.00    -0.014 A 
BRANCH  13  14
ATOM     14  C   UNL     1       4.859   2.160  -4.774  1.00  0.00     0.031 A 
ATOM     15  C   UNL     1       5.509   3.512  -4.737  1.00  0.00     0.074 A 
ATOM     16  C   UNL     1       4.833   1.452  -5.919  1.00  0.00     0.049 A 
ATOM     17  N   UNL     1       6.066   4.186  -5.712  1.00  0.00    -0.248 NA
ATOM     18  C   UNL     1       5.526   4.205  -3.441  1.00  0.00     0.031 C 
ATOM     19  C   UNL     1       4.214   0.134  -6.079  1.00  0.00     0.029 A 
ATOM     20  N   UNL     1       5.329   1.741  -7.164  1.00  0.00    -0.354 N 
ATOM     21  C   UNL     1       6.477   5.389  -5.155  1.00  0.00     0.074 A 
ATOM     22  C   UNL     1       6.086   5.364  -3.761  1.00  0.00     0.031 C 
ATOM     23  C   UNL     1       4.379  -0.278  -7.343  1.00  0.00     0.029 A 
ATOM     24  C   UNL     1       5.060   0.770  -8.096  1.00  0.00     0.049 A 
ATOM     25  H   UNL     1       5.829   2.563  -7.369  1.00  0.00     0.167 HD
ATOM     26  C   UNL     1       7.125   6.417  -5.754  1.00  0.00     0.037 A 
ATOM     27  C   UNL     1       5.302   0.736  -9.419  1.00  0.00     0.037 A 
ATOM     28  C   UNL     1       7.524   6.427  -7.138  1.00  0.00     0.049 A 
ATOM     29  C   UNL     1       6.002   1.893 -10.064  1.00  0.00     0.074 A 
ATOM     30  C   UNL     1       8.237   7.395  -7.824  1.00  0.00     0.029 A 
ATOM     31  N   UNL     1       7.232   5.424  -8.052  1.00  0.00    -0.354 N 
ATOM     32  N   UNL     1       6.430   3.004  -9.516  1.00  0.00    -0.248 NA
ATOM     33  C   UNL     1       6.252   1.797 -11.508  1.00  0.00     0.031 C 
ATOM     34  C   UNL     1       8.335   7.000  -9.163  1.00  0.00     0.029 A 
ATOM     35  C   UNL     1       7.724   5.764  -9.302  1.00  0.00     0.049 A 
ATOM     36  H   UNL     1       6.747   4.593  -7.843  1.00  0.00     0.167 HD
ATOM     37  C   UNL     1       7.012   3.735 -10.542  1.00  0.00     0.074 A 
ATOM     38  C   UNL     1       6.893   2.934 -11.744  1.00  0.00     0.031 C 
ATOM     39  C   UNL     1       7.594   4.957 -10.489  1.00  0.00     0.037 A 
BRANCH  26  40
ATOM     40  C   UNL     1       7.420   7.630  -4.919  1.00  0.00     0.057 A 
ATOM     41  C   UNL     1       8.388   7.620  -3.906  1.00  0.00     0.134 A 
ATOM     42  C   UNL     1       6.739   8.832  -5.147  1.00  0.00     0.134 A 
ATOM     43  F   UNL     1       9.069   6.498  -3.628  1.00  0.00    -0.206 F 
ATOM     44  C   UNL     1       8.648   8.753  -3.132  1.00  0.00     0.040 A 
ATOM     45  C   UNL     1       7.007   9.979  -4.397  1.00  0.00     0.040 A 
ATOM     46  F   UNL     1       5.805   8.915  -6.107  1.00  0.00    -0.206 F 
ATOM     47  C   UNL     1       7.959   9.938  -3.381  1.00  0.00     0.006 A 
ENDBRANCH  26  40
BRANCH  27  48
ATOM     48  C   UNL     1       4.852  -0.438 -10.205  1.00  0.00     0.057 A 
ATOM     49  C   UNL     1       5.763  -1.380 -10.690  1.00  0.00     0.134 A 
ATOM     50  C   UNL     1       3.490  -0.674 -10.436  1.00  0.00     0.134 A 
ATOM     51  F   UNL     1       7.080  -1.200 -10.509  1.00  0.00    -0.206 F 
ATOM     52  C   UNL     1       5.338  -2.518 -11.377  1.00  0.00     0.040 A 
ATOM     53  C   UNL     1       3.050  -1.818 -11.100  1.00  0.00     0.040 A 
ATOM     54  F   UNL     1       2.568   0.189  -9.984  1.00  0.00    -0.206 F 
ATOM     55  C   UNL     1       3.977  -2.744 -11.575  1.00  0.00     0.006 A 
ENDBRANCH  27  48
BRANCH  39  56
ATOM     56  C   UNL     1       8.166   5.498 -11.765  1.00  0.00     0.057 A 
ATOM     57  C   UNL     1       7.348   6.003 -12.783  1.00  0.00     0.134 A 
ATOM     58  C   UNL     1       9.552   5.564 -11.953  1.00  0.00     0.134 A 
ATOM     59  F   UNL     1       6.012   5.954 -12.669  1.00  0.00    -0.206 F 
ATOM     60  C   UNL     1       7.890   6.546 -13.949  1.00  0.00     0.040 A 
ATOM     61  C   UNL     1      10.106   6.125 -13.104  1.00  0.00     0.040 A 
ATOM     62  F   UNL     1      10.389   5.102 -11.012  1.00  0.00    -0.206 F 
ATOM     63  C   UNL     1       9.273   6.616 -14.107  1.00  0.00     0.006 A 
ENDBRANCH  39  56
ENDBRANCH  13  14
ENDBRANCH   6   8
ENDBRANCH   3   4
ENDBRANCH   2   3
ENDBRANCH   1   2
BRANCH   1  64
ATOM     64  N   UNL     1       4.817  -1.654   3.954  1.00  0.00    -0.352 N 
ATOM     65  C   UNL     1       5.687  -2.060   4.931  1.00  0.00     0.252 C 
ATOM     66  H   UNL     1       4.482  -2.369   3.365  1.00  0.00     0.163 HD
ATOM     67  O   UNL     1       6.186  -3.183   4.881  1.00  0.00    -0.269 OA
BRANCH  65  68
ATOM     68  C   UNL     1       6.029  -1.159   6.037  1.00  0.00     0.058 A 
ATOM     69  C   UNL     1       5.055  -0.493   6.778  1.00  0.00     0.017 A 
ATOM     70  C   UNL     1       7.357  -1.000   6.394  1.00  0.00     0.125 A 
ATOM     71  C   UNL     1       5.450   0.353   7.809  1.00  0.00     0.030 A 
ATOM     72  N   UNL     1       7.769  -0.172   7.383  1.00  0.00    -0.255 NA
ATOM     73  C   UNL     1       6.813   0.498   8.077  1.00  0.00     0.094 A 
BRANCH  73  74
ATOM     74  C   UNL     1       7.258   1.376   9.232  1.00  0.00     0.318 C 
BRANCH  74  75
ATOM     75  N   UNL     1       7.386   0.608  10.472  1.00  0.00    -0.337 N 
ATOM     76  H   UNL     1       8.193  -0.010  10.389  1.00  0.00     0.346 HD
ATOM     77  H   UNL     1       6.516   0.091  10.597  1.00  0.00     0.346 HD
BRANCH  75  78
ATOM     78  C   UNL     1       7.564   1.444  11.653  1.00  0.00     0.300 C 
BRANCH  78  79
ATOM     79  C   UNL     1       6.335   2.237  12.020  1.00  0.00     0.045 A 
ATOM     80  C   UNL     1       6.353   3.639  11.999  1.00  0.00     0.051 A 
ATOM     81  C   UNL     1       5.143   1.592  12.374  1.00  0.00     0.132 A 
ATOM     82  C   UNL     1       5.200   4.353  12.316  1.00  0.00     0.123 A 
ATOM     83  C   UNL     1       3.991   2.309  12.688  1.00  0.00     0.043 A 
ATOM     84  F   UNL     1       5.090   0.252  12.389  1.00  0.00    -0.206 F 
ATOM     85  F   UNL     1       5.228   5.691  12.283  1.00  0.00    -0.207 F 
ATOM     86  C   UNL     1       4.020   3.702  12.658  1.00  0.00     0.042 A 
ENDBRANCH  78  79
ENDBRANCH  75  78
ENDBRANCH  74  75
ENDBRANCH  73  74
ENDBRANCH  65  68
ENDBRANCH   1  64
TORSDOF 14
