REMARK SMILES CCC[C@H](CNC(=O)N1C[C@H]2CCC[N@H+]2C[C@@H]1C)C(=O)NCCCNC(=O)c1ccc(-c2c3nc(c(-c4c(F)cccc4F)c4ccc([nH]4)c(-c4c(F)cccc4F)c4nc(c(-c5c(F)cccc5F)c5ccc2[nH]5)C=C4)C=C3)cc1
REMARK SMILES IDX 22 1 21 2 19 3 20 4 4 6 3 7 2 8 1 9 5 10 6 11 7 12 8 14 9 15
REMARK SMILES IDX 10 16 17 17 11 18 16 19 18 20 12 21 15 22 13 23 14 24 23 26
REMARK SMILES IDX 24 27 25 28 26 29 27 31 28 32 29 33 81 34 30 35 80 36 31 37
REMARK SMILES IDX 32 38 33 39 74 40 34 41 79 42 73 43 75 44 35 45 78 46 72 47
REMARK SMILES IDX 71 48 36 50 62 51 45 52 61 53 46 54 49 55 60 56 76 57 47 58
REMARK SMILES IDX 48 59 59 61 77 62 50 63 37 64 38 65 43 66 39 67 40 68 42 69
REMARK SMILES IDX 44 70 41 71 63 72 64 73 69 74 65 75 66 76 68 77 70 78 67 79
REMARK SMILES IDX 51 80 52 81 57 82 53 83 54 84 56 85 58 86 55 87
REMARK H PARENT 21 5 6 13 15 25 25 30 75 49 49 60
REMARK Flexibility Score: inf
ROOT
ATOM      1  C   UNL     1      -0.481   2.527   5.051  1.00  0.00     0.117 C 
ENDROOT
BRANCH   1   2
ATOM      2  N   UNL     1       0.488   3.304   4.291  1.00  0.00    -0.356 N 
ATOM      3  C   UNL     1       0.894   3.269   2.998  1.00  0.00     0.224 C 
ATOM      4  O   UNL     1       1.771   4.082   2.682  1.00  0.00    -0.275 OA
ATOM      5  H   UNL     1       0.940   3.997   4.825  1.00  0.00     0.163 HD
BRANCH   3   6
ATOM      6  C   UNL     1       0.369   2.292   1.950  1.00  0.00     0.097 C 
BRANCH   6   7
ATOM      7  C   UNL     1      -1.162   2.279   1.779  1.00  0.00     0.015 C 
BRANCH   7   8
ATOM      8  C   UNL     1      -1.645   3.109   0.581  1.00  0.00    -0.003 C 
ATOM      9  C   UNL     1      -1.293   2.489  -0.764  1.00  0.00     0.004 C 
ENDBRANCH   7   8
ENDBRANCH   6   7
BRANCH   6  10
ATOM     10  C   UNL     1       1.036   0.906   2.026  1.00  0.00     0.131 C 
BRANCH  10  11
ATOM     11  N   UNL     1       0.676   0.105   3.176  1.00  0.00    -0.337 N 
ATOM     12  C   UNL     1      -0.367  -0.743   3.332  1.00  0.00     0.318 C 
ATOM     13  H   UNL     1       1.273   0.190   3.955  1.00  0.00     0.165 HD
ATOM     14  O   UNL     1      -0.936  -0.767   4.423  1.00  0.00    -0.249 OA
BRANCH  12  15
ATOM     15  N   UNL     1      -0.746  -1.526   2.277  1.00  0.00    -0.311 N 
ATOM     16  C   UNL     1      -2.133  -1.988   2.231  1.00  0.00     0.186 C 
ATOM     17  C   UNL     1       0.224  -2.288   1.445  1.00  0.00     0.139 C 
ATOM     18  C   UNL     1      -2.236  -3.517   2.355  1.00  0.00     0.204 C 
ATOM     19  C   UNL     1      -0.485  -3.416   0.633  1.00  0.00     0.287 C 
ATOM     20  C   UNL     1       1.360  -2.894   2.284  1.00  0.00     0.037 C 
ATOM     21  C   UNL     1      -3.638  -4.031   2.036  1.00  0.00     0.073 C 
ATOM     22  N   UNL     1      -1.318  -4.287   1.476  1.00  0.00    -0.329 N 
ATOM     23  C   UNL     1      -3.384  -5.427   1.504  1.00  0.00     0.068 C 
ATOM     24  C   UNL     1      -2.109  -5.245   0.700  1.00  0.00     0.262 C 
ATOM     25  H   UNL     1      -0.652  -4.800   2.054  1.00  0.00     0.348 HD
ENDBRANCH  12  15
ENDBRANCH  10  11
ENDBRANCH   6  10
ENDBRANCH   3   6
ENDBRANCH   1   2
BRANCH   1  26
ATOM     26  C   UNL     1       0.172   1.761   6.200  1.00  0.00     0.042 C 
BRANCH  26  27
ATOM     27  C   UNL     1       0.751   2.641   7.296  1.00  0.00     0.118 C 
BRANCH  27  28
ATOM     28  N   UNL     1      -0.271   3.203   8.163  1.00  0.00    -0.352 N 
ATOM     29  C   UNL     1      -0.596   2.907   9.461  1.00  0.00     0.251 C 
ATOM     30  H   UNL     1      -0.817   3.911   7.752  1.00  0.00     0.163 HD
ATOM     31  O   UNL     1      -1.637   3.373   9.935  1.00  0.00    -0.269 OA
BRANCH  29  32
ATOM     32  C   UNL     1       0.255   2.035  10.304  1.00  0.00     0.039 A 
ATOM     33  C   UNL     1      -0.367   1.179  11.220  1.00  0.00     0.014 A 
ATOM     34  C   UNL     1       1.651   2.091  10.260  1.00  0.00     0.014 A 
ATOM     35  C   UNL     1       0.403   0.359  12.049  1.00  0.00     0.010 A 
ATOM     36  C   UNL     1       2.416   1.204  11.017  1.00  0.00     0.010 A 
ATOM     37  C   UNL     1       1.803   0.345  11.939  1.00  0.00    -0.014 A 
BRANCH  37  38
ATOM     38  C   UNL     1       2.627  -0.539  12.804  1.00  0.00     0.031 A 
ATOM     39  C   UNL     1       3.608   0.047  13.785  1.00  0.00     0.074 A 
ATOM     40  C   UNL     1       2.527  -1.876  12.679  1.00  0.00     0.049 A 
ATOM     41  N   UNL     1       4.412  -0.566  14.619  1.00  0.00    -0.248 NA
ATOM     42  C   UNL     1       3.730   1.513  13.809  1.00  0.00     0.031 C 
ATOM     43  C   UNL     1       1.679  -2.575  11.712  1.00  0.00     0.029 A 
ATOM     44  N   UNL     1       3.150  -2.888  13.368  1.00  0.00    -0.354 N 
ATOM     45  C   UNL     1       5.148   0.434  15.242  1.00  0.00     0.074 A 
ATOM     46  C   UNL     1       4.733   1.690  14.655  1.00  0.00     0.031 C 
ATOM     47  C   UNL     1       1.813  -3.899  11.888  1.00  0.00     0.029 A 
ATOM     48  C   UNL     1       2.769  -4.143  12.963  1.00  0.00     0.049 A 
ATOM     49  H   UNL     1       3.807  -2.728  14.083  1.00  0.00     0.167 HD
ATOM     50  C   UNL     1       6.068   0.323  16.230  1.00  0.00     0.037 A 
ATOM     51  C   UNL     1       3.140  -5.356  13.414  1.00  0.00     0.037 A 
ATOM     52  C   UNL     1       6.446  -0.920  16.849  1.00  0.00     0.049 A 
ATOM     53  C   UNL     1       4.104  -5.453  14.562  1.00  0.00     0.074 A 
ATOM     54  C   UNL     1       7.293  -1.127  17.924  1.00  0.00     0.029 A 
ATOM     55  N   UNL     1       5.998  -2.168  16.446  1.00  0.00    -0.354 N 
ATOM     56  N   UNL     1       4.720  -4.492  15.206  1.00  0.00    -0.248 NA
ATOM     57  C   UNL     1       4.410  -6.803  15.056  1.00  0.00     0.031 C 
ATOM     58  C   UNL     1       7.384  -2.506  18.150  1.00  0.00     0.029 A 
ATOM     59  C   UNL     1       6.565  -3.153  17.239  1.00  0.00     0.049 A 
ATOM     60  H   UNL     1       5.370  -2.331  15.706  1.00  0.00     0.167 HD
ATOM     61  C   UNL     1       5.479  -5.117  16.186  1.00  0.00     0.074 A 
ATOM     62  C   UNL     1       5.225  -6.539  16.068  1.00  0.00     0.031 C 
ATOM     63  C   UNL     1       6.314  -4.564  17.100  1.00  0.00     0.037 A 
BRANCH  50  64
ATOM     64  C   UNL     1       6.723   1.587  16.706  1.00  0.00     0.057 A 
ATOM     65  C   UNL     1       6.026   2.548  17.451  1.00  0.00     0.134 A 
ATOM     66  C   UNL     1       8.072   1.841  16.427  1.00  0.00     0.134 A 
ATOM     67  F   UNL     1       4.728   2.372  17.741  1.00  0.00    -0.206 F 
ATOM     68  C   UNL     1       6.637   3.731  17.872  1.00  0.00     0.040 A 
ATOM     69  C   UNL     1       8.701   3.008  16.866  1.00  0.00     0.040 A 
ATOM     70  F   UNL     1       8.801   0.961  15.724  1.00  0.00    -0.206 F 
ATOM     71  C   UNL     1       7.981   3.961  17.583  1.00  0.00     0.006 A 
ENDBRANCH  50  64
BRANCH  51  72
ATOM     72  C   UNL     1       2.560  -6.575  12.800  1.00  0.00     0.057 A 
ATOM     73  C   UNL     1       1.592  -7.330  13.472  1.00  0.00     0.134 A 
ATOM     74  C   UNL     1       2.941  -6.999  11.523  1.00  0.00     0.134 A 
ATOM     75  F   UNL     1       1.200  -6.981  14.706  1.00  0.00    -0.206 F 
ATOM     76  C   UNL     1       1.031  -8.472  12.899  1.00  0.00     0.040 A 
ATOM     77  C   UNL     1       2.373  -8.127  10.929  1.00  0.00     0.040 A 
ATOM     78  F   UNL     1       3.859  -6.312  10.827  1.00  0.00    -0.206 F 
ATOM     79  C   UNL     1       1.417  -8.870  11.620  1.00  0.00     0.006 A 
ENDBRANCH  51  72
BRANCH  63  80
ATOM     80  C   UNL     1       7.008  -5.503  18.041  1.00  0.00     0.057 A 
ATOM     81  C   UNL     1       8.059  -6.325  17.614  1.00  0.00     0.134 A 
ATOM     82  C   UNL     1       6.633  -5.576  19.387  1.00  0.00     0.134 A 
ATOM     83  F   UNL     1       8.456  -6.311  16.333  1.00  0.00    -0.206 F 
ATOM     84  C   UNL     1       8.695  -7.207  18.489  1.00  0.00     0.040 A 
ATOM     85  C   UNL     1       7.277  -6.437  20.277  1.00  0.00     0.040 A 
ATOM     86  F   UNL     1       5.638  -4.810  19.860  1.00  0.00    -0.206 F 
ATOM     87  C   UNL     1       8.306  -7.261  19.827  1.00  0.00     0.006 A 
ENDBRANCH  63  80
ENDBRANCH  37  38
ENDBRANCH  29  32
ENDBRANCH  27  28
ENDBRANCH  26  27
ENDBRANCH   1  26
TORSDOF 15
