REMARK SMILES CC[C@@](O)(C(=O)NCCCNC(=O)c1ccc(-c2c3nc(c(-c4c(F)cccc4F)c4ccc([nH]4)c(-c4c(F)cccc4F)c4nc(c(-c5c(F)cccc5F)c5ccc2[nH]5)C=C4)C=C3)cc1)[C@@H]1CCOc2ccccc21
REMARK SMILES IDX 9 1 8 2 7 3 5 4 6 5 3 7 2 8 1 9 4 10 68 12 69 13 77 14 70 15
REMARK SMILES IDX 72 16 76 17 71 18 73 19 75 20 74 21 10 22 11 23 12 24 13 26
REMARK SMILES IDX 14 27 15 28 67 29 16 30 66 31 17 32 18 33 19 34 60 35 20 36
REMARK SMILES IDX 65 37 59 38 61 39 21 40 64 41 58 42 57 43 22 45 48 46 31 47
REMARK SMILES IDX 47 48 32 49 35 50 46 51 62 52 33 53 34 54 45 56 63 57 36 58
REMARK SMILES IDX 23 59 24 60 29 61 25 62 26 63 28 64 30 65 27 66 49 67 50 68
REMARK SMILES IDX 55 69 51 70 52 71 54 72 56 73 53 74 37 75 38 76 43 77 39 78
REMARK SMILES IDX 40 79 42 80 44 81 41 82
REMARK H PARENT 7 6 4 11 11 25 61 44 35 55
REMARK Flexibility Score: inf
ROOT
ATOM      1  C   UNL     1       4.475  -3.165   6.649  1.00  0.00     0.042 C 
ENDROOT
BRANCH   1   2
ATOM      2  C   UNL     1       3.129  -2.601   6.175  1.00  0.00     0.117 C 
BRANCH   2   3
ATOM      3  N   UNL     1       3.356  -1.445   5.331  1.00  0.00    -0.354 N 
ATOM      4  C   UNL     1       3.798  -1.428   4.034  1.00  0.00     0.252 C 
ATOM      5  O   UNL     1       4.642  -0.570   3.769  1.00  0.00    -0.272 OA
ATOM      6  H   UNL     1       3.170  -0.568   5.738  1.00  0.00     0.163 HD
BRANCH   4   7
ATOM      7  C   UNL     1       3.256  -2.455   2.979  1.00  0.00     0.149 C 
BRANCH   7   8
ATOM      8  C   UNL     1       3.905  -3.849   3.218  1.00  0.00     0.043 C 
ATOM      9  C   UNL     1       3.388  -4.987   2.339  1.00  0.00     0.007 C 
ENDBRANCH   7   8
BRANCH   7  10
ATOM     10  O   UNL     1       1.836  -2.594   3.201  1.00  0.00    -0.379 OA
ATOM     11  H   UNL     1       1.679  -2.911   4.104  1.00  0.00     0.212 HD
ENDBRANCH   7  10
BRANCH   7  12
ATOM     12  C   UNL     1       3.486  -1.932   1.491  1.00  0.00     0.068 C 
ATOM     13  C   UNL     1       4.870  -2.344   0.945  1.00  0.00     0.053 C 
ATOM     14  C   UNL     1       3.297  -0.439   1.194  1.00  0.00     0.001 A 
ATOM     15  C   UNL     1       5.032  -1.814  -0.464  1.00  0.00     0.230 C 
ATOM     16  C   UNL     1       4.144   0.218   0.278  1.00  0.00     0.122 A 
ATOM     17  C   UNL     1       2.300   0.328   1.818  1.00  0.00     0.008 A 
ATOM     18  O   UNL     1       5.122  -0.399  -0.458  1.00  0.00    -0.493 OA
ATOM     19  C   UNL     1       4.067   1.598   0.077  1.00  0.00     0.047 A 
ATOM     20  C   UNL     1       2.220   1.711   1.608  1.00  0.00     0.001 A 
ATOM     21  C   UNL     1       3.113   2.349   0.751  1.00  0.00     0.004 A 
ENDBRANCH   7  12
ENDBRANCH   4   7
ENDBRANCH   2   3
ENDBRANCH   1   2
BRANCH   1  22
ATOM     22  C   UNL     1       5.245  -2.204   7.554  1.00  0.00     0.118 C 
BRANCH  22  23
ATOM     23  N   UNL     1       4.611  -2.073   8.856  1.00  0.00    -0.352 N 
ATOM     24  C   UNL     1       5.123  -2.342  10.100  1.00  0.00     0.251 C 
ATOM     25  H   UNL     1       3.684  -1.744   8.843  1.00  0.00     0.163 HD
ATOM     26  O   UNL     1       4.372  -2.425  11.065  1.00  0.00    -0.269 OA
BRANCH  24  27
ATOM     27  C   UNL     1       6.578  -2.536  10.277  1.00  0.00     0.039 A 
ATOM     28  C   UNL     1       7.024  -3.568  11.107  1.00  0.00     0.014 A 
ATOM     29  C   UNL     1       7.496  -1.673   9.670  1.00  0.00     0.014 A 
ATOM     30  C   UNL     1       8.394  -3.760  11.298  1.00  0.00     0.010 A 
ATOM     31  C   UNL     1       8.861  -1.904   9.813  1.00  0.00     0.010 A 
ATOM     32  C   UNL     1       9.323  -2.942  10.636  1.00  0.00    -0.014 A 
BRANCH  32  33
ATOM     33  C   UNL     1      10.783  -3.148  10.798  1.00  0.00     0.031 A 
ATOM     34  C   UNL     1      11.623  -2.096  11.464  1.00  0.00     0.074 A 
ATOM     35  C   UNL     1      11.361  -4.248  10.278  1.00  0.00     0.049 A 
ATOM     36  N   UNL     1      12.922  -2.048  11.617  1.00  0.00    -0.248 NA
ATOM     37  C   UNL     1      10.911  -0.928  12.006  1.00  0.00     0.031 C 
ATOM     38  C   UNL     1      10.657  -5.317   9.569  1.00  0.00     0.029 A 
ATOM     39  N   UNL     1      12.676  -4.637  10.249  1.00  0.00    -0.354 N 
ATOM     40  C   UNL     1      13.183  -0.840  12.252  1.00  0.00     0.074 A 
ATOM     41  C   UNL     1      11.914  -0.166  12.416  1.00  0.00     0.031 C 
ATOM     42  C   UNL     1      11.546  -6.243   9.178  1.00  0.00     0.029 A 
ATOM     43  C   UNL     1      12.884  -5.817   9.578  1.00  0.00     0.049 A 
ATOM     44  H   UNL     1      13.401  -4.120  10.668  1.00  0.00     0.167 HD
ATOM     45  C   UNL     1      14.371  -0.348  12.678  1.00  0.00     0.037 A 
ATOM     46  C   UNL     1      14.026  -6.474   9.303  1.00  0.00     0.037 A 
ATOM     47  C   UNL     1      15.628  -1.034  12.533  1.00  0.00     0.049 A 
ATOM     48  C   UNL     1      15.332  -5.912   9.789  1.00  0.00     0.074 A 
ATOM     49  C   UNL     1      16.878  -0.652  12.989  1.00  0.00     0.029 A 
ATOM     50  N   UNL     1      15.794  -2.244  11.877  1.00  0.00    -0.354 N 
ATOM     51  N   UNL     1      15.557  -4.803  10.452  1.00  0.00    -0.248 NA
ATOM     52  C   UNL     1      16.542  -6.692   9.495  1.00  0.00     0.031 C 
ATOM     53  C   UNL     1      17.807  -1.612  12.572  1.00  0.00     0.029 A 
ATOM     54  C   UNL     1      17.129  -2.614  11.896  1.00  0.00     0.049 A 
ATOM     55  H   UNL     1      15.070  -2.765  11.459  1.00  0.00     0.167 HD
ATOM     56  C   UNL     1      16.927  -4.764  10.674  1.00  0.00     0.074 A 
ATOM     57  C   UNL     1      17.480  -5.967  10.086  1.00  0.00     0.031 C 
ATOM     58  C   UNL     1      17.661  -3.817  11.309  1.00  0.00     0.037 A 
BRANCH  45  59
ATOM     59  C   UNL     1      14.363   1.001  13.338  1.00  0.00     0.057 A 
ATOM     60  C   UNL     1      13.803   1.199  14.608  1.00  0.00     0.134 A 
ATOM     61  C   UNL     1      14.938   2.111  12.707  1.00  0.00     0.134 A 
ATOM     62  F   UNL     1      13.226   0.180  15.263  1.00  0.00    -0.206 F 
ATOM     63  C   UNL     1      13.787   2.458  15.211  1.00  0.00     0.040 A 
ATOM     64  C   UNL     1      14.953   3.369  13.312  1.00  0.00     0.040 A 
ATOM     65  F   UNL     1      15.499   1.991  11.495  1.00  0.00    -0.206 F 
ATOM     66  C   UNL     1      14.368   3.547  14.565  1.00  0.00     0.006 A 
ENDBRANCH  45  59
BRANCH  46  67
ATOM     67  C   UNL     1      13.979  -7.747   8.542  1.00  0.00     0.057 A 
ATOM     68  C   UNL     1      14.231  -8.973   9.167  1.00  0.00     0.134 A 
ATOM     69  C   UNL     1      13.667  -7.770   7.177  1.00  0.00     0.134 A 
ATOM     70  F   UNL     1      14.551  -9.013  10.468  1.00  0.00    -0.206 F 
ATOM     71  C   UNL     1      14.189 -10.176   8.460  1.00  0.00     0.040 A 
ATOM     72  C   UNL     1      13.598  -8.967   6.463  1.00  0.00     0.040 A 
ATOM     73  F   UNL     1      13.405  -6.629   6.523  1.00  0.00    -0.206 F 
ATOM     74  C   UNL     1      13.865 -10.175   7.105  1.00  0.00     0.006 A 
ENDBRANCH  46  67
BRANCH  58  75
ATOM     75  C   UNL     1      19.137  -4.057  11.425  1.00  0.00     0.057 A 
ATOM     76  C   UNL     1      19.995  -3.923  10.327  1.00  0.00     0.134 A 
ATOM     77  C   UNL     1      19.711  -4.380  12.662  1.00  0.00     0.134 A 
ATOM     78  F   UNL     1      19.506  -3.629   9.113  1.00  0.00    -0.206 F 
ATOM     79  C   UNL     1      21.372  -4.117  10.451  1.00  0.00     0.040 A 
ATOM     80  C   UNL     1      21.088  -4.552  12.803  1.00  0.00     0.040 A 
ATOM     81  F   UNL     1      18.944  -4.516  13.754  1.00  0.00    -0.206 F 
ATOM     82  C   UNL     1      21.922  -4.425  11.694  1.00  0.00     0.006 A 
ENDBRANCH  58  75
ENDBRANCH  32  33
ENDBRANCH  24  27
ENDBRANCH  22  23
ENDBRANCH   1  22
TORSDOF 13
