REMARK SMILES O=C(NCCCNC(=O)[C@@H]1[C@H](C(=O)Nc2cccc(Cl)c2F)[C@@H]2C=C[C@H]1C2)c1ccc(-c2c3nc(c(-c4c(F)cccc4F)c4ccc([nH]4)c(-c4c(F)cccc4F)c4nc(c(-c5c(F)cccc5F)c5ccc2[nH]5)C=C4)C=C3)cc1
REMARK SMILES IDX 5 1 4 2 3 3 1 4 2 5 28 7 29 8 81 9 30 10 80 11 31 12 32 13
REMARK SMILES IDX 33 14 74 15 34 16 79 17 73 18 75 19 35 20 78 21 72 22 71 23
REMARK SMILES IDX 36 25 62 26 45 27 61 28 46 29 49 30 60 31 76 32 47 33 48 34
REMARK SMILES IDX 59 36 77 37 50 38 37 39 38 40 43 41 39 42 40 43 42 44 44 45
REMARK SMILES IDX 41 46 63 47 64 48 69 49 65 50 66 51 68 52 70 53 67 54 51 55
REMARK SMILES IDX 52 56 57 57 53 58 54 59 56 60 58 61 55 62 6 63 7 64 8 65
REMARK SMILES IDX 9 67 10 68 11 69 26 70 23 71 25 72 27 73 24 74 12 75 13 76
REMARK SMILES IDX 14 77 15 79 16 80 21 81 17 82 19 83 22 84 18 85 20 86
REMARK H PARENT 3 6 75 24 49 35 7 66 14 78
REMARK Flexibility Score: inf
ROOT
ATOM      1  C   UNL     1       4.599  -0.956   2.545  1.00  0.00     0.042 C 
ENDROOT
BRANCH   1   2
ATOM      2  C   UNL     1       4.385  -1.187   1.046  1.00  0.00     0.118 C 
BRANCH   2   3
ATOM      3  N   UNL     1       2.982  -1.109   0.661  1.00  0.00    -0.352 N 
ATOM      4  O   UNL     1       1.052  -0.207  -0.034  1.00  0.00    -0.269 OA
ATOM      5  C   UNL     1       2.283  -0.139   0.001  1.00  0.00     0.251 C 
ATOM      6  H   UNL     1       2.444  -1.892   0.922  1.00  0.00     0.163 HD
BRANCH   5   7
ATOM      7  C   UNL     1       2.961   0.998  -0.655  1.00  0.00     0.039 A 
ATOM      8  C   UNL     1       4.092   0.819  -1.457  1.00  0.00     0.014 A 
ATOM      9  C   UNL     1       2.390   2.270  -0.532  1.00  0.00     0.014 A 
ATOM     10  C   UNL     1       4.712   1.923  -2.047  1.00  0.00     0.010 A 
ATOM     11  C   UNL     1       2.977   3.364  -1.170  1.00  0.00     0.010 A 
ATOM     12  C   UNL     1       4.158   3.205  -1.912  1.00  0.00    -0.014 A 
BRANCH  12  13
ATOM     13  C   UNL     1       4.790   4.381  -2.562  1.00  0.00     0.031 A 
ATOM     14  C   UNL     1       5.385   5.482  -1.730  1.00  0.00     0.074 A 
ATOM     15  C   UNL     1       4.791   4.480  -3.905  1.00  0.00     0.049 A 
ATOM     16  N   UNL     1       5.894   6.626  -2.111  1.00  0.00    -0.248 NA
ATOM     17  C   UNL     1       5.396   5.273  -0.275  1.00  0.00     0.031 C 
ATOM     18  C   UNL     1       4.241   3.484  -4.824  1.00  0.00     0.029 A 
ATOM     19  N   UNL     1       5.256   5.475  -4.728  1.00  0.00    -0.354 N 
ATOM     20  C   UNL     1       6.267   7.282  -0.945  1.00  0.00     0.074 A 
ATOM     21  C   UNL     1       5.900   6.420   0.158  1.00  0.00     0.031 C 
ATOM     22  C   UNL     1       4.403   3.914  -6.084  1.00  0.00     0.029 A 
ATOM     23  C   UNL     1       5.021   5.237  -6.060  1.00  0.00     0.049 A 
ATOM     24  H   UNL     1       5.714   6.280  -4.396  1.00  0.00     0.167 HD
ATOM     25  C   UNL     1       6.866   8.490  -0.808  1.00  0.00     0.037 A 
ATOM     26  C   UNL     1       5.250   6.007  -7.140  1.00  0.00     0.037 A 
ATOM     27  C   UNL     1       7.237   9.341  -1.909  1.00  0.00     0.049 A 
ATOM     28  C   UNL     1       5.882   7.358  -6.965  1.00  0.00     0.074 A 
ATOM     29  C   UNL     1       7.884  10.565  -1.874  1.00  0.00     0.029 A 
ATOM     30  N   UNL     1       6.985   9.062  -3.245  1.00  0.00    -0.354 N 
ATOM     31  N   UNL     1       6.264   7.952  -5.860  1.00  0.00    -0.248 NA
ATOM     32  C   UNL     1       6.117   8.145  -8.183  1.00  0.00     0.031 C 
ATOM     33  C   UNL     1       7.979  11.048  -3.184  1.00  0.00     0.029 A 
ATOM     34  C   UNL     1       7.441  10.101  -4.040  1.00  0.00     0.049 A 
ATOM     35  H   UNL     1       6.546   8.245  -3.578  1.00  0.00     0.167 HD
ATOM     36  C   UNL     1       6.809   9.168  -6.250  1.00  0.00     0.074 A 
ATOM     37  C   UNL     1       6.711   9.226  -7.694  1.00  0.00     0.031 C 
ATOM     38  C   UNL     1       7.348  10.143  -5.478  1.00  0.00     0.037 A 
BRANCH  25  39
ATOM     39  C   UNL     1       7.133   8.973   0.589  1.00  0.00     0.057 A 
ATOM     40  C   UNL     1       8.108   8.387   1.405  1.00  0.00     0.134 A 
ATOM     41  C   UNL     1       6.414  10.053   1.118  1.00  0.00     0.134 A 
ATOM     42  F   UNL     1       8.826   7.343   0.965  1.00  0.00    -0.206 F 
ATOM     43  C   UNL     1       8.336   8.835   2.708  1.00  0.00     0.040 A 
ATOM     44  C   UNL     1       6.652  10.528   2.409  1.00  0.00     0.040 A 
ATOM     45  F   UNL     1       5.471  10.668   0.388  1.00  0.00    -0.206 F 
ATOM     46  C   UNL     1       7.609   9.912   3.212  1.00  0.00     0.006 A 
ENDBRANCH  25  39
BRANCH  26  47
ATOM     47  C   UNL     1       4.869   5.507  -8.484  1.00  0.00     0.057 A 
ATOM     48  C   UNL     1       5.838   5.105  -9.408  1.00  0.00     0.134 A 
ATOM     49  C   UNL     1       3.525   5.382  -8.860  1.00  0.00     0.134 A 
ATOM     50  F   UNL     1       7.141   5.218  -9.111  1.00  0.00    -0.206 F 
ATOM     51  C   UNL     1       5.487   4.599 -10.661  1.00  0.00     0.040 A 
ATOM     52  C   UNL     1       3.159   4.856 -10.099  1.00  0.00     0.040 A 
ATOM     53  F   UNL     1       2.549   5.744  -8.014  1.00  0.00    -0.206 F 
ATOM     54  C   UNL     1       4.143   4.465 -11.005  1.00  0.00     0.006 A 
ENDBRANCH  26  47
BRANCH  38  55
ATOM     55  C   UNL     1       7.919  11.342  -6.177  1.00  0.00     0.057 A 
ATOM     56  C   UNL     1       7.104  12.328  -6.745  1.00  0.00     0.134 A 
ATOM     57  C   UNL     1       9.305  11.538  -6.226  1.00  0.00     0.134 A 
ATOM     58  F   UNL     1       5.770  12.193  -6.743  1.00  0.00    -0.206 F 
ATOM     59  C   UNL     1       7.649  13.464  -7.348  1.00  0.00     0.040 A 
ATOM     60  C   UNL     1       9.861  12.680  -6.805  1.00  0.00     0.040 A 
ATOM     61  F   UNL     1      10.141  10.634  -5.694  1.00  0.00    -0.206 F 
ATOM     62  C   UNL     1       9.031  13.646  -7.371  1.00  0.00     0.006 A 
ENDBRANCH  38  55
ENDBRANCH  12  13
ENDBRANCH   5   7
ENDBRANCH   2   3
ENDBRANCH   1   2
BRANCH   1  63
ATOM     63  C   UNL     1       3.838  -1.918   3.471  1.00  0.00     0.117 C 
BRANCH  63  64
ATOM     64  N   UNL     1       4.103  -3.317   3.168  1.00  0.00    -0.356 N 
ATOM     65  C   UNL     1       5.371  -3.838   3.161  1.00  0.00     0.224 C 
ATOM     66  H   UNL     1       3.344  -3.910   2.961  1.00  0.00     0.163 HD
ATOM     67  O   UNL     1       5.782  -4.231   2.072  1.00  0.00    -0.275 OA
BRANCH  65  68
ATOM     68  C   UNL     1       6.207  -3.715   4.428  1.00  0.00     0.098 C 
ATOM     69  C   UNL     1       7.728  -3.571   4.259  1.00  0.00     0.099 C 
ATOM     70  C   UNL     1       6.101  -4.686   5.647  1.00  0.00     0.025 C 
ATOM     71  C   UNL     1       8.302  -4.201   5.554  1.00  0.00     0.025 C 
ATOM     72  C   UNL     1       6.887  -5.981   5.547  1.00  0.00    -0.027 C 
ATOM     73  C   UNL     1       7.140  -3.985   6.554  1.00  0.00     0.017 C 
ATOM     74  C   UNL     1       8.196  -5.690   5.500  1.00  0.00    -0.027 C 
BRANCH  69  75
ATOM     75  C   UNL     1       8.396  -3.858   2.919  1.00  0.00     0.228 C 
ATOM     76  O   UNL     1       8.848  -2.866   2.313  1.00  0.00    -0.274 OA
ATOM     77  N   UNL     1       8.697  -5.038   2.331  1.00  0.00    -0.323 N 
ATOM     78  H   UNL     1       9.344  -4.891   1.603  1.00  0.00     0.170 HD
BRANCH  77  79
ATOM     79  C   UNL     1       8.386  -6.411   2.421  1.00  0.00     0.078 A 
ATOM     80  C   UNL     1       9.445  -7.264   2.067  1.00  0.00     0.029 A 
ATOM     81  C   UNL     1       7.168  -7.019   2.746  1.00  0.00     0.165 A 
ATOM     82  C   UNL     1       9.324  -8.657   2.129  1.00  0.00     0.004 A 
ATOM     83  C   UNL     1       7.035  -8.414   2.788  1.00  0.00     0.078 A 
ATOM     84  F   UNL     1       6.069  -6.315   3.018  1.00  0.00    -0.203 F 
ATOM     85  C   UNL     1       8.116  -9.236   2.499  1.00  0.00     0.024 A 
ATOM     86  Cl  UNL     1       5.525  -9.136   3.213  1.00  0.00    -0.081 Cl
ENDBRANCH  77  79
ENDBRANCH  69  75
ENDBRANCH  65  68
ENDBRANCH  63  64
ENDBRANCH   1  63
TORSDOF 12
