REMARK SMILES Cc1ccc(-c2noc(CCC(=O)NCCCNC(=O)c3ccc(-c4c5nc(c(-c6c(F)cccc6F)c6ccc([nH]6)c(-c6c(F)cccc6F)c6nc(c(-c7c(F)cccc7F)c7ccc4[nH]7)C=C6)C=C5)cc3)n2)cc1C
REMARK SMILES IDX 15 1 14 2 12 3 13 4 11 6 10 7 9 8 6 9 7 10 75 11 8 12 5 13
REMARK SMILES IDX 1 14 2 15 3 16 77 17 4 18 76 19 78 20 16 21 17 22 18 23
REMARK SMILES IDX 19 24 20 26 21 27 22 28 74 29 23 30 73 31 24 32 25 33 26 34
REMARK SMILES IDX 67 35 27 36 72 37 66 38 68 39 28 40 71 41 65 42 64 43 29 45
REMARK SMILES IDX 55 46 38 47 54 48 39 49 42 50 53 51 69 52 40 53 41 54 52 56
REMARK SMILES IDX 70 57 43 58 30 59 31 60 36 61 32 62 33 63 35 64 37 65 34 66
REMARK SMILES IDX 56 67 57 68 62 69 58 70 59 71 61 72 63 73 60 74 44 75 45 76
REMARK SMILES IDX 50 77 46 78 47 79 49 80 51 81 48 82
REMARK H PARENT 14 5 18 25 68 44 42 55
REMARK Flexibility Score: inf
ROOT
ATOM      1  C   UNL     1      -3.907  -4.678  -0.025  1.00  0.00     0.117 C 
ENDROOT
BRANCH   1   2
ATOM      2  N   UNL     1      -5.311  -5.024  -0.164  1.00  0.00    -0.356 N 
ATOM      3  C   UNL     1      -6.229  -4.595  -1.070  1.00  0.00     0.220 C 
ATOM      4  O   UNL     1      -7.408  -4.911  -0.903  1.00  0.00    -0.275 OA
ATOM      5  H   UNL     1      -5.650  -5.668   0.499  1.00  0.00     0.163 HD
BRANCH   3   6
ATOM      6  C   UNL     1      -5.818  -3.749  -2.252  1.00  0.00     0.110 C 
BRANCH   6   7
ATOM      7  C   UNL     1      -6.188  -2.288  -2.046  1.00  0.00     0.110 C 
BRANCH   7   8
ATOM      8  C   UNL     1      -5.158  -1.514  -1.312  1.00  0.00     0.227 A 
ATOM      9  C   UNL     1      -3.477  -0.480  -0.587  1.00  0.00     0.202 A 
ATOM     10  N   UNL     1      -4.508   0.084   0.065  1.00  0.00    -0.057 NA
ATOM     11  N   UNL     1      -3.848  -1.508  -1.432  1.00  0.00    -0.191 NA
ATOM     12  O   UNL     1      -5.620  -0.599  -0.414  1.00  0.00    -0.339 OA
BRANCH   9  13
ATOM     13  C   UNL     1      -2.099  -0.036  -0.429  1.00  0.00     0.023 A 
ATOM     14  C   UNL     1       1.964   1.368   0.100  1.00  0.00     0.044 C 
ATOM     15  C   UNL     1       0.566   0.845  -0.091  1.00  0.00    -0.048 A 
ATOM     16  C   UNL     1      -0.501   1.755  -0.074  1.00  0.00     0.004 A 
ATOM     17  C   UNL     1       0.298  -0.524  -0.285  1.00  0.00    -0.047 A 
ATOM     18  C   UNL     1      -1.818   1.319  -0.232  1.00  0.00     0.012 A 
ATOM     19  C   UNL     1      -1.036  -0.948  -0.462  1.00  0.00     0.015 A 
ATOM     20  C   UNL     1       1.375  -1.576  -0.243  1.00  0.00     0.044 C 
ENDBRANCH   9  13
ENDBRANCH   7   8
ENDBRANCH   6   7
ENDBRANCH   3   6
ENDBRANCH   1   2
BRANCH   1  21
ATOM     21  C   UNL     1      -3.701  -3.679   1.110  1.00  0.00     0.042 C 
BRANCH  21  22
ATOM     22  C   UNL     1      -3.769  -4.311   2.494  1.00  0.00     0.118 C 
BRANCH  22  23
ATOM     23  N   UNL     1      -2.539  -5.016   2.827  1.00  0.00    -0.352 N 
ATOM     24  C   UNL     1      -1.515  -4.673   3.668  1.00  0.00     0.251 C 
ATOM     25  H   UNL     1      -2.426  -5.881   2.371  1.00  0.00     0.163 HD
ATOM     26  O   UNL     1      -0.450  -5.299   3.584  1.00  0.00    -0.269 OA
BRANCH  24  27
ATOM     27  C   UNL     1      -1.637  -3.591   4.673  1.00  0.00     0.039 A 
ATOM     28  C   UNL     1      -0.493  -2.854   5.005  1.00  0.00     0.014 A 
ATOM     29  C   UNL     1      -2.824  -3.355   5.372  1.00  0.00     0.014 A 
ATOM     30  C   UNL     1      -0.544  -1.881   6.009  1.00  0.00     0.010 A 
ATOM     31  C   UNL     1      -2.898  -2.325   6.311  1.00  0.00     0.010 A 
ATOM     32  C   UNL     1      -1.752  -1.599   6.665  1.00  0.00    -0.014 A 
BRANCH  32  33
ATOM     33  C   UNL     1      -1.817  -0.598   7.762  1.00  0.00     0.031 A 
ATOM     34  C   UNL     1      -2.178  -1.026   9.161  1.00  0.00     0.074 A 
ATOM     35  C   UNL     1      -1.604   0.706   7.503  1.00  0.00     0.049 A 
ATOM     36  N   UNL     1      -2.347  -0.295  10.235  1.00  0.00    -0.248 NA
ATOM     37  C   UNL     1      -2.414  -2.463   9.373  1.00  0.00     0.031 C 
ATOM     38  C   UNL     1      -1.310   1.272   6.186  1.00  0.00     0.029 A 
ATOM     39  N   UNL     1      -1.612   1.794   8.340  1.00  0.00    -0.354 N 
ATOM     40  C   UNL     1      -2.753  -1.174  11.232  1.00  0.00     0.074 A 
ATOM     41  C   UNL     1      -2.834  -2.487  10.629  1.00  0.00     0.031 C 
ATOM     42  C   UNL     1      -1.146   2.599   6.306  1.00  0.00     0.029 A 
ATOM     43  C   UNL     1      -1.343   2.980   7.702  1.00  0.00     0.049 A 
ATOM     44  H   UNL     1      -1.793   1.730   9.305  1.00  0.00     0.167 HD
ATOM     45  C   UNL     1      -3.018  -0.919  12.536  1.00  0.00     0.037 A 
ATOM     46  C   UNL     1      -1.262   4.233   8.187  1.00  0.00     0.037 A 
ATOM     47  C   UNL     1      -2.869   0.369  13.159  1.00  0.00     0.049 A 
ATOM     48  C   UNL     1      -1.465   4.480   9.653  1.00  0.00     0.074 A 
ATOM     49  C   UNL     1      -3.018   0.704  14.494  1.00  0.00     0.029 A 
ATOM     50  N   UNL     1      -2.527   1.532  12.490  1.00  0.00    -0.354 N 
ATOM     51  N   UNL     1      -1.782   3.628  10.597  1.00  0.00    -0.248 NA
ATOM     52  C   UNL     1      -1.286   5.862  10.125  1.00  0.00     0.031 C 
ATOM     53  C   UNL     1      -2.783   2.077  14.629  1.00  0.00     0.029 A 
ATOM     54  C   UNL     1      -2.465   2.590  13.382  1.00  0.00     0.049 A 
ATOM     55  H   UNL     1      -2.353   1.598  11.523  1.00  0.00     0.167 HD
ATOM     56  C   UNL     1      -1.831   4.364  11.773  1.00  0.00     0.074 A 
ATOM     57  C   UNL     1      -1.496   5.730  11.428  1.00  0.00     0.031 C 
ATOM     58  C   UNL     1      -2.129   3.943  13.026  1.00  0.00     0.037 A 
BRANCH  45  59
ATOM     59  C   UNL     1      -3.490  -2.067  13.376  1.00  0.00     0.057 A 
ATOM     60  C   UNL     1      -2.626  -3.091  13.784  1.00  0.00     0.134 A 
ATOM     61  C   UNL     1      -4.826  -2.145  13.788  1.00  0.00     0.134 A 
ATOM     62  F   UNL     1      -1.338  -3.081  13.409  1.00  0.00    -0.206 F 
ATOM     63  C   UNL     1      -3.080  -4.169  14.545  1.00  0.00     0.040 A 
ATOM     64  C   UNL     1      -5.287  -3.206  14.569  1.00  0.00     0.040 A 
ATOM     65  F   UNL     1      -5.705  -1.194  13.437  1.00  0.00    -0.206 F 
ATOM     66  C   UNL     1      -4.415  -4.226  14.943  1.00  0.00     0.006 A 
ENDBRANCH  45  59
BRANCH  46  67
ATOM     67  C   UNL     1      -0.931   5.347   7.268  1.00  0.00     0.057 A 
ATOM     68  C   UNL     1       0.356   5.893   7.235  1.00  0.00     0.134 A 
ATOM     69  C   UNL     1      -1.882   5.867   6.383  1.00  0.00     0.134 A 
ATOM     70  F   UNL     1       1.301   5.442   8.073  1.00  0.00    -0.206 F 
ATOM     71  C   UNL     1       0.688   6.923   6.355  1.00  0.00     0.040 A 
ATOM     72  C   UNL     1      -1.559   6.887   5.487  1.00  0.00     0.040 A 
ATOM     73  F   UNL     1      -3.130   5.379   6.367  1.00  0.00    -0.206 F 
ATOM     74  C   UNL     1      -0.270   7.418   5.473  1.00  0.00     0.006 A 
ENDBRANCH  46  67
BRANCH  58  75
ATOM     75  C   UNL     1      -2.093   4.967  14.118  1.00  0.00     0.057 A 
ATOM     76  C   UNL     1      -3.133   5.888  14.292  1.00  0.00     0.134 A 
ATOM     77  C   UNL     1      -1.030   5.004  15.029  1.00  0.00     0.134 A 
ATOM     78  F   UNL     1      -4.172   5.908  13.444  1.00  0.00    -0.206 F 
ATOM     79  C   UNL     1      -3.110   6.822  15.329  1.00  0.00     0.040 A 
ATOM     80  C   UNL     1      -1.005   5.923  16.079  1.00  0.00     0.040 A 
ATOM     81  F   UNL     1      -0.007   4.144  14.917  1.00  0.00    -0.206 F 
ATOM     82  C   UNL     1      -2.046   6.837  16.230  1.00  0.00     0.006 A 
ENDBRANCH  58  75
ENDBRANCH  32  33
ENDBRANCH  24  27
ENDBRANCH  22  23
ENDBRANCH  21  22
ENDBRANCH   1  21
TORSDOF 13
