REMARK SMILES Cc1nc(C(C)C)[nH]c(=O)c1C(=O)N(C)CC(=O)NCCCNC(=O)c1ccc(-c2c3nc(c(-c4c(F)cccc4F)c4ccc([nH]4)c(-c4c(F)cccc4F)c4nc(c(-c5c(F)cccc5F)c5ccc2[nH]5)C=C4)C=C3)cc1
REMARK SMILES IDX 20 1 19 2 17 3 18 4 16 6 14 7 15 8 12 9 13 10 11 11 1 12
REMARK SMILES IDX 2 13 3 14 4 15 9 16 8 17 10 18 5 20 6 21 7 22 21 23 22 24
REMARK SMILES IDX 23 25 24 26 25 28 26 29 27 30 79 31 28 32 78 33 29 34 30 35
REMARK SMILES IDX 31 36 72 37 32 38 77 39 71 40 73 41 33 42 76 43 70 44 69 45
REMARK SMILES IDX 34 47 60 48 43 49 59 50 44 51 47 52 58 53 74 54 45 55 46 56
REMARK SMILES IDX 57 58 75 59 48 60 35 61 36 62 41 63 37 64 38 65 40 66 42 67
REMARK SMILES IDX 39 68 61 69 62 70 67 71 63 72 64 73 66 74 68 75 65 76 49 77
REMARK SMILES IDX 50 78 55 79 51 80 52 81 54 82 56 83 53 84
REMARK H PARENT 19 5 8 19 23 27 73 46 47 57
REMARK Flexibility Score: inf
ROOT
ATOM      1  C   UNL     1      -2.314  -4.457  -2.750  1.00  0.00     0.117 C 
ENDROOT
BRANCH   1   2
ATOM      2  N   UNL     1      -1.080  -5.179  -2.550  1.00  0.00    -0.354 N 
ATOM      3  C   UNL     1      -0.396  -5.418  -1.396  1.00  0.00     0.239 C 
ATOM      4  O   UNL     1       0.499  -6.269  -1.443  1.00  0.00    -0.273 OA
ATOM      5  H   UNL     1      -0.675  -5.554  -3.365  1.00  0.00     0.163 HD
BRANCH   3   6
ATOM      6  C   UNL     1      -0.873  -4.853  -0.046  1.00  0.00     0.219 C 
BRANCH   6   7
ATOM      7  N   UNL     1      -1.261  -3.436   0.107  1.00  0.00    -0.332 N 
ATOM      8  C   UNL     1      -2.396  -3.200   0.984  1.00  0.00     0.147 C 
BRANCH   7   9
ATOM      9  C   UNL     1      -0.321  -2.498  -0.305  1.00  0.00     0.261 C 
ATOM     10  O   UNL     1       0.647  -2.877  -0.974  1.00  0.00    -0.269 OA
BRANCH   9  11
ATOM     11  C   UNL     1      -0.405  -1.019  -0.023  1.00  0.00     0.126 A 
ATOM     12  C   UNL     1      -2.872  -0.576  -0.477  1.00  0.00     0.068 C 
ATOM     13  C   UNL     1      -1.464  -0.180  -0.120  1.00  0.00     0.058 A 
ATOM     14  N   UNL     1      -1.385   1.197   0.000  1.00  0.00    -0.239 NA
ATOM     15  C   UNL     1      -0.222   1.756   0.023  1.00  0.00     0.111 A 
ATOM     16  C   UNL     1       0.909  -0.325   0.194  1.00  0.00     0.264 A 
ATOM     17  N   UNL     1       0.922   1.032   0.052  1.00  0.00    -0.310 N 
ATOM     18  O   UNL     1       1.938  -0.904   0.530  1.00  0.00    -0.269 OA
ATOM     19  H   UNL     1       1.786   1.497  -0.031  1.00  0.00     0.171 HD
BRANCH  15  20
ATOM     20  C   UNL     1      -0.111   3.274   0.013  1.00  0.00     0.049 C 
ATOM     21  C   UNL     1       0.639   3.791   1.236  1.00  0.00     0.016 C 
ATOM     22  C   UNL     1       0.536   3.764  -1.281  1.00  0.00     0.016 C 
ENDBRANCH  15  20
ENDBRANCH   9  11
ENDBRANCH   7   9
ENDBRANCH   6   7
ENDBRANCH   3   6
ENDBRANCH   1   2
BRANCH   1  23
ATOM     23  C   UNL     1      -2.096  -3.095  -3.393  1.00  0.00     0.042 C 
BRANCH  23  24
ATOM     24  C   UNL     1      -1.517  -3.154  -4.800  1.00  0.00     0.118 C 
BRANCH  24  25
ATOM     25  N   UNL     1      -2.425  -3.772  -5.757  1.00  0.00    -0.352 N 
ATOM     26  C   UNL     1      -2.894  -3.293  -6.958  1.00  0.00     0.251 C 
ATOM     27  H   UNL     1      -2.753  -4.666  -5.506  1.00  0.00     0.163 HD
ATOM     28  O   UNL     1      -3.788  -3.885  -7.546  1.00  0.00    -0.269 OA
BRANCH  26  29
ATOM     29  C   UNL     1      -2.331  -2.049  -7.526  1.00  0.00     0.039 A 
ATOM     30  C   UNL     1      -3.199  -1.104  -8.081  1.00  0.00     0.014 A 
ATOM     31  C   UNL     1      -0.954  -1.817  -7.520  1.00  0.00     0.014 A 
ATOM     32  C   UNL     1      -2.691   0.103  -8.567  1.00  0.00     0.010 A 
ATOM     33  C   UNL     1      -0.458  -0.584  -7.930  1.00  0.00     0.010 A 
ATOM     34  C   UNL     1      -1.320   0.387  -8.463  1.00  0.00    -0.014 A 
BRANCH  34  35
ATOM     35  C   UNL     1      -0.750   1.679  -8.922  1.00  0.00     0.031 A 
ATOM     36  C   UNL     1       0.259   1.692 -10.037  1.00  0.00     0.074 A 
ATOM     37  C   UNL     1      -1.078   2.824  -8.290  1.00  0.00     0.049 A 
ATOM     38  N   UNL     1       0.980   2.686 -10.491  1.00  0.00    -0.248 NA
ATOM     39  C   UNL     1       0.511   0.409 -10.715  1.00  0.00     0.031 C 
ATOM     40  C   UNL     1      -2.026   2.942  -7.181  1.00  0.00     0.029 A 
ATOM     41  N   UNL     1      -0.632   4.108  -8.482  1.00  0.00    -0.354 N 
ATOM     42  C   UNL     1       1.776   2.146 -11.494  1.00  0.00     0.074 A 
ATOM     43  C   UNL     1       1.493   0.728 -11.544  1.00  0.00     0.031 C 
ATOM     44  C   UNL     1      -2.101   4.228  -6.801  1.00  0.00     0.029 A 
ATOM     45  C   UNL     1      -1.172   5.017  -7.603  1.00  0.00     0.049 A 
ATOM     46  H   UNL     1       0.015   4.355  -9.182  1.00  0.00     0.167 HD
ATOM     47  C   UNL     1       2.645   2.778 -12.317  1.00  0.00     0.037 A 
ATOM     48  C   UNL     1      -0.930   6.333  -7.452  1.00  0.00     0.037 A 
ATOM     49  C   UNL     1       2.911   4.191 -12.277  1.00  0.00     0.049 A 
ATOM     50  C   UNL     1       0.074   7.003  -8.353  1.00  0.00     0.074 A 
ATOM     51  C   UNL     1       3.759   4.932 -13.082  1.00  0.00     0.029 A 
ATOM     52  N   UNL     1       2.328   5.079 -11.386  1.00  0.00    -0.354 N 
ATOM     53  N   UNL     1       0.791   6.487  -9.322  1.00  0.00    -0.248 NA
ATOM     54  C   UNL     1       0.301   8.440  -8.141  1.00  0.00     0.031 C 
ATOM     55  C   UNL     1       3.719   6.261 -12.652  1.00  0.00     0.029 A 
ATOM     56  C   UNL     1       2.805   6.358 -11.616  1.00  0.00     0.049 A 
ATOM     57  H   UNL     1       1.673   4.835 -10.693  1.00  0.00     0.167 HD
ATOM     58  C   UNL     1       1.513   7.543  -9.865  1.00  0.00     0.074 A 
ATOM     59  C   UNL     1       1.146   8.728  -9.120  1.00  0.00     0.031 C 
ATOM     60  C   UNL     1       2.399   7.533 -10.890  1.00  0.00     0.037 A 
BRANCH  47  61
ATOM     61  C   UNL     1       3.363   1.949 -13.342  1.00  0.00     0.057 A 
ATOM     62  C   UNL     1       2.693   1.400 -14.443  1.00  0.00     0.134 A 
ATOM     63  C   UNL     1       4.745   1.740 -13.258  1.00  0.00     0.134 A 
ATOM     64  F   UNL     1       1.366   1.553 -14.577  1.00  0.00    -0.206 F 
ATOM     65  C   UNL     1       3.367   0.657 -15.413  1.00  0.00     0.040 A 
ATOM     66  C   UNL     1       5.436   1.024 -14.237  1.00  0.00     0.040 A 
ATOM     67  F   UNL     1       5.450   2.244 -12.234  1.00  0.00    -0.206 F 
ATOM     68  C   UNL     1       4.745   0.476 -15.316  1.00  0.00     0.006 A 
ENDBRANCH  47  61
BRANCH  48  69
ATOM     69  C   UNL     1      -1.649   7.122  -6.416  1.00  0.00     0.057 A 
ATOM     70  C   UNL     1      -2.554   8.129  -6.777  1.00  0.00     0.134 A 
ATOM     71  C   UNL     1      -1.417   6.928  -5.050  1.00  0.00     0.134 A 
ATOM     72  F   UNL     1      -2.807   8.376  -8.071  1.00  0.00    -0.206 F 
ATOM     73  C   UNL     1      -3.169   8.939  -5.822  1.00  0.00     0.040 A 
ATOM     74  C   UNL     1      -2.049   7.710  -4.082  1.00  0.00     0.040 A 
ATOM     75  F   UNL     1      -0.570   5.974  -4.633  1.00  0.00    -0.206 F 
ATOM     76  C   UNL     1      -2.917   8.729  -4.468  1.00  0.00     0.006 A 
ENDBRANCH  48  69
BRANCH  60  77
ATOM     77  C   UNL     1       2.976   8.850 -11.323  1.00  0.00     0.057 A 
ATOM     78  C   UNL     1       3.919   9.540 -10.554  1.00  0.00     0.134 A 
ATOM     79  C   UNL     1       2.619   9.402 -12.560  1.00  0.00     0.134 A 
ATOM     80  F   UNL     1       4.294   9.071  -9.354  1.00  0.00    -0.206 F 
ATOM     81  C   UNL     1       4.473  10.745 -10.991  1.00  0.00     0.040 A 
ATOM     82  C   UNL     1       3.188  10.590 -13.021  1.00  0.00     0.040 A 
ATOM     83  F   UNL     1       1.727   8.786 -13.351  1.00  0.00    -0.206 F 
ATOM     84  C   UNL     1       4.114  11.268 -12.232  1.00  0.00     0.006 A 
ENDBRANCH  60  77
ENDBRANCH  34  35
ENDBRANCH  26  29
ENDBRANCH  24  25
ENDBRANCH  23  24
ENDBRANCH   1  23
TORSDOF 14
