REMARK SMILES Cc1ccccc1O[C@H](C)C(=O)Oc1cccc(C(=O)NCCCNC(=O)c2ccc(-c3c4nc(c(-c5c(F)cccc5F)c5ccc([nH]5)c(-c5c(F)cccc5F)c5nc(c(-c6c(F)cccc6F)c6ccc3[nH]6)C=C5)C=C4)cc2)c1
REMARK SMILES IDX 19 1 20 2 21 3 18 5 14 6 15 7 82 8 16 9 17 10 13 11 11 12
REMARK SMILES IDX 12 13 9 14 10 15 8 16 7 17 1 18 2 19 3 20 4 21 6 22 5 23
REMARK SMILES IDX 22 24 23 25 24 26 25 27 26 28 27 30 28 31 29 32 81 33 30 34
REMARK SMILES IDX 80 35 31 36 32 37 33 38 74 39 34 40 79 41 73 42 75 43 35 44
REMARK SMILES IDX 78 45 72 46 71 47 36 49 62 50 45 51 61 52 46 53 49 54 60 55
REMARK SMILES IDX 76 56 47 57 48 58 59 60 77 61 50 62 37 63 38 64 43 65 39 66
REMARK SMILES IDX 40 67 42 68 44 69 41 70 63 71 64 72 69 73 65 74 66 75 68 76
REMARK SMILES IDX 70 77 67 78 51 79 52 80 57 81 53 82 54 83 56 84 58 85 55 86
REMARK H PARENT 21 4 25 29 75 48 49 59
REMARK Flexibility Score: inf
ROOT
ATOM      1  C   UNL     1       1.830  -2.093  -5.379  1.00  0.00     0.251 C 
ATOM      2  O   UNL     1       0.763  -2.437  -4.871  1.00  0.00    -0.269 OA
ATOM      3  N   UNL     1       2.069  -2.450  -6.685  1.00  0.00    -0.352 N 
ATOM      4  H   UNL     1       1.385  -3.038  -7.078  1.00  0.00     0.163 HD
ENDROOT
BRANCH   1   5
ATOM      5  C   UNL     1       2.784  -1.289  -4.565  1.00  0.00     0.043 A 
ATOM      6  C   UNL     1       3.085   0.298  -2.754  1.00  0.00     0.131 A 
ATOM      7  C   UNL     1       4.468   0.182  -2.854  1.00  0.00     0.047 A 
ATOM      8  C   UNL     1       2.243  -0.434  -3.596  1.00  0.00     0.061 A 
ATOM      9  C   UNL     1       5.012  -0.672  -3.807  1.00  0.00     0.005 A 
ATOM     10  C   UNL     1       4.175  -1.416  -4.641  1.00  0.00     0.014 A 
BRANCH   6  11
ATOM     11  O   UNL     1       2.434   1.036  -1.740  1.00  0.00    -0.424 OA
BRANCH  11  12
ATOM     12  C   UNL     1       3.045   2.030  -0.978  1.00  0.00     0.352 C 
ATOM     13  O   UNL     1       4.114   2.574  -1.236  1.00  0.00    -0.247 OA
BRANCH  12  14
ATOM     14  C   UNL     1       2.181   2.379   0.247  1.00  0.00     0.280 C 
ATOM     15  C   UNL     1       0.724   2.680  -0.092  1.00  0.00     0.066 C 
BRANCH  14  16
ATOM     16  O   UNL     1       2.309   1.630   1.449  1.00  0.00    -0.479 OA
BRANCH  16  17
ATOM     17  C   UNL     1       2.284   0.267   1.478  1.00  0.00     0.123 A 
ATOM     18  C   UNL     1       3.704   0.461   3.588  1.00  0.00     0.048 C 
ATOM     19  C   UNL     1       2.979  -0.341   2.541  1.00  0.00    -0.009 A 
ATOM     20  C   UNL     1       2.955  -1.740   2.680  1.00  0.00     0.007 A 
ATOM     21  C   UNL     1       2.261  -2.533   1.771  1.00  0.00     0.001 A 
ATOM     22  C   UNL     1       1.563  -0.540   0.597  1.00  0.00     0.047 A 
ATOM     23  C   UNL     1       1.564  -1.932   0.731  1.00  0.00     0.004 A 
ENDBRANCH  16  17
ENDBRANCH  14  16
ENDBRANCH  12  14
ENDBRANCH  11  12
ENDBRANCH   6  11
ENDBRANCH   1   5
BRANCH   3  24
ATOM     24  C   UNL     1       3.158  -2.107  -7.586  1.00  0.00     0.118 C 
BRANCH  24  25
ATOM     25  C   UNL     1       4.246  -3.180  -7.580  1.00  0.00     0.042 C 
BRANCH  25  26
ATOM     26  C   UNL     1       4.036  -4.274  -8.613  1.00  0.00     0.118 C 
BRANCH  26  27
ATOM     27  N   UNL     1       4.805  -4.091  -9.841  1.00  0.00    -0.352 N 
ATOM     28  C   UNL     1       4.810  -4.883 -10.980  1.00  0.00     0.251 C 
ATOM     29  H   UNL     1       5.396  -3.305  -9.863  1.00  0.00     0.163 HD
ATOM     30  O   UNL     1       5.488  -4.585 -11.949  1.00  0.00    -0.269 OA
BRANCH  28  31
ATOM     31  C   UNL     1       3.866  -6.023 -11.042  1.00  0.00     0.039 A 
ATOM     32  C   UNL     1       2.940  -6.039 -12.088  1.00  0.00     0.014 A 
ATOM     33  C   UNL     1       3.718  -6.865  -9.944  1.00  0.00     0.014 A 
ATOM     34  C   UNL     1       1.727  -6.694 -11.901  1.00  0.00     0.010 A 
ATOM     35  C   UNL     1       2.474  -7.416  -9.710  1.00  0.00     0.010 A 
ATOM     36  C   UNL     1       1.454  -7.262 -10.658  1.00  0.00    -0.014 A 
BRANCH  36  37
ATOM     37  C   UNL     1       0.101  -7.577 -10.213  1.00  0.00     0.031 A 
ATOM     38  C   UNL     1      -0.325  -8.973 -10.005  1.00  0.00     0.074 A 
ATOM     39  C   UNL     1      -0.756  -6.577  -9.902  1.00  0.00     0.049 A 
ATOM     40  N   UNL     1      -1.557  -9.357 -10.005  1.00  0.00    -0.248 NA
ATOM     41  C   UNL     1       0.615 -10.068  -9.819  1.00  0.00     0.031 C 
ATOM     42  C   UNL     1      -2.018  -6.689  -9.173  1.00  0.00     0.029 A 
ATOM     43  N   UNL     1      -0.758  -5.264 -10.397  1.00  0.00    -0.354 N 
ATOM     44  C   UNL     1      -1.597 -10.642  -9.519  1.00  0.00     0.074 A 
ATOM     45  C   UNL     1      -0.214 -11.064  -9.496  1.00  0.00     0.031 C 
ATOM     46  C   UNL     1      -2.803  -5.654  -9.506  1.00  0.00     0.029 A 
ATOM     47  C   UNL     1      -2.120  -4.920 -10.553  1.00  0.00     0.049 A 
ATOM     48  H   UNL     1       0.025  -4.701 -10.595  1.00  0.00     0.167 HD
ATOM     49  C   UNL     1      -2.783 -11.139  -9.061  1.00  0.00     0.037 A 
ATOM     50  C   UNL     1      -2.650  -4.623 -11.771  1.00  0.00     0.037 A 
ATOM     51  C   UNL     1      -3.890 -10.205  -9.301  1.00  0.00     0.049 A 
ATOM     52  C   UNL     1      -3.816  -5.488 -12.191  1.00  0.00     0.074 A 
ATOM     53  C   UNL     1      -4.628  -9.354  -8.492  1.00  0.00     0.029 A 
ATOM     54  N   UNL     1      -4.211  -9.852 -10.607  1.00  0.00    -0.354 N 
ATOM     55  N   UNL     1      -4.198  -6.578 -11.588  1.00  0.00    -0.248 NA
ATOM     56  C   UNL     1      -4.597  -5.218 -13.389  1.00  0.00     0.031 C 
ATOM     57  C   UNL     1      -5.439  -8.532  -9.320  1.00  0.00     0.029 A 
ATOM     58  C   UNL     1      -5.184  -8.870 -10.636  1.00  0.00     0.049 A 
ATOM     59  H   UNL     1      -3.798 -10.250 -11.407  1.00  0.00     0.167 HD
ATOM     60  C   UNL     1      -5.201  -7.192 -12.310  1.00  0.00     0.074 A 
ATOM     61  C   UNL     1      -5.411  -6.286 -13.425  1.00  0.00     0.031 C 
ATOM     62  C   UNL     1      -5.714  -8.406 -11.919  1.00  0.00     0.037 A 
BRANCH  49  63
ATOM     63  C   UNL     1      -2.888 -12.350  -8.149  1.00  0.00     0.057 A 
ATOM     64  C   UNL     1      -3.942 -12.475  -7.221  1.00  0.00     0.134 A 
ATOM     65  C   UNL     1      -1.954 -13.399  -8.089  1.00  0.00     0.134 A 
ATOM     66  F   UNL     1      -4.995 -11.650  -7.227  1.00  0.00    -0.206 F 
ATOM     67  C   UNL     1      -3.978 -13.466  -6.229  1.00  0.00     0.040 A 
ATOM     68  C   UNL     1      -1.945 -14.364  -7.070  1.00  0.00     0.040 A 
ATOM     69  F   UNL     1      -1.047 -13.587  -9.054  1.00  0.00    -0.206 F 
ATOM     70  C   UNL     1      -2.952 -14.389  -6.119  1.00  0.00     0.006 A 
ENDBRANCH  49  63
BRANCH  50  71
ATOM     71  C   UNL     1      -1.675  -3.997 -12.701  1.00  0.00     0.057 A 
ATOM     72  C   UNL     1      -1.165  -2.725 -12.390  1.00  0.00     0.134 A 
ATOM     73  C   UNL     1      -0.981  -4.748 -13.652  1.00  0.00     0.134 A 
ATOM     74  F   UNL     1      -1.785  -1.953 -11.483  1.00  0.00    -0.206 F 
ATOM     75  C   UNL     1       0.043  -2.265 -12.918  1.00  0.00     0.040 A 
ATOM     76  C   UNL     1       0.227  -4.294 -14.196  1.00  0.00     0.040 A 
ATOM     77  F   UNL     1      -1.393  -5.981 -13.982  1.00  0.00    -0.206 F 
ATOM     78  C   UNL     1       0.760  -3.067 -13.800  1.00  0.00     0.006 A 
ENDBRANCH  50  71
BRANCH  62  79
ATOM     79  C   UNL     1      -6.723  -9.314 -12.636  1.00  0.00     0.057 A 
ATOM     80  C   UNL     1      -7.496  -8.984 -13.757  1.00  0.00     0.134 A 
ATOM     81  C   UNL     1      -6.955 -10.639 -12.171  1.00  0.00     0.134 A 
ATOM     82  F   UNL     1      -7.521  -7.754 -14.272  1.00  0.00    -0.206 F 
ATOM     83  C   UNL     1      -8.348  -9.898 -14.406  1.00  0.00     0.040 A 
ATOM     84  C   UNL     1      -7.810 -11.555 -12.799  1.00  0.00     0.040 A 
ATOM     85  F   UNL     1      -6.370 -11.130 -11.070  1.00  0.00    -0.206 F 
ATOM     86  C   UNL     1      -8.501 -11.192 -13.936  1.00  0.00     0.006 A 
ENDBRANCH  62  79
ENDBRANCH  36  37
ENDBRANCH  28  31
ENDBRANCH  26  27
ENDBRANCH  25  26
ENDBRANCH  24  25
ENDBRANCH   3  24
TORSDOF 15
