REMARK SMILES Cc1ccc(S(=O)(=O)n2cc(C(=O)C(=O)NCC(=O)NCCCNC(=O)c3ccc(-c4c5nc(c(-c6c(F)cccc6F)c6ccc([nH]6)c(-c6c(F)cccc6F)c6nc(c(-c7c(F)cccc7F)c7ccc4[nH]7)C=C6)C=C5)cc3)c3ccccc32)cc1
REMARK SMILES IDX 18 1 19 2 20 3 17 5 16 6 14 7 15 8 12 10 13 11 11 12 9 13
REMARK SMILES IDX 10 14 86 15 81 16 85 17 82 18 84 19 83 20 6 21 7 22 8 23
REMARK SMILES IDX 5 24 1 25 2 26 3 27 88 28 4 29 87 30 21 31 22 32 23 33 24 34
REMARK SMILES IDX 25 35 26 37 27 38 28 39 80 40 29 41 79 42 30 43 31 44 32 45
REMARK SMILES IDX 73 46 33 47 78 48 72 49 74 50 34 51 77 52 71 53 70 54 35 56
REMARK SMILES IDX 61 57 44 58 60 59 45 60 48 61 59 62 75 63 46 64 47 65 58 67
REMARK SMILES IDX 76 68 49 69 36 70 37 71 42 72 38 73 39 74 41 75 43 76 40 77
REMARK SMILES IDX 62 78 63 79 68 80 64 81 65 82 67 83 69 84 66 85 50 86 51 87
REMARK SMILES IDX 56 88 52 89 53 90 55 91 57 92 54 93
REMARK H PARENT 20 4 16 9 24 36 74 55 48 66
REMARK Flexibility Score: inf
ROOT
ATOM      1  C   UNL     1      -9.239   6.555   2.839  1.00  0.00     0.239 C 
ATOM      2  O   UNL     1      -9.937   7.261   3.567  1.00  0.00    -0.273 OA
ATOM      3  N   UNL     1      -9.819   5.968   1.748  1.00  0.00    -0.355 N 
ATOM      4  H   UNL     1     -10.782   6.137   1.633  1.00  0.00     0.163 HD
ENDROOT
BRANCH   1   5
ATOM      5  C   UNL     1      -7.740   6.372   3.102  1.00  0.00     0.216 C 
BRANCH   5   6
ATOM      6  N   UNL     1      -7.393   4.991   3.421  1.00  0.00    -0.340 N 
ATOM      7  C   UNL     1      -6.506   4.112   2.837  1.00  0.00     0.292 C 
ATOM      8  O   UNL     1      -6.415   2.982   3.305  1.00  0.00    -0.265 OA
ATOM      9  H   UNL     1      -7.880   4.620   4.192  1.00  0.00     0.164 HD
BRANCH   7  10
ATOM     10  C   UNL     1      -5.669   4.515   1.595  1.00  0.00     0.252 C 
ATOM     11  O   UNL     1      -5.542   5.710   1.346  1.00  0.00    -0.283 OA
BRANCH  10  12
ATOM     12  C   UNL     1      -5.047   3.511   0.713  1.00  0.00     0.054 A 
ATOM     13  N   UNL     1      -4.170   1.616  -0.086  1.00  0.00    -0.240 N 
ATOM     14  C   UNL     1      -4.845   2.167   0.974  1.00  0.00     0.117 A 
ATOM     15  C   UNL     1      -3.942   2.550  -1.073  1.00  0.00     0.065 A 
ATOM     16  C   UNL     1      -4.483   3.752  -0.594  1.00  0.00     0.012 A 
ATOM     17  C   UNL     1      -3.285   2.473  -2.316  1.00  0.00     0.028 A 
ATOM     18  C   UNL     1      -4.373   4.904  -1.407  1.00  0.00     0.011 A 
ATOM     19  C   UNL     1      -3.169   3.636  -3.079  1.00  0.00     0.002 A 
ATOM     20  C   UNL     1      -3.712   4.835  -2.637  1.00  0.00     0.001 A 
BRANCH  13  21
ATOM     21  S   UNL     1      -3.586   0.014  -0.106  1.00  0.00     0.268 S 
ATOM     22  O   UNL     1      -3.929  -0.500  -1.414  1.00  0.00    -0.201 OA
ATOM     23  O   UNL     1      -4.082  -0.598   1.117  1.00  0.00    -0.201 OA
BRANCH  21  24
ATOM     24  C   UNL     1      -1.817   0.069   0.014  1.00  0.00     0.088 A 
ATOM     25  C   UNL     1       2.486  -0.044   0.021  1.00  0.00     0.044 C 
ATOM     26  C   UNL     1       0.986   0.000   0.039  1.00  0.00    -0.051 A 
ATOM     27  C   UNL     1       0.251  -1.189  -0.038  1.00  0.00     0.005 A 
ATOM     28  C   UNL     1       0.303   1.219   0.134  1.00  0.00     0.005 A 
ATOM     29  C   UNL     1      -1.144  -1.157  -0.057  1.00  0.00     0.022 A 
ATOM     30  C   UNL     1      -1.095   1.258   0.134  1.00  0.00     0.022 A 
ENDBRANCH  21  24
ENDBRANCH  13  21
ENDBRANCH  10  12
ENDBRANCH   7  10
ENDBRANCH   5   6
ENDBRANCH   1   5
BRANCH   3  31
ATOM     31  C   UNL     1      -9.200   5.130   0.739  1.00  0.00     0.117 C 
BRANCH  31  32
ATOM     32  C   UNL     1      -9.362   3.652   1.061  1.00  0.00     0.042 C 
BRANCH  32  33
ATOM     33  C   UNL     1     -10.694   3.092   0.592  1.00  0.00     0.118 C 
BRANCH  33  34
ATOM     34  N   UNL     1     -10.700   2.733  -0.826  1.00  0.00    -0.352 N 
ATOM     35  C   UNL     1     -11.635   2.054  -1.588  1.00  0.00     0.251 C 
ATOM     36  H   UNL     1      -9.902   3.025  -1.324  1.00  0.00     0.163 HD
ATOM     37  O   UNL     1     -11.424   1.880  -2.785  1.00  0.00    -0.269 OA
BRANCH  35  38
ATOM     38  C   UNL     1     -12.967   1.729  -1.024  1.00  0.00     0.039 A 
ATOM     39  C   UNL     1     -14.065   2.102  -1.811  1.00  0.00     0.014 A 
ATOM     40  C   UNL     1     -13.110   1.547   0.342  1.00  0.00     0.014 A 
ATOM     41  C   UNL     1     -15.162   2.674  -1.190  1.00  0.00     0.010 A 
ATOM     42  C   UNL     1     -14.101   2.262   0.958  1.00  0.00     0.010 A 
ATOM     43  C   UNL     1     -15.073   2.890   0.176  1.00  0.00    -0.014 A 
BRANCH  43  44
ATOM     44  C   UNL     1     -16.002   3.693   0.931  1.00  0.00     0.031 A 
ATOM     45  C   UNL     1     -17.095   2.974   1.590  1.00  0.00     0.074 A 
ATOM     46  C   UNL     1     -15.716   4.996   1.146  1.00  0.00     0.049 A 
ATOM     47  N   UNL     1     -18.133   3.548   2.072  1.00  0.00    -0.248 NA
ATOM     48  C   UNL     1     -17.139   1.514   1.694  1.00  0.00     0.031 C 
ATOM     49  C   UNL     1     -16.280   5.896   2.144  1.00  0.00     0.029 A 
ATOM     50  N   UNL     1     -14.952   5.836   0.324  1.00  0.00    -0.354 N 
ATOM     51  C   UNL     1     -18.776   2.612   2.844  1.00  0.00     0.074 A 
ATOM     52  C   UNL     1     -18.245   1.344   2.424  1.00  0.00     0.031 C 
ATOM     53  C   UNL     1     -16.111   7.165   1.728  1.00  0.00     0.029 A 
ATOM     54  C   UNL     1     -15.592   7.100   0.372  1.00  0.00     0.049 A 
ATOM     55  H   UNL     1     -14.140   5.598  -0.180  1.00  0.00     0.167 HD
ATOM     56  C   UNL     1     -19.551   3.069   3.863  1.00  0.00     0.037 A 
ATOM     57  C   UNL     1     -16.235   7.575  -0.740  1.00  0.00     0.037 A 
ATOM     58  C   UNL     1     -19.732   4.519   3.741  1.00  0.00     0.049 A 
ATOM     59  C   UNL     1     -17.742   7.683  -0.570  1.00  0.00     0.074 A 
ATOM     60  C   UNL     1     -19.205   5.631   4.371  1.00  0.00     0.029 A 
ATOM     61  N   UNL     1     -20.330   4.986   2.587  1.00  0.00    -0.354 N 
ATOM     62  N   UNL     1     -18.397   7.223   0.463  1.00  0.00    -0.248 NA
ATOM     63  C   UNL     1     -18.639   8.261  -1.570  1.00  0.00     0.031 C 
ATOM     64  C   UNL     1     -19.448   6.764   3.526  1.00  0.00     0.029 A 
ATOM     65  C   UNL     1     -20.156   6.340   2.414  1.00  0.00     0.049 A 
ATOM     66  H   UNL     1     -20.826   4.414   1.958  1.00  0.00     0.167 HD
ATOM     67  C   UNL     1     -19.743   7.383   0.278  1.00  0.00     0.074 A 
ATOM     68  C   UNL     1     -19.846   8.027  -1.021  1.00  0.00     0.031 C 
ATOM     69  C   UNL     1     -20.666   6.945   1.188  1.00  0.00     0.037 A 
BRANCH  56  70
ATOM     70  C   UNL     1     -20.017   2.271   5.054  1.00  0.00     0.057 A 
ATOM     71  C   UNL     1     -20.850   2.886   6.007  1.00  0.00     0.134 A 
ATOM     72  C   UNL     1     -19.620   0.962   5.391  1.00  0.00     0.134 A 
ATOM     73  F   UNL     1     -21.320   4.129   5.827  1.00  0.00    -0.206 F 
ATOM     74  C   UNL     1     -21.231   2.265   7.204  1.00  0.00     0.040 A 
ATOM     75  C   UNL     1     -20.030   0.313   6.564  1.00  0.00     0.040 A 
ATOM     76  F   UNL     1     -18.775   0.244   4.646  1.00  0.00    -0.206 F 
ATOM     77  C   UNL     1     -20.825   0.970   7.485  1.00  0.00     0.006 A 
ENDBRANCH  56  70
BRANCH  57  78
ATOM     78  C   UNL     1     -15.514   7.173  -1.988  1.00  0.00     0.057 A 
ATOM     79  C   UNL     1     -14.179   7.604  -2.137  1.00  0.00     0.134 A 
ATOM     80  C   UNL     1     -15.894   6.035  -2.704  1.00  0.00     0.134 A 
ATOM     81  F   UNL     1     -13.751   8.705  -1.499  1.00  0.00    -0.206 F 
ATOM     82  C   UNL     1     -13.222   6.824  -2.794  1.00  0.00     0.040 A 
ATOM     83  C   UNL     1     -14.947   5.267  -3.395  1.00  0.00     0.040 A 
ATOM     84  F   UNL     1     -17.148   5.565  -2.627  1.00  0.00    -0.206 F 
ATOM     85  C   UNL     1     -13.599   5.623  -3.382  1.00  0.00     0.006 A 
ENDBRANCH  57  78
BRANCH  69  86
ATOM     86  C   UNL     1     -22.158   7.026   0.980  1.00  0.00     0.057 A 
ATOM     87  C   UNL     1     -22.794   8.174   0.496  1.00  0.00     0.134 A 
ATOM     88  C   UNL     1     -23.024   5.978   1.369  1.00  0.00     0.134 A 
ATOM     89  F   UNL     1     -22.092   9.268   0.169  1.00  0.00    -0.206 F 
ATOM     90  C   UNL     1     -24.187   8.252   0.354  1.00  0.00     0.040 A 
ATOM     91  C   UNL     1     -24.415   6.070   1.299  1.00  0.00     0.040 A 
ATOM     92  F   UNL     1     -22.567   4.796   1.804  1.00  0.00    -0.206 F 
ATOM     93  C   UNL     1     -25.003   7.204   0.769  1.00  0.00     0.006 A 
ENDBRANCH  69  86
ENDBRANCH  43  44
ENDBRANCH  35  38
ENDBRANCH  33  34
ENDBRANCH  32  33
ENDBRANCH  31  32
ENDBRANCH   3  31
TORSDOF 15
