REMARK SMILES O=C(NCCCNC(=O)c1cnc2sc(N3CCCCCC3)nn2c1=O)c1ccc(-c2c3nc(c(-c4c(F)cccc4F)c4ccc([nH]4)c(-c4c(F)cccc4F)c4nc(c(-c5c(F)cccc5F)c5ccc2[nH]5)C=C4)C=C3)cc1
REMARK SMILES IDX 6 1 5 2 4 3 3 4 1 5 2 6 27 8 28 9 80 10 29 11 79 12 30 13
REMARK SMILES IDX 31 14 32 15 73 16 33 17 78 18 72 19 74 20 34 21 77 22 71 23
REMARK SMILES IDX 70 24 35 26 61 27 44 28 60 29 45 30 48 31 59 32 75 33 46 34
REMARK SMILES IDX 47 35 58 37 76 38 49 39 36 40 37 41 42 42 38 43 39 44 41 45
REMARK SMILES IDX 43 46 40 47 62 48 63 49 68 50 64 51 65 52 67 53 69 54 66 55
REMARK SMILES IDX 50 56 51 57 56 58 52 59 53 60 55 61 57 62 54 63 7 64 8 65
REMARK SMILES IDX 9 67 10 68 11 69 25 70 12 71 24 72 26 73 13 74 23 75 14 76
REMARK SMILES IDX 15 77 16 78 17 79 18 80 19 81 22 83 21 84 20 85
REMARK H PARENT 3 7 74 25 48 36 7 66
REMARK Flexibility Score: 90.00
ROOT
ATOM      1  C   UNL     1       4.142   2.016  -3.528  1.00  0.00     0.118 C 
ENDROOT
BRANCH   1   2
ATOM      2  C   UNL     1       4.713   0.928  -2.631  1.00  0.00     0.042 C 
BRANCH   2   3
ATOM      3  C   UNL     1       4.410   1.131  -1.153  1.00  0.00     0.118 C 
BRANCH   3   4
ATOM      4  N   UNL     1       2.995   0.979  -0.837  1.00  0.00    -0.352 N 
ATOM      5  O   UNL     1       1.122   0.017  -0.037  1.00  0.00    -0.269 OA
ATOM      6  C   UNL     1       2.350   0.061  -0.042  1.00  0.00     0.251 C 
ATOM      7  H   UNL     1       2.404   1.643  -1.261  1.00  0.00     0.163 HD
BRANCH   6   8
ATOM      8  C   UNL     1       3.120  -0.892   0.788  1.00  0.00     0.039 A 
ATOM      9  C   UNL     1       4.269  -0.486   1.463  1.00  0.00     0.014 A 
ATOM     10  C   UNL     1       2.669  -2.211   0.918  1.00  0.00     0.014 A 
ATOM     11  C   UNL     1       5.061  -1.426   2.108  1.00  0.00     0.010 A 
ATOM     12  C   UNL     1       3.409  -3.135   1.667  1.00  0.00     0.010 A 
ATOM     13  C   UNL     1       4.632  -2.758   2.239  1.00  0.00    -0.014 A 
BRANCH  13  14
ATOM     14  C   UNL     1       5.463  -3.691   3.044  1.00  0.00     0.031 A 
ATOM     15  C   UNL     1       6.121  -4.894   2.429  1.00  0.00     0.074 A 
ATOM     16  C   UNL     1       5.684  -3.387   4.339  1.00  0.00     0.049 A 
ATOM     17  N   UNL     1       6.956  -5.742   2.978  1.00  0.00    -0.248 NA
ATOM     18  C   UNL     1       5.801  -5.195   1.026  1.00  0.00     0.031 C 
ATOM     19  C   UNL     1       5.074  -2.261   5.054  1.00  0.00     0.029 A 
ATOM     20  N   UNL     1       6.509  -3.962   5.270  1.00  0.00    -0.354 N 
ATOM     21  C   UNL     1       7.251  -6.679   1.997  1.00  0.00     0.074 A 
ATOM     22  C   UNL     1       6.484  -6.314   0.824  1.00  0.00     0.031 C 
ATOM     23  C   UNL     1       5.602  -2.182   6.283  1.00  0.00     0.029 A 
ATOM     24  C   UNL     1       6.537  -3.285   6.466  1.00  0.00     0.049 A 
ATOM     25  H   UNL     1       7.030  -4.779   5.100  1.00  0.00     0.167 HD
ATOM     26  C   UNL     1       8.092  -7.739   2.066  1.00  0.00     0.037 A 
ATOM     27  C   UNL     1       7.236  -3.524   7.590  1.00  0.00     0.037 A 
ATOM     28  C   UNL     1       8.863  -8.093   3.231  1.00  0.00     0.049 A 
ATOM     29  C   UNL     1       8.172  -4.693   7.629  1.00  0.00     0.074 A 
ATOM     30  C   UNL     1       9.747  -9.146   3.395  1.00  0.00     0.029 A 
ATOM     31  N   UNL     1       8.845  -7.398   4.432  1.00  0.00    -0.354 N 
ATOM     32  N   UNL     1       8.450  -5.559   6.685  1.00  0.00    -0.248 NA
ATOM     33  C   UNL     1       8.889  -4.923   8.890  1.00  0.00     0.031 C 
ATOM     34  C   UNL     1      10.242  -9.105   4.704  1.00  0.00     0.029 A 
ATOM     35  C   UNL     1       9.695  -8.005   5.343  1.00  0.00     0.049 A 
ATOM     36  H   UNL     1       8.308  -6.592   4.610  1.00  0.00     0.167 HD
ATOM     37  C   UNL     1       9.368  -6.438   7.237  1.00  0.00     0.074 A 
ATOM     38  C   UNL     1       9.632  -5.977   8.586  1.00  0.00     0.031 C 
ATOM     39  C   UNL     1       9.933  -7.538   6.684  1.00  0.00     0.037 A 
BRANCH  26  40
ATOM     40  C   UNL     1       8.225  -8.604   0.846  1.00  0.00     0.057 A 
ATOM     41  C   UNL     1       8.941  -8.181  -0.281  1.00  0.00     0.134 A 
ATOM     42  C   UNL     1       7.687  -9.897   0.822  1.00  0.00     0.134 A 
ATOM     43  F   UNL     1       9.472  -6.950  -0.327  1.00  0.00    -0.206 F 
ATOM     44  C   UNL     1       9.108  -9.010  -1.393  1.00  0.00     0.040 A 
ATOM     45  C   UNL     1       7.865 -10.742  -0.275  1.00  0.00     0.040 A 
ATOM     46  F   UNL     1       6.995 -10.366   1.872  1.00  0.00    -0.206 F 
ATOM     47  C   UNL     1       8.576 -10.298  -1.388  1.00  0.00     0.006 A 
ENDBRANCH  26  40
BRANCH  27  48
ATOM     48  C   UNL     1       7.065  -2.637   8.767  1.00  0.00     0.057 A 
ATOM     49  C   UNL     1       8.089  -1.784   9.192  1.00  0.00     0.134 A 
ATOM     50  C   UNL     1       5.864  -2.616   9.488  1.00  0.00     0.134 A 
ATOM     51  F   UNL     1       9.267  -1.772   8.551  1.00  0.00    -0.206 F 
ATOM     52  C   UNL     1       7.932  -0.952  10.301  1.00  0.00     0.040 A 
ATOM     53  C   UNL     1       5.683  -1.769  10.581  1.00  0.00     0.040 A 
ATOM     54  F   UNL     1       4.842  -3.403   9.124  1.00  0.00    -0.206 F 
ATOM     55  C   UNL     1       6.723  -0.938  10.995  1.00  0.00     0.006 A 
ENDBRANCH  27  48
BRANCH  39  56
ATOM     56  C   UNL     1      10.887  -8.308   7.547  1.00  0.00     0.057 A 
ATOM     57  C   UNL     1      10.435  -9.096   8.614  1.00  0.00     0.134 A 
ATOM     58  C   UNL     1      12.265  -8.260   7.312  1.00  0.00     0.134 A 
ATOM     59  F   UNL     1       9.126  -9.169   8.899  1.00  0.00    -0.206 F 
ATOM     60  C   UNL     1      11.326  -9.784   9.438  1.00  0.00     0.040 A 
ATOM     61  C   UNL     1      13.164  -8.963   8.115  1.00  0.00     0.040 A 
ATOM     62  F   UNL     1      12.760  -7.529   6.302  1.00  0.00    -0.206 F 
ATOM     63  C   UNL     1      12.696  -9.721   9.187  1.00  0.00     0.006 A 
ENDBRANCH  39  56
ENDBRANCH  13  14
ENDBRANCH   6   8
ENDBRANCH   3   4
ENDBRANCH   2   3
ENDBRANCH   1   2
BRANCH   1  64
ATOM     64  N   UNL     1       4.751   3.317  -3.275  1.00  0.00    -0.352 N 
ATOM     65  C   UNL     1       5.651   4.022  -4.024  1.00  0.00     0.258 C 
ATOM     66  H   UNL     1       4.471   3.753  -2.438  1.00  0.00     0.163 HD
ATOM     67  O   UNL     1       6.141   5.057  -3.581  1.00  0.00    -0.269 OA
BRANCH  65  68
ATOM     68  C   UNL     1       6.090   3.458  -5.309  1.00  0.00     0.125 A 
ATOM     69  C   UNL     1       7.389   3.145  -5.445  1.00  0.00     0.134 A 
ATOM     70  C   UNL     1       5.161   3.142  -6.418  1.00  0.00     0.288 A 
ATOM     71  N   UNL     1       7.928   2.441  -6.497  1.00  0.00    -0.226 NA
ATOM     72  N   UNL     1       5.747   2.392  -7.418  1.00  0.00    -0.165 N 
ATOM     73  O   UNL     1       3.982   3.486  -6.379  1.00  0.00    -0.266 OA
ATOM     74  C   UNL     1       7.078   2.074  -7.397  1.00  0.00     0.217 A 
ATOM     75  N   UNL     1       5.007   1.874  -8.449  1.00  0.00    -0.133 NA
ATOM     76  S   UNL     1       7.455   1.050  -8.734  1.00  0.00    -0.057 S 
ATOM     77  C   UNL     1       5.756   1.116  -9.192  1.00  0.00     0.208 A 
BRANCH  77  78
ATOM     78  N   UNL     1       5.315   0.404 -10.286  1.00  0.00    -0.347 N 
BRANCH  78  79
ATOM     79  C   UNL     1       5.735  -0.973 -10.529  1.00  0.00     0.119 C 
BRANCH  79  80
ATOM     80  C   UNL     1       6.796  -1.036 -11.620  1.00  0.00     0.021 C 
BRANCH  80  81
ATOM     81  C   UNL     1       6.261  -0.780 -13.027  1.00  0.00     0.002 CG0
ATOM     82  G   UNL     1       5.468   0.518 -13.194  1.00  0.00     0.000 G0
ENDBRANCH  80  81
ENDBRANCH  79  80
ENDBRANCH  78  79
BRANCH  78  83
ATOM     83  C   UNL     1       4.147   0.897 -11.016  1.00  0.00     0.119 C 
BRANCH  83  84
ATOM     84  C   UNL     1       4.112   0.479 -12.486  1.00  0.00     0.021 C 
BRANCH  84  85
ATOM     85  C   UNL     1       5.468   0.518 -13.194  1.00  0.00     0.002 CG0
ATOM     86  G   UNL     1       6.261  -0.780 -13.027  1.00  0.00     0.000 G0
ENDBRANCH  84  85
ENDBRANCH  83  84
ENDBRANCH  78  83
ENDBRANCH  77  78
ENDBRANCH  65  68
ENDBRANCH   1  64
TORSDOF 11
