REMARK SMILES CSc1cccc(NC(=O)N[C@@H]2C=C[C@@H](C(=O)NCCCNC(=O)c3ccc(-c4c5nc(c(-c6c(F)cccc6F)c6ccc([nH]6)c(-c6c(F)cccc6F)c6nc(c(-c7c(F)cccc7F)c7ccc4[nH]7)C=C6)C=C5)cc3)C2)c1
REMARK SMILES IDX 19 1 18 2 16 3 17 4 15 6 12 7 13 8 79 9 14 10 11 11 8 12
REMARK SMILES IDX 9 13 10 15 7 17 3 18 4 19 80 20 5 21 6 22 2 23 1 24 20 25
REMARK SMILES IDX 21 26 22 27 23 28 24 30 25 31 26 32 78 33 27 34 77 35 28 36
REMARK SMILES IDX 29 37 30 38 71 39 31 40 76 41 70 42 72 43 32 44 75 45 69 46
REMARK SMILES IDX 68 47 33 49 59 50 42 51 58 52 43 53 46 54 57 55 73 56 44 57
REMARK SMILES IDX 45 58 56 60 74 61 47 62 34 63 35 64 40 65 36 66 37 67 39 68
REMARK SMILES IDX 41 69 38 70 60 71 61 72 66 73 62 74 63 75 65 76 67 77 64 78
REMARK SMILES IDX 48 79 49 80 54 81 50 82 51 83 53 84 55 85 52 86
REMARK H PARENT 18 5 8 14 11 16 22 29 72 48 46 59
REMARK Flexibility Score: inf
ROOT
ATOM      1  C   UNL     1      -0.589   2.646   8.168  1.00  0.00     0.117 C 
ENDROOT
BRANCH   1   2
ATOM      2  N   UNL     1      -0.315   1.240   7.920  1.00  0.00    -0.356 N 
ATOM      3  C   UNL     1       0.628   0.589   7.190  1.00  0.00     0.227 C 
ATOM      4  O   UNL     1       0.839  -0.586   7.526  1.00  0.00    -0.274 OA
ATOM      5  H   UNL     1      -0.942   0.634   8.377  1.00  0.00     0.163 HD
BRANCH   3   6
ATOM      6  C   UNL     1       1.413   1.162   6.000  1.00  0.00     0.103 C 
ATOM      7  C   UNL     1       1.728   3.449   5.250  1.00  0.00     0.107 C 
ATOM      8  C   UNL     1       3.012   2.869   5.734  1.00  0.00    -0.006 C 
ATOM      9  C   UNL     1       0.782   2.256   5.149  1.00  0.00     0.047 C 
ATOM     10  C   UNL     1       2.808   1.656   6.262  1.00  0.00    -0.016 C 
BRANCH   7  11
ATOM     11  N   UNL     1       1.889   4.159   4.013  1.00  0.00    -0.332 N 
ATOM     12  N   UNL     1      -0.110   5.449   3.867  1.00  0.00    -0.308 N 
ATOM     13  C   UNL     1       0.973   4.861   3.327  1.00  0.00     0.319 C 
ATOM     14  H   UNL     1      -0.856   5.492   3.227  1.00  0.00     0.171 HD
ATOM     15  O   UNL     1       1.085   4.894   2.097  1.00  0.00    -0.248 OA
ATOM     16  H   UNL     1       2.789   4.126   3.616  1.00  0.00     0.165 HD
BRANCH  12  17
ATOM     17  C   UNL     1      -0.458   6.019   5.105  1.00  0.00     0.043 A 
ATOM     18  C   UNL     1      -2.205   7.151   6.377  1.00  0.00     0.009 A 
ATOM     19  C   UNL     1      -1.339   7.272   7.462  1.00  0.00     0.015 A 
ATOM     20  C   UNL     1      -1.769   6.506   5.214  1.00  0.00     0.041 A 
ATOM     21  C   UNL     1      -0.041   6.792   7.371  1.00  0.00     0.003 A 
ATOM     22  C   UNL     1       0.412   6.232   6.173  1.00  0.00     0.026 A 
BRANCH  18  23
ATOM     23  S   UNL     1      -3.831   7.870   6.436  1.00  0.00    -0.130 SA
ATOM     24  C   UNL     1      -4.424   7.096   7.956  1.00  0.00     0.091 C 
ENDBRANCH  18  23
ENDBRANCH  12  17
ENDBRANCH   7  11
ENDBRANCH   3   6
ENDBRANCH   1   2
BRANCH   1  25
ATOM     25  C   UNL     1      -1.940   3.141   7.640  1.00  0.00     0.042 C 
BRANCH  25  26
ATOM     26  C   UNL     1      -3.199   2.487   8.219  1.00  0.00     0.118 C 
BRANCH  26  27
ATOM     27  N   UNL     1      -3.510   2.883   9.587  1.00  0.00    -0.352 N 
ATOM     28  C   UNL     1      -4.577   3.538  10.161  1.00  0.00     0.251 C 
ATOM     29  H   UNL     1      -2.813   2.630  10.235  1.00  0.00     0.163 HD
ATOM     30  O   UNL     1      -4.511   3.789  11.366  1.00  0.00    -0.269 OA
BRANCH  28  31
ATOM     31  C   UNL     1      -5.775   4.005   9.406  1.00  0.00     0.039 A 
ATOM     32  C   UNL     1      -6.407   5.186   9.839  1.00  0.00     0.014 A 
ATOM     33  C   UNL     1      -6.325   3.319   8.324  1.00  0.00     0.014 A 
ATOM     34  C   UNL     1      -7.499   5.723   9.139  1.00  0.00     0.010 A 
ATOM     35  C   UNL     1      -7.385   3.876   7.595  1.00  0.00     0.010 A 
ATOM     36  C   UNL     1      -7.976   5.089   7.986  1.00  0.00    -0.014 A 
BRANCH  36  37
ATOM     37  C   UNL     1      -9.124   5.632   7.209  1.00  0.00     0.031 A 
ATOM     38  C   UNL     1     -10.454   4.943   7.274  1.00  0.00     0.074 A 
ATOM     39  C   UNL     1      -8.970   6.684   6.381  1.00  0.00     0.049 A 
ATOM     40  N   UNL     1     -11.544   5.183   6.592  1.00  0.00    -0.248 NA
ATOM     41  C   UNL     1     -10.562   3.820   8.216  1.00  0.00     0.031 C 
ATOM     42  C   UNL     1      -7.729   7.423   6.196  1.00  0.00     0.029 A 
ATOM     43  N   UNL     1      -9.846   7.295   5.517  1.00  0.00    -0.354 N 
ATOM     44  C   UNL     1     -12.463   4.232   7.007  1.00  0.00     0.074 A 
ATOM     45  C   UNL     1     -11.792   3.389   7.975  1.00  0.00     0.031 C 
ATOM     46  C   UNL     1      -7.908   8.383   5.275  1.00  0.00     0.029 A 
ATOM     47  C   UNL     1      -9.275   8.303   4.774  1.00  0.00     0.049 A 
ATOM     48  H   UNL     1     -10.793   7.037   5.437  1.00  0.00     0.167 HD
ATOM     49  C   UNL     1     -13.753   4.081   6.627  1.00  0.00     0.037 A 
ATOM     50  C   UNL     1      -9.782   9.060   3.782  1.00  0.00     0.037 A 
ATOM     51  C   UNL     1     -14.428   4.924   5.676  1.00  0.00     0.049 A 
ATOM     52  C   UNL     1     -11.210   8.860   3.360  1.00  0.00     0.074 A 
ATOM     53  C   UNL     1     -15.754   4.888   5.282  1.00  0.00     0.029 A 
ATOM     54  N   UNL     1     -13.825   5.949   4.963  1.00  0.00    -0.354 N 
ATOM     55  N   UNL     1     -12.090   8.003   3.816  1.00  0.00    -0.248 NA
ATOM     56  C   UNL     1     -11.717   9.732   2.291  1.00  0.00     0.031 C 
ATOM     57  C   UNL     1     -15.945   5.867   4.300  1.00  0.00     0.029 A 
ATOM     58  C   UNL     1     -14.746   6.536   4.111  1.00  0.00     0.049 A 
ATOM     59  H   UNL     1     -12.883   6.220   5.049  1.00  0.00     0.167 HD
ATOM     60  C   UNL     1     -13.260   8.249   3.110  1.00  0.00     0.074 A 
ATOM     61  C   UNL     1     -12.980   9.340   2.200  1.00  0.00     0.031 C 
ATOM     62  C   UNL     1     -14.459   7.625   3.212  1.00  0.00     0.037 A 
BRANCH  49  63
ATOM     63  C   UNL     1     -14.510   2.944   7.241  1.00  0.00     0.057 A 
ATOM     64  C   UNL     1     -14.917   2.969   8.581  1.00  0.00     0.134 A 
ATOM     65  C   UNL     1     -14.829   1.810   6.486  1.00  0.00     0.134 A 
ATOM     66  F   UNL     1     -14.625   4.021   9.361  1.00  0.00    -0.206 F 
ATOM     67  C   UNL     1     -15.589   1.891   9.158  1.00  0.00     0.040 A 
ATOM     68  C   UNL     1     -15.521   0.735   7.046  1.00  0.00     0.040 A 
ATOM     69  F   UNL     1     -14.469   1.725   5.197  1.00  0.00    -0.206 F 
ATOM     70  C   UNL     1     -15.895   0.770   8.388  1.00  0.00     0.006 A 
ENDBRANCH  49  63
BRANCH  50  71
ATOM     71  C   UNL     1      -8.934  10.078   3.112  1.00  0.00     0.057 A 
ATOM     72  C   UNL     1      -9.135  11.445   3.333  1.00  0.00     0.134 A 
ATOM     73  C   UNL     1      -7.915   9.710   2.225  1.00  0.00     0.134 A 
ATOM     74  F   UNL     1     -10.111  11.858   4.155  1.00  0.00    -0.206 F 
ATOM     75  C   UNL     1      -8.364  12.411   2.686  1.00  0.00     0.040 A 
ATOM     76  C   UNL     1      -7.123  10.665   1.586  1.00  0.00     0.040 A 
ATOM     77  F   UNL     1      -7.673   8.416   1.971  1.00  0.00    -0.206 F 
ATOM     78  C   UNL     1      -7.351  12.022   1.811  1.00  0.00     0.006 A 
ENDBRANCH  50  71
BRANCH  62  79
ATOM     79  C   UNL     1     -15.569   8.126   2.339  1.00  0.00     0.057 A 
ATOM     80  C   UNL     1     -15.614   7.843   0.969  1.00  0.00     0.134 A 
ATOM     81  C   UNL     1     -16.631   8.858   2.886  1.00  0.00     0.134 A 
ATOM     82  F   UNL     1     -14.619   7.160   0.383  1.00  0.00    -0.206 F 
ATOM     83  C   UNL     1     -16.671   8.281   0.170  1.00  0.00     0.040 A 
ATOM     84  C   UNL     1     -17.704   9.282   2.102  1.00  0.00     0.040 A 
ATOM     85  F   UNL     1     -16.648   9.158   4.194  1.00  0.00    -0.206 F 
ATOM     86  C   UNL     1     -17.724   8.996   0.739  1.00  0.00     0.006 A 
ENDBRANCH  62  79
ENDBRANCH  36  37
ENDBRANCH  28  31
ENDBRANCH  26  27
ENDBRANCH  25  26
ENDBRANCH   1  25
TORSDOF 13
