REMARK SMILES Cc1nsc(N(C)C(=O)[C@H]2CCOC2)c1C(=O)NCCCNC(=O)c1ccc(-c2c3nc(c(-c4c(F)cccc4F)c4ccc([nH]4)c(-c4c(F)cccc4F)c4nc(c(-c5c(F)cccc5F)c5ccc2[nH]5)C=C4)C=C3)cc1
REMARK SMILES IDX 19 1 18 2 16 3 17 4 15 6 1 7 2 8 3 9 4 10 5 11 6 12 7 13
REMARK SMILES IDX 8 14 9 15 10 16 11 17 14 18 12 19 13 20 20 21 21 22 22 23
REMARK SMILES IDX 23 24 24 26 25 27 26 28 78 29 27 30 77 31 28 32 29 33 30 34
REMARK SMILES IDX 71 35 31 36 76 37 70 38 72 39 32 40 75 41 69 42 68 43 33 45
REMARK SMILES IDX 59 46 42 47 58 48 43 49 46 50 57 51 73 52 44 53 45 54 56 56
REMARK SMILES IDX 74 57 47 58 34 59 35 60 40 61 36 62 37 63 39 64 41 65 38 66
REMARK SMILES IDX 60 67 61 68 66 69 62 70 63 71 65 72 67 73 64 74 48 75 49 76
REMARK SMILES IDX 54 77 50 78 51 79 53 80 55 81 52 82
REMARK H PARENT 18 5 22 25 72 44 46 55
REMARK Flexibility Score: inf
ROOT
ATOM      1  C   UNL     1       3.090   0.259 -10.642  1.00  0.00     0.118 C 
ENDROOT
BRANCH   1   2
ATOM      2  N   UNL     1       1.859   0.310  -9.871  1.00  0.00    -0.352 N 
ATOM      3  C   UNL     1       1.556  -0.455  -8.765  1.00  0.00     0.256 C 
ATOM      4  O   UNL     1       1.424   0.173  -7.708  1.00  0.00    -0.269 OA
ATOM      5  H   UNL     1       1.175   0.953 -10.169  1.00  0.00     0.163 HD
BRANCH   3   6
ATOM      6  C   UNL     1       1.280  -1.903  -8.832  1.00  0.00     0.097 A 
ATOM      7  C   UNL     1       2.849  -3.006 -10.739  1.00  0.00     0.069 C 
ATOM      8  C   UNL     1       1.868  -2.989  -9.627  1.00  0.00     0.066 A 
ATOM      9  N   UNL     1       1.519  -4.229  -9.280  1.00  0.00    -0.195 NA
ATOM     10  S   UNL     1       0.441  -4.184  -8.069  1.00  0.00    -0.017 S 
ATOM     11  C   UNL     1       0.334  -2.483  -7.959  1.00  0.00     0.131 A 
BRANCH  11  12
ATOM     12  N   UNL     1      -0.636  -1.966  -7.064  1.00  0.00    -0.305 N 
ATOM     13  C   UNL     1      -1.156  -2.732  -5.926  1.00  0.00     0.154 C 
BRANCH  12  14
ATOM     14  C   UNL     1      -1.257  -0.754  -7.425  1.00  0.00     0.232 C 
ATOM     15  O   UNL     1      -1.269  -0.318  -8.581  1.00  0.00    -0.274 OA
BRANCH  14  16
ATOM     16  C   UNL     1      -2.004  -0.010  -6.317  1.00  0.00     0.107 C 
ATOM     17  C   UNL     1      -2.099   1.487  -6.540  1.00  0.00     0.044 C 
ATOM     18  C   UNL     1      -3.465  -0.420  -6.260  1.00  0.00     0.173 C 
ATOM     19  C   UNL     1      -3.366   1.859  -5.805  1.00  0.00     0.161 C 
ATOM     20  O   UNL     1      -4.235   0.725  -5.872  1.00  0.00    -0.381 OA
ENDBRANCH  14  16
ENDBRANCH  12  14
ENDBRANCH  11  12
ENDBRANCH   3   6
ENDBRANCH   1   2
BRANCH   1  21
ATOM     21  C   UNL     1       2.833   0.055 -12.142  1.00  0.00     0.042 C 
BRANCH  21  22
ATOM     22  C   UNL     1       2.660   1.347 -12.906  1.00  0.00     0.118 C 
BRANCH  22  23
ATOM     23  N   UNL     1       3.912   2.102 -13.006  1.00  0.00    -0.352 N 
ATOM     24  C   UNL     1       4.118   3.358 -13.552  1.00  0.00     0.251 C 
ATOM     25  H   UNL     1       4.710   1.659 -12.637  1.00  0.00     0.163 HD
ATOM     26  O   UNL     1       5.227   3.733 -13.878  1.00  0.00    -0.269 OA
BRANCH  24  27
ATOM     27  C   UNL     1       2.941   4.223 -13.739  1.00  0.00     0.039 A 
ATOM     28  C   UNL     1       2.755   4.961 -14.909  1.00  0.00     0.014 A 
ATOM     29  C   UNL     1       1.973   4.197 -12.745  1.00  0.00     0.014 A 
ATOM     30  C   UNL     1       1.531   5.595 -15.101  1.00  0.00     0.010 A 
ATOM     31  C   UNL     1       0.708   4.620 -13.038  1.00  0.00     0.010 A 
ATOM     32  C   UNL     1       0.497   5.391 -14.172  1.00  0.00    -0.014 A 
BRANCH  32  33
ATOM     33  C   UNL     1      -0.842   5.913 -14.401  1.00  0.00     0.031 A 
ATOM     34  C   UNL     1      -1.413   5.611 -15.740  1.00  0.00     0.074 A 
ATOM     35  C   UNL     1      -1.594   6.466 -13.425  1.00  0.00     0.049 A 
ATOM     36  N   UNL     1      -1.622   6.442 -16.705  1.00  0.00    -0.248 NA
ATOM     37  C   UNL     1      -1.652   4.205 -16.102  1.00  0.00     0.031 C 
ATOM     38  C   UNL     1      -1.325   6.571 -11.984  1.00  0.00     0.029 A 
ATOM     39  N   UNL     1      -2.843   6.988 -13.526  1.00  0.00    -0.354 N 
ATOM     40  C   UNL     1      -2.210   5.707 -17.730  1.00  0.00     0.074 A 
ATOM     41  C   UNL     1      -2.040   4.322 -17.375  1.00  0.00     0.031 C 
ATOM     42  C   UNL     1      -2.463   6.894 -11.331  1.00  0.00     0.029 A 
ATOM     43  C   UNL     1      -3.481   7.208 -12.312  1.00  0.00     0.049 A 
ATOM     44  H   UNL     1      -3.263   7.196 -14.392  1.00  0.00     0.167 HD
ATOM     45  C   UNL     1      -2.991   6.315 -18.667  1.00  0.00     0.037 A 
ATOM     46  C   UNL     1      -4.764   7.608 -12.142  1.00  0.00     0.037 A 
ATOM     47  C   UNL     1      -2.792   7.745 -18.657  1.00  0.00     0.049 A 
ATOM     48  C   UNL     1      -5.195   8.233 -13.418  1.00  0.00     0.074 A 
ATOM     49  C   UNL     1      -1.698   8.573 -18.829  1.00  0.00     0.029 A 
ATOM     50  N   UNL     1      -3.745   8.523 -18.042  1.00  0.00    -0.354 N 
ATOM     51  N   UNL     1      -4.719   9.363 -13.864  1.00  0.00    -0.248 NA
ATOM     52  C   UNL     1      -5.793   7.366 -14.423  1.00  0.00     0.031 C 
ATOM     53  C   UNL     1      -1.864   9.604 -17.856  1.00  0.00     0.029 A 
ATOM     54  C   UNL     1      -3.081   9.387 -17.209  1.00  0.00     0.049 A 
ATOM     55  H   UNL     1      -4.719   8.469 -18.174  1.00  0.00     0.167 HD
ATOM     56  C   UNL     1      -4.561   9.166 -15.228  1.00  0.00     0.074 A 
ATOM     57  C   UNL     1      -5.316   7.949 -15.527  1.00  0.00     0.031 C 
ATOM     58  C   UNL     1      -3.599   9.829 -15.936  1.00  0.00     0.037 A 
BRANCH  45  59
ATOM     59  C   UNL     1      -4.196   5.684 -19.323  1.00  0.00     0.057 A 
ATOM     60  C   UNL     1      -4.859   6.383 -20.349  1.00  0.00     0.134 A 
ATOM     61  C   UNL     1      -4.904   4.584 -18.799  1.00  0.00     0.134 A 
ATOM     62  F   UNL     1      -4.293   7.451 -20.933  1.00  0.00    -0.206 F 
ATOM     63  C   UNL     1      -6.163   6.071 -20.753  1.00  0.00     0.040 A 
ATOM     64  C   UNL     1      -6.186   4.232 -19.231  1.00  0.00     0.040 A 
ATOM     65  F   UNL     1      -4.447   3.853 -17.776  1.00  0.00    -0.206 F 
ATOM     66  C   UNL     1      -6.836   4.998 -20.184  1.00  0.00     0.006 A 
ENDBRANCH  45  59
BRANCH  46  67
ATOM     67  C   UNL     1      -5.718   7.250 -11.069  1.00  0.00     0.057 A 
ATOM     68  C   UNL     1      -6.920   7.955 -10.913  1.00  0.00     0.134 A 
ATOM     69  C   UNL     1      -5.616   6.039 -10.362  1.00  0.00     0.134 A 
ATOM     70  F   UNL     1      -7.123   9.107 -11.569  1.00  0.00    -0.206 F 
ATOM     71  C   UNL     1      -7.977   7.463 -10.137  1.00  0.00     0.040 A 
ATOM     72  C   UNL     1      -6.662   5.540  -9.579  1.00  0.00     0.040 A 
ATOM     73  F   UNL     1      -4.535   5.255 -10.479  1.00  0.00    -0.206 F 
ATOM     74  C   UNL     1      -7.856   6.243  -9.480  1.00  0.00     0.006 A 
ENDBRANCH  46  67
BRANCH  58  75
ATOM     75  C   UNL     1      -2.854  10.944 -15.251  1.00  0.00     0.057 A 
ATOM     76  C   UNL     1      -2.042  10.773 -14.119  1.00  0.00     0.134 A 
ATOM     77  C   UNL     1      -2.833  12.207 -15.851  1.00  0.00     0.134 A 
ATOM     78  F   UNL     1      -1.912   9.578 -13.531  1.00  0.00    -0.206 F 
ATOM     79  C   UNL     1      -1.280  11.819 -13.587  1.00  0.00     0.040 A 
ATOM     80  C   UNL     1      -2.051  13.252 -15.350  1.00  0.00     0.040 A 
ATOM     81  F   UNL     1      -3.538  12.435 -16.971  1.00  0.00    -0.206 F 
ATOM     82  C   UNL     1      -1.278  13.062 -14.208  1.00  0.00     0.006 A 
ENDBRANCH  58  75
ENDBRANCH  32  33
ENDBRANCH  24  27
ENDBRANCH  22  23
ENDBRANCH  21  22
ENDBRANCH   1  21
TORSDOF 13
