REMARK SMILES COc1ccc(C(F)(F)F)cc1-c1cc(N)cc(C(=O)NCCCNC(=O)c2ccc(-c3c4nc(c(-c5c(F)cccc5F)c5ccc([nH]5)c(-c5c(F)cccc5F)c5nc(c(-c6c(F)cccc6F)c6ccc3[nH]6)C=C5)C=C4)cc2)c1
REMARK SMILES IDX 23 1 22 2 21 3 19 4 20 5 18 7 13 8 14 9 82 10 15 11 17 12
REMARK SMILES IDX 12 13 3 14 4 15 5 16 11 17 6 18 2 19 1 20 7 21 8 22 9 23
REMARK SMILES IDX 10 24 16 25 24 28 25 29 26 30 27 32 28 33 29 34 81 35 30 36
REMARK SMILES IDX 80 37 31 38 32 39 33 40 74 41 34 42 79 43 73 44 75 45 35 46
REMARK SMILES IDX 78 47 72 48 71 49 36 51 62 52 45 53 61 54 46 55 49 56 60 57
REMARK SMILES IDX 76 58 47 59 48 60 59 62 77 63 50 64 37 65 38 66 43 67 39 68
REMARK SMILES IDX 40 69 42 70 44 71 41 72 63 73 64 74 69 75 65 76 66 77 68 78
REMARK SMILES IDX 70 79 67 80 51 81 52 82 57 83 53 84 54 85 56 86 58 87 55 88
REMARK H PARENT 21 6 16 26 16 27 25 31 75 50 49 61
REMARK Flexibility Score: inf
ROOT
ATOM      1  C   UNL     1       2.908   2.845   2.918  1.00  0.00     0.042 C 
ENDROOT
BRANCH   1   2
ATOM      2  C   UNL     1       2.723   2.817   1.400  1.00  0.00     0.118 C 
BRANCH   2   3
ATOM      3  N   UNL     1       4.002   2.857   0.710  1.00  0.00    -0.352 N 
ATOM      4  C   UNL     1       4.812   1.877   0.189  1.00  0.00     0.251 C 
ATOM      5  O   UNL     1       5.835   2.239  -0.394  1.00  0.00    -0.269 OA
ATOM      6  H   UNL     1       4.359   3.767   0.592  1.00  0.00     0.163 HD
BRANCH   4   7
ATOM      7  C   UNL     1       4.494   0.423   0.249  1.00  0.00     0.042 A 
ATOM      8  C   UNL     1       3.261  -1.490   1.122  1.00  0.00    -0.012 A 
ATOM      9  C   UNL     1       3.828  -2.297   0.127  1.00  0.00     0.034 A 
ATOM     10  C   UNL     1       3.674  -0.154   1.213  1.00  0.00     0.022 A 
ATOM     11  C   UNL     1       4.769  -1.779  -0.768  1.00  0.00     0.033 A 
ATOM     12  C   UNL     1       5.048  -0.409  -0.734  1.00  0.00     0.039 A 
BRANCH   8  13
ATOM     13  C   UNL     1       2.209  -1.976   2.028  1.00  0.00     0.024 A 
ATOM     14  C   UNL     1       0.927  -1.384   2.088  1.00  0.00     0.126 A 
ATOM     15  C   UNL     1      -0.009  -1.797   3.040  1.00  0.00     0.047 A 
ATOM     16  C   UNL     1       0.307  -2.810   3.943  1.00  0.00     0.017 A 
ATOM     17  C   UNL     1       2.503  -3.003   2.944  1.00  0.00     0.025 A 
ATOM     18  C   UNL     1       1.571  -3.414   3.915  1.00  0.00     0.056 A 
BRANCH  14  19
ATOM     19  O   UNL     1       0.547  -0.295   1.340  1.00  0.00    -0.496 OA
ATOM     20  C   UNL     1       0.469  -0.565  -0.059  1.00  0.00     0.278 C 
ENDBRANCH  14  19
BRANCH  18  21
ATOM     21  C   UNL     1       1.928  -4.455   4.948  1.00  0.00     0.416 C 
ATOM     22  F   UNL     1       1.777  -3.992   6.221  1.00  0.00    -0.166 F 
ATOM     23  F   UNL     1       1.150  -5.567   4.859  1.00  0.00    -0.166 F 
ATOM     24  F   UNL     1       3.216  -4.889   4.862  1.00  0.00    -0.166 F 
ENDBRANCH  18  21
ENDBRANCH   8  13
BRANCH  11  25
ATOM     25  N   UNL     1       5.287  -2.573  -1.781  1.00  0.00    -0.399 N 
ATOM     26  H   UNL     1       5.088  -3.537  -1.802  1.00  0.00     0.156 HD
ATOM     27  H   UNL     1       5.854  -2.173  -2.479  1.00  0.00     0.156 HD
ENDBRANCH  11  25
ENDBRANCH   4   7
ENDBRANCH   2   3
ENDBRANCH   1   2
BRANCH   1  28
ATOM     28  C   UNL     1       3.278   4.223   3.455  1.00  0.00     0.118 C 
BRANCH  28  29
ATOM     29  N   UNL     1       2.160   5.151   3.391  1.00  0.00    -0.352 N 
ATOM     30  C   UNL     1       1.571   5.895   4.382  1.00  0.00     0.251 C 
ATOM     31  H   UNL     1       1.763   5.262   2.497  1.00  0.00     0.163 HD
ATOM     32  O   UNL     1       0.502   6.455   4.160  1.00  0.00    -0.269 OA
BRANCH  30  33
ATOM     33  C   UNL     1       2.202   6.021   5.715  1.00  0.00     0.039 A 
ATOM     34  C   UNL     1       1.379   6.021   6.846  1.00  0.00     0.014 A 
ATOM     35  C   UNL     1       3.581   6.198   5.858  1.00  0.00     0.014 A 
ATOM     36  C   UNL     1       1.941   6.154   8.118  1.00  0.00     0.010 A 
ATOM     37  C   UNL     1       4.148   6.261   7.130  1.00  0.00     0.010 A 
ATOM     38  C   UNL     1       3.333   6.250   8.272  1.00  0.00    -0.014 A 
BRANCH  38  39
ATOM     39  C   UNL     1       3.951   6.349   9.618  1.00  0.00     0.031 A 
ATOM     40  C   UNL     1       4.699   7.591  10.019  1.00  0.00     0.074 A 
ATOM     41  C   UNL     1       3.895   5.295  10.455  1.00  0.00     0.049 A 
ATOM     42  N   UNL     1       5.369   7.835  11.117  1.00  0.00    -0.248 NA
ATOM     43  C   UNL     1       4.720   8.695   9.046  1.00  0.00     0.031 C 
ATOM     44  C   UNL     1       3.242   4.017  10.164  1.00  0.00     0.029 A 
ATOM     45  N   UNL     1       4.409   5.126  11.716  1.00  0.00    -0.354 N 
ATOM     46  C   UNL     1       5.909   9.105  10.957  1.00  0.00     0.074 A 
ATOM     47  C   UNL     1       5.523   9.566   9.640  1.00  0.00     0.031 C 
ATOM     48  C   UNL     1       3.383   3.201  11.221  1.00  0.00     0.029 A 
ATOM     49  C   UNL     1       4.164   3.883  12.248  1.00  0.00     0.049 A 
ATOM     50  H   UNL     1       4.906   5.829  12.194  1.00  0.00     0.167 HD
ATOM     51  C   UNL     1       6.644   9.829  11.834  1.00  0.00     0.037 A 
ATOM     52  C   UNL     1       4.536   3.350  13.427  1.00  0.00     0.037 A 
ATOM     53  C   UNL     1       6.994   9.384  13.157  1.00  0.00     0.049 A 
ATOM     54  C   UNL     1       5.336   4.182  14.390  1.00  0.00     0.074 A 
ATOM     55  C   UNL     1       7.669  10.075  14.149  1.00  0.00     0.029 A 
ATOM     56  N   UNL     1       6.698   8.131  13.672  1.00  0.00    -0.354 N 
ATOM     57  N   UNL     1       5.776   5.409  14.255  1.00  0.00    -0.248 NA
ATOM     58  C   UNL     1       5.685   3.557  15.674  1.00  0.00     0.031 C 
ATOM     59  C   UNL     1       7.816   9.225  15.251  1.00  0.00     0.029 A 
ATOM     60  C   UNL     1       7.195   8.021  14.961  1.00  0.00     0.049 A 
ATOM     61  H   UNL     1       6.208   7.425  13.193  1.00  0.00     0.167 HD
ATOM     62  C   UNL     1       6.429   5.713  15.442  1.00  0.00     0.074 A 
ATOM     63  C   UNL     1       6.315   4.546  16.292  1.00  0.00     0.031 C 
ATOM     64  C   UNL     1       7.066   6.855  15.796  1.00  0.00     0.037 A 
BRANCH  51  65
ATOM     65  C   UNL     1       7.118  11.184  11.393  1.00  0.00     0.057 A 
ATOM     66  C   UNL     1       6.238  12.264  11.246  1.00  0.00     0.134 A 
ATOM     67  C   UNL     1       8.477  11.421  11.154  1.00  0.00     0.134 A 
ATOM     68  F   UNL     1       4.922  12.102  11.449  1.00  0.00    -0.206 F 
ATOM     69  C   UNL     1       6.690  13.525  10.853  1.00  0.00     0.040 A 
ATOM     70  C   UNL     1       8.945  12.684  10.786  1.00  0.00     0.040 A 
ATOM     71  F   UNL     1       9.375  10.433  11.284  1.00  0.00    -0.206 F 
ATOM     72  C   UNL     1       8.048  13.740  10.629  1.00  0.00     0.006 A 
ENDBRANCH  51  65
BRANCH  52  73
ATOM     73  C   UNL     1       4.142   1.961  13.771  1.00  0.00     0.057 A 
ATOM     74  C   UNL     1       3.189   1.706  14.763  1.00  0.00     0.134 A 
ATOM     75  C   UNL     1       4.712   0.858  13.124  1.00  0.00     0.134 A 
ATOM     76  F   UNL     1       2.621   2.721  15.430  1.00  0.00    -0.206 F 
ATOM     77  C   UNL     1       2.831   0.403  15.115  1.00  0.00     0.040 A 
ATOM     78  C   UNL     1       4.346  -0.449  13.449  1.00  0.00     0.040 A 
ATOM     79  F   UNL     1       5.626   1.036  12.159  1.00  0.00    -0.206 F 
ATOM     80  C   UNL     1       3.407  -0.679  14.453  1.00  0.00     0.006 A 
ENDBRANCH  52  73
BRANCH  64  81
ATOM     81  C   UNL     1       7.659   6.909  17.173  1.00  0.00     0.057 A 
ATOM     82  C   UNL     1       8.818   6.199  17.506  1.00  0.00     0.134 A 
ATOM     83  C   UNL     1       7.082   7.712  18.165  1.00  0.00     0.134 A 
ATOM     84  F   UNL     1       9.411   5.402  16.604  1.00  0.00    -0.206 F 
ATOM     85  C   UNL     1       9.371   6.267  18.786  1.00  0.00     0.040 A 
ATOM     86  C   UNL     1       7.639   7.808  19.440  1.00  0.00     0.040 A 
ATOM     87  F   UNL     1       5.975   8.424  17.907  1.00  0.00    -0.206 F 
ATOM     88  C   UNL     1       8.785   7.079  19.755  1.00  0.00     0.006 A 
ENDBRANCH  64  81
ENDBRANCH  38  39
ENDBRANCH  30  33
ENDBRANCH  28  29
ENDBRANCH   1  28
TORSDOF 14
