REMARK SMILES CCCCN(c1ccccc1C(=O)NCCCNC(=O)c1ccc(-c2c3nc(c(-c4c(F)cccc4F)c4ccc([nH]4)c(-c4c(F)cccc4F)c4nc(c(-c5c(F)cccc5F)c5ccc2[nH]5)C=C4)C=C3)cc1)S(=O)(=O)c1ccc2c(c1)oc(=O)n2C
REMARK SMILES IDX 15 1 14 2 12 3 13 4 11 6 6 7 7 8 8 9 10 10 9 11 5 12 4 13
REMARK SMILES IDX 3 14 2 15 1 16 75 17 76 18 77 19 78 20 79 21 83 22 80 23
REMARK SMILES IDX 82 24 81 25 84 26 87 27 85 28 88 29 86 30 16 31 17 32 18 33
REMARK SMILES IDX 19 34 20 36 21 37 22 38 74 39 23 40 73 41 24 42 25 43 26 44
REMARK SMILES IDX 67 45 27 46 72 47 66 48 68 49 28 50 71 51 65 52 64 53 29 55
REMARK SMILES IDX 55 56 38 57 54 58 39 59 42 60 53 61 69 62 40 63 41 64 52 66
REMARK SMILES IDX 70 67 43 68 30 69 31 70 36 71 32 72 33 73 35 74 37 75 34 76
REMARK SMILES IDX 56 77 57 78 62 79 58 80 59 81 61 82 63 83 60 84 44 85 45 86
REMARK SMILES IDX 50 87 46 88 47 89 49 90 51 91 48 92
REMARK H PARENT 14 5 18 35 68 54 42 65
REMARK Flexibility Score: inf
ROOT
ATOM      1  C   UNL     1       0.316   1.072   2.956  1.00  0.00     0.118 C 
ENDROOT
BRANCH   1   2
ATOM      2  N   UNL     1       0.732   0.807   4.299  1.00  0.00    -0.352 N 
ATOM      3  C   UNL     1       0.094   0.043   5.234  1.00  0.00     0.253 C 
ATOM      4  O   UNL     1       0.654  -0.058   6.330  1.00  0.00    -0.269 OA
ATOM      5  H   UNL     1       1.577   1.225   4.582  1.00  0.00     0.163 HD
BRANCH   3   6
ATOM      6  C   UNL     1      -1.228  -0.639   5.050  1.00  0.00     0.064 A 
ATOM      7  C   UNL     1      -1.700  -1.385   3.951  1.00  0.00     0.065 A 
ATOM      8  C   UNL     1      -2.714  -2.335   4.220  1.00  0.00     0.028 A 
ATOM      9  C   UNL     1      -3.414  -2.392   5.424  1.00  0.00     0.002 A 
ATOM     10  C   UNL     1      -1.964  -0.695   6.267  1.00  0.00     0.016 A 
ATOM     11  C   UNL     1      -3.065  -1.532   6.443  1.00  0.00     0.001 A 
BRANCH   7  12
ATOM     12  N   UNL     1      -1.133  -1.426   2.589  1.00  0.00    -0.266 N 
BRANCH  12  13
ATOM     13  C   UNL     1      -0.221  -2.602   2.376  1.00  0.00     0.136 C 
BRANCH  13  14
ATOM     14  C   UNL     1       0.902  -2.621   1.322  1.00  0.00     0.022 C 
BRANCH  14  15
ATOM     15  C   UNL     1       0.624  -2.506  -0.174  1.00  0.00    -0.002 C 
ATOM     16  C   UNL     1       0.845  -1.090  -0.693  1.00  0.00     0.004 C 
ENDBRANCH  14  15
ENDBRANCH  13  14
ENDBRANCH  12  13
BRANCH  12  17
ATOM     17  S   UNL     1      -2.152  -0.778   1.321  1.00  0.00     0.264 S 
ATOM     18  O   UNL     1      -2.121   0.668   1.398  1.00  0.00    -0.201 OA
ATOM     19  O   UNL     1      -1.887  -1.421   0.059  1.00  0.00    -0.201 OA
BRANCH  17  20
ATOM     20  C   UNL     1      -3.844  -1.215   1.645  1.00  0.00     0.091 A 
ATOM     21  C   UNL     1      -4.773  -0.209   2.004  1.00  0.00     0.025 A 
ATOM     22  C   UNL     1      -4.244  -2.536   1.429  1.00  0.00     0.071 A 
ATOM     23  C   UNL     1      -6.113  -0.535   2.227  1.00  0.00     0.032 A 
ATOM     24  C   UNL     1      -5.552  -2.834   1.721  1.00  0.00     0.157 A 
ATOM     25  C   UNL     1      -6.459  -1.863   2.102  1.00  0.00     0.090 A 
ATOM     26  O   UNL     1      -6.094  -4.107   1.701  1.00  0.00    -0.408 OA
ATOM     27  N   UNL     1      -7.643  -2.527   2.303  1.00  0.00    -0.277 N 
ATOM     28  C   UNL     1      -7.415  -3.873   2.102  1.00  0.00     0.419 A 
ATOM     29  C   UNL     1      -8.900  -1.956   2.678  1.00  0.00     0.157 C 
ATOM     30  O   UNL     1      -8.232  -4.774   2.254  1.00  0.00    -0.223 OA
ENDBRANCH  17  20
ENDBRANCH  12  17
ENDBRANCH   7  12
ENDBRANCH   3   6
ENDBRANCH   1   2
BRANCH   1  31
ATOM     31  C   UNL     1       0.879   2.307   2.288  1.00  0.00     0.042 C 
BRANCH  31  32
ATOM     32  C   UNL     1       2.396   2.385   2.277  1.00  0.00     0.118 C 
BRANCH  32  33
ATOM     33  N   UNL     1       3.078   1.316   1.555  1.00  0.00    -0.352 N 
ATOM     34  C   UNL     1       3.530   1.185   0.262  1.00  0.00     0.251 C 
ATOM     35  H   UNL     1       3.251   0.522   2.110  1.00  0.00     0.163 HD
ATOM     36  O   UNL     1       4.123   0.154  -0.054  1.00  0.00    -0.269 OA
BRANCH  34  37
ATOM     37  C   UNL     1       3.258   2.207  -0.775  1.00  0.00     0.039 A 
ATOM     38  C   UNL     1       2.953   1.789  -2.079  1.00  0.00     0.014 A 
ATOM     39  C   UNL     1       3.293   3.566  -0.496  1.00  0.00     0.014 A 
ATOM     40  C   UNL     1       2.560   2.722  -3.047  1.00  0.00     0.010 A 
ATOM     41  C   UNL     1       2.780   4.478  -1.411  1.00  0.00     0.010 A 
ATOM     42  C   UNL     1       2.398   4.069  -2.697  1.00  0.00    -0.014 A 
BRANCH  42  43
ATOM     43  C   UNL     1       1.837   5.089  -3.623  1.00  0.00     0.031 A 
ATOM     44  C   UNL     1       2.614   6.349  -3.903  1.00  0.00     0.074 A 
ATOM     45  C   UNL     1       0.578   4.960  -4.089  1.00  0.00     0.049 A 
ATOM     46  N   UNL     1       2.215   7.468  -4.451  1.00  0.00    -0.248 NA
ATOM     47  C   UNL     1       4.018   6.367  -3.458  1.00  0.00     0.031 C 
ATOM     48  C   UNL     1      -0.302   3.811  -3.862  1.00  0.00     0.029 A 
ATOM     49  N   UNL     1      -0.195   5.826  -4.824  1.00  0.00    -0.354 N 
ATOM     50  C   UNL     1       3.299   8.333  -4.374  1.00  0.00     0.074 A 
ATOM     51  C   UNL     1       4.354   7.628  -3.680  1.00  0.00     0.031 C 
ATOM     52  C   UNL     1      -1.485   4.037  -4.455  1.00  0.00     0.029 A 
ATOM     53  C   UNL     1      -1.473   5.370  -5.047  1.00  0.00     0.049 A 
ATOM     54  H   UNL     1       0.135   6.691  -5.158  1.00  0.00     0.167 HD
ATOM     55  C   UNL     1       3.413   9.594  -4.855  1.00  0.00     0.037 A 
ATOM     56  C   UNL     1      -2.527   5.970  -5.632  1.00  0.00     0.037 A 
ATOM     57  C   UNL     1       2.378  10.271  -5.589  1.00  0.00     0.049 A 
ATOM     58  C   UNL     1      -2.381   7.375  -6.148  1.00  0.00     0.074 A 
ATOM     59  C   UNL     1       2.425  11.514  -6.195  1.00  0.00     0.029 A 
ATOM     60  N   UNL     1       1.110   9.760  -5.818  1.00  0.00    -0.354 N 
ATOM     61  N   UNL     1      -1.333   8.162  -6.118  1.00  0.00    -0.248 NA
ATOM     62  C   UNL     1      -3.568   7.979  -6.769  1.00  0.00     0.031 C 
ATOM     63  C   UNL     1       1.168  11.777  -6.749  1.00  0.00     0.029 A 
ATOM     64  C   UNL     1       0.354  10.677  -6.530  1.00  0.00     0.049 A 
ATOM     65  H   UNL     1       0.793   8.877  -5.520  1.00  0.00     0.167 HD
ATOM     66  C   UNL     1      -1.728   9.345  -6.731  1.00  0.00     0.074 A 
ATOM     67  C   UNL     1      -3.104   9.164  -7.142  1.00  0.00     0.031 C 
ATOM     68  C   UNL     1      -1.016  10.481  -6.930  1.00  0.00     0.037 A 
BRANCH  55  69
ATOM     69  C   UNL     1       4.706  10.318  -4.609  1.00  0.00     0.057 A 
ATOM     70  C   UNL     1       5.902   9.934  -5.230  1.00  0.00     0.134 A 
ATOM     71  C   UNL     1       4.749  11.435  -3.763  1.00  0.00     0.134 A 
ATOM     72  F   UNL     1       5.934   8.867  -6.043  1.00  0.00    -0.206 F 
ATOM     73  C   UNL     1       7.099  10.613  -4.994  1.00  0.00     0.040 A 
ATOM     74  C   UNL     1       5.933  12.141  -3.545  1.00  0.00     0.040 A 
ATOM     75  F   UNL     1       3.640  11.863  -3.142  1.00  0.00    -0.206 F 
ATOM     76  C   UNL     1       7.114  11.725  -4.155  1.00  0.00     0.006 A 
ENDBRANCH  55  69
BRANCH  56  77
ATOM     77  C   UNL     1      -3.820   5.248  -5.760  1.00  0.00     0.057 A 
ATOM     78  C   UNL     1      -4.291   4.837  -7.013  1.00  0.00     0.134 A 
ATOM     79  C   UNL     1      -4.618   4.960  -4.646  1.00  0.00     0.134 A 
ATOM     80  F   UNL     1      -3.583   5.105  -8.120  1.00  0.00    -0.206 F 
ATOM     81  C   UNL     1      -5.516   4.183  -7.156  1.00  0.00     0.040 A 
ATOM     82  C   UNL     1      -5.832   4.282  -4.772  1.00  0.00     0.040 A 
ATOM     83  F   UNL     1      -4.224   5.324  -3.417  1.00  0.00    -0.206 F 
ATOM     84  C   UNL     1      -6.287   3.898  -6.032  1.00  0.00     0.006 A 
ENDBRANCH  56  77
BRANCH  68  85
ATOM     85  C   UNL     1      -1.707  11.611  -7.635  1.00  0.00     0.057 A 
ATOM     86  C   UNL     1      -2.700  12.373  -7.006  1.00  0.00     0.134 A 
ATOM     87  C   UNL     1      -1.340  11.973  -8.937  1.00  0.00     0.134 A 
ATOM     88  F   UNL     1      -3.107  12.068  -5.764  1.00  0.00    -0.206 F 
ATOM     89  C   UNL     1      -3.314  13.445  -7.653  1.00  0.00     0.040 A 
ATOM     90  C   UNL     1      -1.928  13.061  -9.584  1.00  0.00     0.040 A 
ATOM     91  F   UNL     1      -0.390  11.290  -9.593  1.00  0.00    -0.206 F 
ATOM     92  C   UNL     1      -2.921  13.797  -8.943  1.00  0.00     0.006 A 
ENDBRANCH  68  85
ENDBRANCH  42  43
ENDBRANCH  34  37
ENDBRANCH  32  33
ENDBRANCH  31  32
ENDBRANCH   1  31
TORSDOF 16
