REMARK SMILES Cc1nsc(N[C@@H](C)C2CCCC2)c1C(=O)NCCCNC(=O)c1ccc(-c2c3nc(c(-c4c(F)cccc4F)c4ccc([nH]4)c(-c4c(F)cccc4F)c4nc(c(-c5c(F)cccc5F)c5ccc2[nH]5)C=C4)C=C3)cc1
REMARK SMILES IDX 18 1 17 2 15 3 16 4 14 6 1 7 2 8 3 9 4 10 5 11 6 12 7 14
REMARK SMILES IDX 8 15 9 16 10 17 13 18 11 19 12 20 19 21 20 22 21 23 22 24
REMARK SMILES IDX 23 26 24 27 25 28 77 29 26 30 76 31 27 32 28 33 29 34 70 35
REMARK SMILES IDX 30 36 75 37 69 38 71 39 31 40 74 41 68 42 67 43 32 45 58 46
REMARK SMILES IDX 41 47 57 48 42 49 45 50 56 51 72 52 43 53 44 54 55 56 73 57
REMARK SMILES IDX 46 58 33 59 34 60 39 61 35 62 36 63 38 64 40 65 37 66 59 67
REMARK SMILES IDX 60 68 65 69 61 70 62 71 64 72 66 73 63 74 47 75 48 76 53 77
REMARK SMILES IDX 49 78 50 79 52 80 54 81 51 82
REMARK H PARENT 17 5 6 13 21 25 71 44 45 55
REMARK Flexibility Score: inf
ROOT
ATOM      1  C   UNL     1      -0.593   1.209  -0.633  1.00  0.00     0.118 C 
ENDROOT
BRANCH   1   2
ATOM      2  N   UNL     1      -0.992   0.515  -1.838  1.00  0.00    -0.352 N 
ATOM      3  C   UNL     1      -0.864  -0.769  -2.298  1.00  0.00     0.256 C 
ATOM      4  O   UNL     1      -1.406  -0.943  -3.399  1.00  0.00    -0.269 OA
ATOM      5  H   UNL     1      -1.464   1.100  -2.474  1.00  0.00     0.163 HD
BRANCH   3   6
ATOM      6  C   UNL     1      -0.233  -1.891  -1.575  1.00  0.00     0.097 A 
ATOM      7  C   UNL     1       1.714  -0.920  -0.010  1.00  0.00     0.069 C 
ATOM      8  C   UNL     1       0.822  -1.970  -0.568  1.00  0.00     0.066 A 
ATOM      9  N   UNL     1       1.096  -3.184  -0.090  1.00  0.00    -0.195 NA
ATOM     10  S   UNL     1       0.224  -4.302  -0.894  1.00  0.00    -0.018 S 
ATOM     11  C   UNL     1      -0.596  -3.208  -1.926  1.00  0.00     0.122 A 
BRANCH  11  12
ATOM     12  N   UNL     1      -1.458  -3.578  -2.917  1.00  0.00    -0.372 N 
ATOM     13  H   UNL     1      -1.915  -2.853  -3.402  1.00  0.00     0.161 HD
BRANCH  12  14
ATOM     14  C   UNL     1      -1.769  -4.941  -3.325  1.00  0.00     0.080 C 
ATOM     15  C   UNL     1      -3.223  -5.229  -2.950  1.00  0.00     0.031 C 
BRANCH  14  16
ATOM     16  C   UNL     1      -1.426  -5.117  -4.821  1.00  0.00     0.011 C 
ATOM     17  C   UNL     1      -1.803  -6.479  -5.406  1.00  0.00     0.006 C 
ATOM     18  C   UNL     1      -2.099  -4.141  -5.792  1.00  0.00     0.006 C 
ATOM     19  C   UNL     1      -1.665  -6.277  -6.909  1.00  0.00     0.000 C 
ATOM     20  C   UNL     1      -2.017  -4.814  -7.162  1.00  0.00     0.000 C 
ENDBRANCH  14  16
ENDBRANCH  12  14
ENDBRANCH  11  12
ENDBRANCH   3   6
ENDBRANCH   1   2
BRANCH   1  21
ATOM     21  C   UNL     1       0.735   1.949  -0.840  1.00  0.00     0.042 C 
BRANCH  21  22
ATOM     22  C   UNL     1       0.569   3.346  -1.403  1.00  0.00     0.118 C 
BRANCH  22  23
ATOM     23  N   UNL     1       0.069   4.301  -0.415  1.00  0.00    -0.352 N 
ATOM     24  C   UNL     1      -0.241   5.639  -0.607  1.00  0.00     0.251 C 
ATOM     25  H   UNL     1      -0.065   3.952   0.496  1.00  0.00     0.163 HD
ATOM     26  O   UNL     1      -0.303   6.415   0.327  1.00  0.00    -0.269 OA
BRANCH  24  27
ATOM     27  C   UNL     1      -0.485   6.097  -1.986  1.00  0.00     0.039 A 
ATOM     28  C   UNL     1       0.040   7.299  -2.467  1.00  0.00     0.014 A 
ATOM     29  C   UNL     1      -1.193   5.242  -2.821  1.00  0.00     0.014 A 
ATOM     30  C   UNL     1      -0.079   7.585  -3.826  1.00  0.00     0.010 A 
ATOM     31  C   UNL     1      -1.121   5.422  -4.174  1.00  0.00     0.010 A 
ATOM     32  C   UNL     1      -0.640   6.624  -4.680  1.00  0.00    -0.014 A 
BRANCH  32  33
ATOM     33  C   UNL     1      -0.686   6.814  -6.125  1.00  0.00     0.031 A 
ATOM     34  C   UNL     1       0.614   7.124  -6.782  1.00  0.00     0.074 A 
ATOM     35  C   UNL     1      -1.782   6.497  -6.850  1.00  0.00     0.049 A 
ATOM     36  N   UNL     1       0.937   8.204  -7.412  1.00  0.00    -0.248 NA
ATOM     37  C   UNL     1       1.721   6.166  -6.639  1.00  0.00     0.031 C 
ATOM     38  C   UNL     1      -3.044   5.897  -6.396  1.00  0.00     0.029 A 
ATOM     39  N   UNL     1      -1.946   6.539  -8.197  1.00  0.00    -0.354 N 
ATOM     40  C   UNL     1       2.223   7.998  -7.907  1.00  0.00     0.074 A 
ATOM     41  C   UNL     1       2.711   6.802  -7.271  1.00  0.00     0.031 C 
ATOM     42  C   UNL     1      -3.723   5.409  -7.456  1.00  0.00     0.029 A 
ATOM     43  C   UNL     1      -3.042   5.826  -8.666  1.00  0.00     0.049 A 
ATOM     44  H   UNL     1      -1.339   7.035  -8.793  1.00  0.00     0.167 HD
ATOM     45  C   UNL     1       2.700   8.717  -8.963  1.00  0.00     0.037 A 
ATOM     46  C   UNL     1      -3.359   5.583  -9.959  1.00  0.00     0.037 A 
ATOM     47  C   UNL     1       1.871   9.866  -9.228  1.00  0.00     0.049 A 
ATOM     48  C   UNL     1      -2.635   6.585 -10.780  1.00  0.00     0.074 A 
ATOM     49  C   UNL     1       1.493  10.977  -8.499  1.00  0.00     0.029 A 
ATOM     50  N   UNL     1       0.980   9.784 -10.271  1.00  0.00    -0.354 N 
ATOM     51  N   UNL     1      -2.917   7.859 -10.775  1.00  0.00    -0.248 NA
ATOM     52  C   UNL     1      -1.297   6.245 -11.242  1.00  0.00     0.031 C 
ATOM     53  C   UNL     1       0.125  11.188  -8.839  1.00  0.00     0.029 A 
ATOM     54  C   UNL     1      -0.226  10.243  -9.805  1.00  0.00     0.049 A 
ATOM     55  H   UNL     1       1.170   9.457 -11.180  1.00  0.00     0.167 HD
ATOM     56  C   UNL     1      -1.683   8.494 -10.803  1.00  0.00     0.074 A 
ATOM     57  C   UNL     1      -0.730   7.455 -11.191  1.00  0.00     0.031 C 
ATOM     58  C   UNL     1      -1.504   9.719 -10.226  1.00  0.00     0.037 A 
BRANCH  45  59
ATOM     59  C   UNL     1       3.701   8.218  -9.973  1.00  0.00     0.057 A 
ATOM     60  C   UNL     1       4.247   9.119 -10.908  1.00  0.00     0.134 A 
ATOM     61  C   UNL     1       3.926   6.856 -10.255  1.00  0.00     0.134 A 
ATOM     62  F   UNL     1       4.093  10.444 -10.758  1.00  0.00    -0.206 F 
ATOM     63  C   UNL     1       4.897   8.693 -12.072  1.00  0.00     0.040 A 
ATOM     64  C   UNL     1       4.620   6.421 -11.388  1.00  0.00     0.040 A 
ATOM     65  F   UNL     1       3.401   5.876  -9.510  1.00  0.00    -0.206 F 
ATOM     66  C   UNL     1       5.079   7.339 -12.319  1.00  0.00     0.006 A 
ENDBRANCH  45  59
BRANCH  46  67
ATOM     67  C   UNL     1      -4.069   4.423 -10.539  1.00  0.00     0.057 A 
ATOM     68  C   UNL     1      -4.611   4.472 -11.829  1.00  0.00     0.134 A 
ATOM     69  C   UNL     1      -4.011   3.150  -9.942  1.00  0.00     0.134 A 
ATOM     70  F   UNL     1      -4.677   5.634 -12.495  1.00  0.00    -0.206 F 
ATOM     71  C   UNL     1      -5.046   3.321 -12.499  1.00  0.00     0.040 A 
ATOM     72  C   UNL     1      -4.449   1.994 -10.596  1.00  0.00     0.040 A 
ATOM     73  F   UNL     1      -3.449   2.973  -8.737  1.00  0.00    -0.206 F 
ATOM     74  C   UNL     1      -4.955   2.075 -11.887  1.00  0.00     0.006 A 
ENDBRANCH  46  67
BRANCH  58  75
ATOM     75  C   UNL     1      -2.726  10.465  -9.758  1.00  0.00     0.057 A 
ATOM     76  C   UNL     1      -3.582  10.011  -8.742  1.00  0.00     0.134 A 
ATOM     77  C   UNL     1      -2.949  11.761 -10.233  1.00  0.00     0.134 A 
ATOM     78  F   UNL     1      -3.389   8.831  -8.146  1.00  0.00    -0.206 F 
ATOM     79  C   UNL     1      -4.636  10.791  -8.256  1.00  0.00     0.040 A 
ATOM     80  C   UNL     1      -3.977  12.564  -9.733  1.00  0.00     0.040 A 
ATOM     81  F   UNL     1      -2.135  12.290 -11.160  1.00  0.00    -0.206 F 
ATOM     82  C   UNL     1      -4.832  12.076  -8.748  1.00  0.00     0.006 A 
ENDBRANCH  58  75
ENDBRANCH  32  33
ENDBRANCH  24  27
ENDBRANCH  22  23
ENDBRANCH  21  22
ENDBRANCH   1  21
TORSDOF 13
