REMARK SMILES CC[C@@](C)(NS(=O)(=O)c1ccc(F)c(Cl)c1)C(=O)NCCCNC(=O)c1ccc(-c2c3nc(c(-c4c(F)cccc4F)c4ccc([nH]4)c(-c4c(F)cccc4F)c4nc(c(-c5c(F)cccc5F)c5ccc2[nH]5)C=C4)C=C3)cc1
REMARK SMILES IDX 20 1 19 2 17 3 18 4 3 6 4 7 2 8 1 9 5 10 6 12 7 13 8 14 9 15
REMARK SMILES IDX 10 16 16 17 11 18 14 19 12 20 15 21 13 22 21 23 22 24 23 25
REMARK SMILES IDX 24 26 25 28 26 29 27 30 79 31 28 32 78 33 29 34 30 35 31 36
REMARK SMILES IDX 72 37 32 38 77 39 71 40 73 41 33 42 76 43 70 44 69 45 34 47
REMARK SMILES IDX 60 48 43 49 59 50 44 51 47 52 58 53 74 54 45 55 46 56 57 58
REMARK SMILES IDX 75 59 48 60 35 61 36 62 41 63 37 64 38 65 40 66 42 67 39 68
REMARK SMILES IDX 61 69 62 70 67 71 63 72 64 73 66 74 68 75 65 76 49 77 50 78
REMARK SMILES IDX 55 79 51 80 52 81 54 82 56 83 53 84
REMARK H PARENT 19 5 5 11 23 27 73 46 47 57
REMARK Flexibility Score: inf
ROOT
ATOM      1  C   UNL     1       1.785   3.706   4.050  1.00  0.00     0.117 C 
ENDROOT
BRANCH   1   2
ATOM      2  N   UNL     1       2.494   2.744   3.202  1.00  0.00    -0.354 N 
ATOM      3  C   UNL     1       2.225   1.621   2.465  1.00  0.00     0.241 C 
ATOM      4  O   UNL     1       3.182   1.257   1.762  1.00  0.00    -0.273 OA
ATOM      5  H   UNL     1       3.449   2.974   3.145  1.00  0.00     0.163 HD
BRANCH   3   6
ATOM      6  C   UNL     1       0.949   0.741   2.506  1.00  0.00     0.108 C 
ATOM      7  C   UNL     1      -0.331   1.579   2.442  1.00  0.00     0.040 C 
BRANCH   6   8
ATOM      8  C   UNL     1       0.905  -0.267   1.279  1.00  0.00     0.030 C 
ATOM      9  C   UNL     1       1.037   0.265  -0.141  1.00  0.00     0.006 C 
ENDBRANCH   6   8
BRANCH   6  10
ATOM     10  N   UNL     1       0.870  -0.220   3.636  1.00  0.00    -0.196 NA
ATOM     11  H   UNL     1       1.051  -1.122   3.197  1.00  0.00     0.142 HD
BRANCH  10  12
ATOM     12  S   UNL     1       1.695  -0.308   5.063  1.00  0.00     0.241 S 
ATOM     13  O   UNL     1       1.510   0.951   5.760  1.00  0.00    -0.207 OA
ATOM     14  O   UNL     1       1.232  -1.529   5.666  1.00  0.00    -0.207 OA
BRANCH  12  15
ATOM     15  C   UNL     1       3.441  -0.508   4.763  1.00  0.00     0.084 A 
ATOM     16  C   UNL     1       4.071  -1.736   4.967  1.00  0.00     0.025 A 
ATOM     17  C   UNL     1       4.240   0.620   4.585  1.00  0.00     0.045 A 
ATOM     18  C   UNL     1       5.474  -1.807   4.946  1.00  0.00     0.042 A 
ATOM     19  C   UNL     1       5.624   0.552   4.506  1.00  0.00     0.078 A 
ATOM     20  C   UNL     1       6.242  -0.667   4.704  1.00  0.00     0.141 A 
ATOM     21  Cl  UNL     1       6.521   1.993   4.221  1.00  0.00    -0.081 Cl
ATOM     22  F   UNL     1       7.579  -0.758   4.713  1.00  0.00    -0.205 F 
ENDBRANCH  12  15
ENDBRANCH  10  12
ENDBRANCH   6  10
ENDBRANCH   3   6
ENDBRANCH   1   2
BRANCH   1  23
ATOM     23  C   UNL     1       1.996   3.803   5.592  1.00  0.00     0.042 C 
BRANCH  23  24
ATOM     24  C   UNL     1       3.309   3.548   6.361  1.00  0.00     0.118 C 
BRANCH  24  25
ATOM     25  N   UNL     1       4.404   4.450   6.067  1.00  0.00    -0.352 N 
ATOM     26  C   UNL     1       5.495   4.761   6.855  1.00  0.00     0.251 C 
ATOM     27  H   UNL     1       4.365   4.901   5.193  1.00  0.00     0.163 HD
ATOM     28  O   UNL     1       6.245   5.673   6.515  1.00  0.00    -0.269 OA
BRANCH  26  29
ATOM     29  C   UNL     1       5.776   4.051   8.133  1.00  0.00     0.039 A 
ATOM     30  C   UNL     1       5.884   4.808   9.305  1.00  0.00     0.014 A 
ATOM     31  C   UNL     1       6.083   2.687   8.174  1.00  0.00     0.014 A 
ATOM     32  C   UNL     1       6.263   4.200  10.511  1.00  0.00     0.010 A 
ATOM     33  C   UNL     1       6.444   2.074   9.391  1.00  0.00     0.010 A 
ATOM     34  C   UNL     1       6.539   2.823  10.575  1.00  0.00    -0.014 A 
BRANCH  34  35
ATOM     35  C   UNL     1       6.883   2.203  11.893  1.00  0.00     0.031 A 
ATOM     36  C   UNL     1       8.274   1.709  12.204  1.00  0.00     0.074 A 
ATOM     37  C   UNL     1       5.935   2.121  12.849  1.00  0.00     0.049 A 
ATOM     38  N   UNL     1       8.766   1.284  13.344  1.00  0.00    -0.248 NA
ATOM     39  C   UNL     1       9.232   1.676  11.091  1.00  0.00     0.031 C 
ATOM     40  C   UNL     1       4.536   2.515  12.676  1.00  0.00     0.029 A 
ATOM     41  N   UNL     1       6.002   1.704  14.158  1.00  0.00    -0.354 N 
ATOM     42  C   UNL     1      10.091   0.947  13.091  1.00  0.00     0.074 A 
ATOM     43  C   UNL     1      10.309   1.166  11.675  1.00  0.00     0.031 C 
ATOM     44  C   UNL     1       3.889   2.363  13.842  1.00  0.00     0.029 A 
ATOM     45  C   UNL     1       4.816   1.842  14.842  1.00  0.00     0.049 A 
ATOM     46  H   UNL     1       6.820   1.340  14.566  1.00  0.00     0.167 HD
ATOM     47  C   UNL     1      11.044   0.516  13.957  1.00  0.00     0.037 A 
ATOM     48  C   UNL     1       4.509   1.594  16.131  1.00  0.00     0.037 A 
ATOM     49  C   UNL     1      10.830   0.289  15.366  1.00  0.00     0.049 A 
ATOM     50  C   UNL     1       5.582   1.113  17.070  1.00  0.00     0.074 A 
ATOM     51  C   UNL     1      11.746  -0.105  16.328  1.00  0.00     0.029 A 
ATOM     52  N   UNL     1       9.611   0.425  16.015  1.00  0.00    -0.354 N 
ATOM     53  N   UNL     1       6.851   0.888  16.832  1.00  0.00    -0.248 NA
ATOM     54  C   UNL     1       5.181   0.868  18.463  1.00  0.00     0.031 C 
ATOM     55  C   UNL     1      11.071  -0.259  17.545  1.00  0.00     0.029 A 
ATOM     56  C   UNL     1       9.746   0.097  17.356  1.00  0.00     0.049 A 
ATOM     57  H   UNL     1       8.773   0.712  15.586  1.00  0.00     0.167 HD
ATOM     58  C   UNL     1       7.404   0.501  18.047  1.00  0.00     0.074 A 
ATOM     59  C   UNL     1       6.337   0.546  19.025  1.00  0.00     0.031 C 
ATOM     60  C   UNL     1       8.681   0.140  18.325  1.00  0.00     0.037 A 
BRANCH  47  61
ATOM     61  C   UNL     1      12.421   0.257  13.405  1.00  0.00     0.057 A 
ATOM     62  C   UNL     1      13.252   1.301  12.975  1.00  0.00     0.134 A 
ATOM     63  C   UNL     1      12.943  -1.042  13.348  1.00  0.00     0.134 A 
ATOM     64  F   UNL     1      12.818   2.570  13.002  1.00  0.00    -0.206 F 
ATOM     65  C   UNL     1      14.536   1.060  12.480  1.00  0.00     0.040 A 
ATOM     66  C   UNL     1      14.235  -1.294  12.882  1.00  0.00     0.040 A 
ATOM     67  F   UNL     1      12.211  -2.089  13.759  1.00  0.00    -0.206 F 
ATOM     68  C   UNL     1      15.033  -0.241  12.438  1.00  0.00     0.006 A 
ENDBRANCH  47  61
BRANCH  48  69
ATOM     69  C   UNL     1       3.126   1.830  16.625  1.00  0.00     0.057 A 
ATOM     70  C   UNL     1       2.843   2.856  17.535  1.00  0.00     0.134 A 
ATOM     71  C   UNL     1       2.058   1.026  16.210  1.00  0.00     0.134 A 
ATOM     72  F   UNL     1       3.826   3.648  17.988  1.00  0.00    -0.206 F 
ATOM     73  C   UNL     1       1.554   3.060  18.032  1.00  0.00     0.040 A 
ATOM     74  C   UNL     1       0.759   1.236  16.676  1.00  0.00     0.040 A 
ATOM     75  F   UNL     1       2.260   0.029  15.337  1.00  0.00    -0.206 F 
ATOM     76  C   UNL     1       0.506   2.251  17.596  1.00  0.00     0.006 A 
ENDBRANCH  48  69
BRANCH  60  77
ATOM     77  C   UNL     1       8.999  -0.208  19.753  1.00  0.00     0.057 A 
ATOM     78  C   UNL     1       8.510  -1.372  20.362  1.00  0.00     0.134 A 
ATOM     79  C   UNL     1       9.814   0.628  20.527  1.00  0.00     0.134 A 
ATOM     80  F   UNL     1       7.714  -2.212  19.682  1.00  0.00    -0.206 F 
ATOM     81  C   UNL     1       8.790  -1.673  21.697  1.00  0.00     0.040 A 
ATOM     82  C   UNL     1      10.126   0.323  21.854  1.00  0.00     0.040 A 
ATOM     83  F   UNL     1      10.324   1.754  20.007  1.00  0.00    -0.206 F 
ATOM     84  C   UNL     1       9.604  -0.825  22.445  1.00  0.00     0.006 A 
ENDBRANCH  60  77
ENDBRANCH  34  35
ENDBRANCH  26  29
ENDBRANCH  24  25
ENDBRANCH  23  24
ENDBRANCH   1  23
TORSDOF 14
