REMARK SMILES C[C@]1(C(=O)NCCCNC(=O)c2ccc(-c3c4nc(c(-c5c(F)cccc5F)c5ccc([nH]5)c(-c5c(F)cccc5F)c5nc(c(-c6c(F)cccc6F)c6ccc3[nH]6)C=C5)C=C4)cc2)CCN(c2ccc([N+](=O)[O-])c(N)n2)C1
REMARK SMILES IDX 7 1 6 2 5 3 3 4 4 5 2 7 1 8 66 9 79 10 67 11 68 12 69 13
REMARK SMILES IDX 70 14 78 15 71 16 76 17 72 18 77 19 73 22 74 23 75 24 8 25
REMARK SMILES IDX 9 26 10 27 11 29 12 30 13 31 65 32 14 33 64 34 15 35 16 36
REMARK SMILES IDX 17 37 58 38 18 39 63 40 57 41 59 42 19 43 62 44 56 45 55 46
REMARK SMILES IDX 20 48 46 49 29 50 45 51 30 52 33 53 44 54 60 55 31 56 32 57
REMARK SMILES IDX 43 59 61 60 34 61 21 62 22 63 27 64 23 65 24 66 26 67 28 68
REMARK SMILES IDX 25 69 47 70 48 71 53 72 49 73 50 74 52 75 54 76 51 77 35 78
REMARK SMILES IDX 36 79 41 80 37 81 38 82 40 83 42 84 39 85
REMARK H PARENT 5 6 77 20 77 21 9 28 59 47 33 58
REMARK Flexibility Score: inf
ROOT
ATOM      1  C   UNL     1      -0.083   2.045  -2.419  1.00  0.00     0.042 C 
ENDROOT
BRANCH   1   2
ATOM      2  C   UNL     1       0.611   0.688  -2.293  1.00  0.00     0.117 C 
BRANCH   2   3
ATOM      3  N   UNL     1       1.251   0.545  -0.998  1.00  0.00    -0.356 N 
ATOM      4  C   UNL     1       1.073  -0.266   0.070  1.00  0.00     0.227 C 
ATOM      5  O   UNL     1       1.723   0.072   1.068  1.00  0.00    -0.274 OA
ATOM      6  H   UNL     1       1.984   1.188  -0.867  1.00  0.00     0.163 HD
BRANCH   4   7
ATOM      7  C   UNL     1       0.275  -1.576   0.064  1.00  0.00     0.066 C 
ATOM      8  C   UNL     1      -0.979  -1.638  -0.814  1.00  0.00     0.024 C 
ATOM      9  C   UNL     1       1.227  -2.754  -0.229  1.00  0.00     0.040 C 
ATOM     10  C   UNL     1      -0.145  -1.895   1.519  1.00  0.00     0.134 C 
ATOM     11  C   UNL     1       0.662  -3.948   0.552  1.00  0.00     0.119 C 
ATOM     12  N   UNL     1      -0.229  -3.353   1.539  1.00  0.00    -0.355 N 
BRANCH  12  13
ATOM     13  C   UNL     1      -0.503  -3.979   2.733  1.00  0.00     0.131 A 
ATOM     14  C   UNL     1      -1.690  -3.691   3.404  1.00  0.00     0.054 A 
ATOM     15  N   UNL     1       0.394  -4.849   3.248  1.00  0.00    -0.207 NA
ATOM     16  C   UNL     1      -1.954  -4.290   4.630  1.00  0.00     0.093 A 
ATOM     17  C   UNL     1       0.174  -5.402   4.462  1.00  0.00     0.204 A 
ATOM     18  C   UNL     1      -0.998  -5.151   5.169  1.00  0.00     0.311 A 
BRANCH  17  19
ATOM     19  N   UNL     1       1.167  -6.271   4.870  1.00  0.00    -0.378 N 
ATOM     20  H   UNL     1       1.097  -6.724   5.741  1.00  0.00     0.158 HD
ATOM     21  H   UNL     1       1.944  -6.438   4.290  1.00  0.00     0.158 HD
ENDBRANCH  17  19
BRANCH  18  22
ATOM     22  N   UNL     1      -1.240  -5.742   6.474  1.00  0.00     0.066 N 
ATOM     23  O   UNL     1      -2.422  -5.884   6.824  1.00  0.00    -0.258 OA
ATOM     24  O   UNL     1      -0.263  -6.026   7.183  1.00  0.00    -0.258 OA
ENDBRANCH  18  22
ENDBRANCH  12  13
ENDBRANCH   4   7
ENDBRANCH   2   3
ENDBRANCH   1   2
BRANCH   1  25
ATOM     25  C   UNL     1       0.874   3.232  -2.508  1.00  0.00     0.118 C 
BRANCH  25  26
ATOM     26  N   UNL     1       1.688   3.202  -3.715  1.00  0.00    -0.352 N 
ATOM     27  C   UNL     1       1.806   4.113  -4.735  1.00  0.00     0.251 C 
ATOM     28  H   UNL     1       2.244   2.397  -3.816  1.00  0.00     0.163 HD
ATOM     29  O   UNL     1       2.407   3.795  -5.757  1.00  0.00    -0.269 OA
BRANCH  27  30
ATOM     30  C   UNL     1       1.211   5.463  -4.627  1.00  0.00     0.039 A 
ATOM     31  C   UNL     1       0.606   6.020  -5.759  1.00  0.00     0.014 A 
ATOM     32  C   UNL     1       1.288   6.205  -3.445  1.00  0.00     0.014 A 
ATOM     33  C   UNL     1       0.028   7.290  -5.689  1.00  0.00     0.010 A 
ATOM     34  C   UNL     1       0.652   7.443  -3.357  1.00  0.00     0.010 A 
ATOM     35  C   UNL     1       0.017   7.999  -4.477  1.00  0.00    -0.014 A 
BRANCH  35  36
ATOM     36  C   UNL     1      -0.654   9.320  -4.363  1.00  0.00     0.031 A 
ATOM     37  C   UNL     1       0.148  10.556  -4.062  1.00  0.00     0.074 A 
ATOM     38  C   UNL     1      -1.995   9.397  -4.470  1.00  0.00     0.049 A 
ATOM     39  N   UNL     1      -0.269  11.777  -3.838  1.00  0.00    -0.248 NA
ATOM     40  C   UNL     1       1.608  10.395  -3.978  1.00  0.00     0.031 C 
ATOM     41  C   UNL     1      -2.891   8.267  -4.725  1.00  0.00     0.029 A 
ATOM     42  N   UNL     1      -2.840  10.473  -4.365  1.00  0.00    -0.354 N 
ATOM     43  C   UNL     1       0.872  12.524  -3.572  1.00  0.00     0.074 A 
ATOM     44  C   UNL     1       1.994  11.611  -3.619  1.00  0.00     0.031 C 
ATOM     45  C   UNL     1      -4.157   8.712  -4.774  1.00  0.00     0.029 A 
ATOM     46  C   UNL     1      -4.167  10.149  -4.516  1.00  0.00     0.049 A 
ATOM     47  H   UNL     1      -2.526  11.391  -4.198  1.00  0.00     0.167 HD
ATOM     48  C   UNL     1       0.979  13.852  -3.331  1.00  0.00     0.037 A 
ATOM     49  C   UNL     1      -5.268  10.920  -4.445  1.00  0.00     0.037 A 
ATOM     50  C   UNL     1      -0.133  14.767  -3.313  1.00  0.00     0.049 A 
ATOM     51  C   UNL     1      -5.122  12.391  -4.171  1.00  0.00     0.074 A 
ATOM     52  C   UNL     1      -0.119  16.138  -3.126  1.00  0.00     0.029 A 
ATOM     53  N   UNL     1      -1.458  14.402  -3.493  1.00  0.00    -0.354 N 
ATOM     54  N   UNL     1      -4.031  13.090  -3.972  1.00  0.00    -0.248 NA
ATOM     55  C   UNL     1      -6.360  13.181  -4.116  1.00  0.00     0.031 C 
ATOM     56  C   UNL     1      -1.439  16.599  -3.159  1.00  0.00     0.029 A 
ATOM     57  C   UNL     1      -2.271  15.520  -3.407  1.00  0.00     0.049 A 
ATOM     58  H   UNL     1      -1.774  13.484  -3.656  1.00  0.00     0.167 HD
ATOM     59  C   UNL     1      -4.448  14.403  -3.798  1.00  0.00     0.074 A 
ATOM     60  C   UNL     1      -5.891  14.406  -3.927  1.00  0.00     0.031 C 
ATOM     61  C   UNL     1      -3.704  15.508  -3.553  1.00  0.00     0.037 A 
BRANCH  48  62
ATOM     62  C   UNL     1       2.351  14.404  -3.078  1.00  0.00     0.057 A 
ATOM     63  C   UNL     1       3.294  14.530  -4.106  1.00  0.00     0.134 A 
ATOM     64  C   UNL     1       2.718  14.857  -1.804  1.00  0.00     0.134 A 
ATOM     65  F   UNL     1       3.009  14.104  -5.346  1.00  0.00    -0.206 F 
ATOM     66  C   UNL     1       4.560  15.069  -3.872  1.00  0.00     0.040 A 
ATOM     67  C   UNL     1       3.972  15.421  -1.564  1.00  0.00     0.040 A 
ATOM     68  F   UNL     1       1.859  14.771  -0.777  1.00  0.00    -0.206 F 
ATOM     69  C   UNL     1       4.899  15.523  -2.599  1.00  0.00     0.006 A 
ENDBRANCH  48  62
BRANCH  49  70
ATOM     70  C   UNL     1      -6.611  10.324  -4.652  1.00  0.00     0.057 A 
ATOM     71  C   UNL     1      -7.357  10.611  -5.801  1.00  0.00     0.134 A 
ATOM     72  C   UNL     1      -7.190   9.474  -3.702  1.00  0.00     0.134 A 
ATOM     73  F   UNL     1      -6.863  11.434  -6.738  1.00  0.00    -0.206 F 
ATOM     74  C   UNL     1      -8.640  10.094  -5.988  1.00  0.00     0.040 A 
ATOM     75  C   UNL     1      -8.462   8.931  -3.887  1.00  0.00     0.040 A 
ATOM     76  F   UNL     1      -6.523   9.155  -2.583  1.00  0.00    -0.206 F 
ATOM     77  C   UNL     1      -9.194   9.248  -5.030  1.00  0.00     0.006 A 
ENDBRANCH  49  70
BRANCH  61  78
ATOM     78  C   UNL     1      -4.431  16.816  -3.450  1.00  0.00     0.057 A 
ATOM     79  C   UNL     1      -5.207  17.144  -2.332  1.00  0.00     0.134 A 
ATOM     80  C   UNL     1      -4.323  17.771  -4.469  1.00  0.00     0.134 A 
ATOM     81  F   UNL     1      -5.361  16.265  -1.330  1.00  0.00    -0.206 F 
ATOM     82  C   UNL     1      -5.869  18.369  -2.240  1.00  0.00     0.040 A 
ATOM     83  C   UNL     1      -4.961  19.009  -4.377  1.00  0.00     0.040 A 
ATOM     84  F   UNL     1      -3.588  17.521  -5.563  1.00  0.00    -0.206 F 
ATOM     85  C   UNL     1      -5.741  19.308  -3.263  1.00  0.00     0.006 A 
ENDBRANCH  61  78
ENDBRANCH  35  36
ENDBRANCH  27  30
ENDBRANCH  25  26
ENDBRANCH   1  25
TORSDOF 13
