REMARK SMILES Cc1nccn1C1(C(=O)NCCCNC(=O)c2ccc(-c3c4nc(c(-c5c(F)cccc5F)c5ccc([nH]5)c(-c5c(F)cccc5F)c5nc(c(-c6c(F)cccc6F)c6ccc3[nH]6)C=C5)C=C4)cc2)CCN(C(=O)[C@@H]2C[C@H]2c2ccccc2)CC1
REMARK SMILES IDX 12 1 11 2 10 3 8 4 9 5 7 7 71 8 86 9 72 10 85 11 73 12 74 13
REMARK SMILES IDX 75 14 6 15 1 16 2 17 3 18 4 19 5 20 76 21 77 22 78 23 79 24
REMARK SMILES IDX 80 25 84 26 81 27 83 28 82 29 13 30 14 31 15 32 16 34 17 35
REMARK SMILES IDX 18 36 70 37 19 38 69 39 20 40 21 41 22 42 63 43 23 44 68 45
REMARK SMILES IDX 62 46 64 47 24 48 67 49 61 50 60 51 25 53 51 54 34 55 50 56
REMARK SMILES IDX 35 57 38 58 49 59 65 60 36 61 37 62 48 64 66 65 39 66 26 67
REMARK SMILES IDX 27 68 32 69 28 70 29 71 31 72 33 73 30 74 52 75 53 76 58 77
REMARK SMILES IDX 54 78 55 79 57 80 59 81 56 82 40 83 41 84 46 85 42 86 43 87
REMARK SMILES IDX 45 88 47 89 44 90
REMARK H PARENT 10 6 14 33 64 52 38 63
REMARK Flexibility Score: inf
ROOT
ATOM      1  C   UNL     1       2.538   4.521  -4.021  1.00  0.00     0.042 C 
ENDROOT
BRANCH   1   2
ATOM      2  C   UNL     1       3.156   4.062  -2.702  1.00  0.00     0.117 C 
BRANCH   2   3
ATOM      3  N   UNL     1       2.532   4.672  -1.528  1.00  0.00    -0.354 N 
ATOM      4  C   UNL     1       1.752   4.184  -0.504  1.00  0.00     0.246 C 
ATOM      5  O   UNL     1       1.362   5.074   0.253  1.00  0.00    -0.272 OA
ATOM      6  H   UNL     1       2.708   5.638  -1.454  1.00  0.00     0.163 HD
BRANCH   4   7
ATOM      7  C   UNL     1       1.407   2.637  -0.366  1.00  0.00     0.127 C 
ATOM      8  C   UNL     1       0.597   2.328  -1.652  1.00  0.00     0.061 C 
ATOM      9  C   UNL     1       2.791   1.962  -0.244  1.00  0.00     0.061 C 
ATOM     10  C   UNL     1       0.880   1.001  -2.335  1.00  0.00     0.122 C 
ATOM     11  C   UNL     1       2.743   0.567  -0.795  1.00  0.00     0.122 C 
ATOM     12  N   UNL     1       2.252   0.518  -2.159  1.00  0.00    -0.342 N 
ATOM     13  C   UNL     1       2.818  -0.191  -3.226  1.00  0.00     0.226 C 
ATOM     14  O   UNL     1       2.162  -0.430  -4.238  1.00  0.00    -0.275 OA
BRANCH   7  15
ATOM     15  N   UNL     1       0.578   2.224   0.849  1.00  0.00    -0.320 N 
ATOM     16  C   UNL     1       0.247  -0.442   0.814  1.00  0.00     0.087 C 
ATOM     17  C   UNL     1       0.088   0.966   1.292  1.00  0.00     0.106 A 
ATOM     18  N   UNL     1      -0.596   1.099   2.413  1.00  0.00    -0.242 NA
ATOM     19  C   UNL     1      -0.549   2.396   2.757  1.00  0.00     0.131 A 
ATOM     20  C   UNL     1       0.163   3.102   1.832  1.00  0.00     0.108 A 
ENDBRANCH   7  15
BRANCH  13  21
ATOM     21  C   UNL     1       4.242  -0.661  -3.239  1.00  0.00     0.087 C 
ATOM     22  C   UNL     1       4.660  -1.770  -2.301  1.00  0.00     0.023 C 
ATOM     23  C   UNL     1       5.290  -0.404  -2.203  1.00  0.00     0.032 C 
BRANCH  23  24
ATOM     24  C   UNL     1       6.739  -0.144  -2.413  1.00  0.00    -0.044 A 
ATOM     25  C   UNL     1       7.694  -0.879  -1.695  1.00  0.00     0.004 A 
ATOM     26  C   UNL     1       7.124   1.078  -2.985  1.00  0.00     0.004 A 
ATOM     27  C   UNL     1       8.971  -0.366  -1.481  1.00  0.00     0.000 A 
ATOM     28  C   UNL     1       8.397   1.597  -2.765  1.00  0.00     0.000 A 
ATOM     29  C   UNL     1       9.312   0.882  -1.997  1.00  0.00     0.000 A 
ENDBRANCH  23  24
ENDBRANCH  13  21
ENDBRANCH   4   7
ENDBRANCH   2   3
ENDBRANCH   1   2
BRANCH   1  30
ATOM     30  C   UNL     1       2.792   5.986  -4.301  1.00  0.00     0.118 C 
BRANCH  30  31
ATOM     31  N   UNL     1       4.198   6.282  -4.591  1.00  0.00    -0.352 N 
ATOM     32  C   UNL     1       4.685   7.345  -5.324  1.00  0.00     0.251 C 
ATOM     33  H   UNL     1       4.865   5.658  -4.224  1.00  0.00     0.163 HD
ATOM     34  O   UNL     1       5.821   7.310  -5.821  1.00  0.00    -0.269 OA
BRANCH  32  35
ATOM     35  C   UNL     1       3.866   8.564  -5.406  1.00  0.00     0.039 A 
ATOM     36  C   UNL     1       3.811   9.446  -6.486  1.00  0.00     0.014 A 
ATOM     37  C   UNL     1       3.136   8.859  -4.269  1.00  0.00     0.014 A 
ATOM     38  C   UNL     1       3.026  10.609  -6.347  1.00  0.00     0.010 A 
ATOM     39  C   UNL     1       2.049   9.661  -4.406  1.00  0.00     0.010 A 
ATOM     40  C   UNL     1       2.202  10.764  -5.209  1.00  0.00    -0.014 A 
BRANCH  40  41
ATOM     41  C   UNL     1       1.096  11.727  -5.058  1.00  0.00     0.031 A 
ATOM     42  C   UNL     1       0.167  11.534  -6.228  1.00  0.00     0.074 A 
ATOM     43  C   UNL     1       0.895  12.499  -3.934  1.00  0.00     0.049 A 
ATOM     44  N   UNL     1       0.196  12.229  -7.320  1.00  0.00    -0.248 NA
ATOM     45  C   UNL     1      -0.601  10.273  -6.414  1.00  0.00     0.031 C 
ATOM     46  C   UNL     1       1.669  12.559  -2.673  1.00  0.00     0.029 A 
ATOM     47  N   UNL     1      -0.084  13.448  -3.662  1.00  0.00    -0.354 N 
ATOM     48  C   UNL     1      -0.838  11.732  -8.110  1.00  0.00     0.074 A 
ATOM     49  C   UNL     1      -1.044  10.389  -7.672  1.00  0.00     0.031 C 
ATOM     50  C   UNL     1       0.997  13.258  -1.714  1.00  0.00     0.029 A 
ATOM     51  C   UNL     1      -0.197  13.845  -2.290  1.00  0.00     0.049 A 
ATOM     52  H   UNL     1      -0.662  13.823  -4.366  1.00  0.00     0.167 HD
ATOM     53  C   UNL     1      -1.689  12.614  -8.707  1.00  0.00     0.037 A 
ATOM     54  C   UNL     1      -1.149  14.674  -1.727  1.00  0.00     0.037 A 
ATOM     55  C   UNL     1      -1.079  13.926  -8.676  1.00  0.00     0.049 A 
ATOM     56  C   UNL     1      -1.764  15.430  -2.849  1.00  0.00     0.074 A 
ATOM     57  C   UNL     1       0.070  14.487  -9.192  1.00  0.00     0.029 A 
ATOM     58  N   UNL     1      -1.417  14.655  -7.567  1.00  0.00    -0.354 N 
ATOM     59  N   UNL     1      -1.085  16.282  -3.566  1.00  0.00    -0.248 NA
ATOM     60  C   UNL     1      -2.865  14.747  -3.510  1.00  0.00     0.031 C 
ATOM     61  C   UNL     1       0.579  15.324  -8.153  1.00  0.00     0.029 A 
ATOM     62  C   UNL     1      -0.361  15.398  -7.127  1.00  0.00     0.049 A 
ATOM     63  H   UNL     1      -2.305  14.645  -7.144  1.00  0.00     0.167 HD
ATOM     64  C   UNL     1      -1.307  15.857  -4.865  1.00  0.00     0.074 A 
ATOM     65  C   UNL     1      -2.419  14.896  -4.761  1.00  0.00     0.031 C 
ATOM     66  C   UNL     1      -0.355  16.033  -5.831  1.00  0.00     0.037 A 
BRANCH  53  67
ATOM     67  C   UNL     1      -3.204  12.461  -8.778  1.00  0.00     0.057 A 
ATOM     68  C   UNL     1      -3.946  13.490  -9.394  1.00  0.00     0.134 A 
ATOM     69  C   UNL     1      -3.982  11.546  -8.037  1.00  0.00     0.134 A 
ATOM     70  F   UNL     1      -3.333  14.437 -10.120  1.00  0.00    -0.206 F 
ATOM     71  C   UNL     1      -5.329  13.639  -9.223  1.00  0.00     0.040 A 
ATOM     72  C   UNL     1      -5.372  11.662  -7.895  1.00  0.00     0.040 A 
ATOM     73  F   UNL     1      -3.451  10.540  -7.335  1.00  0.00    -0.206 F 
ATOM     74  C   UNL     1      -6.048  12.726  -8.466  1.00  0.00     0.006 A 
ENDBRANCH  53  67
BRANCH  54  75
ATOM     75  C   UNL     1      -1.872  14.629  -0.404  1.00  0.00     0.057 A 
ATOM     76  C   UNL     1      -2.704  15.664   0.094  1.00  0.00     0.134 A 
ATOM     77  C   UNL     1      -2.029  13.396   0.242  1.00  0.00     0.134 A 
ATOM     78  F   UNL     1      -2.710  16.878  -0.477  1.00  0.00    -0.206 F 
ATOM     79  C   UNL     1      -3.618  15.471   1.157  1.00  0.00     0.040 A 
ATOM     80  C   UNL     1      -2.942  13.187   1.289  1.00  0.00     0.040 A 
ATOM     81  F   UNL     1      -1.367  12.318  -0.197  1.00  0.00    -0.206 F 
ATOM     82  C   UNL     1      -3.747  14.220   1.750  1.00  0.00     0.006 A 
ENDBRANCH  54  75
BRANCH  66  83
ATOM     83  C   UNL     1       0.829  16.912  -5.522  1.00  0.00     0.057 A 
ATOM     84  C   UNL     1       1.879  16.607  -4.638  1.00  0.00     0.134 A 
ATOM     85  C   UNL     1       0.981  18.061  -6.301  1.00  0.00     0.134 A 
ATOM     86  F   UNL     1       1.881  15.472  -3.926  1.00  0.00    -0.206 F 
ATOM     87  C   UNL     1       3.001  17.439  -4.509  1.00  0.00     0.040 A 
ATOM     88  C   UNL     1       2.105  18.879  -6.208  1.00  0.00     0.040 A 
ATOM     89  F   UNL     1       0.055  18.372  -7.221  1.00  0.00    -0.206 F 
ATOM     90  C   UNL     1       3.114  18.581  -5.298  1.00  0.00     0.006 A 
ENDBRANCH  66  83
ENDBRANCH  40  41
ENDBRANCH  32  35
ENDBRANCH  30  31
ENDBRANCH   1  30
TORSDOF 13
