REMARK SMILES CCc1ccc2[nH]c(C(=O)c3cc(C)ccn3)c(CC(=O)NCCCNC(=O)c3ccc(-c4c5nc(c(-c6c(F)cccc6F)c6ccc([nH]6)c(-c6c(F)cccc6F)c6nc(c(-c7c(F)cccc7F)c7ccc4[nH]7)C=C6)C=C5)cc3)c2c1
REMARK SMILES IDX 23 1 22 2 20 3 21 4 19 6 18 7 3 8 4 9 84 10 5 11 83 12 6 13
REMARK SMILES IDX 7 14 8 15 2 17 1 18 9 19 10 20 11 21 12 22 17 23 13 24 16 25
REMARK SMILES IDX 14 26 15 27 24 28 25 29 26 30 27 31 28 33 29 34 30 35 82 36
REMARK SMILES IDX 31 37 81 38 32 39 33 40 34 41 75 42 35 43 80 44 74 45 76 46
REMARK SMILES IDX 36 47 79 48 73 49 72 50 37 52 63 53 46 54 62 55 47 56 50 57
REMARK SMILES IDX 61 58 77 59 48 60 49 61 60 63 78 64 51 65 38 66 39 67 44 68
REMARK SMILES IDX 40 69 41 70 43 71 45 72 42 73 64 74 65 75 70 76 66 77 67 78
REMARK SMILES IDX 69 79 71 80 68 81 52 82 53 83 58 84 54 85 55 86 57 87 59 88
REMARK SMILES IDX 56 89
REMARK H PARENT 22 5 7 16 26 32 76 51 50 62
REMARK Flexibility Score: inf
ROOT
ATOM      1  C   UNL     1      -2.396   3.433   3.176  1.00  0.00     0.117 C 
ENDROOT
BRANCH   1   2
ATOM      2  N   UNL     1      -2.212   4.865   3.273  1.00  0.00    -0.356 N 
ATOM      3  C   UNL     1      -1.138   5.635   2.929  1.00  0.00     0.224 C 
ATOM      4  O   UNL     1      -1.319   6.855   2.908  1.00  0.00    -0.275 OA
ATOM      5  H   UNL     1      -2.978   5.360   3.644  1.00  0.00     0.163 HD
BRANCH   3   6
ATOM      6  C   UNL     1       0.174   5.011   2.468  1.00  0.00     0.138 C 
BRANCH   6   7
ATOM      7  C   UNL     1       0.850   4.120   3.479  1.00  0.00    -0.002 A 
ATOM      8  C   UNL     1       1.085   0.409   2.483  1.00  0.00    -0.048 A 
ATOM      9  C   UNL     1       1.677  -0.006   3.681  1.00  0.00     0.006 A 
ATOM     10  C   UNL     1       0.786   1.770   2.307  1.00  0.00     0.014 A 
ATOM     11  C   UNL     1       1.985   0.902   4.702  1.00  0.00     0.027 A 
ATOM     12  C   UNL     1       1.071   2.708   3.326  1.00  0.00     0.004 A 
ATOM     13  C   UNL     1       1.667   2.248   4.494  1.00  0.00     0.046 A 
ATOM     14  N   UNL     1       1.831   3.334   5.316  1.00  0.00    -0.352 N 
ATOM     15  C   UNL     1       1.420   4.497   4.698  1.00  0.00     0.093 A 
ATOM     16  H   UNL     1       2.196   3.289   6.229  1.00  0.00     0.167 HD
BRANCH   8  17
ATOM     17  C   UNL     1       0.706  -0.609   1.432  1.00  0.00     0.032 C 
ATOM     18  C   UNL     1       1.211  -0.278   0.033  1.00  0.00     0.009 C 
ENDBRANCH   8  17
BRANCH  15  19
ATOM     19  C   UNL     1       1.560   5.839   5.258  1.00  0.00     0.227 C 
ATOM     20  O   UNL     1       1.229   6.859   4.655  1.00  0.00    -0.285 OA
BRANCH  19  21
ATOM     21  C   UNL     1       2.187   6.008   6.595  1.00  0.00     0.113 A 
ATOM     22  C   UNL     1       3.537   5.716   6.766  1.00  0.00     0.036 A 
ATOM     23  N   UNL     1       1.380   6.471   7.582  1.00  0.00    -0.253 NA
ATOM     24  C   UNL     1       4.101   5.911   8.029  1.00  0.00    -0.047 A 
ATOM     25  C   UNL     1       1.960   6.688   8.780  1.00  0.00     0.112 A 
ATOM     26  C   UNL     1       5.549   5.623   8.287  1.00  0.00     0.044 C 
ATOM     27  C   UNL     1       3.295   6.423   9.049  1.00  0.00     0.023 A 
ENDBRANCH  19  21
ENDBRANCH  15  19
ENDBRANCH   6   7
ENDBRANCH   3   6
ENDBRANCH   1   2
BRANCH   1  28
ATOM     28  C   UNL     1      -2.306   2.724   4.523  1.00  0.00     0.042 C 
BRANCH  28  29
ATOM     29  C   UNL     1      -3.417   3.082   5.507  1.00  0.00     0.118 C 
BRANCH  29  30
ATOM     30  N   UNL     1      -4.738   2.693   5.036  1.00  0.00    -0.352 N 
ATOM     31  C   UNL     1      -5.721   1.946   5.632  1.00  0.00     0.251 C 
ATOM     32  H   UNL     1      -4.965   3.023   4.136  1.00  0.00     0.163 HD
ATOM     33  O   UNL     1      -6.704   1.618   4.970  1.00  0.00    -0.269 OA
BRANCH  31  34
ATOM     34  C   UNL     1      -5.623   1.514   7.046  1.00  0.00     0.039 A 
ATOM     35  C   UNL     1      -6.114   0.247   7.385  1.00  0.00     0.014 A 
ATOM     36  C   UNL     1      -5.133   2.354   8.050  1.00  0.00     0.014 A 
ATOM     37  C   UNL     1      -6.073  -0.192   8.710  1.00  0.00     0.010 A 
ATOM     38  C   UNL     1      -5.037   1.893   9.364  1.00  0.00     0.010 A 
ATOM     39  C   UNL     1      -5.514   0.620   9.708  1.00  0.00    -0.014 A 
BRANCH  39  40
ATOM     40  C   UNL     1      -5.438   0.153  11.116  1.00  0.00     0.031 A 
ATOM     41  C   UNL     1      -6.259   0.820  12.184  1.00  0.00     0.074 A 
ATOM     42  C   UNL     1      -4.599  -0.848  11.442  1.00  0.00     0.049 A 
ATOM     43  N   UNL     1      -6.289   0.585  13.472  1.00  0.00    -0.248 NA
ATOM     44  C   UNL     1      -7.148   1.909  11.752  1.00  0.00     0.031 C 
ATOM     45  C   UNL     1      -3.724  -1.558  10.507  1.00  0.00     0.029 A 
ATOM     46  N   UNL     1      -4.342  -1.440  12.653  1.00  0.00    -0.354 N 
ATOM     47  C   UNL     1      -7.183   1.505  14.004  1.00  0.00     0.074 A 
ATOM     48  C   UNL     1      -7.646   2.327  12.907  1.00  0.00     0.031 C 
ATOM     49  C   UNL     1      -3.044  -2.503  11.175  1.00  0.00     0.029 A 
ATOM     50  C   UNL     1      -3.413  -2.448  12.587  1.00  0.00     0.049 A 
ATOM     51  H   UNL     1      -4.782  -1.167  13.491  1.00  0.00     0.167 HD
ATOM     52  C   UNL     1      -7.594   1.643  15.288  1.00  0.00     0.037 A 
ATOM     53  C   UNL     1      -2.914  -3.240  13.554  1.00  0.00     0.037 A 
ATOM     54  C   UNL     1      -7.162   0.806  16.376  1.00  0.00     0.049 A 
ATOM     55  C   UNL     1      -3.398  -3.079  14.967  1.00  0.00     0.074 A 
ATOM     56  C   UNL     1      -7.562   0.838  17.701  1.00  0.00     0.029 A 
ATOM     57  N   UNL     1      -6.235  -0.217  16.263  1.00  0.00    -0.354 N 
ATOM     58  N   UNL     1      -4.275  -2.232  15.447  1.00  0.00    -0.248 NA
ATOM     59  C   UNL     1      -2.825  -3.987  15.971  1.00  0.00     0.031 C 
ATOM     60  C   UNL     1      -6.857  -0.152  18.395  1.00  0.00     0.029 A 
ATOM     61  C   UNL     1      -6.042  -0.819  17.495  1.00  0.00     0.049 A 
ATOM     62  H   UNL     1      -5.780  -0.479  15.429  1.00  0.00     0.167 HD
ATOM     63  C   UNL     1      -4.379  -2.520  16.801  1.00  0.00     0.074 A 
ATOM     64  C   UNL     1      -3.480  -3.625  17.065  1.00  0.00     0.031 C 
ATOM     65  C   UNL     1      -5.151  -1.923  17.740  1.00  0.00     0.037 A 
BRANCH  52  66
ATOM     66  C   UNL     1      -8.571   2.742  15.581  1.00  0.00     0.057 A 
ATOM     67  C   UNL     1      -9.915   2.652  15.198  1.00  0.00     0.134 A 
ATOM     68  C   UNL     1      -8.170   3.889  16.277  1.00  0.00     0.134 A 
ATOM     69  F   UNL     1     -10.358   1.584  14.518  1.00  0.00    -0.206 F 
ATOM     70  C   UNL     1     -10.822   3.677  15.476  1.00  0.00     0.040 A 
ATOM     71  C   UNL     1      -9.072   4.910  16.579  1.00  0.00     0.040 A 
ATOM     72  F   UNL     1      -6.897   4.034  16.677  1.00  0.00    -0.206 F 
ATOM     73  C   UNL     1     -10.401   4.808  16.173  1.00  0.00     0.006 A 
ENDBRANCH  52  66
BRANCH  53  74
ATOM     74  C   UNL     1      -1.922  -4.287  13.212  1.00  0.00     0.057 A 
ATOM     75  C   UNL     1      -2.285  -5.638  13.188  1.00  0.00     0.134 A 
ATOM     76  C   UNL     1      -0.596  -3.965  12.900  1.00  0.00     0.134 A 
ATOM     77  F   UNL     1      -3.537  -6.005  13.496  1.00  0.00    -0.206 F 
ATOM     78  C   UNL     1      -1.361  -6.636  12.877  1.00  0.00     0.040 A 
ATOM     79  C   UNL     1       0.334  -4.952  12.570  1.00  0.00     0.040 A 
ATOM     80  F   UNL     1      -0.191  -2.687  12.901  1.00  0.00    -0.206 F 
ATOM     81  C   UNL     1      -0.047  -6.293  12.562  1.00  0.00     0.006 A 
ENDBRANCH  53  74
BRANCH  65  82
ATOM     82  C   UNL     1      -5.081  -2.473  19.132  1.00  0.00     0.057 A 
ATOM     83  C   UNL     1      -3.995  -2.205  19.974  1.00  0.00     0.134 A 
ATOM     84  C   UNL     1      -6.126  -3.251  19.644  1.00  0.00     0.134 A 
ATOM     85  F   UNL     1      -2.957  -1.478  19.535  1.00  0.00    -0.206 F 
ATOM     86  C   UNL     1      -3.945  -2.706  21.276  1.00  0.00     0.040 A 
ATOM     87  C   UNL     1      -6.095  -3.742  20.950  1.00  0.00     0.040 A 
ATOM     88  F   UNL     1      -7.196  -3.538  18.887  1.00  0.00    -0.206 F 
ATOM     89  C   UNL     1      -5.000  -3.473  21.768  1.00  0.00     0.006 A 
ENDBRANCH  65  82
ENDBRANCH  39  40
ENDBRANCH  31  34
ENDBRANCH  29  30
ENDBRANCH  28  29
ENDBRANCH   1  28
TORSDOF 14
