REMARK SMILES Cc1cccc(C)c1OCC(=O)N1CCC[C@@H](C(=O)NCCCNC(=O)c2ccc(-c3c4nc(c(-c5c(F)cccc5F)c5ccc([nH]5)c(-c5c(F)cccc5F)c5nc(c(-c6c(F)cccc6F)c6ccc3[nH]6)C=C5)C=C4)cc2)C1
REMARK SMILES IDX 21 1 20 2 18 3 19 4 17 6 13 7 14 8 81 9 15 10 16 11 11 12
REMARK SMILES IDX 12 13 10 14 9 15 8 16 1 17 2 18 3 19 4 20 6 21 5 22 7 23
REMARK SMILES IDX 22 24 23 25 24 26 25 27 26 29 27 30 28 31 80 32 29 33 79 34
REMARK SMILES IDX 30 35 31 36 32 37 73 38 33 39 78 40 72 41 74 42 34 43 77 44
REMARK SMILES IDX 71 45 70 46 35 48 61 49 44 50 60 51 45 52 48 53 59 54 75 55
REMARK SMILES IDX 46 56 47 57 58 59 76 60 49 61 36 62 37 63 42 64 38 65 39 66
REMARK SMILES IDX 41 67 43 68 40 69 62 70 63 71 68 72 64 73 65 74 67 75 69 76
REMARK SMILES IDX 66 77 50 78 51 79 56 80 52 81 53 82 55 83 57 84 54 85
REMARK H PARENT 20 5 24 28 74 47 48 58
REMARK Flexibility Score: inf
ROOT
ATOM      1  C   UNL     1      -1.222  -0.768   3.541  1.00  0.00     0.117 C 
ENDROOT
BRANCH   1   2
ATOM      2  N   UNL     1      -1.804   0.409   4.163  1.00  0.00    -0.356 N 
ATOM      3  C   UNL     1      -1.268   1.632   4.421  1.00  0.00     0.224 C 
ATOM      4  O   UNL     1      -1.980   2.471   4.977  1.00  0.00    -0.275 OA
ATOM      5  H   UNL     1      -2.741   0.304   4.445  1.00  0.00     0.163 HD
BRANCH   3   6
ATOM      6  C   UNL     1       0.157   1.948   4.018  1.00  0.00     0.098 C 
ATOM      7  N   UNL     1       1.507   3.425   2.609  1.00  0.00    -0.339 N 
ATOM      8  C   UNL     1       2.393   3.796   3.715  1.00  0.00     0.119 C 
ATOM      9  C   UNL     1       0.137   3.107   3.017  1.00  0.00     0.133 C 
ATOM     10  C   UNL     1       2.412   2.724   4.806  1.00  0.00     0.022 C 
ATOM     11  C   UNL     1       0.997   2.335   5.242  1.00  0.00     0.017 C 
BRANCH   7  12
ATOM     12  C   UNL     1       2.006   3.406   1.315  1.00  0.00     0.260 C 
ATOM     13  O   UNL     1       3.199   3.639   1.084  1.00  0.00    -0.271 OA
BRANCH  12  14
ATOM     14  C   UNL     1       1.057   3.192   0.116  1.00  0.00     0.329 C 
BRANCH  14  15
ATOM     15  O   UNL     1       0.012   2.258   0.108  1.00  0.00    -0.483 OA
BRANCH  15  16
ATOM     16  C   UNL     1       0.140   0.907   0.007  1.00  0.00     0.125 A 
ATOM     17  C   UNL     1       2.714   0.633  -0.066  1.00  0.00     0.048 C 
ATOM     18  C   UNL     1       1.303   0.121  -0.050  1.00  0.00    -0.009 A 
ATOM     19  C   UNL     1       1.164  -1.285  -0.075  1.00  0.00     0.007 A 
ATOM     20  C   UNL     1      -0.082  -1.905  -0.088  1.00  0.00     0.001 A 
ATOM     21  C   UNL     1      -1.130   0.268  -0.023  1.00  0.00    -0.009 A 
ATOM     22  C   UNL     1      -1.229  -1.128  -0.079  1.00  0.00     0.007 A 
ATOM     23  C   UNL     1      -2.402   1.081  -0.006  1.00  0.00     0.048 C 
ENDBRANCH  15  16
ENDBRANCH  14  15
ENDBRANCH  12  14
ENDBRANCH   7  12
ENDBRANCH   3   6
ENDBRANCH   1   2
BRANCH   1  24
ATOM     24  C   UNL     1      -1.024  -1.904   4.539  1.00  0.00     0.042 C 
BRANCH  24  25
ATOM     25  C   UNL     1      -2.328  -2.466   5.103  1.00  0.00     0.118 C 
BRANCH  25  26
ATOM     26  N   UNL     1      -3.181  -3.051   4.077  1.00  0.00    -0.352 N 
ATOM     27  C   UNL     1      -3.704  -4.315   3.964  1.00  0.00     0.251 C 
ATOM     28  H   UNL     1      -3.423  -2.439   3.345  1.00  0.00     0.163 HD
ATOM     29  O   UNL     1      -4.256  -4.648   2.919  1.00  0.00    -0.269 OA
BRANCH  27  30
ATOM     30  C   UNL     1      -3.592  -5.285   5.076  1.00  0.00     0.039 A 
ATOM     31  C   UNL     1      -3.312  -6.621   4.773  1.00  0.00     0.014 A 
ATOM     32  C   UNL     1      -3.793  -4.900   6.404  1.00  0.00     0.014 A 
ATOM     33  C   UNL     1      -3.166  -7.553   5.803  1.00  0.00     0.010 A 
ATOM     34  C   UNL     1      -3.572  -5.812   7.434  1.00  0.00     0.010 A 
ATOM     35  C   UNL     1      -3.256  -7.148   7.145  1.00  0.00    -0.014 A 
BRANCH  35  36
ATOM     36  C   UNL     1      -3.015  -8.108   8.254  1.00  0.00     0.031 A 
ATOM     37  C   UNL     1      -4.116  -8.445   9.222  1.00  0.00     0.074 A 
ATOM     38  C   UNL     1      -1.786  -8.634   8.422  1.00  0.00     0.049 A 
ATOM     39  N   UNL     1      -4.075  -9.202  10.290  1.00  0.00    -0.248 NA
ATOM     40  C   UNL     1      -5.430  -7.833   8.971  1.00  0.00     0.031 C 
ATOM     41  C   UNL     1      -0.622  -8.354   7.580  1.00  0.00     0.029 A 
ATOM     42  N   UNL     1      -1.308  -9.507   9.368  1.00  0.00    -0.354 N 
ATOM     43  C   UNL     1      -5.351  -9.156  10.836  1.00  0.00     0.074 A 
ATOM     44  C   UNL     1      -6.127  -8.248  10.019  1.00  0.00     0.031 C 
ATOM     45  C   UNL     1       0.430  -9.053   8.035  1.00  0.00     0.029 A 
ATOM     46  C   UNL     1       0.027  -9.800   9.223  1.00  0.00     0.049 A 
ATOM     47  H   UNL     1      -1.868  -9.888  10.082  1.00  0.00     0.167 HD
ATOM     48  C   UNL     1      -5.842  -9.830  11.904  1.00  0.00     0.037 A 
ATOM     49  C   UNL     1       0.839 -10.572   9.969  1.00  0.00     0.037 A 
ATOM     50  C   UNL     1      -5.073 -10.741  12.712  1.00  0.00     0.049 A 
ATOM     51  C   UNL     1       0.275 -11.290  11.165  1.00  0.00     0.074 A 
ATOM     52  C   UNL     1      -5.488 -11.491  13.798  1.00  0.00     0.029 A 
ATOM     53  N   UNL     1      -3.729 -11.025  12.521  1.00  0.00    -0.354 N 
ATOM     54  N   UNL     1      -0.948 -11.279  11.636  1.00  0.00    -0.248 NA
ATOM     55  C   UNL     1       1.204 -12.136  11.928  1.00  0.00     0.031 C 
ATOM     56  C   UNL     1      -4.386 -12.200  14.288  1.00  0.00     0.029 A 
ATOM     57  C   UNL     1      -3.296 -11.929  13.477  1.00  0.00     0.049 A 
ATOM     58  H   UNL     1      -3.166 -10.640  11.810  1.00  0.00     0.167 HD
ATOM     59  C   UNL     1      -0.943 -12.136  12.729  1.00  0.00     0.074 A 
ATOM     60  C   UNL     1       0.401 -12.664  12.840  1.00  0.00     0.031 C 
ATOM     61  C   UNL     1      -1.959 -12.456  13.567  1.00  0.00     0.037 A 
BRANCH  48  62
ATOM     62  C   UNL     1      -7.287  -9.617  12.252  1.00  0.00     0.057 A 
ATOM     63  C   UNL     1      -8.317 -10.112  11.440  1.00  0.00     0.134 A 
ATOM     64  C   UNL     1      -7.656  -8.951  13.427  1.00  0.00     0.134 A 
ATOM     65  F   UNL     1      -8.033 -10.750  10.294  1.00  0.00    -0.206 F 
ATOM     66  C   UNL     1      -9.661  -9.931  11.772  1.00  0.00     0.040 A 
ATOM     67  C   UNL     1      -8.996  -8.788  13.784  1.00  0.00     0.040 A 
ATOM     68  F   UNL     1      -6.721  -8.459  14.253  1.00  0.00    -0.206 F 
ATOM     69  C   UNL     1     -10.003  -9.274  12.951  1.00  0.00     0.006 A 
ENDBRANCH  48  62
BRANCH  49  70
ATOM     70  C   UNL     1       2.273 -10.717   9.610  1.00  0.00     0.057 A 
ATOM     71  C   UNL     1       2.784 -11.935   9.147  1.00  0.00     0.134 A 
ATOM     72  C   UNL     1       3.171  -9.652   9.748  1.00  0.00     0.134 A 
ATOM     73  F   UNL     1       1.978 -12.998   9.011  1.00  0.00    -0.206 F 
ATOM     74  C   UNL     1       4.141 -12.099   8.863  1.00  0.00     0.040 A 
ATOM     75  C   UNL     1       4.525  -9.793   9.440  1.00  0.00     0.040 A 
ATOM     76  F   UNL     1       2.744  -8.456  10.178  1.00  0.00    -0.206 F 
ATOM     77  C   UNL     1       5.016 -11.023   9.007  1.00  0.00     0.006 A 
ENDBRANCH  49  70
BRANCH  61  78
ATOM     78  C   UNL     1      -1.667 -13.453  14.650  1.00  0.00     0.057 A 
ATOM     79  C   UNL     1      -0.868 -13.134  15.756  1.00  0.00     0.134 A 
ATOM     80  C   UNL     1      -2.217 -14.740  14.599  1.00  0.00     0.134 A 
ATOM     81  F   UNL     1      -0.300 -11.923  15.858  1.00  0.00    -0.206 F 
ATOM     82  C   UNL     1      -0.606 -14.069  16.759  1.00  0.00     0.040 A 
ATOM     83  C   UNL     1      -1.985 -15.674  15.610  1.00  0.00     0.040 A 
ATOM     84  F   UNL     1      -2.998 -15.107  13.572  1.00  0.00    -0.206 F 
ATOM     85  C   UNL     1      -1.171 -15.341  16.691  1.00  0.00     0.006 A 
ENDBRANCH  61  78
ENDBRANCH  35  36
ENDBRANCH  27  30
ENDBRANCH  25  26
ENDBRANCH  24  25
ENDBRANCH   1  24
TORSDOF 14
