REMARK SMILES COc1ccc2c(c1)OC[C@@]1(C(=O)NCCCNC(=O)c3ccc(-c4c5nc(c(-c6c(F)cccc6F)c6ccc([nH]6)c(-c6c(F)cccc6F)c6nc(c(-c7c(F)cccc7F)c7ccc4[nH]7)C=C6)C=C5)cc3)C[N@@H+](Cc3cc(C(C)(C)C)n[nH]3)C[C@H]21
REMARK SMILES IDX 15 1 14 2 12 3 13 4 11 6 3 7 4 8 8 9 5 10 7 11 6 12 9 13
REMARK SMILES IDX 88 14 10 15 87 16 75 17 76 18 2 20 1 21 77 22 78 23 79 24
REMARK SMILES IDX 86 25 80 26 85 27 81 29 82 30 83 31 84 32 16 33 17 34 18 35
REMARK SMILES IDX 19 36 20 38 21 39 22 40 74 41 23 42 73 43 24 44 25 45 26 46
REMARK SMILES IDX 67 47 27 48 72 49 66 50 68 51 28 52 71 53 65 54 64 55 29 57
REMARK SMILES IDX 55 58 38 59 54 60 39 61 42 62 53 63 69 64 40 65 41 66 52 68
REMARK SMILES IDX 70 69 43 70 30 71 31 72 36 73 32 74 33 75 35 76 37 77 34 78
REMARK SMILES IDX 56 79 57 80 62 81 58 82 59 83 61 84 63 85 60 86 44 87 45 88
REMARK SMILES IDX 50 89 46 90 47 91 49 92 51 93 48 94
REMARK H PARENT 14 5 76 19 86 28 18 37 68 56 42 67
REMARK Flexibility Score: inf
ROOT
ATOM      1  C   UNL     1       4.878   2.603   8.041  1.00  0.00     0.117 C 
ENDROOT
BRANCH   1   2
ATOM      2  N   UNL     1       5.525   3.262   6.915  1.00  0.00    -0.355 N 
ATOM      3  C   UNL     1       4.895   3.947   5.898  1.00  0.00     0.236 C 
ATOM      4  O   UNL     1       5.501   4.894   5.390  1.00  0.00    -0.274 OA
ATOM      5  H   UNL     1       6.508   3.213   6.875  1.00  0.00     0.163 HD
BRANCH   3   6
ATOM      6  C   UNL     1       3.473   3.457   5.474  1.00  0.00     0.144 C 
ATOM      7  C   UNL     1       0.737   1.635   1.306  1.00  0.00     0.122 A 
ATOM      8  C   UNL     1      -0.119   2.550   1.920  1.00  0.00     0.047 A 
ATOM      9  C   UNL     1       2.008   1.419   1.840  1.00  0.00     0.093 A 
ATOM     10  C   UNL     1       0.275   3.220   3.078  1.00  0.00     0.012 A 
ATOM     11  C   UNL     1       2.403   2.122   2.981  1.00  0.00     0.126 A 
ATOM     12  C   UNL     1       1.543   2.993   3.628  1.00  0.00     0.005 A 
ATOM     13  O   UNL     1       3.673   1.967   3.447  1.00  0.00    -0.492 OA
ATOM     14  C   UNL     1       2.040   3.764   4.827  1.00  0.00     0.103 C 
ATOM     15  C   UNL     1       4.154   3.198   4.047  1.00  0.00     0.253 C 
ATOM     16  C   UNL     1       1.065   3.575   5.999  1.00  0.00     0.272 C 
ATOM     17  C   UNL     1       3.054   4.620   6.537  1.00  0.00     0.284 C 
ATOM     18  N   UNL     1       1.821   4.073   7.131  1.00  0.00    -0.328 N 
ATOM     19  H   UNL     1       2.030   3.325   7.791  1.00  0.00     0.348 HD
BRANCH   7  20
ATOM     20  O   UNL     1       0.239   1.065   0.168  1.00  0.00    -0.497 OA
ATOM     21  C   UNL     1       0.782  -0.203  -0.176  1.00  0.00     0.278 C 
ENDBRANCH   7  20
BRANCH  18  22
ATOM     22  C   UNL     1       1.102   4.954   8.051  1.00  0.00     0.319 C 
BRANCH  22  23
ATOM     23  C   UNL     1       0.924   6.317   7.502  1.00  0.00     0.090 A 
ATOM     24  C   UNL     1       0.147   6.793   6.473  1.00  0.00     0.055 A 
ATOM     25  N   UNL     1       1.704   7.370   7.890  1.00  0.00    -0.277 N 
ATOM     26  C   UNL     1       0.715   8.044   6.144  1.00  0.00     0.068 A 
ATOM     27  N   UNL     1       1.613   8.422   7.066  1.00  0.00    -0.180 NA
ATOM     28  H   UNL     1       2.275   7.356   8.692  1.00  0.00     0.190 HD
BRANCH  26  29
ATOM     29  C   UNL     1       0.477   8.882   4.904  1.00  0.00     0.006 C 
ATOM     30  C   UNL     1      -0.260  10.175   5.282  1.00  0.00     0.017 C 
ATOM     31  C   UNL     1       1.825   9.228   4.234  1.00  0.00     0.017 C 
ATOM     32  C   UNL     1      -0.368   8.116   3.861  1.00  0.00     0.017 C 
ENDBRANCH  26  29
ENDBRANCH  22  23
ENDBRANCH  18  22
ENDBRANCH   3   6
ENDBRANCH   1   2
BRANCH   1  33
ATOM     33  C   UNL     1       5.453   1.248   8.387  1.00  0.00     0.042 C 
BRANCH  33  34
ATOM     34  C   UNL     1       6.971   1.202   8.412  1.00  0.00     0.118 C 
BRANCH  34  35
ATOM     35  N   UNL     1       7.575   2.027   9.456  1.00  0.00    -0.352 N 
ATOM     36  C   UNL     1       8.084   1.707  10.694  1.00  0.00     0.251 C 
ATOM     37  H   UNL     1       7.628   2.984   9.233  1.00  0.00     0.163 HD
ATOM     38  O   UNL     1       8.446   2.605  11.451  1.00  0.00    -0.269 OA
BRANCH  36  39
ATOM     39  C   UNL     1       8.135   0.301  11.147  1.00  0.00     0.039 A 
ATOM     40  C   UNL     1       8.499  -0.718  10.275  1.00  0.00     0.014 A 
ATOM     41  C   UNL     1       7.765  -0.011  12.459  1.00  0.00     0.014 A 
ATOM     42  C   UNL     1       8.213  -2.034  10.605  1.00  0.00     0.010 A 
ATOM     43  C   UNL     1       7.624  -1.349  12.841  1.00  0.00     0.010 A 
ATOM     44  C   UNL     1       7.761  -2.371  11.890  1.00  0.00    -0.014 A 
BRANCH  44  45
ATOM     45  C   UNL     1       7.400  -3.785  12.183  1.00  0.00     0.031 A 
ATOM     46  C   UNL     1       6.000  -4.152  12.610  1.00  0.00     0.074 A 
ATOM     47  C   UNL     1       8.309  -4.758  11.971  1.00  0.00     0.049 A 
ATOM     48  N   UNL     1       5.503  -5.333  12.887  1.00  0.00    -0.248 NA
ATOM     49  C   UNL     1       5.031  -3.053  12.756  1.00  0.00     0.031 C 
ATOM     50  C   UNL     1       9.693  -4.541  11.540  1.00  0.00     0.029 A 
ATOM     51  N   UNL     1       8.197  -6.122  12.044  1.00  0.00    -0.354 N 
ATOM     52  C   UNL     1       4.186  -5.114  13.274  1.00  0.00     0.074 A 
ATOM     53  C   UNL     1       3.963  -3.686  13.219  1.00  0.00     0.031 C 
ATOM     54  C   UNL     1      10.273  -5.727  11.307  1.00  0.00     0.029 A 
ATOM     55  C   UNL     1       9.334  -6.787  11.652  1.00  0.00     0.049 A 
ATOM     56  H   UNL     1       7.381  -6.581  12.349  1.00  0.00     0.167 HD
ATOM     57  C   UNL     1       3.242  -6.019  13.630  1.00  0.00     0.037 A 
ATOM     58  C   UNL     1       9.600  -8.104  11.591  1.00  0.00     0.037 A 
ATOM     59  C   UNL     1       3.447  -7.444  13.643  1.00  0.00     0.049 A 
ATOM     60  C   UNL     1       8.546  -9.082  12.017  1.00  0.00     0.074 A 
ATOM     61  C   UNL     1       2.547  -8.444  13.972  1.00  0.00     0.029 A 
ATOM     62  N   UNL     1       4.634  -8.072  13.301  1.00  0.00    -0.354 N 
ATOM     63  N   UNL     1       7.313  -8.854  12.398  1.00  0.00    -0.248 NA
ATOM     64  C   UNL     1       8.929 -10.500  12.023  1.00  0.00     0.031 C 
ATOM     65  C   UNL     1       3.202  -9.676  13.860  1.00  0.00     0.029 A 
ATOM     66  C   UNL     1       4.497  -9.445  13.426  1.00  0.00     0.049 A 
ATOM     67  H   UNL     1       5.455  -7.611  13.012  1.00  0.00     0.167 HD
ATOM     68  C   UNL     1       6.771 -10.099  12.685  1.00  0.00     0.074 A 
ATOM     69  C   UNL     1       7.801 -11.079  12.406  1.00  0.00     0.031 C 
ATOM     70  C   UNL     1       5.534 -10.403  13.148  1.00  0.00     0.037 A 
BRANCH  57  71
ATOM     71  C   UNL     1       1.902  -5.489  14.055  1.00  0.00     0.057 A 
ATOM     72  C   UNL     1       1.512  -5.537  15.400  1.00  0.00     0.134 A 
ATOM     73  C   UNL     1       0.990  -4.951  13.138  1.00  0.00     0.134 A 
ATOM     74  F   UNL     1       2.335  -6.045  16.329  1.00  0.00    -0.206 F 
ATOM     75  C   UNL     1       0.265  -5.069  15.817  1.00  0.00     0.040 A 
ATOM     76  C   UNL     1      -0.251  -4.458  13.546  1.00  0.00     0.040 A 
ATOM     77  F   UNL     1       1.307  -4.860  11.837  1.00  0.00    -0.206 F 
ATOM     78  C   UNL     1      -0.619  -4.521  14.889  1.00  0.00     0.006 A 
ENDBRANCH  57  71
BRANCH  58  79
ATOM     79  C   UNL     1      10.930  -8.572  11.128  1.00  0.00     0.057 A 
ATOM     80  C   UNL     1      12.084  -8.357  11.890  1.00  0.00     0.134 A 
ATOM     81  C   UNL     1      11.075  -9.252   9.914  1.00  0.00     0.134 A 
ATOM     82  F   UNL     1      12.011  -7.708  13.062  1.00  0.00    -0.206 F 
ATOM     83  C   UNL     1      13.338  -8.787  11.455  1.00  0.00     0.040 A 
ATOM     84  C   UNL     1      12.318  -9.711   9.479  1.00  0.00     0.040 A 
ATOM     85  F   UNL     1      10.002  -9.505   9.149  1.00  0.00    -0.206 F 
ATOM     86  C   UNL     1      13.456  -9.473  10.249  1.00  0.00     0.006 A 
ENDBRANCH  58  79
BRANCH  70  87
ATOM     87  C   UNL     1       5.235 -11.856  13.362  1.00  0.00     0.057 A 
ATOM     88  C   UNL     1       4.395 -12.550  12.483  1.00  0.00     0.134 A 
ATOM     89  C   UNL     1       5.778 -12.566  14.440  1.00  0.00     0.134 A 
ATOM     90  F   UNL     1       3.841 -11.925  11.434  1.00  0.00    -0.206 F 
ATOM     91  C   UNL     1       4.109 -13.903  12.667  1.00  0.00     0.040 A 
ATOM     92  C   UNL     1       5.517 -13.925  14.621  1.00  0.00     0.040 A 
ATOM     93  F   UNL     1       6.605 -11.960  15.306  1.00  0.00    -0.206 F 
ATOM     94  C   UNL     1       4.677 -14.595  13.735  1.00  0.00     0.006 A 
ENDBRANCH  70  87
ENDBRANCH  44  45
ENDBRANCH  36  39
ENDBRANCH  34  35
ENDBRANCH  33  34
ENDBRANCH   1  33
TORSDOF 14
