REMARK SMILES N#CCCn1cc(/C=C/c2cc(C(=O)NCCCNC(=O)c3ccc(-c4c5nc(c(-c6c(F)cccc6F)c6ccc([nH]6)c(-c6c(F)cccc6F)c6nc(c(-c7c(F)cccc7F)c7ccc4[nH]7)C=C6)C=C5)cc3)c3ccccc3n2)c(-c2ccccc2)n1
REMARK SMILES IDX 13 1 14 2 15 3 12 5 10 6 11 7 82 8 81 9 76 10 80 11 77 12
REMARK SMILES IDX 79 13 78 14 9 15 8 16 7 17 5 18 6 19 90 20 83 21 4 22 3 23
REMARK SMILES IDX 2 24 1 25 84 26 85 27 89 28 86 29 88 30 87 31 16 32 17 33
REMARK SMILES IDX 18 34 19 35 20 36 21 38 22 39 23 40 75 41 24 42 74 43 25 44
REMARK SMILES IDX 26 45 27 46 68 47 28 48 73 49 67 50 69 51 29 52 72 53 66 54
REMARK SMILES IDX 65 55 30 57 56 58 39 59 55 60 40 61 43 62 54 63 70 64 41 65
REMARK SMILES IDX 42 66 53 68 71 69 44 70 31 71 32 72 37 73 33 74 34 75 36 76
REMARK SMILES IDX 38 77 35 78 57 79 58 80 63 81 59 82 60 83 62 84 64 85 61 86
REMARK SMILES IDX 45 87 46 88 51 89 47 90 48 91 50 92 52 93 49 94
REMARK H PARENT 15 4 19 37 69 56 43 67
REMARK Flexibility Score: inf
ROOT
ATOM      1  C   UNL     1       3.823  -9.490  -6.498  1.00  0.00     0.252 C 
ATOM      2  O   UNL     1       3.549  -8.611  -7.322  1.00  0.00    -0.269 OA
ATOM      3  N   UNL     1       4.486 -10.578  -6.997  1.00  0.00    -0.352 N 
ATOM      4  H   UNL     1       4.812 -10.454  -7.918  1.00  0.00     0.163 HD
ENDROOT
BRANCH   1   5
ATOM      5  C   UNL     1       3.560  -9.218  -5.049  1.00  0.00     0.051 A 
ATOM      6  C   UNL     1       3.607  -7.444  -3.457  1.00  0.00     0.065 A 
ATOM      7  C   UNL     1       3.756  -7.870  -4.755  1.00  0.00     0.042 A 
ATOM      8  N   UNL     1       3.355  -8.269  -2.428  1.00  0.00    -0.248 NA
ATOM      9  C   UNL     1       3.142  -9.553  -2.684  1.00  0.00     0.072 A 
ATOM     10  C   UNL     1       3.156 -10.083  -3.989  1.00  0.00     0.013 A 
ATOM     11  C   UNL     1       2.862 -10.361  -1.589  1.00  0.00     0.029 A 
ATOM     12  C   UNL     1       2.694 -11.407  -4.093  1.00  0.00     0.011 A 
ATOM     13  C   UNL     1       2.590 -11.718  -1.726  1.00  0.00     0.002 A 
ATOM     14  C   UNL     1       2.488 -12.244  -2.996  1.00  0.00     0.001 A 
BRANCH   6  15
ATOM     15  C   UNL     1       3.671  -6.027  -3.170  1.00  0.00     0.029 C 
ATOM     16  C   UNL     1       3.564  -5.527  -1.934  1.00  0.00     0.014 C 
BRANCH  16  17
ATOM     17  C   UNL     1       3.560  -4.141  -1.661  1.00  0.00     0.021 A 
ATOM     18  N   UNL     1       3.945  -2.269  -0.660  1.00  0.00    -0.270 N 
ATOM     19  C   UNL     1       4.074  -3.609  -0.509  1.00  0.00     0.117 A 
ATOM     20  N   UNL     1       3.440  -1.889  -1.848  1.00  0.00    -0.172 NA
ATOM     21  C   UNL     1       3.099  -3.041  -2.445  1.00  0.00     0.100 A 
BRANCH  18  22
ATOM     22  C   UNL     1       4.298  -1.290   0.342  1.00  0.00     0.159 C 
BRANCH  22  23
ATOM     23  C   UNL     1       3.743   0.079   0.048  1.00  0.00     0.144 C 
BRANCH  23  24
ATOM     24  C   UNL     1       2.223   0.079   0.048  1.00  0.00     0.064 C 
ATOM     25  N   UNL     1       0.962   0.079   0.048  1.00  0.00    -0.198 NA
ENDBRANCH  23  24
ENDBRANCH  22  23
ENDBRANCH  18  22
BRANCH  21  26
ATOM     26  C   UNL     1       2.424  -3.078  -3.743  1.00  0.00     0.003 A 
ATOM     27  C   UNL     1       1.278  -3.868  -3.926  1.00  0.00     0.010 A 
ATOM     28  C   UNL     1       2.998  -2.442  -4.849  1.00  0.00     0.010 A 
ATOM     29  C   UNL     1       0.760  -4.077  -5.206  1.00  0.00     0.001 A 
ATOM     30  C   UNL     1       2.476  -2.650  -6.129  1.00  0.00     0.001 A 
ATOM     31  C   UNL     1       1.370  -3.481  -6.308  1.00  0.00     0.000 A 
ENDBRANCH  21  26
ENDBRANCH  16  17
ENDBRANCH   6  15
ENDBRANCH   1   5
BRANCH   3  32
ATOM     32  C   UNL     1       4.801 -11.876  -6.438  1.00  0.00     0.118 C 
BRANCH  32  33
ATOM     33  C   UNL     1       3.623 -12.830  -6.676  1.00  0.00     0.042 C 
BRANCH  33  34
ATOM     34  C   UNL     1       3.747 -13.653  -7.921  1.00  0.00     0.118 C 
BRANCH  34  35
ATOM     35  N   UNL     1       4.659 -14.783  -7.759  1.00  0.00    -0.352 N 
ATOM     36  C   UNL     1       4.889 -15.805  -8.672  1.00  0.00     0.251 C 
ATOM     37  H   UNL     1       5.163 -14.825  -6.914  1.00  0.00     0.163 HD
ATOM     38  O   UNL     1       5.349 -16.874  -8.332  1.00  0.00    -0.269 OA
BRANCH  36  39
ATOM     39  C   UNL     1       4.535 -15.526 -10.078  1.00  0.00     0.039 A 
ATOM     40  C   UNL     1       3.901 -16.449 -10.906  1.00  0.00     0.014 A 
ATOM     41  C   UNL     1       4.724 -14.217 -10.489  1.00  0.00     0.014 A 
ATOM     42  C   UNL     1       3.410 -15.988 -12.125  1.00  0.00     0.010 A 
ATOM     43  C   UNL     1       3.891 -13.720 -11.438  1.00  0.00     0.010 A 
ATOM     44  C   UNL     1       3.391 -14.602 -12.366  1.00  0.00    -0.014 A 
BRANCH  44  45
ATOM     45  C   UNL     1       2.810 -13.999 -13.550  1.00  0.00     0.031 A 
ATOM     46  C   UNL     1       1.446 -14.476 -13.834  1.00  0.00     0.074 A 
ATOM     47  C   UNL     1       3.381 -12.982 -14.235  1.00  0.00     0.049 A 
ATOM     48  N   UNL     1       1.126 -15.413 -14.657  1.00  0.00    -0.248 NA
ATOM     49  C   UNL     1       0.346 -14.033 -12.967  1.00  0.00     0.031 C 
ATOM     50  C   UNL     1       4.566 -12.171 -13.917  1.00  0.00     0.029 A 
ATOM     51  N   UNL     1       2.958 -12.427 -15.401  1.00  0.00    -0.354 N 
ATOM     52  C   UNL     1      -0.256 -15.502 -14.603  1.00  0.00     0.074 A 
ATOM     53  C   UNL     1      -0.649 -14.812 -13.402  1.00  0.00     0.031 C 
ATOM     54  C   UNL     1       4.639 -11.110 -14.753  1.00  0.00     0.029 A 
ATOM     55  C   UNL     1       3.629 -11.269 -15.780  1.00  0.00     0.049 A 
ATOM     56  H   UNL     1       2.230 -12.816 -15.938  1.00  0.00     0.167 HD
ATOM     57  C   UNL     1      -0.952 -15.892 -15.705  1.00  0.00     0.037 A 
ATOM     58  C   UNL     1       3.370 -10.514 -16.877  1.00  0.00     0.037 A 
ATOM     59  C   UNL     1      -0.063 -16.469 -16.691  1.00  0.00     0.049 A 
ATOM     60  C   UNL     1       2.638 -11.385 -17.833  1.00  0.00     0.074 A 
ATOM     61  C   UNL     1       0.810 -17.541 -16.703  1.00  0.00     0.029 A 
ATOM     62  N   UNL     1       0.329 -15.661 -17.733  1.00  0.00    -0.354 N 
ATOM     63  N   UNL     1       3.181 -12.412 -18.428  1.00  0.00    -0.248 NA
ATOM     64  C   UNL     1       1.187 -11.414 -17.735  1.00  0.00     0.031 C 
ATOM     65  C   UNL     1       1.954 -17.079 -17.421  1.00  0.00     0.029 A 
ATOM     66  C   UNL     1       1.687 -15.789 -17.882  1.00  0.00     0.049 A 
ATOM     67  H   UNL     1      -0.261 -15.091 -18.277  1.00  0.00     0.167 HD
ATOM     68  C   UNL     1       2.210 -13.403 -18.379  1.00  0.00     0.074 A 
ATOM     69  C   UNL     1       0.978 -12.706 -18.007  1.00  0.00     0.031 C 
ATOM     70  C   UNL     1       2.550 -14.726 -18.349  1.00  0.00     0.037 A 
BRANCH  57  71
ATOM     71  C   UNL     1      -2.322 -15.382 -16.073  1.00  0.00     0.057 A 
ATOM     72  C   UNL     1      -2.965 -15.935 -17.195  1.00  0.00     0.134 A 
ATOM     73  C   UNL     1      -2.902 -14.196 -15.576  1.00  0.00     0.134 A 
ATOM     74  F   UNL     1      -2.513 -17.064 -17.761  1.00  0.00    -0.206 F 
ATOM     75  C   UNL     1      -4.038 -15.303 -17.832  1.00  0.00     0.040 A 
ATOM     76  C   UNL     1      -4.005 -13.584 -16.176  1.00  0.00     0.040 A 
ATOM     77  F   UNL     1      -2.384 -13.507 -14.555  1.00  0.00    -0.206 F 
ATOM     78  C   UNL     1      -4.554 -14.116 -17.330  1.00  0.00     0.006 A 
ENDBRANCH  57  71
BRANCH  58  79
ATOM     79  C   UNL     1       3.413  -9.041 -17.023  1.00  0.00     0.057 A 
ATOM     80  C   UNL     1       3.374  -8.435 -18.288  1.00  0.00     0.134 A 
ATOM     81  C   UNL     1       3.184  -8.194 -15.926  1.00  0.00     0.134 A 
ATOM     82  F   UNL     1       3.542  -9.167 -19.398  1.00  0.00    -0.206 F 
ATOM     83  C   UNL     1       3.088  -7.072 -18.454  1.00  0.00     0.040 A 
ATOM     84  C   UNL     1       2.898  -6.832 -16.077  1.00  0.00     0.040 A 
ATOM     85  F   UNL     1       3.136  -8.679 -14.677  1.00  0.00    -0.206 F 
ATOM     86  C   UNL     1       2.833  -6.269 -17.346  1.00  0.00     0.006 A 
ENDBRANCH  58  79
BRANCH  70  87
ATOM     87  C   UNL     1       3.989 -15.088 -18.619  1.00  0.00     0.057 A 
ATOM     88  C   UNL     1       5.070 -14.719 -17.801  1.00  0.00     0.134 A 
ATOM     89  C   UNL     1       4.271 -15.968 -19.668  1.00  0.00     0.134 A 
ATOM     90  F   UNL     1       4.892 -13.954 -16.718  1.00  0.00    -0.206 F 
ATOM     91  C   UNL     1       6.371 -15.176 -18.041  1.00  0.00     0.040 A 
ATOM     92  C   UNL     1       5.559 -16.457 -19.900  1.00  0.00     0.040 A 
ATOM     93  F   UNL     1       3.282 -16.408 -20.462  1.00  0.00    -0.206 F 
ATOM     94  C   UNL     1       6.617 -16.055 -19.090  1.00  0.00     0.006 A 
ENDBRANCH  70  87
ENDBRANCH  44  45
ENDBRANCH  36  39
ENDBRANCH  34  35
ENDBRANCH  33  34
ENDBRANCH  32  33
ENDBRANCH   3  32
TORSDOF 16
