REMARK SMILES C[C@@H]1CN(C(=O)C[N@H+]2CCO[C@H](CC(=O)NCCCNC(=O)c3ccc(-c4c5nc(c(-c6c(F)cccc6F)c6ccc([nH]6)c(-c6c(F)cccc6F)c6nc(c(-c7c(F)cccc7F)c7ccc4[nH]7)C=C6)C=C5)cc3)C2)C[C@H](C)O1
REMARK SMILES IDX 17 1 16 2 14 3 15 4 13 6 12 7 8 8 9 9 77 10 10 12 11 13 7 14
REMARK SMILES IDX 5 15 6 16 4 17 1 18 2 19 3 20 81 21 79 22 78 23 80 24 18 25
REMARK SMILES IDX 19 26 20 27 21 28 22 30 23 31 24 32 76 33 25 34 75 35 26 36
REMARK SMILES IDX 27 37 28 38 69 39 29 40 74 41 68 42 70 43 30 44 73 45 67 46
REMARK SMILES IDX 66 47 31 49 57 50 40 51 56 52 41 53 44 54 55 55 71 56 42 57
REMARK SMILES IDX 43 58 54 60 72 61 45 62 32 63 33 64 38 65 34 66 35 67 37 68
REMARK SMILES IDX 39 69 36 70 58 71 59 72 64 73 60 74 61 75 63 76 65 77 62 78
REMARK SMILES IDX 46 79 47 80 52 81 48 82 49 83 51 84 53 85 50 86
REMARK H PARENT 16 5 8 11 20 29 70 48 44 59
REMARK Flexibility Score: inf
ROOT
ATOM      1  C   UNL     1       3.234   1.741  -4.139  1.00  0.00     0.117 C 
ENDROOT
BRANCH   1   2
ATOM      2  N   UNL     1       2.697   0.497  -3.618  1.00  0.00    -0.356 N 
ATOM      3  C   UNL     1       1.956   0.313  -2.490  1.00  0.00     0.222 C 
ATOM      4  O   UNL     1       1.738  -0.824  -2.078  1.00  0.00    -0.275 OA
ATOM      5  H   UNL     1       2.893  -0.312  -4.143  1.00  0.00     0.163 HD
BRANCH   3   6
ATOM      6  C   UNL     1       1.347   1.521  -1.849  1.00  0.00     0.138 C 
BRANCH   6   7
ATOM      7  C   UNL     1       2.104   2.147  -0.682  1.00  0.00     0.182 C 
ATOM      8  N   UNL     1       2.723   4.362   0.268  1.00  0.00    -0.323 N 
ATOM      9  C   UNL     1       3.933   3.708   0.802  1.00  0.00     0.291 C 
ATOM     10  C   UNL     1       2.241   3.658  -0.916  1.00  0.00     0.295 C 
ATOM     11  H   UNL     1       3.042   5.294   0.003  1.00  0.00     0.348 HD
ATOM     12  C   UNL     1       3.887   2.161   0.846  1.00  0.00     0.222 C 
ATOM     13  O   UNL     1       3.389   1.592  -0.388  1.00  0.00    -0.366 OA
BRANCH   8  14
ATOM     14  C   UNL     1       1.651   4.705   1.221  1.00  0.00     0.363 C 
BRANCH  14  15
ATOM     15  C   UNL     1       1.416   3.756   2.397  1.00  0.00     0.277 C 
ATOM     16  O   UNL     1       2.248   3.714   3.312  1.00  0.00    -0.268 OA
BRANCH  15  17
ATOM     17  N   UNL     1       0.237   3.032   2.485  1.00  0.00    -0.333 N 
ATOM     18  C   UNL     1      -0.494   0.099   0.822  1.00  0.00     0.040 C 
ATOM     19  C   UNL     1      -1.258   1.206   1.547  1.00  0.00     0.135 C 
ATOM     20  C   UNL     1      -0.720   2.673   1.426  1.00  0.00     0.151 C 
ATOM     21  O   UNL     1      -1.499   0.786   2.900  1.00  0.00    -0.372 OA
ATOM     22  C   UNL     1      -0.466   1.105   3.844  1.00  0.00     0.135 C 
ATOM     23  C   UNL     1      -0.189   2.603   3.816  1.00  0.00     0.151 C 
ATOM     24  C   UNL     1       0.810   0.282   3.680  1.00  0.00     0.040 C 
ENDBRANCH  15  17
ENDBRANCH  14  15
ENDBRANCH   8  14
ENDBRANCH   6   7
ENDBRANCH   3   6
ENDBRANCH   1   2
BRANCH   1  25
ATOM     25  C   UNL     1       4.577   2.072  -3.502  1.00  0.00     0.042 C 
BRANCH  25  26
ATOM     26  C   UNL     1       5.596   0.967  -3.730  1.00  0.00     0.118 C 
BRANCH  26  27
ATOM     27  N   UNL     1       5.934   0.878  -5.144  1.00  0.00    -0.352 N 
ATOM     28  C   UNL     1       6.885   1.603  -5.821  1.00  0.00     0.251 C 
ATOM     29  H   UNL     1       5.424   0.225  -5.675  1.00  0.00     0.163 HD
ATOM     30  O   UNL     1       6.788   1.786  -7.027  1.00  0.00    -0.269 OA
BRANCH  28  31
ATOM     31  C   UNL     1       8.028   2.152  -5.065  1.00  0.00     0.039 A 
ATOM     32  C   UNL     1       8.498   3.437  -5.341  1.00  0.00     0.014 A 
ATOM     33  C   UNL     1       8.648   1.364  -4.092  1.00  0.00     0.014 A 
ATOM     34  C   UNL     1       9.573   3.946  -4.610  1.00  0.00     0.010 A 
ATOM     35  C   UNL     1       9.649   1.905  -3.302  1.00  0.00     0.010 A 
ATOM     36  C   UNL     1      10.142   3.189  -3.573  1.00  0.00    -0.014 A 
BRANCH  36  37
ATOM     37  C   UNL     1      11.300   3.669  -2.785  1.00  0.00     0.031 A 
ATOM     38  C   UNL     1      12.590   2.895  -2.838  1.00  0.00     0.074 A 
ATOM     39  C   UNL     1      11.164   4.720  -1.956  1.00  0.00     0.049 A 
ATOM     40  N   UNL     1      13.663   3.020  -2.101  1.00  0.00    -0.248 NA
ATOM     41  C   UNL     1      12.665   1.805  -3.826  1.00  0.00     0.031 C 
ATOM     42  C   UNL     1       9.949   5.520  -1.791  1.00  0.00     0.029 A 
ATOM     43  N   UNL     1      12.054   5.279  -1.077  1.00  0.00    -0.354 N 
ATOM     44  C   UNL     1      14.521   2.008  -2.513  1.00  0.00     0.074 A 
ATOM     45  C   UNL     1      13.827   1.245  -3.526  1.00  0.00     0.031 C 
ATOM     46  C   UNL     1      10.176   6.478  -0.878  1.00  0.00     0.029 A 
ATOM     47  C   UNL     1      11.533   6.330  -0.362  1.00  0.00     0.049 A 
ATOM     48  H   UNL     1      12.979   4.959  -0.968  1.00  0.00     0.167 HD
ATOM     49  C   UNL     1      15.784   1.753  -2.101  1.00  0.00     0.037 A 
ATOM     50  C   UNL     1      12.088   7.076   0.612  1.00  0.00     0.037 A 
ATOM     51  C   UNL     1      16.485   2.549  -1.130  1.00  0.00     0.049 A 
ATOM     52  C   UNL     1      13.493   6.773   1.052  1.00  0.00     0.074 A 
ATOM     53  C   UNL     1      17.792   2.427  -0.697  1.00  0.00     0.029 A 
ATOM     54  N   UNL     1      15.931   3.622  -0.449  1.00  0.00    -0.354 N 
ATOM     55  N   UNL     1      14.313   5.846   0.619  1.00  0.00    -0.248 NA
ATOM     56  C   UNL     1      14.047   7.615   2.122  1.00  0.00     0.031 C 
ATOM     57  C   UNL     1      18.021   3.410   0.272  1.00  0.00     0.029 A 
ATOM     58  C   UNL     1      16.866   4.162   0.416  1.00  0.00     0.049 A 
ATOM     59  H   UNL     1      15.010   3.950  -0.563  1.00  0.00     0.167 HD
ATOM     60  C   UNL     1      15.484   6.004   1.347  1.00  0.00     0.074 A 
ATOM     61  C   UNL     1      15.274   7.126   2.239  1.00  0.00     0.031 C 
ATOM     62  C   UNL     1      16.631   5.284   1.287  1.00  0.00     0.037 A 
BRANCH  49  63
ATOM     63  C   UNL     1      16.491   0.581  -2.714  1.00  0.00     0.057 A 
ATOM     64  C   UNL     1      16.921   0.594  -4.047  1.00  0.00     0.134 A 
ATOM     65  C   UNL     1      16.769  -0.564  -1.957  1.00  0.00     0.134 A 
ATOM     66  F   UNL     1      16.672   1.655  -4.831  1.00  0.00    -0.206 F 
ATOM     67  C   UNL     1      17.579  -0.498  -4.614  1.00  0.00     0.040 A 
ATOM     68  C   UNL     1      17.450  -1.653  -2.505  1.00  0.00     0.040 A 
ATOM     69  F   UNL     1      16.388  -0.642  -0.673  1.00  0.00    -0.206 F 
ATOM     70  C   UNL     1      17.852  -1.624  -3.839  1.00  0.00     0.006 A 
ENDBRANCH  49  63
BRANCH  50  71
ATOM     71  C   UNL     1      11.321   8.187   1.227  1.00  0.00     0.057 A 
ATOM     72  C   UNL     1      11.664   9.520   0.977  1.00  0.00     0.134 A 
ATOM     73  C   UNL     1      10.236   7.949   2.079  1.00  0.00     0.134 A 
ATOM     74  F   UNL     1      12.705   9.810   0.182  1.00  0.00    -0.206 F 
ATOM     75  C   UNL     1      10.968  10.578   1.564  1.00  0.00     0.040 A 
ATOM     76  C   UNL     1       9.517   8.997   2.656  1.00  0.00     0.040 A 
ATOM     77  F   UNL     1       9.853   6.693   2.354  1.00  0.00    -0.206 F 
ATOM     78  C   UNL     1       9.887  10.317   2.404  1.00  0.00     0.006 A 
ENDBRANCH  50  71
BRANCH  62  79
ATOM     79  C   UNL     1      17.747   5.701   2.194  1.00  0.00     0.057 A 
ATOM     80  C   UNL     1      17.724   5.412   3.564  1.00  0.00     0.134 A 
ATOM     81  C   UNL     1      18.881   6.343   1.682  1.00  0.00     0.134 A 
ATOM     82  F   UNL     1      16.659   4.810   4.114  1.00  0.00    -0.206 F 
ATOM     83  C   UNL     1      18.788   5.759   4.397  1.00  0.00     0.040 A 
ATOM     84  C   UNL     1      19.960   6.676   2.501  1.00  0.00     0.040 A 
ATOM     85  F   UNL     1      18.965   6.639   0.376  1.00  0.00    -0.206 F 
ATOM     86  C   UNL     1      19.914   6.386   3.863  1.00  0.00     0.006 A 
ENDBRANCH  62  79
ENDBRANCH  36  37
ENDBRANCH  28  31
ENDBRANCH  26  27
ENDBRANCH  25  26
ENDBRANCH   1  25
TORSDOF 14
