REMARK SMILES Cc1ccc(C)c(-c2cc(C(=O)NCCCNC(=O)c3ccc(-c4c5nc(c(-c6c(F)cccc6F)c6ccc([nH]6)c(-c6c(F)cccc6F)c6nc(c(-c7c(F)cccc7F)c7ccc4[nH]7)C=C6)C=C5)cc3)c3cc(C)ccc3n2)c1
REMARK SMILES IDX 15 1 14 2 13 3 11 4 12 5 10 7 8 8 9 9 81 10 80 11 74 12
REMARK SMILES IDX 79 13 75 14 78 15 76 16 77 17 7 18 1 19 2 20 3 21 82 22 4 23
REMARK SMILES IDX 5 24 6 25 16 26 17 27 18 28 19 30 20 31 21 32 73 33 22 34
REMARK SMILES IDX 72 35 23 36 24 37 25 38 66 39 26 40 71 41 65 42 67 43 27 44
REMARK SMILES IDX 70 45 64 46 63 47 28 49 54 50 37 51 53 52 38 53 41 54 52 55
REMARK SMILES IDX 68 56 39 57 40 58 51 60 69 61 42 62 29 63 30 64 35 65 31 66
REMARK SMILES IDX 32 67 34 68 36 69 33 70 55 71 56 72 61 73 57 74 58 75 60 76
REMARK SMILES IDX 62 77 59 78 43 79 44 80 49 81 45 82 46 83 48 84 50 85 47 86
REMARK H PARENT 13 6 17 29 67 48 41 59
REMARK Flexibility Score: inf
ROOT
ATOM      1  C   UNL     1      -2.568   8.422   0.445  1.00  0.00     0.042 C 
ENDROOT
BRANCH   1   2
ATOM      2  C   UNL     1      -2.943   7.088  -0.159  1.00  0.00     0.118 C 
BRANCH   2   3
ATOM      3  N   UNL     1      -2.371   6.622  -1.414  1.00  0.00    -0.352 N 
ATOM      4  C   UNL     1      -2.340   5.312  -1.885  1.00  0.00     0.252 C 
ATOM      5  O   UNL     1      -2.006   5.099  -3.049  1.00  0.00    -0.269 OA
ATOM      6  H   UNL     1      -1.962   7.306  -1.992  1.00  0.00     0.163 HD
BRANCH   4   7
ATOM      7  C   UNL     1      -2.562   4.155  -0.962  1.00  0.00     0.051 A 
ATOM      8  C   UNL     1      -1.528   2.284   0.074  1.00  0.00     0.072 A 
ATOM      9  C   UNL     1      -1.577   3.168  -0.988  1.00  0.00     0.043 A 
ATOM     10  N   UNL     1      -2.281   2.457   1.188  1.00  0.00    -0.248 NA
ATOM     11  C   UNL     1      -3.250   3.383   1.181  1.00  0.00     0.072 A 
ATOM     12  C   UNL     1      -3.553   4.135   0.043  1.00  0.00     0.013 A 
ATOM     13  C   UNL     1      -3.940   3.669   2.353  1.00  0.00     0.029 A 
ATOM     14  C   UNL     1      -4.735   4.911   0.030  1.00  0.00     0.014 A 
ATOM     15  C   UNL     1      -4.933   4.654   2.403  1.00  0.00     0.005 A 
ATOM     16  C   UNL     1      -5.360   5.268   1.229  1.00  0.00    -0.050 A 
ATOM     17  C   UNL     1      -6.285   6.452   1.272  1.00  0.00     0.044 C 
BRANCH   8  18
ATOM     18  C   UNL     1      -0.729   1.053   0.041  1.00  0.00     0.003 A 
ATOM     19  C   UNL     1       2.954  -0.002   0.036  1.00  0.00     0.044 C 
ATOM     20  C   UNL     1       1.455  -0.059   0.022  1.00  0.00    -0.050 A 
ATOM     21  C   UNL     1       0.816  -1.301  -0.004  1.00  0.00     0.004 A 
ATOM     22  C   UNL     1       0.679   1.109   0.049  1.00  0.00     0.014 A 
ATOM     23  C   UNL     1      -0.575  -1.378  -0.017  1.00  0.00     0.004 A 
ATOM     24  C   UNL     1      -1.358  -0.214  -0.011  1.00  0.00    -0.042 A 
ATOM     25  C   UNL     1      -2.857  -0.382  -0.022  1.00  0.00     0.045 C 
ENDBRANCH   8  18
ENDBRANCH   4   7
ENDBRANCH   2   3
ENDBRANCH   1   2
BRANCH   1  26
ATOM     26  C   UNL     1      -2.933   9.570  -0.452  1.00  0.00     0.118 C 
BRANCH  26  27
ATOM     27  N   UNL     1      -4.333   9.815  -0.780  1.00  0.00    -0.352 N 
ATOM     28  C   UNL     1      -4.850  10.679  -1.743  1.00  0.00     0.251 C 
ATOM     29  H   UNL     1      -4.995   9.307  -0.257  1.00  0.00     0.163 HD
ATOM     30  O   UNL     1      -6.068  10.757  -1.898  1.00  0.00    -0.269 OA
BRANCH  28  31
ATOM     31  C   UNL     1      -3.950  11.504  -2.601  1.00  0.00     0.039 A 
ATOM     32  C   UNL     1      -4.335  11.962  -3.870  1.00  0.00     0.014 A 
ATOM     33  C   UNL     1      -2.592  11.568  -2.313  1.00  0.00     0.014 A 
ATOM     34  C   UNL     1      -3.310  12.211  -4.805  1.00  0.00     0.010 A 
ATOM     35  C   UNL     1      -1.848  12.471  -2.991  1.00  0.00     0.010 A 
ATOM     36  C   UNL     1      -2.002  12.234  -4.332  1.00  0.00    -0.014 A 
BRANCH  36  37
ATOM     37  C   UNL     1      -0.775  11.848  -5.020  1.00  0.00     0.031 A 
ATOM     38  C   UNL     1       0.306  12.857  -4.894  1.00  0.00     0.074 A 
ATOM     39  C   UNL     1      -0.320  10.605  -5.298  1.00  0.00     0.049 A 
ATOM     40  N   UNL     1       0.579  13.796  -5.732  1.00  0.00    -0.248 NA
ATOM     41  C   UNL     1       1.036  12.949  -3.617  1.00  0.00     0.031 C 
ATOM     42  C   UNL     1      -0.836   9.278  -4.961  1.00  0.00     0.029 A 
ATOM     43  N   UNL     1       0.857  10.318  -5.932  1.00  0.00    -0.354 N 
ATOM     44  C   UNL     1       1.625  14.505  -5.163  1.00  0.00     0.074 A 
ATOM     45  C   UNL     1       1.679  14.106  -3.781  1.00  0.00     0.031 C 
ATOM     46  C   UNL     1       0.096   8.338  -5.277  1.00  0.00     0.029 A 
ATOM     47  C   UNL     1       1.206   8.979  -5.969  1.00  0.00     0.049 A 
ATOM     48  H   UNL     1       1.419  11.018  -6.337  1.00  0.00     0.167 HD
ATOM     49  C   UNL     1       2.512  15.208  -5.917  1.00  0.00     0.037 A 
ATOM     50  C   UNL     1       2.341   8.479  -6.521  1.00  0.00     0.037 A 
ATOM     51  C   UNL     1       2.141  15.191  -7.312  1.00  0.00     0.049 A 
ATOM     52  C   UNL     1       2.925   9.533  -7.398  1.00  0.00     0.074 A 
ATOM     53  C   UNL     1       1.034  15.598  -8.033  1.00  0.00     0.029 A 
ATOM     54  N   UNL     1       2.797  14.293  -8.123  1.00  0.00    -0.354 N 
ATOM     55  N   UNL     1       2.380   9.970  -8.499  1.00  0.00    -0.248 NA
ATOM     56  C   UNL     1       3.971  10.383  -6.849  1.00  0.00     0.031 C 
ATOM     57  C   UNL     1       0.831  14.578  -9.014  1.00  0.00     0.029 A 
ATOM     58  C   UNL     1       1.843  13.629  -8.854  1.00  0.00     0.049 A 
ATOM     59  H   UNL     1       3.771  14.154  -8.170  1.00  0.00     0.167 HD
ATOM     60  C   UNL     1       2.716  11.315  -8.562  1.00  0.00     0.074 A 
ATOM     61  C   UNL     1       3.793  11.478  -7.594  1.00  0.00     0.031 C 
ATOM     62  C   UNL     1       1.903  12.219  -9.186  1.00  0.00     0.037 A 
BRANCH  49  63
ATOM     63  C   UNL     1       3.866  15.656  -5.450  1.00  0.00     0.057 A 
ATOM     64  C   UNL     1       4.531  16.668  -6.160  1.00  0.00     0.134 A 
ATOM     65  C   UNL     1       4.628  15.022  -4.449  1.00  0.00     0.134 A 
ATOM     66  F   UNL     1       3.922  17.319  -7.163  1.00  0.00    -0.206 F 
ATOM     67  C   UNL     1       5.862  17.013  -5.903  1.00  0.00     0.040 A 
ATOM     68  C   UNL     1       5.935  15.403  -4.138  1.00  0.00     0.040 A 
ATOM     69  F   UNL     1       4.186  13.945  -3.788  1.00  0.00    -0.206 F 
ATOM     70  C   UNL     1       6.566  16.387  -4.881  1.00  0.00     0.006 A 
ENDBRANCH  49  63
BRANCH  50  71
ATOM     71  C   UNL     1       3.095   7.242  -6.221  1.00  0.00     0.057 A 
ATOM     72  C   UNL     1       3.961   6.667  -7.163  1.00  0.00     0.134 A 
ATOM     73  C   UNL     1       3.197   6.756  -4.908  1.00  0.00     0.134 A 
ATOM     74  F   UNL     1       3.966   7.094  -8.434  1.00  0.00    -0.206 F 
ATOM     75  C   UNL     1       4.893   5.679  -6.816  1.00  0.00     0.040 A 
ATOM     76  C   UNL     1       4.121   5.768  -4.548  1.00  0.00     0.040 A 
ATOM     77  F   UNL     1       2.470   7.295  -3.918  1.00  0.00    -0.206 F 
ATOM     78  C   UNL     1       4.983   5.235  -5.501  1.00  0.00     0.006 A 
ENDBRANCH  50  71
BRANCH  62  79
ATOM     79  C   UNL     1       0.811  11.677 -10.072  1.00  0.00     0.057 A 
ATOM     80  C   UNL     1      -0.247  10.875  -9.617  1.00  0.00     0.134 A 
ATOM     81  C   UNL     1       0.757  12.082 -11.410  1.00  0.00     0.134 A 
ATOM     82  F   UNL     1      -0.345  10.523  -8.331  1.00  0.00    -0.206 F 
ATOM     83  C   UNL     1      -1.277  10.453 -10.463  1.00  0.00     0.040 A 
ATOM     84  C   UNL     1      -0.286  11.697 -12.258  1.00  0.00     0.040 A 
ATOM     85  F   UNL     1       1.701  12.895 -11.909  1.00  0.00    -0.206 F 
ATOM     86  C   UNL     1      -1.302  10.869 -11.788  1.00  0.00     0.006 A 
ENDBRANCH  62  79
ENDBRANCH  36  37
ENDBRANCH  28  31
ENDBRANCH  26  27
ENDBRANCH   1  26
TORSDOF 11
