REMARK SMILES CC[C@@H]1C=CC[C@@H]2C(=O)N(CCCC(=O)NCCCNC(=O)c3ccc(-c4c5nc(c(-c6c(F)cccc6F)c6ccc([nH]6)c(-c6c(F)cccc6F)c6nc(c(-c7c(F)cccc7F)c7ccc4[nH]7)C=C6)C=C5)cc3)C(=O)[C@@H]21
REMARK SMILES IDX 17 1 16 2 14 3 15 4 13 6 12 7 11 8 10 9 3 10 4 11 79 12 5 13
REMARK SMILES IDX 7 14 77 15 6 16 8 17 78 18 9 19 2 20 1 21 18 22 19 23 20 24
REMARK SMILES IDX 21 25 22 27 23 28 24 29 76 30 25 31 75 32 26 33 27 34 28 35
REMARK SMILES IDX 69 36 29 37 74 38 68 39 70 40 30 41 73 42 67 43 66 44 31 46
REMARK SMILES IDX 57 47 40 48 56 49 41 50 44 51 55 52 71 53 42 54 43 55 54 57
REMARK SMILES IDX 72 58 45 59 32 60 33 61 38 62 34 63 35 64 37 65 39 66 36 67
REMARK SMILES IDX 58 68 59 69 64 70 60 71 61 72 63 73 65 74 62 75 46 76 47 77
REMARK SMILES IDX 52 78 48 79 49 80 51 81 53 82 50 83
REMARK H PARENT 16 5 20 26 70 45 44 56
REMARK Flexibility Score: inf
ROOT
ATOM      1  C   UNL     1       0.848   8.532  -1.432  1.00  0.00     0.117 C 
ENDROOT
BRANCH   1   2
ATOM      2  N   UNL     1       0.328   9.117  -2.647  1.00  0.00    -0.356 N 
ATOM      3  C   UNL     1      -0.260   8.569  -3.740  1.00  0.00     0.220 C 
ATOM      4  O   UNL     1      -0.642   9.361  -4.608  1.00  0.00    -0.275 OA
ATOM      5  H   UNL     1       0.417  10.097  -2.690  1.00  0.00     0.163 HD
BRANCH   3   6
ATOM      6  C   UNL     1      -0.532   7.083  -3.908  1.00  0.00     0.102 C 
BRANCH   6   7
ATOM      7  C   UNL     1       0.621   6.112  -4.151  1.00  0.00     0.032 C 
BRANCH   7   8
ATOM      8  C   UNL     1       1.597   5.736  -3.040  1.00  0.00     0.129 C 
BRANCH   8   9
ATOM      9  N   UNL     1       1.146   4.964  -1.886  1.00  0.00    -0.282 N 
ATOM     10  C   UNL     1       1.007   1.900  -0.921  1.00  0.00     0.024 C 
ATOM     11  C   UNL     1      -0.311   1.844  -1.662  1.00  0.00    -0.027 C 
ATOM     12  C   UNL     1       1.295   3.281  -0.274  1.00  0.00     0.099 C 
ATOM     13  C   UNL     1      -1.387   2.488  -1.185  1.00  0.00    -0.030 C 
ATOM     14  C   UNL     1       0.047   4.115   0.014  1.00  0.00     0.096 C 
ATOM     15  C   UNL     1       2.046   4.200  -1.195  1.00  0.00     0.233 C 
ATOM     16  C   UNL     1      -1.275   3.353   0.036  1.00  0.00     0.041 C 
ATOM     17  C   UNL     1       0.009   5.075  -1.148  1.00  0.00     0.233 C 
ATOM     18  O   UNL     1       3.263   4.248  -1.285  1.00  0.00    -0.274 OA
ATOM     19  O   UNL     1      -0.917   5.867  -1.278  1.00  0.00    -0.274 OA
BRANCH  10  20
ATOM     20  C   UNL     1       2.202   1.292  -1.689  1.00  0.00     0.005 C 
ATOM     21  C   UNL     1       2.376   1.703  -3.147  1.00  0.00     0.004 C 
ENDBRANCH  10  20
ENDBRANCH   8   9
ENDBRANCH   7   8
ENDBRANCH   6   7
ENDBRANCH   3   6
ENDBRANCH   1   2
BRANCH   1  22
ATOM     22  C   UNL     1       2.367   8.615  -1.370  1.00  0.00     0.042 C 
BRANCH  22  23
ATOM     23  C   UNL     1       2.864   9.887  -0.724  1.00  0.00     0.118 C 
BRANCH  23  24
ATOM     24  N   UNL     1       2.679   9.878   0.721  1.00  0.00    -0.352 N 
ATOM     25  C   UNL     1       3.607  10.007   1.727  1.00  0.00     0.251 C 
ATOM     26  H   UNL     1       1.749   9.761   1.023  1.00  0.00     0.163 HD
ATOM     27  O   UNL     1       3.280   9.784   2.889  1.00  0.00    -0.269 OA
BRANCH  25  28
ATOM     28  C   UNL     1       5.002  10.383   1.407  1.00  0.00     0.039 A 
ATOM     29  C   UNL     1       6.048   9.799   2.126  1.00  0.00     0.014 A 
ATOM     30  C   UNL     1       5.284  11.298   0.392  1.00  0.00     0.014 A 
ATOM     31  C   UNL     1       7.370  10.083   1.777  1.00  0.00     0.010 A 
ATOM     32  C   UNL     1       6.590  11.472  -0.042  1.00  0.00     0.010 A 
ATOM     33  C   UNL     1       7.651  10.889   0.662  1.00  0.00    -0.014 A 
BRANCH  33  34
ATOM     34  C   UNL     1       9.042  11.178   0.234  1.00  0.00     0.031 A 
ATOM     35  C   UNL     1       9.527  12.604   0.186  1.00  0.00     0.074 A 
ATOM     36  C   UNL     1       9.842  10.174  -0.176  1.00  0.00     0.049 A 
ATOM     37  N   UNL     1      10.671  13.076  -0.237  1.00  0.00    -0.248 NA
ATOM     38  C   UNL     1       8.583  13.642   0.637  1.00  0.00     0.031 C 
ATOM     39  C   UNL     1       9.469   8.759  -0.229  1.00  0.00     0.029 A 
ATOM     40  N   UNL     1      11.135  10.193  -0.634  1.00  0.00    -0.354 N 
ATOM     41  C   UNL     1      10.572  14.458  -0.124  1.00  0.00     0.074 A 
ATOM     42  C   UNL     1       9.235  14.753   0.335  1.00  0.00     0.031 C 
ATOM     43  C   UNL     1      10.521   8.043  -0.656  1.00  0.00     0.029 A 
ATOM     44  C   UNL     1      11.624   8.949  -0.953  1.00  0.00     0.049 A 
ATOM     45  H   UNL     1      11.662  11.019  -0.726  1.00  0.00     0.167 HD
ATOM     46  C   UNL     1      11.522  15.396  -0.348  1.00  0.00     0.037 A 
ATOM     47  C   UNL     1      12.828   8.585  -1.435  1.00  0.00     0.037 A 
ATOM     48  C   UNL     1      12.861  15.093  -0.773  1.00  0.00     0.049 A 
ATOM     49  C   UNL     1      13.864   9.647  -1.684  1.00  0.00     0.074 A 
ATOM     50  C   UNL     1      13.921  15.960  -0.970  1.00  0.00     0.029 A 
ATOM     51  N   UNL     1      13.324  13.819  -1.069  1.00  0.00    -0.354 N 
ATOM     52  N   UNL     1      13.782  10.943  -1.502  1.00  0.00    -0.248 NA
ATOM     53  C   UNL     1      15.162   9.194  -2.202  1.00  0.00     0.031 C 
ATOM     54  C   UNL     1      15.009  15.218  -1.437  1.00  0.00     0.029 A 
ATOM     55  C   UNL     1      14.647  13.880  -1.472  1.00  0.00     0.049 A 
ATOM     56  H   UNL     1      12.790  12.995  -1.003  1.00  0.00     0.167 HD
ATOM     57  C   UNL     1      15.025  11.456  -1.850  1.00  0.00     0.074 A 
ATOM     58  C   UNL     1      15.846  10.329  -2.241  1.00  0.00     0.031 C 
ATOM     59  C   UNL     1      15.450  12.744  -1.847  1.00  0.00     0.037 A 
BRANCH  46  60
ATOM     60  C   UNL     1      11.140  16.834  -0.131  1.00  0.00     0.057 A 
ATOM     61  C   UNL     1      10.857  17.342   1.145  1.00  0.00     0.134 A 
ATOM     62  C   UNL     1      11.070  17.726  -1.208  1.00  0.00     0.134 A 
ATOM     63  F   UNL     1      10.890  16.539   2.220  1.00  0.00    -0.206 F 
ATOM     64  C   UNL     1      10.483  18.673   1.337  1.00  0.00     0.040 A 
ATOM     65  C   UNL     1      10.730  19.068  -1.024  1.00  0.00     0.040 A 
ATOM     66  F   UNL     1      11.333  17.311  -2.456  1.00  0.00    -0.206 F 
ATOM     67  C   UNL     1      10.427  19.542   0.250  1.00  0.00     0.006 A 
ENDBRANCH  46  60
BRANCH  47  68
ATOM     68  C   UNL     1      13.130   7.152  -1.686  1.00  0.00     0.057 A 
ATOM     69  C   UNL     1      14.063   6.464  -0.902  1.00  0.00     0.134 A 
ATOM     70  C   UNL     1      12.505   6.439  -2.716  1.00  0.00     0.134 A 
ATOM     71  F   UNL     1      14.708   7.095   0.090  1.00  0.00    -0.206 F 
ATOM     72  C   UNL     1      14.382   5.127  -1.147  1.00  0.00     0.040 A 
ATOM     73  C   UNL     1      12.793   5.094  -2.954  1.00  0.00     0.040 A 
ATOM     74  F   UNL     1      11.594   7.037  -3.498  1.00  0.00    -0.206 F 
ATOM     75  C   UNL     1      13.742   4.437  -2.174  1.00  0.00     0.006 A 
ENDBRANCH  47  68
BRANCH  59  76
ATOM     76  C   UNL     1      16.877  12.997  -2.236  1.00  0.00     0.057 A 
ATOM     77  C   UNL     1      17.323  12.858  -3.556  1.00  0.00     0.134 A 
ATOM     78  C   UNL     1      17.806  13.431  -1.281  1.00  0.00     0.134 A 
ATOM     79  F   UNL     1      16.487  12.435  -4.516  1.00  0.00    -0.206 F 
ATOM     80  C   UNL     1      18.649  13.115  -3.908  1.00  0.00     0.040 A 
ATOM     81  C   UNL     1      19.126  13.722  -1.626  1.00  0.00     0.040 A 
ATOM     82  F   UNL     1      17.441  13.596  -0.001  1.00  0.00    -0.206 F 
ATOM     83  C   UNL     1      19.552  13.557  -2.942  1.00  0.00     0.006 A 
ENDBRANCH  59  76
ENDBRANCH  33  34
ENDBRANCH  25  28
ENDBRANCH  23  24
ENDBRANCH  22  23
ENDBRANCH   1  22
TORSDOF 14
