REMARK SMILES O=C(NCCCNC(=O)[C@@H]1Nc2c(cccc2C(F)(F)F)[C@@H]2C=CC[C@@H]12)c1ccc(-c2c3nc(c(-c4c(F)cccc4F)c4ccc([nH]4)c(-c4c(F)cccc4F)c4nc(c(-c5c(F)cccc5F)c5ccc2[nH]5)C=C4)C=C3)cc1
REMARK SMILES IDX 4 1 3 2 1 3 2 4 27 6 28 7 80 8 29 9 79 10 30 11 31 12 32 13
REMARK SMILES IDX 73 14 33 15 78 16 72 17 74 18 34 19 77 20 71 21 70 22 35 24
REMARK SMILES IDX 61 25 44 26 60 27 45 28 48 29 59 30 75 31 46 32 47 33 58 35
REMARK SMILES IDX 76 36 49 37 36 38 37 39 42 40 38 41 39 42 41 43 43 44 40 45
REMARK SMILES IDX 62 46 63 47 68 48 64 49 65 50 67 51 69 52 66 53 50 54 51 55
REMARK SMILES IDX 56 56 52 57 53 58 55 59 57 60 54 61 5 62 6 63 7 64 8 65 9 67
REMARK SMILES IDX 10 68 11 69 26 70 12 71 22 73 25 74 13 75 17 76 23 77 24 78
REMARK SMILES IDX 14 79 16 80 15 81 18 82 19 83 20 84 21 85
REMARK H PARENT 3 5 74 23 48 34 7 66 11 72
REMARK Flexibility Score: inf
ROOT
ATOM      1  C   UNL     1       7.738  -7.486  -0.527  1.00  0.00     0.118 C 
ENDROOT
BRANCH   1   2
ATOM      2  N   UNL     1       7.962  -8.904  -0.754  1.00  0.00    -0.352 N 
ATOM      3  O   UNL     1       8.922 -10.916  -0.536  1.00  0.00    -0.269 OA
ATOM      4  C   UNL     1       8.696  -9.812  -0.040  1.00  0.00     0.251 C 
ATOM      5  H   UNL     1       7.513  -9.270  -1.550  1.00  0.00     0.163 HD
BRANCH   4   6
ATOM      6  C   UNL     1       9.215  -9.503   1.313  1.00  0.00     0.039 A 
ATOM      7  C   UNL     1      10.443 -10.057   1.692  1.00  0.00     0.014 A 
ATOM      8  C   UNL     1       8.468  -8.778   2.246  1.00  0.00     0.014 A 
ATOM      9  C   UNL     1      10.915  -9.891   2.996  1.00  0.00     0.010 A 
ATOM     10  C   UNL     1       8.975  -8.547   3.525  1.00  0.00     0.010 A 
ATOM     11  C   UNL     1      10.181  -9.139   3.926  1.00  0.00    -0.014 A 
BRANCH  11  12
ATOM     12  C   UNL     1      10.610  -9.072   5.347  1.00  0.00     0.031 A 
ATOM     13  C   UNL     1       9.773  -9.736   6.410  1.00  0.00     0.074 A 
ATOM     14  C   UNL     1      11.744  -8.432   5.687  1.00  0.00     0.049 A 
ATOM     15  N   UNL     1       9.965  -9.791   7.705  1.00  0.00    -0.248 NA
ATOM     16  C   UNL     1       8.544 -10.409   5.960  1.00  0.00     0.031 C 
ATOM     17  C   UNL     1      12.628  -7.722   4.762  1.00  0.00     0.029 A 
ATOM     18  N   UNL     1      12.349  -8.283   6.909  1.00  0.00    -0.354 N 
ATOM     19  C   UNL     1       8.882 -10.495   8.218  1.00  0.00     0.074 A 
ATOM     20  C   UNL     1       8.003 -10.787   7.107  1.00  0.00     0.031 C 
ATOM     21  C   UNL     1      13.677  -7.235   5.446  1.00  0.00     0.029 A 
ATOM     22  C   UNL     1      13.529  -7.581   6.856  1.00  0.00     0.049 A 
ATOM     23  H   UNL     1      11.974  -8.644   7.744  1.00  0.00     0.167 HD
ATOM     24  C   UNL     1       8.651 -10.896   9.491  1.00  0.00     0.037 A 
ATOM     25  C   UNL     1      14.395  -7.264   7.837  1.00  0.00     0.037 A 
ATOM     26  C   UNL     1       9.531 -10.629  10.597  1.00  0.00     0.049 A 
ATOM     27  C   UNL     1      14.123  -7.729   9.241  1.00  0.00     0.074 A 
ATOM     28  C   UNL     1       9.392 -10.996  11.924  1.00  0.00     0.029 A 
ATOM     29  N   UNL     1      10.727  -9.935  10.497  1.00  0.00    -0.354 N 
ATOM     30  N   UNL     1      13.109  -8.419   9.704  1.00  0.00    -0.248 NA
ATOM     31  C   UNL     1      15.128  -7.383  10.256  1.00  0.00     0.031 C 
ATOM     32  C   UNL     1      10.498 -10.509  12.631  1.00  0.00     0.029 A 
ATOM     33  C   UNL     1      11.340  -9.867  11.737  1.00  0.00     0.049 A 
ATOM     34  H   UNL     1      11.088  -9.549   9.667  1.00  0.00     0.167 HD
ATOM     35  C   UNL     1      13.365  -8.609  11.056  1.00  0.00     0.074 A 
ATOM     36  C   UNL     1      14.641  -7.982  11.332  1.00  0.00     0.031 C 
ATOM     37  C   UNL     1      12.612  -9.242  11.989  1.00  0.00     0.037 A 
BRANCH  24  38
ATOM     38  C   UNL     1       7.396 -11.682   9.739  1.00  0.00     0.057 A 
ATOM     39  C   UNL     1       6.318 -11.121  10.433  1.00  0.00     0.134 A 
ATOM     40  C   UNL     1       7.254 -12.998   9.276  1.00  0.00     0.134 A 
ATOM     41  F   UNL     1       6.388  -9.868  10.905  1.00  0.00    -0.206 F 
ATOM     42  C   UNL     1       5.139 -11.838  10.650  1.00  0.00     0.040 A 
ATOM     43  C   UNL     1       6.072 -13.715   9.464  1.00  0.00     0.040 A 
ATOM     44  F   UNL     1       8.244 -13.586   8.587  1.00  0.00    -0.206 F 
ATOM     45  C   UNL     1       5.011 -13.136  10.156  1.00  0.00     0.006 A 
ENDBRANCH  24  38
BRANCH  25  46
ATOM     46  C   UNL     1      15.623  -6.491   7.527  1.00  0.00     0.057 A 
ATOM     47  C   UNL     1      15.568  -5.127   7.219  1.00  0.00     0.134 A 
ATOM     48  C   UNL     1      16.885  -7.094   7.569  1.00  0.00     0.134 A 
ATOM     49  F   UNL     1      14.388  -4.494   7.157  1.00  0.00    -0.206 F 
ATOM     50  C   UNL     1      16.726  -4.389   6.968  1.00  0.00     0.040 A 
ATOM     51  C   UNL     1      18.052  -6.364   7.343  1.00  0.00     0.040 A 
ATOM     52  F   UNL     1      17.002  -8.394   7.880  1.00  0.00    -0.206 F 
ATOM     53  C   UNL     1      17.974  -5.006   7.040  1.00  0.00     0.006 A 
ENDBRANCH  25  46
BRANCH  37  54
ATOM     54  C   UNL     1      13.171  -9.307  13.379  1.00  0.00     0.057 A 
ATOM     55  C   UNL     1      13.670 -10.511  13.890  1.00  0.00     0.134 A 
ATOM     56  C   UNL     1      13.221  -8.180  14.208  1.00  0.00     0.134 A 
ATOM     57  F   UNL     1      13.645 -11.629  13.149  1.00  0.00    -0.206 F 
ATOM     58  C   UNL     1      14.208 -10.589  15.176  1.00  0.00     0.040 A 
ATOM     59  C   UNL     1      13.778  -8.240  15.486  1.00  0.00     0.040 A 
ATOM     60  F   UNL     1      12.773  -6.993  13.770  1.00  0.00    -0.206 F 
ATOM     61  C   UNL     1      14.272  -9.449  15.974  1.00  0.00     0.006 A 
ENDBRANCH  37  54
ENDBRANCH  11  12
ENDBRANCH   4   6
ENDBRANCH   1   2
BRANCH   1  62
ATOM     62  C   UNL     1       8.205  -6.633  -1.702  1.00  0.00     0.042 C 
BRANCH  62  63
ATOM     63  C   UNL     1       7.378  -6.824  -2.973  1.00  0.00     0.117 C 
BRANCH  63  64
ATOM     64  N   UNL     1       6.014  -6.362  -2.787  1.00  0.00    -0.354 N 
ATOM     65  C   UNL     1       5.408  -5.206  -3.179  1.00  0.00     0.242 C 
ATOM     66  H   UNL     1       5.431  -6.987  -2.298  1.00  0.00     0.163 HD
ATOM     67  O   UNL     1       4.264  -5.003  -2.761  1.00  0.00    -0.273 OA
BRANCH  65  68
ATOM     68  C   UNL     1       6.094  -4.191  -4.108  1.00  0.00     0.173 C 
ATOM     69  N   UNL     1       6.561  -4.840  -5.348  1.00  0.00    -0.373 N 
ATOM     70  C   UNL     1       7.263  -3.462  -3.481  1.00  0.00     0.036 C 
ATOM     71  C   UNL     1       7.582  -4.308  -6.131  1.00  0.00     0.051 A 
ATOM     72  H   UNL     1       6.133  -5.680  -5.633  1.00  0.00     0.161 HD
ATOM     73  C   UNL     1       7.733  -2.411  -4.491  1.00  0.00     0.049 C 
ATOM     74  C   UNL     1       7.070  -2.676  -2.192  1.00  0.00     0.034 C 
ATOM     75  C   UNL     1       8.248  -3.117  -5.720  1.00  0.00    -0.017 A 
ATOM     76  C   UNL     1       8.011  -4.952  -7.307  1.00  0.00     0.079 A 
ATOM     77  C   UNL     1       8.624  -1.600  -3.598  1.00  0.00    -0.023 C 
ATOM     78  C   UNL     1       8.220  -1.713  -2.320  1.00  0.00    -0.030 C 
ATOM     79  C   UNL     1       9.263  -2.561  -6.510  1.00  0.00     0.006 A 
ATOM     80  C   UNL     1       9.048  -4.378  -8.072  1.00  0.00     0.015 A 
ATOM     81  C   UNL     1       9.663  -3.192  -7.681  1.00  0.00     0.001 A 
BRANCH  76  82
ATOM     82  C   UNL     1       7.410  -6.238  -7.817  1.00  0.00     0.418 C 
ATOM     83  F   UNL     1       6.814  -6.086  -9.035  1.00  0.00    -0.166 F 
ATOM     84  F   UNL     1       8.347  -7.216  -7.989  1.00  0.00    -0.166 F 
ATOM     85  F   UNL     1       6.455  -6.791  -7.012  1.00  0.00    -0.166 F 
ENDBRANCH  76  82
ENDBRANCH  65  68
ENDBRANCH  63  64
ENDBRANCH  62  63
ENDBRANCH   1  62
TORSDOF 11
