REMARK SMILES COCC[N@H+](C)[C@H](C(=O)NCCCNC(=O)c1ccc(-c2c3nc(c(-c4c(F)cccc4F)c4ccc([nH]4)c(-c4c(F)cccc4F)c4nc(c(-c5c(F)cccc5F)c5ccc2[nH]5)C=C4)C=C3)cc1)c1ccc(OC)nc1
REMARK SMILES IDX 11 1 10 2 8 3 9 4 7 6 5 7 6 8 4 10 3 11 2 12 1 13 71 14
REMARK SMILES IDX 72 15 78 16 73 17 77 18 74 19 75 20 76 21 12 22 13 23 14 24
REMARK SMILES IDX 15 25 16 27 17 28 18 29 70 30 19 31 69 32 20 33 21 34 22 35
REMARK SMILES IDX 63 36 23 37 68 38 62 39 64 40 24 41 67 42 61 43 60 44 25 46
REMARK SMILES IDX 51 47 34 48 50 49 35 50 38 51 49 52 65 53 36 54 37 55 48 57
REMARK SMILES IDX 66 58 39 59 26 60 27 61 32 62 28 63 29 64 31 65 33 66 30 67
REMARK SMILES IDX 52 68 53 69 58 70 54 71 55 72 57 73 59 74 56 75 40 76 41 77
REMARK SMILES IDX 46 78 42 79 43 80 45 81 47 82 44 83
REMARK H PARENT 10 5 5 9 14 26 64 45 38 56
REMARK Flexibility Score: inf
ROOT
ATOM      1  C   UNL     1      -0.134  -1.491  -3.782  1.00  0.00     0.118 C 
ENDROOT
BRANCH   1   2
ATOM      2  N   UNL     1       0.757  -2.085  -2.813  1.00  0.00    -0.351 N 
ATOM      3  C   UNL     1       1.121  -1.612  -1.580  1.00  0.00     0.283 C 
ATOM      4  O   UNL     1       1.951  -2.297  -0.976  1.00  0.00    -0.268 OA
ATOM      5  H   UNL     1       1.156  -2.947  -3.073  1.00  0.00     0.163 HD
BRANCH   3   6
ATOM      6  C   UNL     1       0.561  -0.240  -1.040  1.00  0.00     0.306 C 
BRANCH   6   7
ATOM      7  N   UNL     1      -0.933  -0.191  -1.180  1.00  0.00    -0.321 N 
ATOM      8  C   UNL     1      -1.623  -1.032  -0.199  1.00  0.00     0.333 C 
ATOM      9  H   UNL     1      -1.092  -0.575  -2.112  1.00  0.00     0.348 HD
BRANCH   7  10
ATOM     10  C   UNL     1      -1.519   1.169  -1.191  1.00  0.00     0.291 C 
BRANCH  10  11
ATOM     11  C   UNL     1      -1.191   2.048  -2.422  1.00  0.00     0.221 C 
BRANCH  11  12
ATOM     12  O   UNL     1      -2.300   2.180  -3.319  1.00  0.00    -0.379 OA
ATOM     13  C   UNL     1      -2.447   1.086  -4.211  1.00  0.00     0.195 C 
ENDBRANCH  11  12
ENDBRANCH  10  11
ENDBRANCH   7  10
ENDBRANCH   6   7
BRANCH   6  14
ATOM     14  C   UNL     1       1.076   0.131   0.350  1.00  0.00     0.038 A 
ATOM     15  C   UNL     1       1.339   1.461   0.695  1.00  0.00     0.017 A 
ATOM     16  C   UNL     1       1.257  -0.808   1.363  1.00  0.00     0.125 A 
ATOM     17  C   UNL     1       1.739   1.788   1.994  1.00  0.00     0.069 A 
ATOM     18  N   UNL     1       1.649  -0.516   2.625  1.00  0.00    -0.222 NA
ATOM     19  C   UNL     1       1.881   0.773   2.930  1.00  0.00     0.212 A 
BRANCH  19  20
ATOM     20  O   UNL     1       2.272   0.940   4.225  1.00  0.00    -0.481 OA
ATOM     21  C   UNL     1       2.230   2.258   4.744  1.00  0.00     0.280 C 
ENDBRANCH  19  20
ENDBRANCH   6  14
ENDBRANCH   3   6
ENDBRANCH   1   2
BRANCH   1  22
ATOM     22  C   UNL     1       0.509  -1.332  -5.147  1.00  0.00     0.042 C 
BRANCH  22  23
ATOM     23  C   UNL     1       0.689  -2.641  -5.894  1.00  0.00     0.118 C 
BRANCH  23  24
ATOM     24  N   UNL     1      -0.577  -3.230  -6.315  1.00  0.00    -0.352 N 
ATOM     25  C   UNL     1      -1.115  -3.409  -7.567  1.00  0.00     0.251 C 
ATOM     26  H   UNL     1      -1.142  -3.554  -5.577  1.00  0.00     0.163 HD
ATOM     27  O   UNL     1      -2.284  -3.774  -7.674  1.00  0.00    -0.269 OA
BRANCH  25  28
ATOM     28  C   UNL     1      -0.318  -3.142  -8.786  1.00  0.00     0.039 A 
ATOM     29  C   UNL     1      -0.945  -2.574  -9.900  1.00  0.00     0.014 A 
ATOM     30  C   UNL     1       1.038  -3.463  -8.849  1.00  0.00     0.014 A 
ATOM     31  C   UNL     1      -0.195  -2.255 -11.037  1.00  0.00     0.010 A 
ATOM     32  C   UNL     1       1.803  -3.038  -9.928  1.00  0.00     0.010 A 
ATOM     33  C   UNL     1       1.195  -2.441 -11.042  1.00  0.00    -0.014 A 
BRANCH  33  34
ATOM     34  C   UNL     1       2.044  -2.060 -12.200  1.00  0.00     0.031 A 
ATOM     35  C   UNL     1       2.879  -3.107 -12.889  1.00  0.00     0.074 A 
ATOM     36  C   UNL     1       2.145  -0.768 -12.569  1.00  0.00     0.049 A 
ATOM     37  N   UNL     1       3.807  -2.962 -13.800  1.00  0.00    -0.248 NA
ATOM     38  C   UNL     1       2.671  -4.502 -12.463  1.00  0.00     0.031 C 
ATOM     39  C   UNL     1       1.426   0.351 -11.956  1.00  0.00     0.029 A 
ATOM     40  N   UNL     1       2.912  -0.175 -13.541  1.00  0.00    -0.354 N 
ATOM     41  C   UNL     1       4.315  -4.236 -14.026  1.00  0.00     0.074 A 
ATOM     42  C   UNL     1       3.633  -5.132 -13.119  1.00  0.00     0.031 C 
ATOM     43  C   UNL     1       1.771   1.490 -12.579  1.00  0.00     0.029 A 
ATOM     44  C   UNL     1       2.768   1.190 -13.602  1.00  0.00     0.049 A 
ATOM     45  H   UNL     1       3.510  -0.680 -14.138  1.00  0.00     0.167 HD
ATOM     46  C   UNL     1       5.248  -4.630 -14.925  1.00  0.00     0.037 A 
ATOM     47  C   UNL     1       3.380   2.099 -14.384  1.00  0.00     0.037 A 
ATOM     48  C   UNL     1       5.888  -3.745 -15.861  1.00  0.00     0.049 A 
ATOM     49  C   UNL     1       4.401   1.636 -15.386  1.00  0.00     0.074 A 
ATOM     50  C   UNL     1       6.795  -4.055 -16.859  1.00  0.00     0.029 A 
ATOM     51  N   UNL     1       5.681  -2.375 -15.918  1.00  0.00    -0.354 N 
ATOM     52  N   UNL     1       4.834   0.421 -15.625  1.00  0.00    -0.248 NA
ATOM     53  C   UNL     1       5.016   2.669 -16.231  1.00  0.00     0.031 C 
ATOM     54  C   UNL     1       7.164  -2.866 -17.497  1.00  0.00     0.029 A 
ATOM     55  C   UNL     1       6.453  -1.823 -16.926  1.00  0.00     0.049 A 
ATOM     56  H   UNL     1       5.075  -1.870 -15.329  1.00  0.00     0.167 HD
ATOM     57  C   UNL     1       5.747   0.540 -16.665  1.00  0.00     0.074 A 
ATOM     58  C   UNL     1       5.797   1.944 -17.019  1.00  0.00     0.031 C 
ATOM     59  C   UNL     1       6.478  -0.425 -17.273  1.00  0.00     0.037 A 
BRANCH  46  60
ATOM     60  C   UNL     1       5.621  -6.084 -14.943  1.00  0.00     0.057 A 
ATOM     61  C   UNL     1       4.732  -7.072 -15.389  1.00  0.00     0.134 A 
ATOM     62  C   UNL     1       6.893  -6.501 -14.530  1.00  0.00     0.134 A 
ATOM     63  F   UNL     1       3.493  -6.742 -15.785  1.00  0.00    -0.206 F 
ATOM     64  C   UNL     1       5.082  -8.423 -15.393  1.00  0.00     0.040 A 
ATOM     65  C   UNL     1       7.265  -7.846 -14.558  1.00  0.00     0.040 A 
ATOM     66  F   UNL     1       7.796  -5.609 -14.098  1.00  0.00    -0.206 F 
ATOM     67  C   UNL     1       6.355  -8.812 -14.983  1.00  0.00     0.006 A 
ENDBRANCH  46  60
BRANCH  47  68
ATOM     68  C   UNL     1       3.029   3.537 -14.270  1.00  0.00     0.057 A 
ATOM     69  C   UNL     1       2.318   4.185 -15.287  1.00  0.00     0.134 A 
ATOM     70  C   UNL     1       3.398   4.298 -13.156  1.00  0.00     0.134 A 
ATOM     71  F   UNL     1       1.952   3.513 -16.388  1.00  0.00    -0.206 F 
ATOM     72  C   UNL     1       2.005   5.543 -15.210  1.00  0.00     0.040 A 
ATOM     73  C   UNL     1       3.070   5.652 -13.054  1.00  0.00     0.040 A 
ATOM     74  F   UNL     1       4.074   3.735 -12.143  1.00  0.00    -0.206 F 
ATOM     75  C   UNL     1       2.378   6.279 -14.088  1.00  0.00     0.006 A 
ENDBRANCH  47  68
BRANCH  59  76
ATOM     76  C   UNL     1       7.358  -0.006 -18.413  1.00  0.00     0.057 A 
ATOM     77  C   UNL     1       8.543   0.710 -18.209  1.00  0.00     0.134 A 
ATOM     78  C   UNL     1       7.035  -0.365 -19.728  1.00  0.00     0.134 A 
ATOM     79  F   UNL     1       8.901   1.095 -16.974  1.00  0.00    -0.206 F 
ATOM     80  C   UNL     1       9.367   1.073 -19.276  1.00  0.00     0.040 A 
ATOM     81  C   UNL     1       7.864  -0.031 -20.799  1.00  0.00     0.040 A 
ATOM     82  F   UNL     1       5.918  -1.059 -19.990  1.00  0.00    -0.206 F 
ATOM     83  C   UNL     1       9.032   0.695 -20.575  1.00  0.00     0.006 A 
ENDBRANCH  59  76
ENDBRANCH  33  34
ENDBRANCH  25  28
ENDBRANCH  23  24
ENDBRANCH  22  23
ENDBRANCH   1  22
TORSDOF 16
