REMARK SMILES Cc1csc([C@H](C)Nc2cc(C)c(N)c(C(=O)NCCCNC(=O)c3ccc(-c4c5nc(c(-c6c(F)cccc6F)c6ccc([nH]6)c(-c6c(F)cccc6F)c6nc(c(-c7c(F)cccc7F)c7ccc4[nH]7)C=C6)C=C5)cc3)c2)n1
REMARK SMILES IDX 19 1 18 2 16 3 17 4 15 6 9 7 10 8 79 9 11 10 12 11 13 12
REMARK SMILES IDX 8 13 6 15 7 16 5 17 1 18 2 19 3 20 80 21 4 22 14 23 20 26
REMARK SMILES IDX 21 27 22 28 23 29 24 31 25 32 26 33 78 34 27 35 77 36 28 37
REMARK SMILES IDX 29 38 30 39 71 40 31 41 76 42 70 43 72 44 32 45 75 46 69 47
REMARK SMILES IDX 68 48 33 50 59 51 42 52 58 53 43 54 46 55 57 56 73 57 44 58
REMARK SMILES IDX 45 59 56 61 74 62 47 63 34 64 35 65 40 66 36 67 37 68 39 69
REMARK SMILES IDX 41 70 38 71 60 72 61 73 66 74 62 75 63 76 65 77 67 78 64 79
REMARK SMILES IDX 48 80 49 81 54 82 50 83 51 84 53 85 55 86 52 87
REMARK H PARENT 18 5 8 14 14 24 14 25 22 30 72 49 46 60
REMARK Flexibility Score: inf
ROOT
ATOM      1  C   UNL     1       0.163   3.422   5.781  1.00  0.00     0.118 C 
ENDROOT
BRANCH   1   2
ATOM      2  N   UNL     1       1.503   3.512   6.333  1.00  0.00    -0.352 N 
ATOM      3  C   UNL     1       2.751   3.667   5.778  1.00  0.00     0.253 C 
ATOM      4  O   UNL     1       3.690   3.703   6.580  1.00  0.00    -0.269 OA
ATOM      5  H   UNL     1       1.522   3.448   7.316  1.00  0.00     0.163 HD
BRANCH   3   6
ATOM      6  C   UNL     1       3.019   3.817   4.308  1.00  0.00     0.065 A 
ATOM      7  C   UNL     1       2.358   3.468   1.972  1.00  0.00     0.036 A 
ATOM      8  C   UNL     1       3.495   4.151   1.558  1.00  0.00     0.031 A 
ATOM      9  C   UNL     1       2.148   3.301   3.342  1.00  0.00     0.041 A 
ATOM     10  C   UNL     1       4.436   4.628   2.489  1.00  0.00    -0.025 A 
ATOM     11  C   UNL     1       5.662   5.338   1.978  1.00  0.00     0.046 C 
ATOM     12  C   UNL     1       4.213   4.451   3.875  1.00  0.00     0.047 A 
BRANCH   7  13
ATOM     13  N   UNL     1       1.321   3.126   1.116  1.00  0.00    -0.376 N 
ATOM     14  H   UNL     1       0.398   3.355   1.371  1.00  0.00     0.161 HD
BRANCH  13  15
ATOM     15  C   UNL     1       1.555   2.430  -0.159  1.00  0.00     0.135 C 
ATOM     16  C   UNL     1       0.631   1.202  -0.128  1.00  0.00     0.039 C 
BRANCH  15  17
ATOM     17  C   UNL     1       1.313   3.312  -1.385  1.00  0.00     0.115 A 
ATOM     18  C   UNL     1       1.158   6.630  -2.796  1.00  0.00     0.067 C 
ATOM     19  C   UNL     1       1.116   5.156  -2.618  1.00  0.00     0.049 A 
ATOM     20  C   UNL     1       0.892   4.213  -3.600  1.00  0.00     0.090 A 
ATOM     21  N   UNL     1       1.329   4.633  -1.353  1.00  0.00    -0.244 NA
ATOM     22  S   UNL     1       1.035   2.638  -2.948  1.00  0.00    -0.125 S 
ENDBRANCH  15  17
ENDBRANCH  13  15
ENDBRANCH   7  13
BRANCH  12  23
ATOM     23  N   UNL     1       5.089   5.051   4.790  1.00  0.00    -0.398 N 
ATOM     24  H   UNL     1       5.913   5.485   4.471  1.00  0.00     0.156 HD
ATOM     25  H   UNL     1       4.881   5.037   5.752  1.00  0.00     0.156 HD
ENDBRANCH  12  23
ENDBRANCH   3   6
ENDBRANCH   1   2
BRANCH   1  26
ATOM     26  C   UNL     1      -0.275   1.962   5.639  1.00  0.00     0.042 C 
BRANCH  26  27
ATOM     27  C   UNL     1      -0.622   1.299   6.970  1.00  0.00     0.118 C 
BRANCH  27  28
ATOM     28  N   UNL     1      -1.856   1.825   7.534  1.00  0.00    -0.352 N 
ATOM     29  C   UNL     1      -3.010   1.177   7.895  1.00  0.00     0.251 C 
ATOM     30  H   UNL     1      -1.864   2.798   7.679  1.00  0.00     0.163 HD
ATOM     31  O   UNL     1      -4.018   1.833   8.141  1.00  0.00    -0.269 OA
BRANCH  29  32
ATOM     32  C   UNL     1      -3.058  -0.299   7.987  1.00  0.00     0.039 A 
ATOM     33  C   UNL     1      -4.210  -0.959   7.545  1.00  0.00     0.014 A 
ATOM     34  C   UNL     1      -2.014  -1.029   8.561  1.00  0.00     0.014 A 
ATOM     35  C   UNL     1      -4.296  -2.350   7.637  1.00  0.00     0.010 A 
ATOM     36  C   UNL     1      -2.075  -2.422   8.596  1.00  0.00     0.010 A 
ATOM     37  C   UNL     1      -3.219  -3.095   8.142  1.00  0.00    -0.014 A 
BRANCH  37  38
ATOM     38  C   UNL     1      -3.274  -4.577   8.206  1.00  0.00     0.031 A 
ATOM     39  C   UNL     1      -3.265  -5.280   9.535  1.00  0.00     0.074 A 
ATOM     40  C   UNL     1      -3.269  -5.292   7.065  1.00  0.00     0.049 A 
ATOM     41  N   UNL     1      -3.232  -6.564   9.792  1.00  0.00    -0.248 NA
ATOM     42  C   UNL     1      -3.270  -4.428  10.735  1.00  0.00     0.031 C 
ATOM     43  C   UNL     1      -3.236  -4.727   5.714  1.00  0.00     0.029 A 
ATOM     44  N   UNL     1      -3.279  -6.648   6.858  1.00  0.00    -0.354 N 
ATOM     45  C   UNL     1      -3.193  -6.672  11.176  1.00  0.00     0.074 A 
ATOM     46  C   UNL     1      -3.163  -5.325  11.704  1.00  0.00     0.031 C 
ATOM     47  C   UNL     1      -3.245  -5.729   4.820  1.00  0.00     0.029 A 
ATOM     48  C   UNL     1      -3.249  -7.003   5.532  1.00  0.00     0.049 A 
ATOM     49  H   UNL     1      -3.304  -7.305   7.591  1.00  0.00     0.167 HD
ATOM     50  C   UNL     1      -3.200  -7.792  11.939  1.00  0.00     0.037 A 
ATOM     51  C   UNL     1      -3.220  -8.218   4.954  1.00  0.00     0.037 A 
ATOM     52  C   UNL     1      -3.257  -9.130  11.412  1.00  0.00     0.049 A 
ATOM     53  C   UNL     1      -3.235  -9.445   5.821  1.00  0.00     0.074 A 
ATOM     54  C   UNL     1      -3.328 -10.327  12.102  1.00  0.00     0.029 A 
ATOM     55  N   UNL     1      -3.251  -9.447  10.062  1.00  0.00    -0.354 N 
ATOM     56  N   UNL     1      -3.257  -9.532   7.129  1.00  0.00    -0.248 NA
ATOM     57  C   UNL     1      -3.226 -10.743   5.132  1.00  0.00     0.031 C 
ATOM     58  C   UNL     1      -3.328 -11.371  11.170  1.00  0.00     0.029 A 
ATOM     59  C   UNL     1      -3.301 -10.822   9.899  1.00  0.00     0.049 A 
ATOM     60  H   UNL     1      -3.217  -8.792   9.327  1.00  0.00     0.167 HD
ATOM     61  C   UNL     1      -3.292 -10.889   7.420  1.00  0.00     0.074 A 
ATOM     62  C   UNL     1      -3.300 -11.589   6.151  1.00  0.00     0.031 C 
ATOM     63  C   UNL     1      -3.316 -11.501   8.629  1.00  0.00     0.037 A 
BRANCH  50  64
ATOM     64  C   UNL     1      -3.147  -7.615  13.428  1.00  0.00     0.057 A 
ATOM     65  C   UNL     1      -4.238  -7.115  14.152  1.00  0.00     0.134 A 
ATOM     66  C   UNL     1      -2.005  -7.979  14.153  1.00  0.00     0.134 A 
ATOM     67  F   UNL     1      -5.358  -6.738  13.517  1.00  0.00    -0.206 F 
ATOM     68  C   UNL     1      -4.186  -6.959  15.538  1.00  0.00     0.040 A 
ATOM     69  C   UNL     1      -1.950  -7.851  15.542  1.00  0.00     0.040 A 
ATOM     70  F   UNL     1      -0.927  -8.471  13.524  1.00  0.00    -0.206 F 
ATOM     71  C   UNL     1      -3.041  -7.333  16.238  1.00  0.00     0.006 A 
ENDBRANCH  50  64
BRANCH  51  72
ATOM     72  C   UNL     1      -3.200  -8.334   3.475  1.00  0.00     0.057 A 
ATOM     73  C   UNL     1      -4.323  -8.786   2.773  1.00  0.00     0.134 A 
ATOM     74  C   UNL     1      -2.066  -7.993   2.729  1.00  0.00     0.134 A 
ATOM     75  F   UNL     1      -5.433  -9.144   3.436  1.00  0.00    -0.206 F 
ATOM     76  C   UNL     1      -4.315  -8.911   1.383  1.00  0.00     0.040 A 
ATOM     77  C   UNL     1      -2.051  -8.091   1.337  1.00  0.00     0.040 A 
ATOM     78  F   UNL     1      -0.961  -7.545   3.342  1.00  0.00    -0.206 F 
ATOM     79  C   UNL     1      -3.177  -8.557   0.661  1.00  0.00     0.006 A 
ENDBRANCH  51  72
BRANCH  63  80
ATOM     80  C   UNL     1      -3.388 -12.999   8.637  1.00  0.00     0.057 A 
ATOM     81  C   UNL     1      -2.283 -13.793   8.309  1.00  0.00     0.134 A 
ATOM     82  C   UNL     1      -4.567 -13.652   9.017  1.00  0.00     0.134 A 
ATOM     83  F   UNL     1      -1.129 -13.227   7.923  1.00  0.00    -0.206 F 
ATOM     84  C   UNL     1      -2.353 -15.187   8.340  1.00  0.00     0.040 A 
ATOM     85  C   UNL     1      -4.643 -15.044   9.075  1.00  0.00     0.040 A 
ATOM     86  F   UNL     1      -5.660 -12.948   9.350  1.00  0.00    -0.206 F 
ATOM     87  C   UNL     1      -3.534 -15.816   8.731  1.00  0.00     0.006 A 
ENDBRANCH  63  80
ENDBRANCH  37  38
ENDBRANCH  29  32
ENDBRANCH  27  28
ENDBRANCH  26  27
ENDBRANCH   1  26
TORSDOF 14
