REMARK SMILES Nc1ccc2[nH]cc(C(=O)NCCCNC(=O)c3ccc(-c4c5nc(c(-c6c(F)cccc6F)c6ccc([nH]6)c(-c6c(F)cccc6F)c6nc(c(-c7c(F)cccc7F)c7ccc4[nH]7)C=C6)C=C5)cc3)c2c1
REMARK SMILES IDX 13 1 12 2 11 3 9 4 10 5 8 7 2 8 3 9 73 10 4 11 72 12 5 13
REMARK SMILES IDX 6 14 7 15 1 17 14 20 15 21 16 22 17 24 18 25 19 26 71 27
REMARK SMILES IDX 20 28 70 29 21 30 22 31 23 32 64 33 24 34 69 35 63 36 65 37
REMARK SMILES IDX 25 38 68 39 62 40 61 41 26 43 52 44 35 45 51 46 36 47 39 48
REMARK SMILES IDX 50 49 66 50 37 51 38 52 49 54 67 55 40 56 27 57 28 58 33 59
REMARK SMILES IDX 29 60 30 61 32 62 34 63 31 64 53 65 54 66 59 67 55 68 56 69
REMARK SMILES IDX 58 70 60 71 57 72 41 73 42 74 47 75 43 76 44 77 46 78 48 79
REMARK SMILES IDX 45 80
REMARK H PARENT 11 6 6 16 1 18 1 19 15 23 65 42 39 53
REMARK Flexibility Score: inf
ROOT
ATOM      1  C   UNL     1      -1.361  -1.618   3.304  1.00  0.00     0.042 C 
ENDROOT
BRANCH   1   2
ATOM      2  C   UNL     1      -2.590  -0.956   2.668  1.00  0.00     0.118 C 
BRANCH   2   3
ATOM      3  N   UNL     1      -3.172   0.033   3.533  1.00  0.00    -0.352 N 
ATOM      4  C   UNL     1      -3.140   1.399   3.575  1.00  0.00     0.253 C 
ATOM      5  O   UNL     1      -3.930   1.878   4.389  1.00  0.00    -0.269 OA
ATOM      6  H   UNL     1      -3.713  -0.360   4.255  1.00  0.00     0.163 HD
BRANCH   4   7
ATOM      7  C   UNL     1      -2.276   2.285   2.771  1.00  0.00     0.065 A 
ATOM      8  C   UNL     1       0.663   1.425   0.342  1.00  0.00     0.032 A 
ATOM      9  C   UNL     1       0.996   2.742   0.065  1.00  0.00     0.027 A 
ATOM     10  C   UNL     1      -0.401   1.155   1.221  1.00  0.00     0.036 A 
ATOM     11  C   UNL     1       0.291   3.795   0.645  1.00  0.00     0.029 A 
ATOM     12  C   UNL     1      -1.165   2.181   1.836  1.00  0.00     0.014 A 
ATOM     13  C   UNL     1      -0.773   3.489   1.504  1.00  0.00     0.046 A 
ATOM     14  N   UNL     1      -1.599   4.354   2.167  1.00  0.00    -0.360 N 
ATOM     15  C   UNL     1      -2.491   3.657   2.912  1.00  0.00     0.097 A 
ATOM     16  H   UNL     1      -1.552   5.336   2.111  1.00  0.00     0.166 HD
BRANCH   8  17
ATOM     17  N   UNL     1       1.334   0.387  -0.283  1.00  0.00    -0.399 N 
ATOM     18  H   UNL     1       2.079   0.582  -0.898  1.00  0.00     0.156 HD
ATOM     19  H   UNL     1       1.067  -0.545  -0.114  1.00  0.00     0.156 HD
ENDBRANCH   8  17
ENDBRANCH   4   7
ENDBRANCH   2   3
ENDBRANCH   1   2
BRANCH   1  20
ATOM     20  C   UNL     1      -1.727  -2.786   4.225  1.00  0.00     0.118 C 
BRANCH  20  21
ATOM     21  N   UNL     1      -2.509  -3.807   3.551  1.00  0.00    -0.352 N 
ATOM     22  C   UNL     1      -2.246  -4.856   2.721  1.00  0.00     0.251 C 
ATOM     23  H   UNL     1      -3.470  -3.720   3.741  1.00  0.00     0.163 HD
ATOM     24  O   UNL     1      -3.236  -5.455   2.292  1.00  0.00    -0.269 OA
BRANCH  22  25
ATOM     25  C   UNL     1      -0.900  -5.299   2.271  1.00  0.00     0.039 A 
ATOM     26  C   UNL     1       0.319  -4.713   2.615  1.00  0.00     0.014 A 
ATOM     27  C   UNL     1      -0.894  -6.396   1.385  1.00  0.00     0.014 A 
ATOM     28  C   UNL     1       1.501  -5.153   2.024  1.00  0.00     0.010 A 
ATOM     29  C   UNL     1       0.281  -6.847   0.804  1.00  0.00     0.010 A 
ATOM     30  C   UNL     1       1.471  -6.188   1.087  1.00  0.00    -0.014 A 
BRANCH  30  31
ATOM     31  C   UNL     1       2.719  -6.584   0.447  1.00  0.00     0.031 A 
ATOM     32  C   UNL     1       3.756  -7.166   1.343  1.00  0.00     0.074 A 
ATOM     33  C   UNL     1       2.887  -6.538  -0.890  1.00  0.00     0.049 A 
ATOM     34  N   UNL     1       4.946  -6.716   1.579  1.00  0.00    -0.248 NA
ATOM     35  C   UNL     1       3.395  -8.345   2.144  1.00  0.00     0.031 C 
ATOM     36  C   UNL     1       1.890  -6.248  -1.923  1.00  0.00     0.029 A 
ATOM     37  N   UNL     1       3.996  -6.848  -1.615  1.00  0.00    -0.354 N 
ATOM     38  C   UNL     1       5.550  -7.637   2.435  1.00  0.00     0.074 A 
ATOM     39  C   UNL     1       4.512  -8.547   2.845  1.00  0.00     0.031 C 
ATOM     40  C   UNL     1       2.377  -6.621  -3.127  1.00  0.00     0.029 A 
ATOM     41  C   UNL     1       3.754  -7.055  -2.965  1.00  0.00     0.049 A 
ATOM     42  H   UNL     1       4.893  -6.919  -1.216  1.00  0.00     0.167 HD
ATOM     43  C   UNL     1       6.903  -7.687   2.596  1.00  0.00     0.037 A 
ATOM     44  C   UNL     1       4.605  -7.612  -3.862  1.00  0.00     0.037 A 
ATOM     45  C   UNL     1       7.533  -6.481   2.127  1.00  0.00     0.049 A 
ATOM     46  C   UNL     1       5.979  -7.503  -3.306  1.00  0.00     0.074 A 
ATOM     47  C   UNL     1       7.452  -5.144   2.469  1.00  0.00     0.029 A 
ATOM     48  N   UNL     1       8.165  -6.512   0.908  1.00  0.00    -0.354 N 
ATOM     49  N   UNL     1       6.615  -6.371  -3.174  1.00  0.00    -0.248 NA
ATOM     50  C   UNL     1       6.461  -8.588  -2.462  1.00  0.00     0.031 C 
ATOM     51  C   UNL     1       7.563  -4.444   1.232  1.00  0.00     0.029 A 
ATOM     52  C   UNL     1       7.759  -5.393   0.229  1.00  0.00     0.049 A 
ATOM     53  H   UNL     1       8.787  -7.203   0.585  1.00  0.00     0.167 HD
ATOM     54  C   UNL     1       7.264  -6.470  -1.951  1.00  0.00     0.074 A 
ATOM     55  C   UNL     1       7.207  -7.889  -1.602  1.00  0.00     0.031 C 
ATOM     56  C   UNL     1       7.529  -5.364  -1.195  1.00  0.00     0.037 A 
BRANCH  43  57
ATOM     57  C   UNL     1       7.701  -8.943   2.851  1.00  0.00     0.057 A 
ATOM     58  C   UNL     1       7.247 -10.240   2.541  1.00  0.00     0.134 A 
ATOM     59  C   UNL     1       9.082  -8.839   3.107  1.00  0.00     0.134 A 
ATOM     60  F   UNL     1       5.973 -10.497   2.223  1.00  0.00    -0.206 F 
ATOM     61  C   UNL     1       8.108 -11.337   2.436  1.00  0.00     0.040 A 
ATOM     62  C   UNL     1       9.959  -9.921   2.957  1.00  0.00     0.040 A 
ATOM     63  F   UNL     1       9.639  -7.660   3.424  1.00  0.00    -0.206 F 
ATOM     64  C   UNL     1       9.473 -11.172   2.604  1.00  0.00     0.006 A 
ENDBRANCH  43  57
BRANCH  44  65
ATOM     65  C   UNL     1       4.263  -8.467  -5.022  1.00  0.00     0.057 A 
ATOM     66  C   UNL     1       3.089  -9.245  -5.042  1.00  0.00     0.134 A 
ATOM     67  C   UNL     1       5.186  -8.732  -6.042  1.00  0.00     0.134 A 
ATOM     68  F   UNL     1       2.175  -9.149  -4.065  1.00  0.00    -0.206 F 
ATOM     69  C   UNL     1       2.842 -10.216  -6.016  1.00  0.00     0.040 A 
ATOM     70  C   UNL     1       4.956  -9.712  -7.020  1.00  0.00     0.040 A 
ATOM     71  F   UNL     1       6.360  -8.085  -6.084  1.00  0.00    -0.206 F 
ATOM     72  C   UNL     1       3.783 -10.460  -7.006  1.00  0.00     0.006 A 
ENDBRANCH  44  65
BRANCH  56  73
ATOM     73  C   UNL     1       7.295  -4.014  -1.812  1.00  0.00     0.057 A 
ATOM     74  C   UNL     1       8.344  -3.090  -1.843  1.00  0.00     0.134 A 
ATOM     75  C   UNL     1       6.034  -3.554  -2.220  1.00  0.00     0.134 A 
ATOM     76  F   UNL     1       9.565  -3.436  -1.403  1.00  0.00    -0.206 F 
ATOM     77  C   UNL     1       8.154  -1.775  -2.274  1.00  0.00     0.040 A 
ATOM     78  C   UNL     1       5.838  -2.252  -2.688  1.00  0.00     0.040 A 
ATOM     79  F   UNL     1       4.947  -4.326  -2.116  1.00  0.00    -0.206 F 
ATOM     80  C   UNL     1       6.900  -1.355  -2.711  1.00  0.00     0.006 A 
ENDBRANCH  56  73
ENDBRANCH  30  31
ENDBRANCH  22  25
ENDBRANCH  20  21
ENDBRANCH   1  20
TORSDOF 11
