REMARK SMILES CC(=O)NCCNC(=O)C[N@H+]1CC[C@@H](C(=O)NCCCNC(=O)c2ccc(-c3c4nc(c(-c5c(F)cccc5F)c5ccc([nH]5)c(-c5c(F)cccc5F)c5nc(c(-c6c(F)cccc6F)c6ccc3[nH]6)C=C5)C=C4)cc2)[C@H]1C
REMARK SMILES IDX 15 1 16 2 17 3 14 5 11 6 12 7 78 8 13 10 79 11 10 12 8 13
REMARK SMILES IDX 7 14 9 16 6 17 5 18 4 19 1 20 2 21 3 22 18 24 19 25 20 26
REMARK SMILES IDX 21 27 22 28 23 30 24 31 25 32 77 33 26 34 76 35 27 36 28 37
REMARK SMILES IDX 29 38 70 39 30 40 75 41 69 42 71 43 31 44 74 45 68 46 67 47
REMARK SMILES IDX 32 49 58 50 41 51 57 52 42 53 45 54 56 55 72 56 43 57 44 58
REMARK SMILES IDX 55 60 73 61 46 62 33 63 34 64 39 65 35 66 36 67 38 68 40 69
REMARK SMILES IDX 37 70 59 71 60 72 65 73 61 74 62 75 64 76 66 77 63 78 47 79
REMARK SMILES IDX 48 80 53 81 49 82 50 83 52 84 54 85 51 86
REMARK H PARENT 17 4 11 9 7 15 4 23 21 29 71 48 45 59
REMARK Flexibility Score: inf
ROOT
ATOM      1  C   UNL     1      -0.713  -5.154   1.124  1.00  0.00     0.229 C 
ATOM      2  O   UNL     1      -1.420  -4.883   0.142  1.00  0.00    -0.275 OA
ATOM      3  N   UNL     1      -1.014  -4.481   2.263  1.00  0.00    -0.356 N 
ATOM      4  H   UNL     1      -1.658  -3.750   2.124  1.00  0.00     0.163 HD
ENDROOT
BRANCH   1   5
ATOM      5  C   UNL     1       0.476  -6.093   0.922  1.00  0.00     0.142 C 
ATOM      6  N   UNL     1       2.789  -5.990   1.534  1.00  0.00    -0.324 N 
ATOM      7  C   UNL     1       2.247  -7.120   2.261  1.00  0.00     0.263 C 
ATOM      8  C   UNL     1       1.810  -5.392   0.643  1.00  0.00     0.194 C 
ATOM      9  H   UNL     1       3.473  -6.337   0.862  1.00  0.00     0.348 HD
ATOM     10  C   UNL     1       0.760  -7.201   1.922  1.00  0.00     0.081 C 
ATOM     11  C   UNL     1       1.761  -3.880   0.616  1.00  0.00     0.076 C 
BRANCH   6  12
ATOM     12  C   UNL     1       3.915  -5.248   2.096  1.00  0.00     0.363 C 
BRANCH  12  13
ATOM     13  C   UNL     1       3.516  -4.322   3.253  1.00  0.00     0.275 C 
ATOM     14  N   UNL     1       3.688  -2.966   3.192  1.00  0.00    -0.349 N 
ATOM     15  H   UNL     1       3.264  -2.479   3.936  1.00  0.00     0.163 HD
ATOM     16  O   UNL     1       3.011  -4.766   4.291  1.00  0.00    -0.269 OA
BRANCH  14  17
ATOM     17  C   UNL     1       4.377  -2.099   2.239  1.00  0.00     0.137 C 
BRANCH  17  18
ATOM     18  C   UNL     1       3.481  -1.152   1.404  1.00  0.00     0.137 C 
BRANCH  18  19
ATOM     19  N   UNL     1       2.202  -0.828   2.009  1.00  0.00    -0.355 N 
ATOM     20  C   UNL     1       1.247   0.236  -0.012  1.00  0.00     0.114 C 
ATOM     21  C   UNL     1       1.129  -0.212   1.424  1.00  0.00     0.216 C 
ATOM     22  O   UNL     1       0.096  -0.067   2.064  1.00  0.00    -0.275 OA
ATOM     23  H   UNL     1       2.093  -1.081   2.954  1.00  0.00     0.163 HD
ENDBRANCH  18  19
ENDBRANCH  17  18
ENDBRANCH  14  17
ENDBRANCH  12  13
ENDBRANCH   6  12
ENDBRANCH   1   5
BRANCH   3  24
ATOM     24  C   UNL     1      -0.583  -4.614   3.646  1.00  0.00     0.117 C 
BRANCH  24  25
ATOM     25  C   UNL     1       0.070  -3.365   4.234  1.00  0.00     0.042 C 
BRANCH  25  26
ATOM     26  C   UNL     1      -0.809  -2.124   4.348  1.00  0.00     0.118 C 
BRANCH  26  27
ATOM     27  N   UNL     1      -1.660  -2.154   5.525  1.00  0.00    -0.352 N 
ATOM     28  C   UNL     1      -1.586  -1.465   6.711  1.00  0.00     0.251 C 
ATOM     29  H   UNL     1      -2.421  -2.776   5.462  1.00  0.00     0.163 HD
ATOM     30  O   UNL     1      -2.293  -1.838   7.647  1.00  0.00    -0.269 OA
BRANCH  28  31
ATOM     31  C   UNL     1      -0.694  -0.291   6.915  1.00  0.00     0.039 A 
ATOM     32  C   UNL     1      -0.161  -0.087   8.196  1.00  0.00     0.014 A 
ATOM     33  C   UNL     1      -0.474   0.679   5.933  1.00  0.00     0.014 A 
ATOM     34  C   UNL     1       0.585   1.062   8.488  1.00  0.00     0.010 A 
ATOM     35  C   UNL     1       0.326   1.798   6.207  1.00  0.00     0.010 A 
ATOM     36  C   UNL     1       0.843   2.017   7.494  1.00  0.00    -0.014 A 
BRANCH  36  37
ATOM     37  C   UNL     1       1.597   3.265   7.807  1.00  0.00     0.031 A 
ATOM     38  C   UNL     1       0.910   4.607   7.750  1.00  0.00     0.074 A 
ATOM     39  C   UNL     1       2.904   3.207   8.131  1.00  0.00     0.049 A 
ATOM     40  N   UNL     1       1.407   5.803   7.954  1.00  0.00    -0.248 NA
ATOM     41  C   UNL     1      -0.519   4.605   7.404  1.00  0.00     0.031 C 
ATOM     42  C   UNL     1       3.702   1.984   8.213  1.00  0.00     0.029 A 
ATOM     43  N   UNL     1       3.794   4.206   8.449  1.00  0.00    -0.354 N 
ATOM     44  C   UNL     1       0.358   6.692   7.745  1.00  0.00     0.074 A 
ATOM     45  C   UNL     1      -0.790   5.901   7.358  1.00  0.00     0.031 C 
ATOM     46  C   UNL     1       4.956   2.301   8.574  1.00  0.00     0.029 A 
ATOM     47  C   UNL     1       5.062   3.751   8.718  1.00  0.00     0.049 A 
ATOM     48  H   UNL     1       3.546   5.158   8.481  1.00  0.00     0.167 HD
ATOM     49  C   UNL     1       0.343   8.041   7.881  1.00  0.00     0.037 A 
ATOM     50  C   UNL     1       6.185   4.421   9.040  1.00  0.00     0.037 A 
ATOM     51  C   UNL     1       1.473   8.834   8.293  1.00  0.00     0.049 A 
ATOM     52  C   UNL     1       6.147   5.920   9.172  1.00  0.00     0.074 A 
ATOM     53  C   UNL     1       1.537  10.202   8.501  1.00  0.00     0.029 A 
ATOM     54  N   UNL     1       2.736   8.331   8.560  1.00  0.00    -0.354 N 
ATOM     55  N   UNL     1       5.137   6.738   9.016  1.00  0.00    -0.248 NA
ATOM     56  C   UNL     1       7.408   6.586   9.534  1.00  0.00     0.031 C 
ATOM     57  C   UNL     1       2.850  10.531   8.856  1.00  0.00     0.029 A 
ATOM     58  C   UNL     1       3.591   9.363   8.913  1.00  0.00     0.049 A 
ATOM     59  H   UNL     1       2.989   7.381   8.507  1.00  0.00     0.167 HD
ATOM     60  C   UNL     1       5.629   8.008   9.291  1.00  0.00     0.074 A 
ATOM     61  C   UNL     1       7.027   7.852   9.633  1.00  0.00     0.031 C 
ATOM     62  C   UNL     1       4.978   9.197   9.264  1.00  0.00     0.037 A 
BRANCH  49  63
ATOM     63  C   UNL     1      -0.945   8.753   7.580  1.00  0.00     0.057 A 
ATOM     64  C   UNL     1      -2.056   8.662   8.429  1.00  0.00     0.134 A 
ATOM     65  C   UNL     1      -1.063   9.571   6.449  1.00  0.00     0.134 A 
ATOM     66  F   UNL     1      -2.012   7.889   9.525  1.00  0.00    -0.206 F 
ATOM     67  C   UNL     1      -3.246   9.335   8.149  1.00  0.00     0.040 A 
ATOM     68  C   UNL     1      -2.239  10.271   6.173  1.00  0.00     0.040 A 
ATOM     69  F   UNL     1      -0.034   9.713   5.600  1.00  0.00    -0.206 F 
ATOM     70  C   UNL     1      -3.338  10.148   7.021  1.00  0.00     0.006 A 
ENDBRANCH  49  63
BRANCH  50  71
ATOM     71  C   UNL     1       7.449   3.679   9.281  1.00  0.00     0.057 A 
ATOM     72  C   UNL     1       7.994   3.579  10.567  1.00  0.00     0.134 A 
ATOM     73  C   UNL     1       8.148   3.067   8.235  1.00  0.00     0.134 A 
ATOM     74  F   UNL     1       7.381   4.165  11.606  1.00  0.00    -0.206 F 
ATOM     75  C   UNL     1       9.197   2.913  10.802  1.00  0.00     0.040 A 
ATOM     76  C   UNL     1       9.341   2.376   8.459  1.00  0.00     0.040 A 
ATOM     77  F   UNL     1       7.677   3.123   6.980  1.00  0.00    -0.206 F 
ATOM     78  C   UNL     1       9.872   2.304   9.745  1.00  0.00     0.006 A 
ENDBRANCH  50  71
BRANCH  62  79
ATOM     79  C   UNL     1       5.757  10.419   9.654  1.00  0.00     0.057 A 
ATOM     80  C   UNL     1       6.732  10.975   8.816  1.00  0.00     0.134 A 
ATOM     81  C   UNL     1       5.501  11.069  10.868  1.00  0.00     0.134 A 
ATOM     82  F   UNL     1       7.035  10.394   7.646  1.00  0.00    -0.206 F 
ATOM     83  C   UNL     1       7.440  12.122   9.182  1.00  0.00     0.040 A 
ATOM     84  C   UNL     1       6.184  12.230  11.234  1.00  0.00     0.040 A 
ATOM     85  F   UNL     1       4.574  10.593  11.713  1.00  0.00    -0.206 F 
ATOM     86  C   UNL     1       7.162  12.756  10.392  1.00  0.00     0.006 A 
ENDBRANCH  62  79
ENDBRANCH  36  37
ENDBRANCH  28  31
ENDBRANCH  26  27
ENDBRANCH  25  26
ENDBRANCH  24  25
ENDBRANCH   3  24
TORSDOF 15
