REMARK SMILES CC(C)n1cncc1[C@@H](O)[C@H](C)C(=O)NCCCNC(=O)c1ccc(-c2c3nc(c(-c4c(F)cccc4F)c4ccc([nH]4)c(-c4c(F)cccc4F)c4nc(c(-c5c(F)cccc5F)c5ccc2[nH]5)C=C4)C=C3)cc1
REMARK SMILES IDX 16 1 15 2 13 3 14 4 11 6 12 7 9 8 8 9 4 10 5 11 6 12 7 13
REMARK SMILES IDX 2 14 1 15 3 16 10 17 17 19 18 20 19 21 20 22 21 24 22 25
REMARK SMILES IDX 23 26 75 27 24 28 74 29 25 30 26 31 27 32 68 33 28 34 73 35
REMARK SMILES IDX 67 36 69 37 29 38 72 39 66 40 65 41 30 43 56 44 39 45 55 46
REMARK SMILES IDX 40 47 43 48 54 49 70 50 41 51 42 52 53 54 71 55 44 56 31 57
REMARK SMILES IDX 32 58 37 59 33 60 34 61 36 62 38 63 35 64 57 65 58 66 63 67
REMARK SMILES IDX 59 68 60 69 62 70 64 71 61 72 45 73 46 74 51 75 47 76 48 77
REMARK SMILES IDX 50 78 52 79 49 80
REMARK H PARENT 15 5 10 18 19 23 69 42 43 53
REMARK Flexibility Score: inf
ROOT
ATOM      1  C   UNL     1       1.235   3.853   2.507  1.00  0.00     0.117 C 
ENDROOT
BRANCH   1   2
ATOM      2  N   UNL     1       0.165   4.827   2.381  1.00  0.00    -0.356 N 
ATOM      3  C   UNL     1      -1.171   4.646   2.601  1.00  0.00     0.225 C 
ATOM      4  O   UNL     1      -1.887   5.650   2.672  1.00  0.00    -0.275 OA
ATOM      5  H   UNL     1       0.437   5.731   2.102  1.00  0.00     0.163 HD
BRANCH   3   6
ATOM      6  C   UNL     1      -1.791   3.254   2.658  1.00  0.00     0.110 C 
ATOM      7  C   UNL     1      -1.690   2.597   1.275  1.00  0.00     0.021 C 
BRANCH   6   8
ATOM      8  C   UNL     1      -1.440   2.423   3.922  1.00  0.00     0.175 C 
BRANCH   8   9
ATOM      9  C   UNL     1      -1.177   0.965   3.702  1.00  0.00     0.067 A 
ATOM     10  N   UNL     1      -1.841  -0.090   4.297  1.00  0.00    -0.330 N 
ATOM     11  C   UNL     1      -1.308  -1.249   3.781  1.00  0.00     0.199 A 
ATOM     12  N   UNL     1      -0.322  -1.014   2.955  1.00  0.00    -0.245 NA
ATOM     13  C   UNL     1      -0.217   0.343   2.917  1.00  0.00     0.137 A 
BRANCH  10  14
ATOM     14  C   UNL     1      -2.810  -0.119   5.390  1.00  0.00     0.082 C 
ATOM     15  C   UNL     1      -2.087  -0.039   6.736  1.00  0.00     0.031 C 
ATOM     16  C   UNL     1      -3.957   0.887   5.302  1.00  0.00     0.031 C 
ENDBRANCH  10  14
ENDBRANCH   8   9
BRANCH   8  17
ATOM     17  O   UNL     1      -0.333   2.913   4.669  1.00  0.00    -0.386 OA
ATOM     18  H   UNL     1       0.481   2.796   4.155  1.00  0.00     0.211 HD
ENDBRANCH   8  17
ENDBRANCH   6   8
ENDBRANCH   3   6
ENDBRANCH   1   2
BRANCH   1  19
ATOM     19  C   UNL     1       2.089   3.669   1.261  1.00  0.00     0.042 C 
BRANCH  19  20
ATOM     20  C   UNL     1       3.051   4.815   1.039  1.00  0.00     0.118 C 
BRANCH  20  21
ATOM     21  N   UNL     1       4.043   4.937   2.107  1.00  0.00    -0.352 N 
ATOM     22  C   UNL     1       4.960   5.956   2.301  1.00  0.00     0.251 C 
ATOM     23  H   UNL     1       4.061   4.207   2.768  1.00  0.00     0.163 HD
ATOM     24  O   UNL     1       5.928   5.816   3.019  1.00  0.00    -0.269 OA
BRANCH  22  25
ATOM     25  C   UNL     1       4.730   7.216   1.573  1.00  0.00     0.039 A 
ATOM     26  C   UNL     1       5.747   7.778   0.804  1.00  0.00     0.014 A 
ATOM     27  C   UNL     1       3.442   7.746   1.572  1.00  0.00     0.014 A 
ATOM     28  C   UNL     1       5.422   8.817  -0.062  1.00  0.00     0.010 A 
ATOM     29  C   UNL     1       3.095   8.665   0.608  1.00  0.00     0.010 A 
ATOM     30  C   UNL     1       4.083   9.228  -0.194  1.00  0.00    -0.014 A 
BRANCH  30  31
ATOM     31  C   UNL     1       3.717  10.172  -1.247  1.00  0.00     0.031 A 
ATOM     32  C   UNL     1       4.258   9.860  -2.599  1.00  0.00     0.074 A 
ATOM     33  C   UNL     1       2.840  11.187  -1.101  1.00  0.00     0.049 A 
ATOM     34  N   UNL     1       5.207  10.477  -3.220  1.00  0.00    -0.248 NA
ATOM     35  C   UNL     1       3.775   8.658  -3.295  1.00  0.00     0.031 C 
ATOM     36  C   UNL     1       1.956  11.489   0.029  1.00  0.00     0.029 A 
ATOM     37  N   UNL     1       2.503  12.144  -2.010  1.00  0.00    -0.354 N 
ATOM     38  C   UNL     1       5.313   9.874  -4.471  1.00  0.00     0.074 A 
ATOM     39  C   UNL     1       4.528   8.669  -4.399  1.00  0.00     0.031 C 
ATOM     40  C   UNL     1       1.040  12.410  -0.345  1.00  0.00     0.029 A 
ATOM     41  C   UNL     1       1.391  12.897  -1.666  1.00  0.00     0.049 A 
ATOM     42  H   UNL     1       3.009  12.290  -2.842  1.00  0.00     0.167 HD
ATOM     43  C   UNL     1       5.859  10.543  -5.526  1.00  0.00     0.037 A 
ATOM     44  C   UNL     1       0.796  13.858  -2.410  1.00  0.00     0.037 A 
ATOM     45  C   UNL     1       6.594  11.703  -5.079  1.00  0.00     0.049 A 
ATOM     46  C   UNL     1       1.785  14.327  -3.408  1.00  0.00     0.074 A 
ATOM     47  C   UNL     1       7.655  11.917  -4.219  1.00  0.00     0.029 A 
ATOM     48  N   UNL     1       6.008  12.934  -5.251  1.00  0.00    -0.354 N 
ATOM     49  N   UNL     1       2.845  15.025  -3.111  1.00  0.00    -0.248 NA
ATOM     50  C   UNL     1       1.819  13.662  -4.700  1.00  0.00     0.031 C 
ATOM     51  C   UNL     1       7.336  13.130  -3.537  1.00  0.00     0.029 A 
ATOM     52  C   UNL     1       6.141  13.616  -4.070  1.00  0.00     0.049 A 
ATOM     53  H   UNL     1       5.574  13.264  -6.070  1.00  0.00     0.167 HD
ATOM     54  C   UNL     1       3.835  14.525  -3.941  1.00  0.00     0.074 A 
ATOM     55  C   UNL     1       3.121  13.778  -4.974  1.00  0.00     0.031 C 
ATOM     56  C   UNL     1       5.145  14.526  -3.555  1.00  0.00     0.037 A 
BRANCH  43  57
ATOM     57  C   UNL     1       5.421  10.394  -6.966  1.00  0.00     0.057 A 
ATOM     58  C   UNL     1       6.127  11.088  -7.970  1.00  0.00     0.134 A 
ATOM     59  C   UNL     1       4.179   9.868  -7.370  1.00  0.00     0.134 A 
ATOM     60  F   UNL     1       7.324  11.638  -7.717  1.00  0.00    -0.206 F 
ATOM     61  C   UNL     1       5.589  11.328  -9.241  1.00  0.00     0.040 A 
ATOM     62  C   UNL     1       3.656  10.058  -8.653  1.00  0.00     0.040 A 
ATOM     63  F   UNL     1       3.357   9.234  -6.527  1.00  0.00    -0.206 F 
ATOM     64  C   UNL     1       4.343  10.822  -9.582  1.00  0.00     0.006 A 
ENDBRANCH  43  57
BRANCH  44  65
ATOM     65  C   UNL     1      -0.627  14.249  -2.469  1.00  0.00     0.057 A 
ATOM     66  C   UNL     1      -1.017  15.471  -3.035  1.00  0.00     0.134 A 
ATOM     67  C   UNL     1      -1.650  13.313  -2.243  1.00  0.00     0.134 A 
ATOM     68  F   UNL     1      -0.106  16.415  -3.313  1.00  0.00    -0.206 F 
ATOM     69  C   UNL     1      -2.344  15.731  -3.397  1.00  0.00     0.040 A 
ATOM     70  C   UNL     1      -2.980  13.563  -2.594  1.00  0.00     0.040 A 
ATOM     71  F   UNL     1      -1.377  12.092  -1.762  1.00  0.00    -0.206 F 
ATOM     72  C   UNL     1      -3.328  14.769  -3.192  1.00  0.00     0.006 A 
ENDBRANCH  44  65
BRANCH  56  73
ATOM     73  C   UNL     1       5.529  15.354  -2.360  1.00  0.00     0.057 A 
ATOM     74  C   UNL     1       5.021  15.169  -1.064  1.00  0.00     0.134 A 
ATOM     75  C   UNL     1       6.550  16.301  -2.507  1.00  0.00     0.134 A 
ATOM     76  F   UNL     1       4.118  14.217  -0.799  1.00  0.00    -0.206 F 
ATOM     77  C   UNL     1       5.471  15.931   0.019  1.00  0.00     0.040 A 
ATOM     78  C   UNL     1       7.033  17.042  -1.427  1.00  0.00     0.040 A 
ATOM     79  F   UNL     1       7.124  16.496  -3.705  1.00  0.00    -0.206 F 
ATOM     80  C   UNL     1       6.483  16.869  -0.160  1.00  0.00     0.006 A 
ENDBRANCH  56  73
ENDBRANCH  30  31
ENDBRANCH  22  25
ENDBRANCH  20  21
ENDBRANCH  19  20
ENDBRANCH   1  19
TORSDOF 14
