REMARK SMILES C[C@H](C(=O)NCCCNC(=O)c1ccc(-c2c3nc(c(-c4c(F)cccc4F)c4ccc([nH]4)c(-c4c(F)cccc4F)c4nc(c(-c5c(F)cccc5F)c5ccc2[nH]5)C=C4)C=C3)cc1)c1ccc(-c2ccccc2)c(F)c1
REMARK SMILES IDX 7 1 6 2 5 3 3 4 4 5 2 7 1 8 66 9 67 10 78 11 68 12 76 13
REMARK SMILES IDX 69 14 77 15 70 16 71 17 75 18 72 19 74 20 73 21 8 22 9 23
REMARK SMILES IDX 10 24 11 26 12 27 13 28 65 29 14 30 64 31 15 32 16 33 17 34
REMARK SMILES IDX 58 35 18 36 63 37 57 38 59 39 19 40 62 41 56 42 55 43 20 45
REMARK SMILES IDX 46 46 29 47 45 48 30 49 33 50 44 51 60 52 31 53 32 54 43 56
REMARK SMILES IDX 61 57 34 58 21 59 22 60 27 61 23 62 24 63 26 64 28 65 25 66
REMARK SMILES IDX 47 67 48 68 53 69 49 70 50 71 52 72 54 73 51 74 35 75 36 76
REMARK SMILES IDX 41 77 37 78 38 79 40 80 42 81 39 82
REMARK H PARENT 5 6 9 25 59 44 33 55
REMARK Flexibility Score: inf
ROOT
ATOM      1  C   UNL     1      -1.085   2.116   1.486  1.00  0.00     0.042 C 
ENDROOT
BRANCH   1   2
ATOM      2  C   UNL     1       0.307   2.071   0.856  1.00  0.00     0.117 C 
BRANCH   2   3
ATOM      3  N   UNL     1       0.882   0.738   0.861  1.00  0.00    -0.356 N 
ATOM      4  C   UNL     1       0.985  -0.172  -0.155  1.00  0.00     0.227 C 
ATOM      5  O   UNL     1       1.506  -1.259   0.102  1.00  0.00    -0.274 OA
ATOM      6  H   UNL     1       1.252   0.445   1.725  1.00  0.00     0.163 HD
BRANCH   4   7
ATOM      7  C   UNL     1       0.455   0.177  -1.554  1.00  0.00     0.105 C 
ATOM      8  C   UNL     1       1.060  -0.751  -2.612  1.00  0.00     0.023 C 
BRANCH   7   9
ATOM      9  C   UNL     1      -1.064   0.140  -1.603  1.00  0.00    -0.033 A 
ATOM     10  C   UNL     1      -1.791   1.289  -1.940  1.00  0.00     0.005 A 
ATOM     11  C   UNL     1      -1.774  -1.019  -1.267  1.00  0.00     0.044 A 
ATOM     12  C   UNL     1      -3.190   1.296  -1.875  1.00  0.00     0.012 A 
ATOM     13  C   UNL     1      -3.169  -1.008  -1.223  1.00  0.00     0.131 A 
ATOM     14  C   UNL     1      -3.913   0.149  -1.498  1.00  0.00     0.017 A 
ATOM     15  F   UNL     1      -3.788  -2.151  -0.887  1.00  0.00    -0.206 F 
BRANCH  14  16
ATOM     16  C   UNL     1      -5.385   0.192  -1.366  1.00  0.00    -0.015 A 
ATOM     17  C   UNL     1      -6.188   0.858  -2.310  1.00  0.00     0.009 A 
ATOM     18  C   UNL     1      -6.036  -0.407  -0.272  1.00  0.00     0.009 A 
ATOM     19  C   UNL     1      -7.577   0.929  -2.162  1.00  0.00     0.001 A 
ATOM     20  C   UNL     1      -7.424  -0.342  -0.124  1.00  0.00     0.001 A 
ATOM     21  C   UNL     1      -8.194   0.330  -1.069  1.00  0.00     0.000 A 
ENDBRANCH  14  16
ENDBRANCH   7   9
ENDBRANCH   4   7
ENDBRANCH   2   3
ENDBRANCH   1   2
BRANCH   1  22
ATOM     22  C   UNL     1      -1.113   1.882   2.994  1.00  0.00     0.118 C 
BRANCH  22  23
ATOM     23  N   UNL     1      -0.420   2.922   3.738  1.00  0.00    -0.352 N 
ATOM     24  C   UNL     1      -0.819   3.690   4.800  1.00  0.00     0.251 C 
ATOM     25  H   UNL     1       0.494   3.107   3.423  1.00  0.00     0.163 HD
ATOM     26  O   UNL     1      -0.099   4.624   5.154  1.00  0.00    -0.269 OA
BRANCH  24  27
ATOM     27  C   UNL     1      -2.089   3.442   5.523  1.00  0.00     0.039 A 
ATOM     28  C   UNL     1      -2.788   4.550   6.018  1.00  0.00     0.014 A 
ATOM     29  C   UNL     1      -2.564   2.155   5.793  1.00  0.00     0.014 A 
ATOM     30  C   UNL     1      -3.971   4.372   6.740  1.00  0.00     0.010 A 
ATOM     31  C   UNL     1      -3.778   1.979   6.465  1.00  0.00     0.010 A 
ATOM     32  C   UNL     1      -4.489   3.085   6.951  1.00  0.00    -0.014 A 
BRANCH  32  33
ATOM     33  C   UNL     1      -5.776   2.904   7.670  1.00  0.00     0.031 A 
ATOM     34  C   UNL     1      -5.819   2.261   9.028  1.00  0.00     0.074 A 
ATOM     35  C   UNL     1      -6.920   3.308   7.085  1.00  0.00     0.049 A 
ATOM     36  N   UNL     1      -6.849   2.047   9.808  1.00  0.00    -0.248 NA
ATOM     37  C   UNL     1      -4.542   1.778   9.575  1.00  0.00     0.031 C 
ATOM     38  C   UNL     1      -7.023   3.898   5.749  1.00  0.00     0.029 A 
ATOM     39  N   UNL     1      -8.214   3.285   7.540  1.00  0.00    -0.354 N 
ATOM     40  C   UNL     1      -6.349   1.400  10.930  1.00  0.00     0.074 A 
ATOM     41  C   UNL     1      -4.930   1.217  10.712  1.00  0.00     0.031 C 
ATOM     42  C   UNL     1      -8.306   4.208   5.505  1.00  0.00     0.029 A 
ATOM     43  C   UNL     1      -9.117   3.821   6.655  1.00  0.00     0.049 A 
ATOM     44  H   UNL     1      -8.471   2.920   8.418  1.00  0.00     0.167 HD
ATOM     45  C   UNL     1      -7.008   1.010  12.049  1.00  0.00     0.037 A 
ATOM     46  C   UNL     1     -10.448   3.992   6.762  1.00  0.00     0.037 A 
ATOM     47  C   UNL     1      -8.415   1.210  12.280  1.00  0.00     0.049 A 
ATOM     48  C   UNL     1     -11.149   3.578   8.023  1.00  0.00     0.074 A 
ATOM     49  C   UNL     1      -9.158   0.901  13.407  1.00  0.00     0.029 A 
ATOM     50  N   UNL     1      -9.292   1.772  11.366  1.00  0.00    -0.354 N 
ATOM     51  N   UNL     1     -10.650   3.028   9.102  1.00  0.00    -0.248 NA
ATOM     52  C   UNL     1     -12.598   3.819   8.083  1.00  0.00     0.031 C 
ATOM     53  C   UNL     1     -10.492   1.250  13.163  1.00  0.00     0.029 A 
ATOM     54  C   UNL     1     -10.572   1.805  11.897  1.00  0.00     0.049 A 
ATOM     55  H   UNL     1      -9.043   2.099  10.471  1.00  0.00     0.167 HD
ATOM     56  C   UNL     1     -11.718   2.870   9.975  1.00  0.00     0.074 A 
ATOM     57  C   UNL     1     -12.888   3.401   9.307  1.00  0.00     0.031 C 
ATOM     58  C   UNL     1     -11.728   2.330  11.218  1.00  0.00     0.037 A 
BRANCH  45  59
ATOM     59  C   UNL     1      -6.205   0.331  13.118  1.00  0.00     0.057 A 
ATOM     60  C   UNL     1      -5.313   1.042  13.931  1.00  0.00     0.134 A 
ATOM     61  C   UNL     1      -6.350  -1.040  13.363  1.00  0.00     0.134 A 
ATOM     62  F   UNL     1      -5.121   2.356  13.740  1.00  0.00    -0.206 F 
ATOM     63  C   UNL     1      -4.578   0.411  14.935  1.00  0.00     0.040 A 
ATOM     64  C   UNL     1      -5.636  -1.679  14.378  1.00  0.00     0.040 A 
ATOM     65  F   UNL     1      -7.192  -1.779  12.624  1.00  0.00    -0.206 F 
ATOM     66  C   UNL     1      -4.743  -0.954  15.164  1.00  0.00     0.006 A 
ENDBRANCH  45  59
BRANCH  46  67
ATOM     67  C   UNL     1     -11.200   4.622   5.651  1.00  0.00     0.057 A 
ATOM     68  C   UNL     1     -11.678   5.933   5.759  1.00  0.00     0.134 A 
ATOM     69  C   UNL     1     -11.454   3.935   4.459  1.00  0.00     0.134 A 
ATOM     70  F   UNL     1     -11.479   6.633   6.885  1.00  0.00    -0.206 F 
ATOM     71  C   UNL     1     -12.396   6.535   4.725  1.00  0.00     0.040 A 
ATOM     72  C   UNL     1     -12.154   4.531   3.409  1.00  0.00     0.040 A 
ATOM     73  F   UNL     1     -11.016   2.678   4.295  1.00  0.00    -0.206 F 
ATOM     74  C   UNL     1     -12.631   5.834   3.543  1.00  0.00     0.006 A 
ENDBRANCH  46  67
BRANCH  58  75
ATOM     75  C   UNL     1     -13.045   2.300  11.934  1.00  0.00     0.057 A 
ATOM     76  C   UNL     1     -14.050   1.391  11.581  1.00  0.00     0.134 A 
ATOM     77  C   UNL     1     -13.305   3.179  12.992  1.00  0.00     0.134 A 
ATOM     78  F   UNL     1     -13.866   0.534  10.566  1.00  0.00    -0.206 F 
ATOM     79  C   UNL     1     -15.280   1.373  12.242  1.00  0.00     0.040 A 
ATOM     80  C   UNL     1     -14.523   3.157  13.674  1.00  0.00     0.040 A 
ATOM     81  F   UNL     1     -12.381   4.070  13.381  1.00  0.00    -0.206 F 
ATOM     82  C   UNL     1     -15.517   2.256  13.294  1.00  0.00     0.006 A 
ENDBRANCH  58  75
ENDBRANCH  32  33
ENDBRANCH  24  27
ENDBRANCH  22  23
ENDBRANCH   1  22
TORSDOF 12
