REMARK SMILES O=C(Cc1cccn(C(F)F)c1=O)NCCCNC(=O)c1ccc(-c2c3nc(c(-c4c(F)cccc4F)c4ccc([nH]4)c(-c4c(F)cccc4F)c4nc(c(-c5c(F)cccc5F)c5ccc2[nH]5)C=C4)C=C3)cc1
REMARK SMILES IDX 16 1 15 2 14 3 1 4 2 5 3 7 4 8 5 9 12 10 6 11 8 12 13 13
REMARK SMILES IDX 7 14 9 15 10 16 11 17 17 18 18 19 19 20 20 22 21 23 22 24
REMARK SMILES IDX 74 25 23 26 73 27 24 28 25 29 26 30 67 31 27 32 72 33 66 34
REMARK SMILES IDX 68 35 28 36 71 37 65 38 64 39 29 41 55 42 38 43 54 44 39 45
REMARK SMILES IDX 42 46 53 47 69 48 40 49 41 50 52 52 70 53 43 54 30 55 31 56
REMARK SMILES IDX 36 57 32 58 33 59 35 60 37 61 34 62 56 63 57 64 62 65 58 66
REMARK SMILES IDX 59 67 61 68 63 69 60 70 44 71 45 72 50 73 46 74 47 75 49 76
REMARK SMILES IDX 51 77 48 78
REMARK H PARENT 14 6 18 21 68 40 42 51
REMARK Flexibility Score: inf
ROOT
ATOM      1  C   UNL     1       2.211   3.517   1.062  1.00  0.00     0.042 C 
ENDROOT
BRANCH   1   2
ATOM      2  C   UNL     1       1.944   2.483  -0.020  1.00  0.00     0.117 C 
BRANCH   2   3
ATOM      3  N   UNL     1       2.555   1.198   0.255  1.00  0.00    -0.356 N 
ATOM      4  O   UNL     1       0.986  -0.006  -0.912  1.00  0.00    -0.275 OA
ATOM      5  C   UNL     1       2.043   0.036  -0.291  1.00  0.00     0.224 C 
ATOM      6  H   UNL     1       3.347   1.152   0.839  1.00  0.00     0.163 HD
BRANCH   5   7
ATOM      7  C   UNL     1       2.954  -1.172  -0.136  1.00  0.00     0.141 C 
BRANCH   7   8
ATOM      8  C   UNL     1       3.905  -1.297  -1.300  1.00  0.00     0.027 A 
ATOM      9  C   UNL     1       4.462  -0.271  -1.973  1.00  0.00     0.011 A 
ATOM     10  C   UNL     1       4.236  -2.697  -1.738  1.00  0.00     0.258 A 
ATOM     11  C   UNL     1       5.340  -0.484  -3.092  1.00  0.00     0.019 A 
ATOM     12  N   UNL     1       5.051  -2.816  -2.851  1.00  0.00    -0.258 N 
ATOM     13  O   UNL     1       3.796  -3.659  -1.113  1.00  0.00    -0.269 OA
ATOM     14  C   UNL     1       5.597  -1.728  -3.503  1.00  0.00     0.095 A 
BRANCH  12  15
ATOM     15  C   UNL     1       5.345  -4.142  -3.329  1.00  0.00     0.451 C 
ATOM     16  F   UNL     1       5.001  -4.237  -4.643  1.00  0.00    -0.185 F 
ATOM     17  F   UNL     1       6.688  -4.355  -3.276  1.00  0.00    -0.185 F 
ENDBRANCH  12  15
ENDBRANCH   7   8
ENDBRANCH   5   7
ENDBRANCH   2   3
ENDBRANCH   1   2
BRANCH   1  18
ATOM     18  C   UNL     1       3.676   3.886   1.257  1.00  0.00     0.118 C 
BRANCH  18  19
ATOM     19  N   UNL     1       4.267   4.614   0.144  1.00  0.00    -0.352 N 
ATOM     20  C   UNL     1       5.090   5.720   0.172  1.00  0.00     0.251 C 
ATOM     21  H   UNL     1       4.050   4.269  -0.753  1.00  0.00     0.163 HD
ATOM     22  O   UNL     1       5.439   6.256  -0.875  1.00  0.00    -0.269 OA
BRANCH  20  23
ATOM     23  C   UNL     1       5.510   6.293   1.472  1.00  0.00     0.039 A 
ATOM     24  C   UNL     1       5.952   5.470   2.508  1.00  0.00     0.014 A 
ATOM     25  C   UNL     1       5.408   7.673   1.673  1.00  0.00     0.014 A 
ATOM     26  C   UNL     1       6.097   5.993   3.789  1.00  0.00     0.010 A 
ATOM     27  C   UNL     1       5.646   8.212   2.943  1.00  0.00     0.010 A 
ATOM     28  C   UNL     1       5.930   7.368   4.027  1.00  0.00    -0.014 A 
BRANCH  28  29
ATOM     29  C   UNL     1       6.030   7.879   5.421  1.00  0.00     0.031 A 
ATOM     30  C   UNL     1       4.836   8.486   6.113  1.00  0.00     0.074 A 
ATOM     31  C   UNL     1       7.184   7.723   6.099  1.00  0.00     0.049 A 
ATOM     32  N   UNL     1       4.725   8.913   7.348  1.00  0.00    -0.248 NA
ATOM     33  C   UNL     1       3.607   8.637   5.319  1.00  0.00     0.031 C 
ATOM     34  C   UNL     1       8.415   7.153   5.548  1.00  0.00     0.029 A 
ATOM     35  N   UNL     1       7.501   7.998   7.405  1.00  0.00    -0.354 N 
ATOM     36  C   UNL     1       3.428   9.396   7.471  1.00  0.00     0.074 A 
ATOM     37  C   UNL     1       2.798   9.241   6.178  1.00  0.00     0.031 C 
ATOM     38  C   UNL     1       9.332   7.063   6.522  1.00  0.00     0.029 A 
ATOM     39  C   UNL     1       8.775   7.619   7.751  1.00  0.00     0.049 A 
ATOM     40  H   UNL     1       6.876   8.425   8.034  1.00  0.00     0.167 HD
ATOM     41  C   UNL     1       2.809   9.908   8.564  1.00  0.00     0.037 A 
ATOM     42  C   UNL     1       9.427   7.712   8.924  1.00  0.00     0.037 A 
ATOM     43  C   UNL     1       3.424  10.047   9.859  1.00  0.00     0.049 A 
ATOM     44  C   UNL     1       8.729   8.314  10.109  1.00  0.00     0.074 A 
ATOM     45  C   UNL     1       2.867  10.527  11.033  1.00  0.00     0.029 A 
ATOM     46  N   UNL     1       4.736   9.707  10.152  1.00  0.00    -0.354 N 
ATOM     47  N   UNL     1       7.495   8.742  10.213  1.00  0.00    -0.248 NA
ATOM     48  C   UNL     1       9.522   8.453  11.338  1.00  0.00     0.031 C 
ATOM     49  C   UNL     1       3.854  10.513  12.026  1.00  0.00     0.029 A 
ATOM     50  C   UNL     1       5.013   9.987  11.480  1.00  0.00     0.049 A 
ATOM     51  H   UNL     1       5.376   9.323   9.510  1.00  0.00     0.167 HD
ATOM     52  C   UNL     1       7.360   9.193  11.519  1.00  0.00     0.074 A 
ATOM     53  C   UNL     1       8.629   8.958  12.177  1.00  0.00     0.031 C 
ATOM     54  C   UNL     1       6.284   9.758  12.118  1.00  0.00     0.037 A 
BRANCH  41  55
ATOM     55  C   UNL     1       1.390  10.370   8.400  1.00  0.00     0.057 A 
ATOM     56  C   UNL     1       1.076  11.735   8.415  1.00  0.00     0.134 A 
ATOM     57  C   UNL     1       0.329   9.466   8.257  1.00  0.00     0.134 A 
ATOM     58  F   UNL     1       2.043  12.655   8.556  1.00  0.00    -0.206 F 
ATOM     59  C   UNL     1      -0.240  12.184   8.291  1.00  0.00     0.040 A 
ATOM     60  C   UNL     1      -0.989   9.903   8.109  1.00  0.00     0.040 A 
ATOM     61  F   UNL     1       0.563   8.145   8.222  1.00  0.00    -0.206 F 
ATOM     62  C   UNL     1      -1.276  11.266   8.132  1.00  0.00     0.006 A 
ENDBRANCH  41  55
BRANCH  42  63
ATOM     63  C   UNL     1      10.825   7.227   9.038  1.00  0.00     0.057 A 
ATOM     64  C   UNL     1      11.880   7.891   8.401  1.00  0.00     0.134 A 
ATOM     65  C   UNL     1      11.138   6.097   9.802  1.00  0.00     0.134 A 
ATOM     66  F   UNL     1      11.642   8.978   7.652  1.00  0.00    -0.206 F 
ATOM     67  C   UNL     1      13.196   7.444   8.511  1.00  0.00     0.040 A 
ATOM     68  C   UNL     1      12.454   5.654   9.942  1.00  0.00     0.040 A 
ATOM     69  F   UNL     1      10.171   5.432  10.451  1.00  0.00    -0.206 F 
ATOM     70  C   UNL     1      13.487   6.326   9.291  1.00  0.00     0.006 A 
ENDBRANCH  42  63
BRANCH  54  71
ATOM     71  C   UNL     1       6.441  10.148  13.558  1.00  0.00     0.057 A 
ATOM     72  C   UNL     1       5.815   9.414  14.572  1.00  0.00     0.134 A 
ATOM     73  C   UNL     1       7.216  11.251  13.940  1.00  0.00     0.134 A 
ATOM     74  F   UNL     1       5.055   8.350  14.273  1.00  0.00    -0.206 F 
ATOM     75  C   UNL     1       5.959   9.759  15.916  1.00  0.00     0.040 A 
ATOM     76  C   UNL     1       7.387  11.591  15.283  1.00  0.00     0.040 A 
ATOM     77  F   UNL     1       7.856  11.985  13.017  1.00  0.00    -0.206 F 
ATOM     78  C   UNL     1       6.754  10.846  16.275  1.00  0.00     0.006 A 
ENDBRANCH  54  71
ENDBRANCH  28  29
ENDBRANCH  20  23
ENDBRANCH  18  19
ENDBRANCH   1  18
TORSDOF 12
