REMARK SMILES Cc1ccsc1[C@@H]1[NH2+][C@@H](C(=O)NCCCNC(=O)c2ccc(-c3c4nc(c(-c5c(F)cccc5F)c5ccc([nH]5)c(-c5c(F)cccc5F)c5nc(c(-c6c(F)cccc6F)c6ccc3[nH]6)C=C5)C=C4)cc2)CS1
REMARK SMILES IDX 14 1 13 2 12 3 10 4 11 5 9 7 7 8 8 9 74 10 73 13 6 14 1 15
REMARK SMILES IDX 2 16 3 17 4 18 5 19 15 20 16 21 17 22 18 24 19 25 20 26
REMARK SMILES IDX 72 27 21 28 71 29 22 30 23 31 24 32 65 33 25 34 70 35 64 36
REMARK SMILES IDX 66 37 26 38 69 39 63 40 62 41 27 43 53 44 36 45 52 46 37 47
REMARK SMILES IDX 40 48 51 49 67 50 38 51 39 52 50 54 68 55 41 56 28 57 29 58
REMARK SMILES IDX 34 59 30 60 31 61 33 62 35 63 32 64 54 65 55 66 60 67 56 68
REMARK SMILES IDX 57 69 59 70 61 71 58 72 42 73 43 74 48 75 44 76 45 77 47 78
REMARK SMILES IDX 49 79 46 80
REMARK H PARENT 12 6 8 11 8 12 16 23 66 42 40 53
REMARK Flexibility Score: inf
ROOT
ATOM      1  C   UNL     1       2.259  -0.086   4.002  1.00  0.00     0.042 C 
ENDROOT
BRANCH   1   2
ATOM      2  C   UNL     1       3.151  -1.109   3.301  1.00  0.00     0.118 C 
BRANCH   2   3
ATOM      3  N   UNL     1       2.719  -2.457   3.603  1.00  0.00    -0.351 N 
ATOM      4  C   UNL     1       2.303  -3.481   2.817  1.00  0.00     0.279 C 
ATOM      5  O   UNL     1       1.963  -4.499   3.425  1.00  0.00    -0.268 OA
ATOM      6  H   UNL     1       2.730  -2.671   4.564  1.00  0.00     0.163 HD
BRANCH   4   7
ATOM      7  C   UNL     1       2.336  -3.390   1.270  1.00  0.00     0.283 C 
ATOM      8  C   UNL     1       0.192  -3.145   0.121  1.00  0.00     0.284 C 
ATOM      9  N   UNL     1       1.342  -2.422   0.702  1.00  0.00    -0.320 N 
ATOM     10  S   UNL     1       0.299  -4.879   0.621  1.00  0.00    -0.087 SA
ATOM     11  H   UNL     1       1.011  -1.806   1.445  1.00  0.00     0.348 HD
ATOM     12  H   UNL     1       1.794  -1.875  -0.031  1.00  0.00     0.348 HD
ATOM     13  C   UNL     1       2.099  -4.787   0.694  1.00  0.00     0.151 C 
BRANCH   8  14
ATOM     14  C   UNL     1       0.057  -2.965  -1.397  1.00  0.00     0.075 A 
ATOM     15  C   UNL     1      -1.267  -0.749  -1.537  1.00  0.00     0.046 C 
ATOM     16  C   UNL     1      -0.639  -1.980  -2.103  1.00  0.00    -0.030 A 
ATOM     17  C   UNL     1      -0.760  -2.312  -3.498  1.00  0.00     0.015 A 
ATOM     18  C   UNL     1      -0.085  -3.456  -3.837  1.00  0.00     0.065 A 
ATOM     19  S   UNL     1       0.766  -4.087  -2.513  1.00  0.00    -0.141 S 
ENDBRANCH   8  14
ENDBRANCH   4   7
ENDBRANCH   2   3
ENDBRANCH   1   2
BRANCH   1  20
ATOM     20  C   UNL     1       2.192  -0.217   5.527  1.00  0.00     0.118 C 
BRANCH  20  21
ATOM     21  N   UNL     1       3.459   0.053   6.191  1.00  0.00    -0.352 N 
ATOM     22  C   UNL     1       3.761   0.952   7.185  1.00  0.00     0.251 C 
ATOM     23  H   UNL     1       4.216  -0.493   5.878  1.00  0.00     0.163 HD
ATOM     24  O   UNL     1       4.935   1.120   7.514  1.00  0.00    -0.269 OA
BRANCH  22  25
ATOM     25  C   UNL     1       2.699   1.747   7.841  1.00  0.00     0.039 A 
ATOM     26  C   UNL     1       2.920   3.111   8.057  1.00  0.00     0.014 A 
ATOM     27  C   UNL     1       1.498   1.164   8.255  1.00  0.00     0.014 A 
ATOM     28  C   UNL     1       1.910   3.902   8.611  1.00  0.00     0.010 A 
ATOM     29  C   UNL     1       0.466   1.967   8.739  1.00  0.00     0.010 A 
ATOM     30  C   UNL     1       0.656   3.347   8.913  1.00  0.00    -0.014 A 
BRANCH  30  31
ATOM     31  C   UNL     1      -0.471   4.203   9.374  1.00  0.00     0.031 A 
ATOM     32  C   UNL     1      -1.081   4.006  10.734  1.00  0.00     0.074 A 
ATOM     33  C   UNL     1      -0.989   5.123   8.535  1.00  0.00     0.049 A 
ATOM     34  N   UNL     1      -2.103   4.619  11.278  1.00  0.00    -0.248 NA
ATOM     35  C   UNL     1      -0.478   2.972  11.588  1.00  0.00     0.031 C 
ATOM     36  C   UNL     1      -0.519   5.386   7.173  1.00  0.00     0.029 A 
ATOM     37  N   UNL     1      -2.031   6.002   8.700  1.00  0.00    -0.354 N 
ATOM     38  C   UNL     1      -2.271   4.040  12.530  1.00  0.00     0.074 A 
ATOM     39  C   UNL     1      -1.279   2.992  12.644  1.00  0.00     0.031 C 
ATOM     40  C   UNL     1      -1.252   6.373   6.637  1.00  0.00     0.029 A 
ATOM     41  C   UNL     1      -2.273   6.784   7.596  1.00  0.00     0.049 A 
ATOM     42  H   UNL     1      -2.556   6.066   9.530  1.00  0.00     0.167 HD
ATOM     43  C   UNL     1      -3.155   4.366  13.504  1.00  0.00     0.037 A 
ATOM     44  C   UNL     1      -3.217   7.719   7.373  1.00  0.00     0.037 A 
ATOM     45  C   UNL     1      -4.136   5.416  13.393  1.00  0.00     0.049 A 
ATOM     46  C   UNL     1      -4.206   8.040   8.459  1.00  0.00     0.074 A 
ATOM     47  C   UNL     1      -5.039   5.855  14.346  1.00  0.00     0.029 A 
ATOM     48  N   UNL     1      -4.348   6.185  12.259  1.00  0.00    -0.354 N 
ATOM     49  N   UNL     1      -4.306   7.532   9.663  1.00  0.00    -0.248 NA
ATOM     50  C   UNL     1      -5.211   9.069   8.156  1.00  0.00     0.031 C 
ATOM     51  C   UNL     1      -5.836   6.850  13.770  1.00  0.00     0.029 A 
ATOM     52  C   UNL     1      -5.388   7.075  12.478  1.00  0.00     0.049 A 
ATOM     53  H   UNL     1      -3.836   6.111  11.421  1.00  0.00     0.167 HD
ATOM     54  C   UNL     1      -5.363   8.198  10.270  1.00  0.00     0.074 A 
ATOM     55  C   UNL     1      -5.861   9.158   9.307  1.00  0.00     0.031 C 
ATOM     56  C   UNL     1      -5.875   8.030  11.514  1.00  0.00     0.037 A 
BRANCH  43  57
ATOM     57  C   UNL     1      -3.107   3.572  14.779  1.00  0.00     0.057 A 
ATOM     58  C   UNL     1      -2.036   3.678  15.677  1.00  0.00     0.134 A 
ATOM     59  C   UNL     1      -4.165   2.725  15.136  1.00  0.00     0.134 A 
ATOM     60  F   UNL     1      -0.987   4.465  15.394  1.00  0.00    -0.206 F 
ATOM     61  C   UNL     1      -2.005   2.949  16.868  1.00  0.00     0.040 A 
ATOM     62  C   UNL     1      -4.159   2.015  16.338  1.00  0.00     0.040 A 
ATOM     63  F   UNL     1      -5.227   2.584  14.329  1.00  0.00    -0.206 F 
ATOM     64  C   UNL     1      -3.073   2.120  17.204  1.00  0.00     0.006 A 
ENDBRANCH  43  57
BRANCH  44  65
ATOM     65  C   UNL     1      -3.268   8.430   6.069  1.00  0.00     0.057 A 
ATOM     66  C   UNL     1      -2.961   9.793   5.976  1.00  0.00     0.134 A 
ATOM     67  C   UNL     1      -3.636   7.771   4.889  1.00  0.00     0.134 A 
ATOM     68  F   UNL     1      -2.620  10.484   7.074  1.00  0.00    -0.206 F 
ATOM     69  C   UNL     1      -3.041  10.480   4.764  1.00  0.00     0.040 A 
ATOM     70  C   UNL     1      -3.692   8.440   3.665  1.00  0.00     0.040 A 
ATOM     71  F   UNL     1      -3.934   6.464   4.908  1.00  0.00    -0.206 F 
ATOM     72  C   UNL     1      -3.403   9.801   3.603  1.00  0.00     0.006 A 
ENDBRANCH  44  65
BRANCH  56  73
ATOM     73  C   UNL     1      -7.010   8.927  11.920  1.00  0.00     0.057 A 
ATOM     74  C   UNL     1      -8.292   8.798  11.371  1.00  0.00     0.134 A 
ATOM     75  C   UNL     1      -6.823   9.911  12.900  1.00  0.00     0.134 A 
ATOM     76  F   UNL     1      -8.536   7.885  10.418  1.00  0.00    -0.206 F 
ATOM     77  C   UNL     1      -9.340   9.634  11.762  1.00  0.00     0.040 A 
ATOM     78  C   UNL     1      -7.871  10.731  13.321  1.00  0.00     0.040 A 
ATOM     79  F   UNL     1      -5.623  10.083  13.475  1.00  0.00    -0.206 F 
ATOM     80  C   UNL     1      -9.132  10.599  12.745  1.00  0.00     0.006 A 
ENDBRANCH  56  73
ENDBRANCH  30  31
ENDBRANCH  22  25
ENDBRANCH  20  21
ENDBRANCH   1  20
TORSDOF 11
