REMARK SMILES O=C(NCCCNC(=O)[C@H](c1ccc(O)cc1)[NH+]1CC[NH+](Cc2cccc(Cl)c2)CC1)c1ccc(-c2c3nc(c(-c4c(F)cccc4F)c4ccc([nH]4)c(-c4c(F)cccc4F)c4nc(c(-c5c(F)cccc5F)c5ccc2[nH]5)C=C4)C=C3)cc1
REMARK SMILES IDX 5 1 4 2 3 3 1 4 2 5 32 7 33 8 85 9 34 10 84 11 35 12 36 13
REMARK SMILES IDX 37 14 78 15 38 16 83 17 77 18 79 19 39 20 82 21 76 22 75 23
REMARK SMILES IDX 40 25 66 26 49 27 65 28 50 29 53 30 64 31 80 32 51 33 52 34
REMARK SMILES IDX 63 36 81 37 54 38 41 39 42 40 47 41 43 42 44 43 46 44 48 45
REMARK SMILES IDX 45 46 67 47 68 48 73 49 69 50 70 51 72 52 74 53 71 54 55 55
REMARK SMILES IDX 56 56 61 57 57 58 58 59 60 60 62 61 59 62 6 63 7 64 8 65
REMARK SMILES IDX 9 67 10 68 18 69 19 70 31 71 20 73 30 74 21 75 22 77 23 78
REMARK SMILES IDX 24 79 29 80 25 81 27 82 26 83 28 84 11 85 12 86 17 87 13 88
REMARK SMILES IDX 16 89 14 90 15 91
REMARK H PARENT 3 6 79 24 53 35 7 66 18 72 21 76 15 92
REMARK Flexibility Score: inf
ROOT
ATOM      1  C   UNL     1       5.380   1.575  -4.340  1.00  0.00     0.042 C 
ENDROOT
BRANCH   1   2
ATOM      2  C   UNL     1       6.249   0.559  -5.054  1.00  0.00     0.118 C 
BRANCH   2   3
ATOM      3  N   UNL     1       6.339  -0.697  -4.325  1.00  0.00    -0.352 N 
ATOM      4  O   UNL     1       5.911  -2.864  -3.884  1.00  0.00    -0.269 OA
ATOM      5  C   UNL     1       5.958  -1.957  -4.713  1.00  0.00     0.251 C 
ATOM      6  H   UNL     1       6.729  -0.634  -3.424  1.00  0.00     0.163 HD
BRANCH   5   7
ATOM      7  C   UNL     1       5.594  -2.218  -6.121  1.00  0.00     0.039 A 
ATOM      8  C   UNL     1       6.316  -1.628  -7.159  1.00  0.00     0.014 A 
ATOM      9  C   UNL     1       4.536  -3.085  -6.408  1.00  0.00     0.014 A 
ATOM     10  C   UNL     1       5.891  -1.778  -8.470  1.00  0.00     0.010 A 
ATOM     11  C   UNL     1       4.182  -3.329  -7.737  1.00  0.00     0.010 A 
ATOM     12  C   UNL     1       4.846  -2.663  -8.778  1.00  0.00    -0.014 A 
BRANCH  12  13
ATOM     13  C   UNL     1       4.552  -2.947 -10.203  1.00  0.00     0.031 A 
ATOM     14  C   UNL     1       3.226  -2.603 -10.813  1.00  0.00     0.074 A 
ATOM     15  C   UNL     1       5.527  -3.500 -10.951  1.00  0.00     0.049 A 
ATOM     16  N   UNL     1       2.824  -2.771 -12.048  1.00  0.00    -0.248 NA
ATOM     17  C   UNL     1       2.216  -2.002  -9.930  1.00  0.00     0.031 C 
ATOM     18  C   UNL     1       6.852  -3.888 -10.454  1.00  0.00     0.029 A 
ATOM     19  N   UNL     1       5.571  -3.815 -12.283  1.00  0.00    -0.354 N 
ATOM     20  C   UNL     1       1.514  -2.310 -12.088  1.00  0.00     0.074 A 
ATOM     21  C   UNL     1       1.178  -1.882 -10.747  1.00  0.00     0.031 C 
ATOM     22  C   UNL     1       7.593  -4.336 -11.476  1.00  0.00     0.029 A 
ATOM     23  C   UNL     1       6.775  -4.343 -12.681  1.00  0.00     0.049 A 
ATOM     24  H   UNL     1       4.813  -3.676 -12.896  1.00  0.00     0.167 HD
ATOM     25  C   UNL     1       0.678  -2.245 -13.152  1.00  0.00     0.037 A 
ATOM     26  C   UNL     1       7.172  -4.808 -13.878  1.00  0.00     0.037 A 
ATOM     27  C   UNL     1       1.028  -2.673 -14.484  1.00  0.00     0.049 A 
ATOM     28  C   UNL     1       6.207  -4.761 -15.025  1.00  0.00     0.074 A 
ATOM     29  C   UNL     1       0.261  -2.622 -15.635  1.00  0.00     0.029 A 
ATOM     30  N   UNL     1       2.244  -3.239 -14.841  1.00  0.00    -0.354 N 
ATOM     31  N   UNL     1       4.985  -4.287 -15.057  1.00  0.00    -0.248 NA
ATOM     32  C   UNL     1       6.674  -5.316 -16.301  1.00  0.00     0.031 C 
ATOM     33  C   UNL     1       0.991  -3.207 -16.675  1.00  0.00     0.029 A 
ATOM     34  C   UNL     1       2.237  -3.567 -16.188  1.00  0.00     0.049 A 
ATOM     35  H   UNL     1       3.001  -3.385 -14.228  1.00  0.00     0.167 HD
ATOM     36  C   UNL     1       4.543  -4.469 -16.359  1.00  0.00     0.074 A 
ATOM     37  C   UNL     1       5.638  -5.072 -17.091  1.00  0.00     0.031 C 
ATOM     38  C   UNL     1       3.337  -4.168 -16.900  1.00  0.00     0.037 A 
BRANCH  25  39
ATOM     39  C   UNL     1      -0.708  -1.711 -12.922  1.00  0.00     0.057 A 
ATOM     40  C   UNL     1      -0.947  -0.356 -12.659  1.00  0.00     0.134 A 
ATOM     41  C   UNL     1      -1.823  -2.554 -13.021  1.00  0.00     0.134 A 
ATOM     42  F   UNL     1       0.075   0.505 -12.539  1.00  0.00    -0.206 F 
ATOM     43  C   UNL     1      -2.242   0.138 -12.486  1.00  0.00     0.040 A 
ATOM     44  C   UNL     1      -3.123  -2.067 -12.876  1.00  0.00     0.040 A 
ATOM     45  F   UNL     1      -1.668  -3.862 -13.277  1.00  0.00    -0.206 F 
ATOM     46  C   UNL     1      -3.336  -0.718 -12.604  1.00  0.00     0.006 A 
ENDBRANCH  25  39
BRANCH  26  47
ATOM     47  C   UNL     1       8.535  -5.373 -14.041  1.00  0.00     0.057 A 
ATOM     48  C   UNL     1       9.492  -4.743 -14.844  1.00  0.00     0.134 A 
ATOM     49  C   UNL     1       8.911  -6.561 -13.400  1.00  0.00     0.134 A 
ATOM     50  F   UNL     1       9.188  -3.611 -15.494  1.00  0.00    -0.206 F 
ATOM     51  C   UNL     1      10.766  -5.285 -15.022  1.00  0.00     0.040 A 
ATOM     52  C   UNL     1      10.191  -7.096 -13.543  1.00  0.00     0.040 A 
ATOM     53  F   UNL     1       8.044  -7.208 -12.607  1.00  0.00    -0.206 F 
ATOM     54  C   UNL     1      11.120  -6.463 -14.366  1.00  0.00     0.006 A 
ENDBRANCH  26  47
BRANCH  38  55
ATOM     55  C   UNL     1       3.158  -4.460 -18.361  1.00  0.00     0.057 A 
ATOM     56  C   UNL     1       3.068  -5.770 -18.850  1.00  0.00     0.134 A 
ATOM     57  C   UNL     1       3.062  -3.415 -19.289  1.00  0.00     0.134 A 
ATOM     58  F   UNL     1       3.170  -6.816 -18.015  1.00  0.00    -0.206 F 
ATOM     59  C   UNL     1       2.920  -6.030 -20.213  1.00  0.00     0.040 A 
ATOM     60  C   UNL     1       2.881  -3.663 -20.650  1.00  0.00     0.040 A 
ATOM     61  F   UNL     1       3.133  -2.137 -18.887  1.00  0.00    -0.206 F 
ATOM     62  C   UNL     1       2.819  -4.974 -21.116  1.00  0.00     0.006 A 
ENDBRANCH  38  55
ENDBRANCH  12  13
ENDBRANCH   5   7
ENDBRANCH   2   3
ENDBRANCH   1   2
BRANCH   1  63
ATOM     63  C   UNL     1       5.986   2.082  -3.036  1.00  0.00     0.118 C 
BRANCH  63  64
ATOM     64  N   UNL     1       7.115   2.969  -3.256  1.00  0.00    -0.351 N 
ATOM     65  C   UNL     1       7.405   4.262  -2.943  1.00  0.00     0.283 C 
ATOM     66  H   UNL     1       7.846   2.530  -3.748  1.00  0.00     0.163 HD
ATOM     67  O   UNL     1       8.535   4.616  -3.323  1.00  0.00    -0.268 OA
BRANCH  65  68
ATOM     68  C   UNL     1       6.497   5.285  -2.187  1.00  0.00     0.305 C 
BRANCH  68  69
ATOM     69  N   UNL     1       5.350   5.787  -2.996  1.00  0.00    -0.312 N 
ATOM     70  C   UNL     1       4.307   4.862  -3.387  1.00  0.00     0.325 C 
ATOM     71  C   UNL     1       4.691   7.026  -2.538  1.00  0.00     0.325 C 
ATOM     72  H   UNL     1       5.914   5.980  -3.823  1.00  0.00     0.349 HD
ATOM     73  C   UNL     1       3.278   4.542  -2.286  1.00  0.00     0.324 C 
ATOM     74  C   UNL     1       3.430   6.876  -1.622  1.00  0.00     0.324 C 
ATOM     75  N   UNL     1       2.542   5.716  -1.819  1.00  0.00    -0.322 N 
ATOM     76  H   UNL     1       2.202   5.502  -0.882  1.00  0.00     0.348 HD
BRANCH  75  77
ATOM     77  C   UNL     1       1.267   5.957  -2.507  1.00  0.00     0.299 C 
BRANCH  77  78
ATOM     78  C   UNL     1       1.341   6.078  -4.013  1.00  0.00     0.008 A 
ATOM     79  C   UNL     1       1.353   4.928  -4.826  1.00  0.00     0.009 A 
ATOM     80  C   UNL     1       1.525   7.330  -4.611  1.00  0.00     0.030 A 
ATOM     81  C   UNL     1       1.684   5.017  -6.179  1.00  0.00     0.002 A 
ATOM     82  C   UNL     1       1.816   7.416  -5.971  1.00  0.00     0.041 A 
ATOM     83  C   UNL     1       1.931   6.264  -6.748  1.00  0.00     0.020 A 
ATOM     84  Cl  UNL     1       2.081   8.958  -6.686  1.00  0.00    -0.084 Cl
ENDBRANCH  77  78
ENDBRANCH  75  77
ENDBRANCH  68  69
BRANCH  68  85
ATOM     85  C   UNL     1       6.295   5.063  -0.689  1.00  0.00     0.019 A 
ATOM     86  C   UNL     1       5.958   3.835  -0.106  1.00  0.00     0.014 A 
ATOM     87  C   UNL     1       6.396   6.172   0.176  1.00  0.00     0.014 A 
ATOM     88  C   UNL     1       5.555   3.745   1.228  1.00  0.00     0.046 A 
ATOM     89  C   UNL     1       6.028   6.084   1.520  1.00  0.00     0.046 A 
ATOM     90  C   UNL     1       5.559   4.882   2.021  1.00  0.00     0.115 A 
BRANCH  90  91
ATOM     91  O   UNL     1       5.095   4.852   3.300  1.00  0.00    -0.508 OA
ATOM     92  H   UNL     1       4.772   4.051   3.663  1.00  0.00     0.293 HD
ENDBRANCH  90  91
ENDBRANCH  68  85
ENDBRANCH  65  68
ENDBRANCH  63  64
ENDBRANCH   1  63
TORSDOF 15
