REMARK SMILES O=C(NCCCNC(=O)c1ccc(-c2c3nc(c(-c4c(F)cccc4F)c4ccc([nH]4)c(-c4c(F)cccc4F)c4nc(c(-c5c(F)cccc5F)c5ccc2[nH]5)C=C4)C=C3)cc1)C1=Cc2cc(S(F)(F)(F)(F)F)cc(Br)c2O[C@H]1C(F)(F)F
REMARK SMILES IDX 5 1 4 2 3 3 1 4 2 5 64 7 65 8 80 9 66 10 79 11 67 12 78 13
REMARK SMILES IDX 68 14 76 15 75 16 77 17 81 18 82 19 83 20 84 21 69 22 70 23
REMARK SMILES IDX 71 24 72 25 73 26 74 27 6 28 7 29 8 30 9 32 10 33 11 34
REMARK SMILES IDX 63 35 12 36 62 37 13 38 14 39 15 40 56 41 16 42 61 43 55 44
REMARK SMILES IDX 57 45 17 46 60 47 54 48 53 49 18 51 44 52 27 53 43 54 28 55
REMARK SMILES IDX 31 56 42 57 58 58 29 59 30 60 41 62 59 63 32 64 19 65 20 66
REMARK SMILES IDX 25 67 21 68 22 69 24 70 26 71 23 72 45 73 46 74 51 75 47 76
REMARK SMILES IDX 48 77 50 78 52 79 49 80 33 81 34 82 39 83 35 84 36 85 38 86
REMARK SMILES IDX 40 87 37 88
REMARK H PARENT 3 6 7 31 57 50 31 61
REMARK Flexibility Score: inf
ROOT
ATOM      1  C   UNL     1       5.008  -0.451   2.267  1.00  0.00     0.042 C 
ENDROOT
BRANCH   1   2
ATOM      2  C   UNL     1       4.501  -0.811   0.880  1.00  0.00     0.118 C 
BRANCH   2   3
ATOM      3  N   UNL     1       3.031  -0.811   0.880  1.00  0.00    -0.352 N 
ATOM      4  O   UNL     1       1.025   0.096  -0.014  1.00  0.00    -0.270 OA
ATOM      5  C   UNL     1       2.296   0.096  -0.014  1.00  0.00     0.251 C 
ATOM      6  H   UNL     1       2.539  -1.419   1.478  1.00  0.00     0.163 HD
BRANCH   5   7
ATOM      7  C   UNL     1       3.056   1.034  -0.937  1.00  0.00     0.067 C 
ATOM      8  C   UNL     1       4.416   1.034  -0.937  1.00  0.00     0.025 C 
ATOM      9  C   UNL     1       2.296   1.972  -1.861  1.00  0.00     0.314 C 
ATOM     10  C   UNL     1       5.176   0.096  -0.014  1.00  0.00     0.020 A 
ATOM     11  O   UNL     1       3.572  -1.623  -0.359  1.00  0.00    -0.474 OA
ATOM     12  C   UNL     1       6.325   0.596   0.576  1.00  0.00     0.036 A 
ATOM     13  C   UNL     1       4.833  -1.180   0.121  1.00  0.00     0.142 A 
ATOM     14  C   UNL     1       7.207  -0.403   1.053  1.00  0.00     0.109 A 
ATOM     15  C   UNL     1       5.686  -2.075   0.720  1.00  0.00     0.062 A 
ATOM     16  C   UNL     1       6.866  -1.660   1.272  1.00  0.00     0.044 A 
ATOM     17  Br  UNL     1       5.205  -3.974   0.783  1.00  0.00    -0.047 Br
BRANCH   9  18
ATOM     18  C   UNL     1       0.802   1.774  -1.666  1.00  0.00     0.429 C 
ATOM     19  F   UNL     1       0.392   2.443  -0.592  1.00  0.00    -0.167 F 
ATOM     20  F   UNL     1       0.203   2.263  -2.748  1.00  0.00    -0.167 F 
ATOM     21  F   UNL     1       0.492   0.487  -1.531  1.00  0.00    -0.167 F 
ENDBRANCH   9  18
BRANCH  14  22
ATOM     22  S   UNL     1       8.920   0.076   1.388  1.00  0.00     0.310 S 
ATOM     23  F   UNL     1       8.679   0.066   2.955  1.00  0.00    -0.094 F 
ATOM     24  F   UNL     1       8.462   1.583   1.396  1.00  0.00    -0.094 F 
ATOM     25  F   UNL     1      10.390   0.491   1.678  1.00  0.00    -0.094 F 
ATOM     26  F   UNL     1       9.333  -1.443   1.515  1.00  0.00    -0.094 F 
ATOM     27  F   UNL     1       7.413  -0.364   1.206  1.00  0.00    -0.094 F 
ENDBRANCH  14  22
ENDBRANCH   5   7
ENDBRANCH   2   3
ENDBRANCH   1   2
BRANCH   1  28
ATOM     28  C   UNL     1       4.501  -1.472   3.272  1.00  0.00     0.118 C 
BRANCH  28  29
ATOM     29  N   UNL     1       4.991  -2.808   2.903  1.00  0.00    -0.352 N 
ATOM     30  C   UNL     1       5.836  -3.565   3.838  1.00  0.00     0.251 C 
ATOM     31  H   UNL     1       4.753  -3.196   2.030  1.00  0.00     0.163 HD
ATOM     32  O   UNL     1       6.260  -4.720   3.519  1.00  0.00    -0.269 OA
BRANCH  30  33
ATOM     33  C   UNL     1       6.203  -2.966   5.186  1.00  0.00     0.039 A 
ATOM     34  C   UNL     1       7.473  -3.165   5.701  1.00  0.00     0.014 A 
ATOM     35  C   UNL     1       5.254  -2.377   5.903  1.00  0.00     0.014 A 
ATOM     36  C   UNL     1       7.563  -2.965   7.099  1.00  0.00     0.010 A 
ATOM     37  C   UNL     1       5.458  -2.086   7.230  1.00  0.00     0.010 A 
ATOM     38  C   UNL     1       6.671  -2.311   7.821  1.00  0.00    -0.014 A 
BRANCH  38  39
ATOM     39  C   UNL     1       6.975  -1.835   9.232  1.00  0.00     0.031 A 
ATOM     40  C   UNL     1       6.167  -2.326  10.258  1.00  0.00     0.074 A 
ATOM     41  C   UNL     1       8.089  -1.039   9.437  1.00  0.00     0.049 A 
ATOM     42  N   UNL     1       6.328  -2.159  11.571  1.00  0.00    -0.248 NA
ATOM     43  C   UNL     1       4.963  -3.143  10.040  1.00  0.00     0.031 C 
ATOM     44  C   UNL     1       8.915  -0.546   8.408  1.00  0.00     0.029 A 
ATOM     45  N   UNL     1       8.595  -0.587  10.636  1.00  0.00    -0.354 N 
ATOM     46  C   UNL     1       5.363  -2.796  12.239  1.00  0.00     0.074 A 
ATOM     47  C   UNL     1       4.468  -3.433  11.263  1.00  0.00     0.031 C 
ATOM     48  C   UNL     1       9.897   0.201   8.976  1.00  0.00     0.029 A 
ATOM     49  C   UNL     1       9.703   0.188  10.371  1.00  0.00     0.049 A 
ATOM     50  H   UNL     1       8.229  -0.784  11.528  1.00  0.00     0.167 HD
ATOM     51  C   UNL     1       5.196  -2.873  13.622  1.00  0.00     0.037 A 
ATOM     52  C   UNL     1      10.509   0.855  11.279  1.00  0.00     0.037 A 
ATOM     53  C   UNL     1       6.028  -2.241  14.533  1.00  0.00     0.049 A 
ATOM     54  C   UNL     1      10.308   0.826  12.661  1.00  0.00     0.074 A 
ATOM     55  C   UNL     1       5.878  -2.314  15.931  1.00  0.00     0.029 A 
ATOM     56  N   UNL     1       7.121  -1.446  14.267  1.00  0.00    -0.354 N 
ATOM     57  N   UNL     1       9.367   0.158  13.330  1.00  0.00    -0.248 NA
ATOM     58  C   UNL     1      11.136   1.555  13.631  1.00  0.00     0.031 C 
ATOM     59  C   UNL     1       6.861  -1.566  16.500  1.00  0.00     0.029 A 
ATOM     60  C   UNL     1       7.641  -1.012  15.466  1.00  0.00     0.049 A 
ATOM     61  H   UNL     1       7.470  -1.225  13.373  1.00  0.00     0.167 HD
ATOM     62  C   UNL     1       9.504   0.359  14.642  1.00  0.00     0.074 A 
ATOM     63  C   UNL     1      10.640   1.267  14.854  1.00  0.00     0.031 C 
ATOM     64  C   UNL     1       8.730  -0.180  15.671  1.00  0.00     0.037 A 
BRANCH  51  65
ATOM     65  C   UNL     1       4.036  -3.694  14.161  1.00  0.00     0.057 A 
ATOM     66  C   UNL     1       3.923  -5.041  13.858  1.00  0.00     0.134 A 
ATOM     67  C   UNL     1       3.125  -3.076  14.903  1.00  0.00     0.134 A 
ATOM     68  F   UNL     1       4.920  -5.755  13.343  1.00  0.00    -0.206 F 
ATOM     69  C   UNL     1       2.651  -5.589  14.148  1.00  0.00     0.040 A 
ATOM     70  C   UNL     1       1.965  -3.718  15.264  1.00  0.00     0.040 A 
ATOM     71  F   UNL     1       3.338  -1.825  15.300  1.00  0.00    -0.206 F 
ATOM     72  C   UNL     1       1.760  -5.032  14.948  1.00  0.00     0.006 A 
ENDBRANCH  51  65
BRANCH  52  73
ATOM     73  C   UNL     1      11.679   1.663  10.741  1.00  0.00     0.057 A 
ATOM     74  C   UNL     1      12.980   1.350  11.098  1.00  0.00     0.134 A 
ATOM     75  C   UNL     1      11.414   2.659   9.904  1.00  0.00     0.134 A 
ATOM     76  F   UNL     1      13.310   0.222  11.721  1.00  0.00    -0.206 F 
ATOM     77  C   UNL     1      13.926   2.339  10.739  1.00  0.00     0.040 A 
ATOM     78  C   UNL     1      12.413   3.505   9.487  1.00  0.00     0.040 A 
ATOM     79  F   UNL     1      10.172   2.838   9.465  1.00  0.00    -0.206 F 
ATOM     80  C   UNL     1      13.714   3.291   9.849  1.00  0.00     0.006 A 
ENDBRANCH  52  73
BRANCH  64  81
ATOM     81  C   UNL     1       9.106   0.165  17.103  1.00  0.00     0.057 A 
ATOM     82  C   UNL     1       9.183   1.493  17.490  1.00  0.00     0.134 A 
ATOM     83  C   UNL     1       9.430  -0.816  17.937  1.00  0.00     0.134 A 
ATOM     84  F   UNL     1       8.638   2.485  16.792  1.00  0.00    -0.206 F 
ATOM     85  C   UNL     1       9.895   1.698  18.695  1.00  0.00     0.040 A 
ATOM     86  C   UNL     1       9.997  -0.537  19.157  1.00  0.00     0.040 A 
ATOM     87  F   UNL     1       9.202  -2.079  17.589  1.00  0.00    -0.206 F 
ATOM     88  C   UNL     1      10.158   0.753  19.579  1.00  0.00     0.006 A 
ENDBRANCH  64  81
ENDBRANCH  38  39
ENDBRANCH  30  33
ENDBRANCH  28  29
ENDBRANCH   1  28
TORSDOF 12
