REMARK SMILES NS(=O)(=O)c1ccc(N2N=C(C(=O)NCCCNC(=O)c3ccc(-c4c5nc(c(-c6c(F)cccc6F)c6ccc([nH]6)c(-c6c(F)cccc6F)c6nc(c(-c7c(F)cccc7F)c7ccc4[nH]7)C=C6)C=C5)cc3)C[C@H]2c2ccco2)cc1
REMARK SMILES IDX 15 1 14 2 12 3 13 4 11 6 9 7 10 8 76 9 75 10 8 11 5 12 6 13
REMARK SMILES IDX 83 14 7 15 82 16 2 17 3 18 4 19 1 20 77 23 78 24 81 25 79 26
REMARK SMILES IDX 80 27 16 28 17 29 18 30 19 31 20 33 21 34 22 35 74 36 23 37
REMARK SMILES IDX 73 38 24 39 25 40 26 41 67 42 27 43 72 44 66 45 68 46 28 47
REMARK SMILES IDX 71 48 65 49 64 50 29 52 55 53 38 54 54 55 39 56 42 57 53 58
REMARK SMILES IDX 69 59 40 60 41 61 52 63 70 64 43 65 30 66 31 67 36 68 32 69
REMARK SMILES IDX 33 70 35 71 37 72 34 73 56 74 57 75 62 76 58 77 59 78 61 79
REMARK SMILES IDX 63 80 60 81 44 82 45 83 50 84 46 85 47 86 49 87 51 88 48 89
REMARK H PARENT 14 5 1 21 1 22 18 32 68 51 42 62
REMARK Flexibility Score: inf
ROOT
ATOM      1  C   UNL     1       2.297  -7.014   9.441  1.00  0.00     0.118 C 
ENDROOT
BRANCH   1   2
ATOM      2  N   UNL     1       3.021  -7.119   8.186  1.00  0.00    -0.351 N 
ATOM      3  C   UNL     1       3.049  -6.393   7.022  1.00  0.00     0.267 C 
ATOM      4  O   UNL     1       3.711  -6.846   6.090  1.00  0.00    -0.268 OA
ATOM      5  H   UNL     1       3.633  -7.890   8.166  1.00  0.00     0.163 HD
BRANCH   3   6
ATOM      6  C   UNL     1       2.353  -5.054   6.839  1.00  0.00     0.128 C 
ATOM      7  N   UNL     1       1.927  -3.134   5.998  1.00  0.00    -0.254 N 
ATOM      8  N   UNL     1       2.558  -4.326   5.783  1.00  0.00    -0.171 NA
ATOM      9  C   UNL     1       1.056  -3.144   7.183  1.00  0.00     0.180 C 
ATOM     10  C   UNL     1       1.437  -4.468   7.850  1.00  0.00     0.099 C 
BRANCH   7  11
ATOM     11  C   UNL     1       1.631  -2.308   4.913  1.00  0.00     0.060 A 
ATOM     12  C   UNL     1       0.942  -0.591   2.801  1.00  0.00     0.082 A 
ATOM     13  C   UNL     1       0.772  -1.969   2.655  1.00  0.00     0.024 A 
ATOM     14  C   UNL     1       1.484  -0.064   3.971  1.00  0.00     0.024 A 
ATOM     15  C   UNL     1       1.129  -2.821   3.707  1.00  0.00     0.029 A 
ATOM     16  C   UNL     1       1.830  -0.925   5.012  1.00  0.00     0.029 A 
BRANCH  12  17
ATOM     17  S   UNL     1       0.472   0.501   1.495  1.00  0.00     0.238 S 
ATOM     18  O   UNL     1       1.081   1.797   1.717  1.00  0.00    -0.207 OA
ATOM     19  O   UNL     1      -0.938   0.341   1.248  1.00  0.00    -0.207 OA
BRANCH  17  20
ATOM     20  N   UNL     1       1.268  -0.133   0.162  1.00  0.00    -0.225 NA
ATOM     21  H   UNL     1       1.060   0.434  -0.660  1.00  0.00     0.137 HD
ATOM     22  H   UNL     1       0.955  -1.091   0.003  1.00  0.00     0.137 HD
ENDBRANCH  17  20
ENDBRANCH  12  17
ENDBRANCH   7  11
BRANCH   9  23
ATOM     23  C   UNL     1       1.140  -1.986   8.141  1.00  0.00     0.128 A 
ATOM     24  C   UNL     1       0.610  -0.709   8.128  1.00  0.00     0.048 A 
ATOM     25  O   UNL     1       1.836  -2.166   9.307  1.00  0.00    -0.467 OA
ATOM     26  C   UNL     1       1.030  -0.078   9.324  1.00  0.00     0.042 A 
ATOM     27  C   UNL     1       1.759  -1.014  10.015  1.00  0.00     0.195 A 
ENDBRANCH   9  23
ENDBRANCH   3   6
ENDBRANCH   1   2
BRANCH   1  28
ATOM     28  C   UNL     1       1.209  -8.074   9.545  1.00  0.00     0.042 C 
BRANCH  28  29
ATOM     29  C   UNL     1       1.768  -9.470   9.788  1.00  0.00     0.118 C 
BRANCH  29  30
ATOM     30  N   UNL     1       2.442  -9.572  11.077  1.00  0.00    -0.352 N 
ATOM     31  C   UNL     1       2.107 -10.282  12.202  1.00  0.00     0.251 C 
ATOM     32  H   UNL     1       3.271  -9.046  11.152  1.00  0.00     0.163 HD
ATOM     33  O   UNL     1       2.670 -10.037  13.264  1.00  0.00    -0.269 OA
BRANCH  31  34
ATOM     34  C   UNL     1       1.069 -11.331  12.142  1.00  0.00     0.039 A 
ATOM     35  C   UNL     1       0.183 -11.471  13.214  1.00  0.00     0.014 A 
ATOM     36  C   UNL     1       0.985 -12.195  11.049  1.00  0.00     0.014 A 
ATOM     37  C   UNL     1      -0.825 -12.435  13.157  1.00  0.00     0.010 A 
ATOM     38  C   UNL     1      -0.075 -13.088  10.950  1.00  0.00     0.010 A 
ATOM     39  C   UNL     1      -0.985 -13.225  12.007  1.00  0.00    -0.014 A 
BRANCH  39  40
ATOM     40  C   UNL     1      -2.091 -14.207  11.890  1.00  0.00     0.031 A 
ATOM     41  C   UNL     1      -1.786 -15.671  11.730  1.00  0.00     0.074 A 
ATOM     42  C   UNL     1      -3.365 -13.772  11.854  1.00  0.00     0.049 A 
ATOM     43  N   UNL     1      -2.607 -16.670  11.529  1.00  0.00    -0.248 NA
ATOM     44  C   UNL     1      -0.367 -16.061  11.771  1.00  0.00     0.031 C 
ATOM     45  C   UNL     1      -3.786 -12.373  11.949  1.00  0.00     0.029 A 
ATOM     46  N   UNL     1      -4.542 -14.464  11.716  1.00  0.00    -0.354 N 
ATOM     47  C   UNL     1      -1.806 -17.798  11.402  1.00  0.00     0.074 A 
ATOM     48  C   UNL     1      -0.432 -17.354  11.491  1.00  0.00     0.031 C 
ATOM     49  C   UNL     1      -5.126 -12.312  11.891  1.00  0.00     0.029 A 
ATOM     50  C   UNL     1      -5.656 -13.659  11.710  1.00  0.00     0.049 A 
ATOM     51  H   UNL     1      -4.585 -15.443  11.628  1.00  0.00     0.167 HD
ATOM     52  C   UNL     1      -2.182 -19.090  11.251  1.00  0.00     0.037 A 
ATOM     53  C   UNL     1      -6.957 -13.972  11.566  1.00  0.00     0.037 A 
ATOM     54  C   UNL     1      -3.551 -19.529  11.188  1.00  0.00     0.049 A 
ATOM     55  C   UNL     1      -7.348 -15.414  11.391  1.00  0.00     0.074 A 
ATOM     56  C   UNL     1      -4.038 -20.821  11.099  1.00  0.00     0.029 A 
ATOM     57  N   UNL     1      -4.652 -18.685  11.206  1.00  0.00    -0.354 N 
ATOM     58  N   UNL     1      -6.584 -16.478  11.344  1.00  0.00    -0.248 NA
ATOM     59  C   UNL     1      -8.783 -15.698  11.255  1.00  0.00     0.031 C 
ATOM     60  C   UNL     1      -5.433 -20.756  11.011  1.00  0.00     0.029 A 
ATOM     61  C   UNL     1      -5.817 -19.428  11.103  1.00  0.00     0.049 A 
ATOM     62  H   UNL     1      -4.611 -17.704  11.280  1.00  0.00     0.167 HD
ATOM     63  C   UNL     1      -7.444 -17.559  11.203  1.00  0.00     0.074 A 
ATOM     64  C   UNL     1      -8.789 -17.021  11.188  1.00  0.00     0.031 C 
ATOM     65  C   UNL     1      -7.149 -18.877  11.097  1.00  0.00     0.037 A 
BRANCH  52  66
ATOM     66  C   UNL     1      -1.095 -20.121  11.144  1.00  0.00     0.057 A 
ATOM     67  C   UNL     1      -0.279 -20.453  12.234  1.00  0.00     0.134 A 
ATOM     68  C   UNL     1      -0.882 -20.815   9.946  1.00  0.00     0.134 A 
ATOM     69  F   UNL     1      -0.420 -19.818  13.408  1.00  0.00    -0.206 F 
ATOM     70  C   UNL     1       0.728 -21.415  12.129  1.00  0.00     0.040 A 
ATOM     71  C   UNL     1       0.101 -21.800   9.837  1.00  0.00     0.040 A 
ATOM     72  F   UNL     1      -1.630 -20.553   8.864  1.00  0.00    -0.206 F 
ATOM     73  C   UNL     1       0.914 -22.097  10.929  1.00  0.00     0.006 A 
ENDBRANCH  52  66
BRANCH  53  74
ATOM     74  C   UNL     1      -7.988 -12.904  11.601  1.00  0.00     0.057 A 
ATOM     75  C   UNL     1      -8.885 -12.801  12.670  1.00  0.00     0.134 A 
ATOM     76  C   UNL     1      -8.107 -11.966  10.568  1.00  0.00     0.134 A 
ATOM     77  F   UNL     1      -8.832 -13.680  13.682  1.00  0.00    -0.206 F 
ATOM     78  C   UNL     1      -9.878 -11.821  12.701  1.00  0.00     0.040 A 
ATOM     79  C   UNL     1      -9.078 -10.964  10.599  1.00  0.00     0.040 A 
ATOM     80  F   UNL     1      -7.271 -12.003   9.520  1.00  0.00    -0.206 F 
ATOM     81  C   UNL     1      -9.973 -10.895  11.664  1.00  0.00     0.006 A 
ENDBRANCH  53  74
BRANCH  65  82
ATOM     82  C   UNL     1      -8.301 -19.834  10.993  1.00  0.00     0.057 A 
ATOM     83  C   UNL     1      -9.087 -19.926   9.838  1.00  0.00     0.134 A 
ATOM     84  C   UNL     1      -8.601 -20.702  12.051  1.00  0.00     0.134 A 
ATOM     85  F   UNL     1      -8.860 -19.114   8.794  1.00  0.00    -0.206 F 
ATOM     86  C   UNL     1     -10.147 -20.830   9.748  1.00  0.00     0.040 A 
ATOM     87  C   UNL     1      -9.638 -21.630  11.962  1.00  0.00     0.040 A 
ATOM     88  F   UNL     1      -7.881 -20.672  13.183  1.00  0.00    -0.206 F 
ATOM     89  C   UNL     1     -10.419 -21.691  10.810  1.00  0.00     0.006 A 
ENDBRANCH  65  82
ENDBRANCH  39  40
ENDBRANCH  31  34
ENDBRANCH  29  30
ENDBRANCH  28  29
ENDBRANCH   1  28
TORSDOF 14
