REMARK SMILES CC[C@H]1CC[C@](C(=O)NCCCNC(=O)c2ccc(-c3c4nc(c(-c5c(F)cccc5F)c5ccc([nH]5)c(-c5c(F)cccc5F)c5nc(c(-c6c(F)cccc6F)c6ccc3[nH]6)C=C5)C=C4)cc2)([C@H]2CCC[C@@H](S(C)(=O)=O)C2)CC1
REMARK SMILES IDX 11 1 10 2 9 3 7 4 8 5 6 7 3 8 81 9 4 10 80 11 5 12 2 13 1 14
REMARK SMILES IDX 70 15 71 16 79 17 72 18 74 19 73 20 75 21 76 22 77 23 78 24
REMARK SMILES IDX 12 25 13 26 14 27 15 29 16 30 17 31 69 32 18 33 68 34 19 35
REMARK SMILES IDX 20 36 21 37 62 38 22 39 67 40 61 41 63 42 23 43 66 44 60 45
REMARK SMILES IDX 59 46 24 48 50 49 33 50 49 51 34 52 37 53 48 54 64 55 35 56
REMARK SMILES IDX 36 57 47 59 65 60 38 61 25 62 26 63 31 64 27 65 28 66 30 67
REMARK SMILES IDX 32 68 29 69 51 70 52 71 57 72 53 73 54 74 56 75 58 76 55 77
REMARK SMILES IDX 39 78 40 79 45 80 41 81 42 82 44 83 46 84 43 85
REMARK H PARENT 9 6 13 28 63 47 37 58
REMARK Flexibility Score: inf
ROOT
ATOM      1  C   UNL     1       2.744   6.715  -9.548  1.00  0.00     0.042 C 
ENDROOT
BRANCH   1   2
ATOM      2  C   UNL     1       1.650   6.540  -8.509  1.00  0.00     0.117 C 
BRANCH   2   3
ATOM      3  N   UNL     1       1.909   5.606  -7.428  1.00  0.00    -0.356 N 
ATOM      4  C   UNL     1       3.117   5.537  -6.777  1.00  0.00     0.226 C 
ATOM      5  O   UNL     1       4.180   5.585  -7.389  1.00  0.00    -0.274 OA
ATOM      6  H   UNL     1       1.189   4.997  -7.149  1.00  0.00     0.163 HD
BRANCH   4   7
ATOM      7  C   UNL     1       3.092   5.366  -5.250  1.00  0.00     0.052 C 
ATOM      8  C   UNL     1       2.188   8.259  -4.995  1.00  0.00    -0.011 C 
ATOM      9  C   UNL     1       1.162   7.094  -4.934  1.00  0.00     0.005 C 
ATOM     10  C   UNL     1       3.653   7.849  -5.174  1.00  0.00     0.005 C 
ATOM     11  C   UNL     1       1.695   5.673  -4.634  1.00  0.00     0.017 C 
ATOM     12  C   UNL     1       3.980   6.469  -4.615  1.00  0.00     0.017 C 
BRANCH   8  13
ATOM     13  C   UNL     1       1.707   9.378  -5.974  1.00  0.00    -0.000 C 
ATOM     14  C   UNL     1       2.713   9.930  -6.983  1.00  0.00     0.004 C 
ENDBRANCH   8  13
BRANCH   7  15
ATOM     15  C   UNL     1       3.594   3.914  -4.879  1.00  0.00     0.006 C 
ATOM     16  C   UNL     1       2.923   2.759  -5.645  1.00  0.00     0.005 C 
ATOM     17  C   UNL     1       5.120   3.644  -4.865  1.00  0.00     0.024 C 
ATOM     18  C   UNL     1       3.463   2.495  -7.049  1.00  0.00     0.002 C 
ATOM     19  C   UNL     1       5.821   3.278  -6.184  1.00  0.00     0.108 C 
ATOM     20  C   UNL     1       4.979   2.565  -7.245  1.00  0.00     0.020 C 
BRANCH  19  21
ATOM     21  S   UNL     1       7.040   4.517  -6.764  1.00  0.00     0.150 S 
ATOM     22  C   UNL     1       6.883   4.750  -8.524  1.00  0.00     0.158 C 
ATOM     23  O   UNL     1       6.785   5.801  -6.145  1.00  0.00    -0.229 OA
ATOM     24  O   UNL     1       8.355   3.918  -6.574  1.00  0.00    -0.229 OA
ENDBRANCH  19  21
ENDBRANCH   7  15
ENDBRANCH   4   7
ENDBRANCH   2   3
ENDBRANCH   1   2
BRANCH   1  25
ATOM     25  C   UNL     1       2.929   5.439 -10.350  1.00  0.00     0.118 C 
BRANCH  25  26
ATOM     26  N   UNL     1       1.766   5.200 -11.197  1.00  0.00    -0.352 N 
ATOM     27  C   UNL     1       1.330   5.956 -12.260  1.00  0.00     0.251 C 
ATOM     28  H   UNL     1       1.229   4.404 -10.981  1.00  0.00     0.163 HD
ATOM     29  O   UNL     1       0.141   5.957 -12.559  1.00  0.00    -0.269 OA
BRANCH  27  30
ATOM     30  C   UNL     1       2.293   6.779 -13.027  1.00  0.00     0.039 A 
ATOM     31  C   UNL     1       1.880   7.998 -13.572  1.00  0.00     0.014 A 
ATOM     32  C   UNL     1       3.587   6.315 -13.271  1.00  0.00     0.014 A 
ATOM     33  C   UNL     1       2.766   8.743 -14.356  1.00  0.00     0.010 A 
ATOM     34  C   UNL     1       4.501   7.107 -13.953  1.00  0.00     0.010 A 
ATOM     35  C   UNL     1       4.088   8.305 -14.547  1.00  0.00    -0.014 A 
BRANCH  35  36
ATOM     36  C   UNL     1       5.033   9.045 -15.421  1.00  0.00     0.031 A 
ATOM     37  C   UNL     1       5.602   8.381 -16.650  1.00  0.00     0.074 A 
ATOM     38  C   UNL     1       5.421  10.289 -15.083  1.00  0.00     0.049 A 
ATOM     39  N   UNL     1       6.471   8.842 -17.514  1.00  0.00    -0.248 NA
ATOM     40  C   UNL     1       5.166   7.002 -16.924  1.00  0.00     0.031 C 
ATOM     41  C   UNL     1       4.998  11.011 -13.883  1.00  0.00     0.029 A 
ATOM     42  N   UNL     1       6.265  11.163 -15.719  1.00  0.00    -0.354 N 
ATOM     43  C   UNL     1       6.702   7.804 -18.409  1.00  0.00     0.074 A 
ATOM     44  C   UNL     1       5.932   6.670 -17.951  1.00  0.00     0.031 C 
ATOM     45  C   UNL     1       5.556  12.232 -13.887  1.00  0.00     0.029 A 
ATOM     46  C   UNL     1       6.400  12.365 -15.070  1.00  0.00     0.049 A 
ATOM     47  H   UNL     1       6.730  10.948 -16.560  1.00  0.00     0.167 HD
ATOM     48  C   UNL     1       7.464   7.803 -19.529  1.00  0.00     0.037 A 
ATOM     49  C   UNL     1       7.120  13.454 -15.396  1.00  0.00     0.037 A 
ATOM     50  C   UNL     1       8.194   8.948 -20.006  1.00  0.00     0.049 A 
ATOM     51  C   UNL     1       7.921  13.446 -16.668  1.00  0.00     0.074 A 
ATOM     52  C   UNL     1       8.931   9.080 -21.169  1.00  0.00     0.029 A 
ATOM     53  N   UNL     1       8.274  10.162 -19.340  1.00  0.00    -0.354 N 
ATOM     54  N   UNL     1       8.068  12.484 -17.547  1.00  0.00    -0.248 NA
ATOM     55  C   UNL     1       8.645  14.680 -16.998  1.00  0.00     0.031 C 
ATOM     56  C   UNL     1       9.492  10.362 -21.186  1.00  0.00     0.029 A 
ATOM     57  C   UNL     1       9.064  11.044 -20.058  1.00  0.00     0.049 A 
ATOM     58  H   UNL     1       7.835  10.367 -18.483  1.00  0.00     0.167 HD
ATOM     59  C   UNL     1       8.884  13.002 -18.544  1.00  0.00     0.074 A 
ATOM     60  C   UNL     1       9.179  14.371 -18.171  1.00  0.00     0.031 C 
ATOM     61  C   UNL     1       9.350  12.401 -19.667  1.00  0.00     0.037 A 
BRANCH  48  62
ATOM     62  C   UNL     1       7.536   6.526 -20.319  1.00  0.00     0.057 A 
ATOM     63  C   UNL     1       6.433   6.026 -21.025  1.00  0.00     0.134 A 
ATOM     64  C   UNL     1       8.729   5.796 -20.390  1.00  0.00     0.134 A 
ATOM     65  F   UNL     1       5.255   6.668 -20.989  1.00  0.00    -0.206 F 
ATOM     66  C   UNL     1       6.504   4.833 -21.746  1.00  0.00     0.040 A 
ATOM     67  C   UNL     1       8.821   4.616 -21.133  1.00  0.00     0.040 A 
ATOM     68  F   UNL     1       9.826   6.217 -19.744  1.00  0.00    -0.206 F 
ATOM     69  C   UNL     1       7.704   4.127 -21.807  1.00  0.00     0.006 A 
ENDBRANCH  48  62
BRANCH  49  70
ATOM     70  C   UNL     1       7.079  14.654 -14.525  1.00  0.00     0.057 A 
ATOM     71  C   UNL     1       6.415  15.818 -14.933  1.00  0.00     0.134 A 
ATOM     72  C   UNL     1       7.684  14.664 -13.263  1.00  0.00     0.134 A 
ATOM     73  F   UNL     1       5.829  15.873 -16.138  1.00  0.00    -0.206 F 
ATOM     74  C   UNL     1       6.369  16.954 -14.124  1.00  0.00     0.040 A 
ATOM     75  C   UNL     1       7.624  15.785 -12.434  1.00  0.00     0.040 A 
ATOM     76  F   UNL     1       8.325  13.576 -12.811  1.00  0.00    -0.206 F 
ATOM     77  C   UNL     1       6.970  16.937 -12.867  1.00  0.00     0.006 A 
ENDBRANCH  49  70
BRANCH  61  78
ATOM     78  C   UNL     1      10.208  13.231 -20.575  1.00  0.00     0.057 A 
ATOM     79  C   UNL     1      11.513  13.600 -20.226  1.00  0.00     0.134 A 
ATOM     80  C   UNL     1       9.726  13.655 -21.820  1.00  0.00     0.134 A 
ATOM     81  F   UNL     1      12.030  13.235 -19.043  1.00  0.00    -0.206 F 
ATOM     82  C   UNL     1      12.297  14.390 -21.068  1.00  0.00     0.040 A 
ATOM     83  C   UNL     1      10.510  14.422 -22.682  1.00  0.00     0.040 A 
ATOM     84  F   UNL     1       8.488  13.328 -22.220  1.00  0.00    -0.206 F 
ATOM     85  C   UNL     1      11.796  14.800 -22.302  1.00  0.00     0.006 A 
ENDBRANCH  61  78
ENDBRANCH  35  36
ENDBRANCH  27  30
ENDBRANCH  25  26
ENDBRANCH   1  25
TORSDOF 13
