REMARK SMILES O=C1CCCC2=C1[C@H](c1ccc([N+](=O)[O-])cc1)CC(=O)N2c1ccccc1C(=O)NCCCNC(=O)c1ccc(-c2c3nc(c(-c4c(F)cccc4F)c4ccc([nH]4)c(-c4c(F)cccc4F)c4nc(c(-c5c(F)cccc5F)c5ccc2[nH]5)C=C4)C=C3)cc1
REMARK SMILES IDX 31 1 30 2 28 3 29 4 27 6 22 7 23 8 24 9 26 10 25 11 21 12
REMARK SMILES IDX 1 13 2 14 3 15 7 16 4 17 6 18 8 19 5 20 18 21 19 22 20 23
REMARK SMILES IDX 9 24 10 25 17 26 11 27 16 28 12 29 13 30 14 31 15 32 32 33
REMARK SMILES IDX 33 34 34 35 35 36 36 38 37 39 38 40 90 41 39 42 89 43 40 44
REMARK SMILES IDX 41 45 42 46 83 47 43 48 88 49 82 50 84 51 44 52 87 53 81 54
REMARK SMILES IDX 80 55 45 57 71 58 54 59 70 60 55 61 58 62 69 63 85 64 56 65
REMARK SMILES IDX 57 66 68 68 86 69 59 70 46 71 47 72 52 73 48 74 49 75 51 76
REMARK SMILES IDX 53 77 50 78 72 79 73 80 78 81 74 82 75 83 77 84 79 85 76 86
REMARK SMILES IDX 60 87 61 88 66 89 62 90 63 91 65 92 67 93 64 94
REMARK H PARENT 30 5 34 37 84 56 58 67
REMARK Flexibility Score: inf
ROOT
ATOM      1  C   UNL     1       4.776  -0.930   1.635  1.00  0.00     0.118 C 
ENDROOT
BRANCH   1   2
ATOM      2  N   UNL     1       6.201  -0.692   1.734  1.00  0.00    -0.352 N 
ATOM      3  C   UNL     1       7.313  -0.881   0.948  1.00  0.00     0.253 C 
ATOM      4  O   UNL     1       8.294  -0.302   1.448  1.00  0.00    -0.269 OA
ATOM      5  H   UNL     1       6.437  -0.285   2.599  1.00  0.00     0.163 HD
BRANCH   3   6
ATOM      6  C   UNL     1       7.553  -1.628  -0.364  1.00  0.00     0.063 A 
ATOM      7  C   UNL     1       6.739  -2.319  -1.293  1.00  0.00     0.061 A 
ATOM      8  C   UNL     1       7.335  -2.914  -2.453  1.00  0.00     0.027 A 
ATOM      9  C   UNL     1       8.696  -2.905  -2.704  1.00  0.00     0.002 A 
ATOM     10  C   UNL     1       8.954  -1.653  -0.675  1.00  0.00     0.016 A 
ATOM     11  C   UNL     1       9.516  -2.276  -1.800  1.00  0.00     0.001 A 
BRANCH   7  12
ATOM     12  N   UNL     1       5.324  -2.545  -1.253  1.00  0.00    -0.284 N 
ATOM     13  O   UNL     1       0.874  -0.994  -1.000  1.00  0.00    -0.294 OA
ATOM     14  C   UNL     1       2.076  -0.729  -1.026  1.00  0.00     0.161 C 
ATOM     15  C   UNL     1       2.579   0.700  -0.975  1.00  0.00     0.081 C 
ATOM     16  C   UNL     1       3.079  -1.834  -1.036  1.00  0.00     0.023 C 
ATOM     17  C   UNL     1       3.747   0.901  -1.916  1.00  0.00     0.015 C 
ATOM     18  C   UNL     1       4.367  -1.524  -1.315  1.00  0.00     0.033 C 
ATOM     19  C   UNL     1       2.606  -3.279  -0.834  1.00  0.00     0.064 C 
ATOM     20  C   UNL     1       4.847  -0.134  -1.702  1.00  0.00     0.055 C 
ATOM     21  C   UNL     1       3.487  -4.138  -1.722  1.00  0.00     0.114 C 
ATOM     22  C   UNL     1       4.933  -3.906  -1.350  1.00  0.00     0.232 C 
ATOM     23  O   UNL     1       5.686  -4.873  -1.215  1.00  0.00    -0.274 OA
BRANCH  19  24
ATOM     24  C   UNL     1       2.568  -3.787   0.618  1.00  0.00    -0.039 A 
ATOM     25  C   UNL     1       3.397  -4.806   1.160  1.00  0.00     0.011 A 
ATOM     26  C   UNL     1       1.640  -3.220   1.477  1.00  0.00     0.011 A 
ATOM     27  C   UNL     1       3.427  -5.116   2.531  1.00  0.00     0.086 A 
ATOM     28  C   UNL     1       1.658  -3.551   2.831  1.00  0.00     0.086 A 
ATOM     29  C   UNL     1       2.584  -4.428   3.375  1.00  0.00     0.269 A 
BRANCH  29  30
ATOM     30  N   UNL     1       2.760  -4.466   4.826  1.00  0.00     0.062 N 
ATOM     31  O   UNL     1       3.126  -5.530   5.335  1.00  0.00    -0.258 OA
ATOM     32  O   UNL     1       2.577  -3.404   5.446  1.00  0.00    -0.258 OA
ENDBRANCH  29  30
ENDBRANCH  19  24
ENDBRANCH   7  12
ENDBRANCH   3   6
ENDBRANCH   1   2
BRANCH   1  33
ATOM     33  C   UNL     1       4.029  -1.045   2.970  1.00  0.00     0.042 C 
BRANCH  33  34
ATOM     34  C   UNL     1       2.938  -0.024   3.385  1.00  0.00     0.118 C 
BRANCH  34  35
ATOM     35  N   UNL     1       1.814   0.286   2.490  1.00  0.00    -0.352 N 
ATOM     36  C   UNL     1       0.441   0.085   2.465  1.00  0.00     0.251 C 
ATOM     37  H   UNL     1       2.118   0.769   1.688  1.00  0.00     0.163 HD
ATOM     38  O   UNL     1      -0.200   0.752   1.649  1.00  0.00    -0.269 OA
BRANCH  36  39
ATOM     39  C   UNL     1      -0.314  -0.915   3.278  1.00  0.00     0.039 A 
ATOM     40  C   UNL     1      -1.349  -1.661   2.663  1.00  0.00     0.014 A 
ATOM     41  C   UNL     1       0.003  -1.218   4.591  1.00  0.00     0.014 A 
ATOM     42  C   UNL     1      -1.972  -2.758   3.315  1.00  0.00     0.010 A 
ATOM     43  C   UNL     1      -0.540  -2.376   5.186  1.00  0.00     0.010 A 
ATOM     44  C   UNL     1      -1.553  -3.167   4.586  1.00  0.00    -0.014 A 
BRANCH  44  45
ATOM     45  C   UNL     1      -2.185  -4.303   5.377  1.00  0.00     0.031 A 
ATOM     46  C   UNL     1      -2.521  -4.051   6.841  1.00  0.00     0.074 A 
ATOM     47  C   UNL     1      -2.396  -5.564   4.924  1.00  0.00     0.049 A 
ATOM     48  N   UNL     1      -2.794  -4.899   7.805  1.00  0.00    -0.248 NA
ATOM     49  C   UNL     1      -2.415  -2.658   7.300  1.00  0.00     0.031 C 
ATOM     50  C   UNL     1      -2.085  -6.086   3.594  1.00  0.00     0.029 A 
ATOM     51  N   UNL     1      -2.921  -6.667   5.581  1.00  0.00    -0.354 N 
ATOM     52  C   UNL     1      -2.767  -4.141   8.970  1.00  0.00     0.074 A 
ATOM     53  C   UNL     1      -2.284  -2.831   8.602  1.00  0.00     0.031 C 
ATOM     54  C   UNL     1      -2.445  -7.385   3.527  1.00  0.00     0.029 A 
ATOM     55  C   UNL     1      -3.000  -7.810   4.813  1.00  0.00     0.049 A 
ATOM     56  H   UNL     1      -3.214  -6.637   6.521  1.00  0.00     0.167 HD
ATOM     57  C   UNL     1      -3.200  -4.435  10.220  1.00  0.00     0.037 A 
ATOM     58  C   UNL     1      -3.471  -9.045   5.102  1.00  0.00     0.037 A 
ATOM     59  C   UNL     1      -3.841  -5.663  10.588  1.00  0.00     0.049 A 
ATOM     60  C   UNL     1      -4.048  -9.351   6.470  1.00  0.00     0.074 A 
ATOM     61  C   UNL     1      -4.424  -6.005  11.795  1.00  0.00     0.029 A 
ATOM     62  N   UNL     1      -4.022  -6.737   9.734  1.00  0.00    -0.354 N 
ATOM     63  N   UNL     1      -4.106  -8.592   7.537  1.00  0.00    -0.248 NA
ATOM     64  C   UNL     1      -4.652 -10.683   6.664  1.00  0.00     0.031 C 
ATOM     65  C   UNL     1      -4.947  -7.297  11.677  1.00  0.00     0.029 A 
ATOM     66  C   UNL     1      -4.723  -7.738  10.383  1.00  0.00     0.049 A 
ATOM     67  H   UNL     1      -3.700  -6.781   8.805  1.00  0.00     0.167 HD
ATOM     68  C   UNL     1      -4.795  -9.329   8.499  1.00  0.00     0.074 A 
ATOM     69  C   UNL     1      -5.138 -10.595   7.895  1.00  0.00     0.031 C 
ATOM     70  C   UNL     1      -5.116  -8.979   9.769  1.00  0.00     0.037 A 
BRANCH  57  71
ATOM     71  C   UNL     1      -3.062  -3.352  11.255  1.00  0.00     0.057 A 
ATOM     72  C   UNL     1      -3.758  -2.137  11.149  1.00  0.00     0.134 A 
ATOM     73  C   UNL     1      -2.193  -3.502  12.341  1.00  0.00     0.134 A 
ATOM     74  F   UNL     1      -4.602  -1.923  10.127  1.00  0.00    -0.206 F 
ATOM     75  C   UNL     1      -3.531  -1.083  12.033  1.00  0.00     0.040 A 
ATOM     76  C   UNL     1      -1.997  -2.472  13.263  1.00  0.00     0.040 A 
ATOM     77  F   UNL     1      -1.513  -4.645  12.521  1.00  0.00    -0.206 F 
ATOM     78  C   UNL     1      -2.649  -1.251  13.096  1.00  0.00     0.006 A 
ENDBRANCH  57  71
BRANCH  58  79
ATOM     79  C   UNL     1      -3.507 -10.113   4.058  1.00  0.00     0.057 A 
ATOM     80  C   UNL     1      -4.726 -10.529   3.499  1.00  0.00     0.134 A 
ATOM     81  C   UNL     1      -2.356 -10.796   3.654  1.00  0.00     0.134 A 
ATOM     82  F   UNL     1      -5.873  -9.944   3.876  1.00  0.00    -0.206 F 
ATOM     83  C   UNL     1      -4.801 -11.597   2.602  1.00  0.00     0.040 A 
ATOM     84  C   UNL     1      -2.413 -11.852   2.737  1.00  0.00     0.040 A 
ATOM     85  F   UNL     1      -1.158 -10.461   4.154  1.00  0.00    -0.206 F 
ATOM     86  C   UNL     1      -3.640 -12.261   2.215  1.00  0.00     0.006 A 
ENDBRANCH  58  79
BRANCH  70  87
ATOM     87  C   UNL     1      -5.961  -9.920  10.581  1.00  0.00     0.057 A 
ATOM     88  C   UNL     1      -5.467 -11.129  11.086  1.00  0.00     0.134 A 
ATOM     89  C   UNL     1      -7.276  -9.570  10.922  1.00  0.00     0.134 A 
ATOM     90  F   UNL     1      -4.219 -11.527  10.797  1.00  0.00    -0.206 F 
ATOM     91  C   UNL     1      -6.255 -11.964  11.882  1.00  0.00     0.040 A 
ATOM     92  C   UNL     1      -8.064 -10.383  11.738  1.00  0.00     0.040 A 
ATOM     93  F   UNL     1      -7.809  -8.419  10.485  1.00  0.00    -0.206 F 
ATOM     94  C   UNL     1      -7.555 -11.588  12.216  1.00  0.00     0.006 A 
ENDBRANCH  70  87
ENDBRANCH  44  45
ENDBRANCH  36  39
ENDBRANCH  34  35
ENDBRANCH  33  34
ENDBRANCH   1  33
TORSDOF 13
