REMARK SMILES Cc1ccc(NC(=O)C[N@H+]2CCC[C@@H](C(=O)NCCCNC(=O)c3ccc(-c4c5nc(c(-c6c(F)cccc6F)c6ccc([nH]6)c(-c6c(F)cccc6F)c6nc(c(-c7c(F)cccc7F)c7ccc4[nH]7)C=C6)C=C5)cc3)C2)cc1F
REMARK SMILES IDX 18 1 17 2 15 3 16 4 14 6 10 7 11 8 78 9 12 11 13 12 9 13
REMARK SMILES IDX 7 14 6 15 8 17 5 18 1 19 2 20 3 21 80 22 4 23 79 24 81 25
REMARK SMILES IDX 19 26 20 27 21 28 22 29 23 31 24 32 25 33 77 34 26 35 76 36
REMARK SMILES IDX 27 37 28 38 29 39 70 40 30 41 75 42 69 43 71 44 31 45 74 46
REMARK SMILES IDX 68 47 67 48 32 50 58 51 41 52 57 53 42 54 45 55 56 56 72 57
REMARK SMILES IDX 43 58 44 59 55 61 73 62 46 63 33 64 34 65 39 66 35 67 36 68
REMARK SMILES IDX 38 69 40 70 37 71 59 72 60 73 65 74 61 75 62 76 64 77 66 78
REMARK SMILES IDX 63 79 47 80 48 81 53 82 49 83 50 84 52 85 54 86 51 87
REMARK H PARENT 17 5 10 10 6 16 21 30 71 49 45 60
REMARK Flexibility Score: inf
ROOT
ATOM      1  C   UNL     1      -0.093   0.346  -1.861  1.00  0.00     0.117 C 
ENDROOT
BRANCH   1   2
ATOM      2  N   UNL     1      -0.839   0.421  -3.105  1.00  0.00    -0.356 N 
ATOM      3  C   UNL     1      -1.251  -0.639  -3.872  1.00  0.00     0.228 C 
ATOM      4  O   UNL     1      -1.951  -0.438  -4.859  1.00  0.00    -0.275 OA
ATOM      5  H   UNL     1      -1.073   1.321  -3.429  1.00  0.00     0.163 HD
BRANCH   3   6
ATOM      6  C   UNL     1      -0.819  -2.015  -3.411  1.00  0.00     0.133 C 
ATOM      7  N   UNL     1      -1.124  -3.654  -1.595  1.00  0.00    -0.326 N 
ATOM      8  C   UNL     1      -1.101  -4.752  -2.584  1.00  0.00     0.262 C 
ATOM      9  C   UNL     1      -1.686  -2.448  -2.218  1.00  0.00     0.276 C 
ATOM     10  H   UNL     1      -0.181  -3.398  -1.302  1.00  0.00     0.348 HD
ATOM     11  C   UNL     1      -0.356  -4.386  -3.877  1.00  0.00     0.062 C 
ATOM     12  C   UNL     1      -0.874  -3.085  -4.488  1.00  0.00     0.025 C 
BRANCH   7  13
ATOM     13  C   UNL     1      -1.803  -4.102  -0.345  1.00  0.00     0.363 C 
BRANCH  13  14
ATOM     14  C   UNL     1      -2.911  -3.197   0.190  1.00  0.00     0.279 C 
ATOM     15  N   UNL     1      -2.700  -2.015   0.837  1.00  0.00    -0.321 N 
ATOM     16  H   UNL     1      -3.540  -1.574   1.100  1.00  0.00     0.170 HD
ATOM     17  O   UNL     1      -4.095  -3.518   0.011  1.00  0.00    -0.268 OA
BRANCH  15  18
ATOM     18  C   UNL     1      -1.565  -1.280   1.217  1.00  0.00     0.044 A 
ATOM     19  C   UNL     1       1.752   1.328   2.185  1.00  0.00     0.047 C 
ATOM     20  C   UNL     1       0.582   0.425   1.933  1.00  0.00    -0.015 A 
ATOM     21  C   UNL     1      -0.740   0.863   2.047  1.00  0.00     0.008 A 
ATOM     22  C   UNL     1       0.802  -0.873   1.484  1.00  0.00     0.128 A 
ATOM     23  C   UNL     1      -1.799   0.026   1.677  1.00  0.00     0.026 A 
ATOM     24  C   UNL     1      -0.249  -1.723   1.143  1.00  0.00     0.065 A 
ATOM     25  F   UNL     1       2.059  -1.315   1.334  1.00  0.00    -0.207 F 
ENDBRANCH  15  18
ENDBRANCH  13  14
ENDBRANCH   7  13
ENDBRANCH   3   6
ENDBRANCH   1   2
BRANCH   1  26
ATOM     26  C   UNL     1       1.186   1.149  -1.882  1.00  0.00     0.042 C 
BRANCH  26  27
ATOM     27  C   UNL     1       0.905   2.599  -1.602  1.00  0.00     0.118 C 
BRANCH  27  28
ATOM     28  N   UNL     1       0.301   2.852  -0.281  1.00  0.00    -0.352 N 
ATOM     29  C   UNL     1       0.461   3.939   0.559  1.00  0.00     0.251 C 
ATOM     30  H   UNL     1      -0.301   2.147   0.051  1.00  0.00     0.163 HD
ATOM     31  O   UNL     1       0.005   3.995   1.688  1.00  0.00    -0.269 OA
BRANCH  29  32
ATOM     32  C   UNL     1       1.128   5.097  -0.009  1.00  0.00     0.039 A 
ATOM     33  C   UNL     1       2.014   5.924   0.684  1.00  0.00     0.014 A 
ATOM     34  C   UNL     1       0.778   5.327  -1.329  1.00  0.00     0.014 A 
ATOM     35  C   UNL     1       2.505   7.030   0.008  1.00  0.00     0.010 A 
ATOM     36  C   UNL     1       1.559   6.127  -2.067  1.00  0.00     0.010 A 
ATOM     37  C   UNL     1       2.223   7.114  -1.356  1.00  0.00    -0.014 A 
BRANCH  37  38
ATOM     38  C   UNL     1       2.384   8.270  -2.199  1.00  0.00     0.031 A 
ATOM     39  C   UNL     1       3.723   8.566  -2.667  1.00  0.00     0.074 A 
ATOM     40  C   UNL     1       1.213   8.731  -2.701  1.00  0.00     0.049 A 
ATOM     41  N   UNL     1       4.166   9.746  -2.889  1.00  0.00    -0.248 NA
ATOM     42  C   UNL     1       4.717   7.513  -2.870  1.00  0.00     0.031 C 
ATOM     43  C   UNL     1       0.910   9.513  -3.881  1.00  0.00     0.029 A 
ATOM     44  N   UNL     1      -0.048   8.516  -2.129  1.00  0.00    -0.354 N 
ATOM     45  C   UNL     1       5.273   9.563  -3.682  1.00  0.00     0.074 A 
ATOM     46  C   UNL     1       5.707   8.206  -3.439  1.00  0.00     0.031 C 
ATOM     47  C   UNL     1      -0.355   9.977  -3.776  1.00  0.00     0.029 A 
ATOM     48  C   UNL     1      -0.876   9.582  -2.473  1.00  0.00     0.049 A 
ATOM     49  H   UNL     1      -0.306   7.743  -1.577  1.00  0.00     0.167 HD
ATOM     50  C   UNL     1       5.502  10.446  -4.695  1.00  0.00     0.037 A 
ATOM     51  C   UNL     1      -1.240  10.411  -1.449  1.00  0.00     0.037 A 
ATOM     52  C   UNL     1       4.367  11.377  -4.803  1.00  0.00     0.049 A 
ATOM     53  C   UNL     1      -0.452  11.695  -1.518  1.00  0.00     0.074 A 
ATOM     54  C   UNL     1       3.283  11.421  -5.669  1.00  0.00     0.029 A 
ATOM     55  N   UNL     1       4.015  12.174  -3.715  1.00  0.00    -0.354 N 
ATOM     56  N   UNL     1       0.677  11.824  -2.163  1.00  0.00    -0.248 NA
ATOM     57  C   UNL     1      -0.923  12.953  -0.958  1.00  0.00     0.031 C 
ATOM     58  C   UNL     1       2.270  12.225  -5.076  1.00  0.00     0.029 A 
ATOM     59  C   UNL     1       2.726  12.660  -3.844  1.00  0.00     0.049 A 
ATOM     60  H   UNL     1       4.608  12.366  -2.953  1.00  0.00     0.167 HD
ATOM     61  C   UNL     1       1.056  13.137  -2.179  1.00  0.00     0.074 A 
ATOM     62  C   UNL     1       0.016  13.803  -1.411  1.00  0.00     0.031 C 
ATOM     63  C   UNL     1       2.177  13.565  -2.836  1.00  0.00     0.037 A 
BRANCH  50  64
ATOM     64  C   UNL     1       6.531  10.233  -5.781  1.00  0.00     0.057 A 
ATOM     65  C   UNL     1       6.393  10.835  -7.045  1.00  0.00     0.134 A 
ATOM     66  C   UNL     1       7.708   9.473  -5.629  1.00  0.00     0.134 A 
ATOM     67  F   UNL     1       5.382  11.667  -7.324  1.00  0.00    -0.206 F 
ATOM     68  C   UNL     1       7.300  10.632  -8.093  1.00  0.00     0.040 A 
ATOM     69  C   UNL     1       8.598   9.220  -6.683  1.00  0.00     0.040 A 
ATOM     70  F   UNL     1       8.086   8.992  -4.437  1.00  0.00    -0.206 F 
ATOM     71  C   UNL     1       8.396   9.801  -7.924  1.00  0.00     0.006 A 
ENDBRANCH  50  64
BRANCH  51  72
ATOM     72  C   UNL     1      -1.602   9.616  -0.223  1.00  0.00     0.057 A 
ATOM     73  C   UNL     1      -2.725   8.768  -0.343  1.00  0.00     0.134 A 
ATOM     74  C   UNL     1      -0.650   9.257   0.741  1.00  0.00     0.134 A 
ATOM     75  F   UNL     1      -3.696   9.066  -1.222  1.00  0.00    -0.206 F 
ATOM     76  C   UNL     1      -2.793   7.526   0.296  1.00  0.00     0.040 A 
ATOM     77  C   UNL     1      -0.726   8.024   1.410  1.00  0.00     0.040 A 
ATOM     78  F   UNL     1       0.438  10.012   0.944  1.00  0.00    -0.206 F 
ATOM     79  C   UNL     1      -1.764   7.130   1.141  1.00  0.00     0.006 A 
ENDBRANCH  51  72
BRANCH  63  80
ATOM     80  C   UNL     1       2.856  14.905  -2.659  1.00  0.00     0.057 A 
ATOM     81  C   UNL     1       2.690  15.738  -1.545  1.00  0.00     0.134 A 
ATOM     82  C   UNL     1       3.864  15.323  -3.563  1.00  0.00     0.134 A 
ATOM     83  F   UNL     1       1.865  15.426  -0.539  1.00  0.00    -0.206 F 
ATOM     84  C   UNL     1       3.425  16.916  -1.371  1.00  0.00     0.040 A 
ATOM     85  C   UNL     1       4.663  16.447  -3.352  1.00  0.00     0.040 A 
ATOM     86  F   UNL     1       4.149  14.645  -4.685  1.00  0.00    -0.206 F 
ATOM     87  C   UNL     1       4.432  17.262  -2.261  1.00  0.00     0.006 A 
ENDBRANCH  63  80
ENDBRANCH  37  38
ENDBRANCH  29  32
ENDBRANCH  27  28
ENDBRANCH  26  27
ENDBRANCH   1  26
TORSDOF 13
