REMARK SMILES CCc1ccc(-c2cc(Cl)cc3c2O[C@H](C(F)(F)F)C(C(=O)NCCCNC(=O)c2ccc(-c4c5nc(c(-c6c(F)cccc6F)c6ccc([nH]6)c(-c6c(F)cccc6F)c6nc(c(-c7c(F)cccc7F)c7ccc4[nH]7)C=C6)C=C5)cc2)=C3)cc1
REMARK SMILES IDX 25 1 24 2 23 3 21 4 22 5 20 7 7 8 8 9 13 10 9 11 12 12 14 13
REMARK SMILES IDX 10 14 11 15 84 16 15 17 6 18 3 19 4 20 86 21 5 22 85 23 2 24
REMARK SMILES IDX 1 25 16 26 17 27 18 28 19 29 26 30 27 31 28 32 29 34 30 35
REMARK SMILES IDX 31 36 83 37 32 38 82 39 33 40 34 41 35 42 76 43 36 44 81 45
REMARK SMILES IDX 75 46 77 47 37 48 80 49 74 50 73 51 38 53 64 54 47 55 63 56
REMARK SMILES IDX 48 57 51 58 62 59 78 60 49 61 50 62 61 64 79 65 52 66 39 67
REMARK SMILES IDX 40 68 45 69 41 70 42 71 44 72 46 73 43 74 65 75 66 76 71 77
REMARK SMILES IDX 67 78 68 79 70 80 72 81 69 82 53 83 54 84 59 85 55 86 56 87
REMARK SMILES IDX 58 88 60 89 57 90
REMARK H PARENT 23 6 27 33 77 52 51 63
REMARK Flexibility Score: inf
ROOT
ATOM      1  C   UNL     1      -0.774 -11.841   8.505  1.00  0.00     0.042 C 
ENDROOT
BRANCH   1   2
ATOM      2  C   UNL     1       0.272 -10.725   8.511  1.00  0.00     0.118 C 
BRANCH   2   3
ATOM      3  N   UNL     1       0.923 -10.650   7.218  1.00  0.00    -0.352 N 
ATOM      4  C   UNL     1       0.859  -9.618   6.340  1.00  0.00     0.251 C 
ATOM      5  O   UNL     1       0.760  -9.843   5.140  1.00  0.00    -0.270 OA
ATOM      6  H   UNL     1       1.466 -11.426   6.951  1.00  0.00     0.163 HD
BRANCH   4   7
ATOM      7  C   UNL     1       1.059  -8.248   6.895  1.00  0.00     0.067 C 
ATOM      8  C   UNL     1       1.394  -6.178   3.412  1.00  0.00     0.026 A 
ATOM      9  C   UNL     1       2.323  -6.857   2.580  1.00  0.00     0.033 A 
ATOM     10  C   UNL     1       1.363  -6.566   4.761  1.00  0.00     0.135 A 
ATOM     11  C   UNL     1       3.248  -7.773   3.076  1.00  0.00     0.042 A 
ATOM     12  C   UNL     1       2.382  -7.414   5.265  1.00  0.00     0.019 A 
ATOM     13  O   UNL     1       0.347  -6.188   5.627  1.00  0.00    -0.475 OA
ATOM     14  Cl  UNL     1       4.308  -8.587   1.996  1.00  0.00    -0.084 Cl
ATOM     15  C   UNL     1       3.324  -8.014   4.434  1.00  0.00     0.032 A 
ATOM     16  C   UNL     1       2.314  -7.804   6.691  1.00  0.00     0.025 C 
ATOM     17  C   UNL     1      -0.056  -7.262   6.575  1.00  0.00     0.314 C 
BRANCH   8  18
ATOM     18  C   UNL     1       0.698  -5.034   2.773  1.00  0.00    -0.015 A 
ATOM     19  C   UNL     1       0.375  -2.816   1.006  1.00  0.00    -0.048 A 
ATOM     20  C   UNL     1      -0.056  -4.099   0.641  1.00  0.00     0.004 A 
ATOM     21  C   UNL     1       0.832  -2.631   2.315  1.00  0.00     0.004 A 
ATOM     22  C   UNL     1       0.087  -5.186   1.515  1.00  0.00     0.009 A 
ATOM     23  C   UNL     1       0.985  -3.723   3.190  1.00  0.00     0.009 A 
BRANCH  19  24
ATOM     24  C   UNL     1       0.367  -1.737  -0.057  1.00  0.00     0.032 C 
ATOM     25  C   UNL     1       0.987  -0.390   0.294  1.00  0.00     0.009 C 
ENDBRANCH  19  24
ENDBRANCH   8  18
BRANCH  17  26
ATOM     26  C   UNL     1      -0.590  -6.681   7.903  1.00  0.00     0.429 C 
ATOM     27  F   UNL     1      -0.319  -5.365   8.048  1.00  0.00    -0.167 F 
ATOM     28  F   UNL     1      -1.933  -6.838   8.001  1.00  0.00    -0.167 F 
ATOM     29  F   UNL     1      -0.060  -7.304   8.991  1.00  0.00    -0.167 F 
ENDBRANCH  17  26
ENDBRANCH   4   7
ENDBRANCH   2   3
ENDBRANCH   1   2
BRANCH   1  30
ATOM     30  C   UNL     1      -0.211 -13.237   8.246  1.00  0.00     0.118 C 
BRANCH  30  31
ATOM     31  N   UNL     1       0.735 -13.672   9.262  1.00  0.00    -0.352 N 
ATOM     32  C   UNL     1       0.767 -14.854   9.961  1.00  0.00     0.251 C 
ATOM     33  H   UNL     1       1.451 -13.032   9.477  1.00  0.00     0.163 HD
ATOM     34  O   UNL     1       1.557 -15.005  10.889  1.00  0.00    -0.269 OA
BRANCH  32  35
ATOM     35  C   UNL     1      -0.178 -15.934   9.610  1.00  0.00     0.039 A 
ATOM     36  C   UNL     1      -0.903 -16.557  10.628  1.00  0.00     0.014 A 
ATOM     37  C   UNL     1      -0.367 -16.308   8.277  1.00  0.00     0.014 A 
ATOM     38  C   UNL     1      -1.872 -17.508  10.302  1.00  0.00     0.010 A 
ATOM     39  C   UNL     1      -1.388 -17.194   7.949  1.00  0.00     0.010 A 
ATOM     40  C   UNL     1      -2.150 -17.805   8.958  1.00  0.00    -0.014 A 
BRANCH  40  41
ATOM     41  C   UNL     1      -3.222 -18.761   8.580  1.00  0.00     0.031 A 
ATOM     42  C   UNL     1      -2.874 -20.020   7.833  1.00  0.00     0.074 A 
ATOM     43  C   UNL     1      -4.511 -18.467   8.843  1.00  0.00     0.049 A 
ATOM     44  N   UNL     1      -3.668 -20.926   7.321  1.00  0.00    -0.248 NA
ATOM     45  C   UNL     1      -1.443 -20.279   7.606  1.00  0.00     0.031 C 
ATOM     46  C   UNL     1      -4.984 -17.262   9.527  1.00  0.00     0.029 A 
ATOM     47  N   UNL     1      -5.662 -19.156   8.555  1.00  0.00    -0.354 N 
ATOM     48  C   UNL     1      -2.835 -21.848   6.699  1.00  0.00     0.074 A 
ATOM     49  C   UNL     1      -1.481 -21.363   6.846  1.00  0.00     0.031 C 
ATOM     50  C   UNL     1      -6.322 -17.309   9.628  1.00  0.00     0.029 A 
ATOM     51  C   UNL     1      -6.806 -18.523   8.978  1.00  0.00     0.049 A 
ATOM     52  H   UNL     1      -5.668 -20.023   8.089  1.00  0.00     0.167 HD
ATOM     53  C   UNL     1      -3.165 -23.010   6.087  1.00  0.00     0.037 A 
ATOM     54  C   UNL     1      -8.099 -18.877   8.848  1.00  0.00     0.037 A 
ATOM     55  C   UNL     1      -4.510 -23.505   5.965  1.00  0.00     0.049 A 
ATOM     56  C   UNL     1      -8.440 -20.163   8.144  1.00  0.00     0.074 A 
ATOM     57  C   UNL     1      -4.945 -24.690   5.398  1.00  0.00     0.029 A 
ATOM     58  N   UNL     1      -5.638 -22.842   6.424  1.00  0.00    -0.354 N 
ATOM     59  N   UNL     1      -7.638 -21.050   7.607  1.00  0.00    -0.248 NA
ATOM     60  C   UNL     1      -9.867 -20.498   8.033  1.00  0.00     0.031 C 
ATOM     61  C   UNL     1      -6.341 -24.726   5.479  1.00  0.00     0.029 A 
ATOM     62  C   UNL     1      -6.771 -23.588   6.141  1.00  0.00     0.049 A 
ATOM     63  H   UNL     1      -5.635 -21.971   6.883  1.00  0.00     0.167 HD
ATOM     64  C   UNL     1      -8.459 -22.065   7.130  1.00  0.00     0.074 A 
ATOM     65  C   UNL     1      -9.820 -21.687   7.449  1.00  0.00     0.031 C 
ATOM     66  C   UNL     1      -8.116 -23.208   6.487  1.00  0.00     0.037 A 
BRANCH  53  67
ATOM     67  C   UNL     1      -2.046 -23.830   5.511  1.00  0.00     0.057 A 
ATOM     68  C   UNL     1      -1.121 -24.491   6.330  1.00  0.00     0.134 A 
ATOM     69  C   UNL     1      -1.909 -23.986   4.127  1.00  0.00     0.134 A 
ATOM     70  F   UNL     1      -1.188 -24.373   7.665  1.00  0.00    -0.206 F 
ATOM     71  C   UNL     1      -0.084 -25.255   5.793  1.00  0.00     0.040 A 
ATOM     72  C   UNL     1      -0.893 -24.771   3.578  1.00  0.00     0.040 A 
ATOM     73  F   UNL     1      -2.764 -23.387   3.284  1.00  0.00    -0.206 F 
ATOM     74  C   UNL     1       0.028 -25.402   4.412  1.00  0.00     0.006 A 
ENDBRANCH  53  67
BRANCH  54  75
ATOM     75  C   UNL     1      -9.173 -18.020   9.413  1.00  0.00     0.057 A 
ATOM     76  C   UNL     1      -9.937 -18.450  10.505  1.00  0.00     0.134 A 
ATOM     77  C   UNL     1      -9.483 -16.771   8.863  1.00  0.00     0.134 A 
ATOM     78  F   UNL     1      -9.701 -19.647  11.063  1.00  0.00    -0.206 F 
ATOM     79  C   UNL     1     -10.986 -17.683  11.013  1.00  0.00     0.040 A 
ATOM     80  C   UNL     1     -10.512 -15.980   9.378  1.00  0.00     0.040 A 
ATOM     81  F   UNL     1      -8.785 -16.297   7.821  1.00  0.00    -0.206 F 
ATOM     82  C   UNL     1     -11.274 -16.441  10.450  1.00  0.00     0.006 A 
ENDBRANCH  54  75
BRANCH  66  83
ATOM     83  C   UNL     1      -9.221 -24.161   6.138  1.00  0.00     0.057 A 
ATOM     84  C   UNL     1     -10.135 -23.895   5.111  1.00  0.00     0.134 A 
ATOM     85  C   UNL     1      -9.339 -25.385   6.810  1.00  0.00     0.134 A 
ATOM     86  F   UNL     1     -10.083 -22.736   4.438  1.00  0.00    -0.206 F 
ATOM     87  C   UNL     1     -11.141 -24.804   4.778  1.00  0.00     0.040 A 
ATOM     88  C   UNL     1     -10.323 -26.313   6.468  1.00  0.00     0.040 A 
ATOM     89  F   UNL     1      -8.490 -25.705   7.798  1.00  0.00    -0.206 F 
ATOM     90  C   UNL     1     -11.231 -26.021   5.452  1.00  0.00     0.006 A 
ENDBRANCH  66  83
ENDBRANCH  40  41
ENDBRANCH  32  35
ENDBRANCH  30  31
ENDBRANCH   1  30
TORSDOF 13
