REMARK SMILES C[C@@H]1CN(S(=O)(=O)[C@@H](C)C(=O)NCCCNC(=O)c2ccc(-c3c4nc(c(-c5c(F)cccc5F)c5ccc([nH]5)c(-c5c(F)cccc5F)c5nc(c(-c6c(F)cccc6F)c6ccc3[nH]6)C=C5)C=C4)cc2)CC[C@@H]1[NH3+]
REMARK SMILES IDX 13 1 12 2 10 3 11 4 8 6 9 7 5 8 6 9 7 10 4 11 1 12 2 13 3 14
REMARK SMILES IDX 75 15 74 16 73 17 76 18 14 22 15 23 16 24 17 25 18 27 19 28
REMARK SMILES IDX 20 29 72 30 21 31 71 32 22 33 23 34 24 35 65 36 25 37 70 38
REMARK SMILES IDX 64 39 66 40 26 41 69 42 63 43 62 44 27 46 53 47 36 48 52 49
REMARK SMILES IDX 37 50 40 51 51 52 67 53 38 54 39 55 50 57 68 58 41 59 28 60
REMARK SMILES IDX 29 61 34 62 30 63 31 64 33 65 35 66 32 67 54 68 55 69 60 70
REMARK SMILES IDX 56 71 57 72 59 73 61 74 58 75 42 76 43 77 48 78 44 79 45 80
REMARK SMILES IDX 47 81 49 82 46 83
REMARK H PARENT 12 5 76 19 76 20 76 21 16 26 66 45 40 56
REMARK Flexibility Score: inf
ROOT
ATOM      1  C   UNL     1       3.150   0.104  -2.478  1.00  0.00     0.117 C 
ENDROOT
BRANCH   1   2
ATOM      2  N   UNL     1       3.737   1.249  -3.175  1.00  0.00    -0.355 N 
ATOM      3  C   UNL     1       4.070   2.527  -2.848  1.00  0.00     0.239 C 
ATOM      4  O   UNL     1       4.290   3.250  -3.830  1.00  0.00    -0.274 OA
ATOM      5  H   UNL     1       3.942   1.043  -4.115  1.00  0.00     0.163 HD
BRANCH   3   6
ATOM      6  C   UNL     1       4.295   3.070  -1.454  1.00  0.00     0.210 C 
ATOM      7  C   UNL     1       4.743   2.134  -0.352  1.00  0.00     0.037 C 
BRANCH   6   8
ATOM      8  S   UNL     1       3.104   4.311  -0.930  1.00  0.00     0.225 S 
ATOM      9  O   UNL     1       2.509   4.978  -2.076  1.00  0.00    -0.211 OA
ATOM     10  O   UNL     1       3.744   5.095   0.101  1.00  0.00    -0.211 OA
BRANCH   8  11
ATOM     11  N   UNL     1       1.820   3.460  -0.153  1.00  0.00    -0.200 NA
ATOM     12  C   UNL     1       0.691   0.741   0.478  1.00  0.00     0.015 C 
ATOM     13  C   UNL     1      -0.026   1.822  -0.353  1.00  0.00     0.059 C 
ATOM     14  C   UNL     1       0.946   2.736  -1.106  1.00  0.00     0.111 C 
ATOM     15  C   UNL     1      -0.947   2.726   0.479  1.00  0.00     0.186 C 
ATOM     16  C   UNL     1      -0.126   3.593   1.440  1.00  0.00     0.082 C 
ATOM     17  C   UNL     1       0.979   4.367   0.710  1.00  0.00     0.108 C 
BRANCH  15  18
ATOM     18  N   UNL     1      -1.972   1.953   1.182  1.00  0.00    -0.355 N 
ATOM     19  H   UNL     1      -1.524   1.312   1.837  1.00  0.00     0.344 HD
ATOM     20  H   UNL     1      -2.520   1.421   0.505  1.00  0.00     0.344 HD
ATOM     21  H   UNL     1      -2.586   2.587   1.692  1.00  0.00     0.344 HD
ENDBRANCH  15  18
ENDBRANCH   8  11
ENDBRANCH   6   8
ENDBRANCH   3   6
ENDBRANCH   1   2
BRANCH   1  22
ATOM     22  C   UNL     1       1.689  -0.091  -2.939  1.00  0.00     0.042 C 
BRANCH  22  23
ATOM     23  C   UNL     1       1.319  -1.478  -3.448  1.00  0.00     0.118 C 
BRANCH  23  24
ATOM     24  N   UNL     1       0.989  -2.389  -2.369  1.00  0.00    -0.352 N 
ATOM     25  C   UNL     1      -0.122  -2.663  -1.611  1.00  0.00     0.251 C 
ATOM     26  H   UNL     1       1.754  -2.954  -2.117  1.00  0.00     0.163 HD
ATOM     27  O   UNL     1       0.053  -3.527  -0.745  1.00  0.00    -0.269 OA
BRANCH  25  28
ATOM     28  C   UNL     1      -1.488  -2.040  -1.714  1.00  0.00     0.039 A 
ATOM     29  C   UNL     1      -2.421  -2.449  -0.737  1.00  0.00     0.014 A 
ATOM     30  C   UNL     1      -1.945  -1.141  -2.679  1.00  0.00     0.014 A 
ATOM     31  C   UNL     1      -3.757  -2.015  -0.740  1.00  0.00     0.010 A 
ATOM     32  C   UNL     1      -3.287  -0.680  -2.669  1.00  0.00     0.010 A 
ATOM     33  C   UNL     1      -4.216  -1.123  -1.712  1.00  0.00    -0.014 A 
BRANCH  33  34
ATOM     34  C   UNL     1      -5.651  -0.689  -1.733  1.00  0.00     0.031 A 
ATOM     35  C   UNL     1      -6.574  -1.110  -2.854  1.00  0.00     0.074 A 
ATOM     36  C   UNL     1      -6.160   0.079  -0.746  1.00  0.00     0.049 A 
ATOM     37  N   UNL     1      -7.832  -0.797  -3.055  1.00  0.00    -0.248 NA
ATOM     38  C   UNL     1      -6.009  -1.998  -3.880  1.00  0.00     0.031 C 
ATOM     39  C   UNL     1      -5.423   0.550   0.424  1.00  0.00     0.029 A 
ATOM     40  N   UNL     1      -7.420   0.607  -0.574  1.00  0.00    -0.354 N 
ATOM     41  C   UNL     1      -8.204  -1.433  -4.234  1.00  0.00     0.074 A 
ATOM     42  C   UNL     1      -7.030  -2.130  -4.717  1.00  0.00     0.031 C 
ATOM     43  C   UNL     1      -6.231   1.310   1.181  1.00  0.00     0.029 A 
ATOM     44  C   UNL     1      -7.544   1.394   0.548  1.00  0.00     0.049 A 
ATOM     45  H   UNL     1      -8.164   0.437  -1.196  1.00  0.00     0.167 HD
ATOM     46  C   UNL     1      -9.411  -1.454  -4.852  1.00  0.00     0.037 A 
ATOM     47  C   UNL     1      -8.585   2.111   1.018  1.00  0.00     0.037 A 
ATOM     48  C   UNL     1     -10.605  -0.808  -4.368  1.00  0.00     0.049 A 
ATOM     49  C   UNL     1      -9.902   2.104   0.290  1.00  0.00     0.074 A 
ATOM     50  C   UNL     1     -11.882  -0.845  -4.909  1.00  0.00     0.029 A 
ATOM     51  N   UNL     1     -10.678  -0.012  -3.238  1.00  0.00    -0.354 N 
ATOM     52  N   UNL     1     -10.243   1.456  -0.796  1.00  0.00    -0.248 NA
ATOM     53  C   UNL     1     -10.983   2.925   0.860  1.00  0.00     0.031 C 
ATOM     54  C   UNL     1     -12.717  -0.038  -4.129  1.00  0.00     0.029 A 
ATOM     55  C   UNL     1     -11.969   0.469  -3.081  1.00  0.00     0.049 A 
ATOM     56  H   UNL     1      -9.924   0.184  -2.636  1.00  0.00     0.167 HD
ATOM     57  C   UNL     1     -11.581   1.761  -1.015  1.00  0.00     0.074 A 
ATOM     58  C   UNL     1     -11.994   2.648   0.050  1.00  0.00     0.031 C 
ATOM     59  C   UNL     1     -12.392   1.337  -2.014  1.00  0.00     0.037 A 
BRANCH  46  60
ATOM     60  C   UNL     1      -9.520  -2.208  -6.145  1.00  0.00     0.057 A 
ATOM     61  C   UNL     1      -9.571  -3.606  -6.182  1.00  0.00     0.134 A 
ATOM     62  C   UNL     1      -9.663  -1.521  -7.358  1.00  0.00     0.134 A 
ATOM     63  F   UNL     1      -9.436  -4.320  -5.055  1.00  0.00    -0.206 F 
ATOM     64  C   UNL     1      -9.748  -4.297  -7.382  1.00  0.00     0.040 A 
ATOM     65  C   UNL     1      -9.861  -2.200  -8.562  1.00  0.00     0.040 A 
ATOM     66  F   UNL     1      -9.636  -0.180  -7.389  1.00  0.00    -0.206 F 
ATOM     67  C   UNL     1      -9.902  -3.592  -8.575  1.00  0.00     0.006 A 
ENDBRANCH  46  60
BRANCH  47  68
ATOM     68  C   UNL     1      -8.439   2.913   2.259  1.00  0.00     0.057 A 
ATOM     69  C   UNL     1      -9.091   2.543   3.442  1.00  0.00     0.134 A 
ATOM     70  C   UNL     1      -7.686   4.092   2.277  1.00  0.00     0.134 A 
ATOM     71  F   UNL     1      -9.852   1.439   3.475  1.00  0.00    -0.206 F 
ATOM     72  C   UNL     1      -9.017   3.329   4.593  1.00  0.00     0.040 A 
ATOM     73  C   UNL     1      -7.583   4.875   3.428  1.00  0.00     0.040 A 
ATOM     74  F   UNL     1      -7.045   4.503   1.173  1.00  0.00    -0.206 F 
ATOM     75  C   UNL     1      -8.258   4.497   4.588  1.00  0.00     0.006 A 
ENDBRANCH  47  68
BRANCH  59  76
ATOM     76  C   UNL     1     -13.823   1.785  -1.984  1.00  0.00     0.057 A 
ATOM     77  C   UNL     1     -14.196   3.095  -2.309  1.00  0.00     0.134 A 
ATOM     78  C   UNL     1     -14.846   0.886  -1.656  1.00  0.00     0.134 A 
ATOM     79  F   UNL     1     -13.264   4.010  -2.619  1.00  0.00    -0.206 F 
ATOM     80  C   UNL     1     -15.532   3.501  -2.291  1.00  0.00     0.040 A 
ATOM     81  C   UNL     1     -16.188   1.273  -1.655  1.00  0.00     0.040 A 
ATOM     82  F   UNL     1     -14.560  -0.386  -1.340  1.00  0.00    -0.206 F 
ATOM     83  C   UNL     1     -16.533   2.586  -1.968  1.00  0.00     0.006 A 
ENDBRANCH  59  76
ENDBRANCH  33  34
ENDBRANCH  25  28
ENDBRANCH  23  24
ENDBRANCH  22  23
ENDBRANCH   1  22
TORSDOF 13
