REMARK SMILES C[C@]1(C(=O)NCCCNC(=O)c2ccc(-c3c4nc(c(-c5c(F)cccc5F)c5ccc([nH]5)c(-c5c(F)cccc5F)c5nc(c(-c6c(F)cccc6F)c6ccc3[nH]6)C=C5)C=C4)cc2)COC[C@@H]1NC(=O)[C@H]1C=C[C@@H]([NH3+])C1
REMARK SMILES IDX 6 1 5 2 3 3 4 4 2 6 1 7 66 8 69 9 67 10 68 11 70 12 71 13
REMARK SMILES IDX 72 15 73 16 74 17 78 18 75 19 76 20 77 21 7 25 8 26 9 27
REMARK SMILES IDX 10 28 11 30 12 31 13 32 65 33 14 34 64 35 15 36 16 37 17 38
REMARK SMILES IDX 58 39 18 40 63 41 57 42 59 43 19 44 62 45 56 46 55 47 20 49
REMARK SMILES IDX 46 50 29 51 45 52 30 53 33 54 44 55 60 56 31 57 32 58 43 60
REMARK SMILES IDX 61 61 34 62 21 63 22 64 27 65 23 66 24 67 26 68 28 69 25 70
REMARK SMILES IDX 47 71 48 72 53 73 49 74 50 75 52 76 54 77 51 78 35 79 36 80
REMARK SMILES IDX 41 81 37 82 38 83 40 84 42 85 39 86
REMARK H PARENT 5 5 70 14 77 22 77 23 77 24 9 29 59 48 33 59
REMARK Flexibility Score: inf
ROOT
ATOM      1  C   UNL     1       3.460   0.639  -0.243  1.00  0.00     0.117 C 
ENDROOT
BRANCH   1   2
ATOM      2  N   UNL     1       2.367   0.305   0.652  1.00  0.00    -0.355 N 
ATOM      3  C   UNL     1       1.047   0.078   0.405  1.00  0.00     0.230 C 
ATOM      4  O   UNL     1       0.346  -0.187   1.382  1.00  0.00    -0.274 OA
ATOM      5  H   UNL     1       2.623   0.231   1.600  1.00  0.00     0.163 HD
BRANCH   3   6
ATOM      6  C   UNL     1       0.495   0.133  -1.028  1.00  0.00     0.092 C 
ATOM      7  C   UNL     1       1.246  -0.933  -1.855  1.00  0.00     0.026 C 
ATOM      8  C   UNL     1      -1.016  -0.189  -0.989  1.00  0.00     0.179 C 
ATOM      9  C   UNL     1       0.481   1.601  -1.526  1.00  0.00     0.125 C 
ATOM     10  O   UNL     1      -1.682   0.713  -1.884  1.00  0.00    -0.378 OA
ATOM     11  C   UNL     1      -0.967   1.945  -1.848  1.00  0.00     0.186 C 
BRANCH   9  12
ATOM     12  N   UNL     1       1.466   2.048  -2.517  1.00  0.00    -0.349 N 
ATOM     13  C   UNL     1       1.718   1.917  -3.836  1.00  0.00     0.227 C 
ATOM     14  H   UNL     1       2.148   2.615  -2.091  1.00  0.00     0.163 HD
ATOM     15  O   UNL     1       2.750   2.499  -4.209  1.00  0.00    -0.274 OA
BRANCH  13  16
ATOM     16  C   UNL     1       0.877   1.185  -4.887  1.00  0.00     0.107 C 
ATOM     17  C   UNL     1      -0.292   0.334  -4.546  1.00  0.00    -0.012 C 
ATOM     18  C   UNL     1       0.267   2.230  -5.844  1.00  0.00     0.087 C 
ATOM     19  C   UNL     1      -1.377   0.624  -5.269  1.00  0.00     0.033 C 
ATOM     20  C   UNL     1      -1.127   1.721  -6.236  1.00  0.00     0.205 C 
BRANCH  20  21
ATOM     21  N   UNL     1      -2.135   2.758  -6.125  1.00  0.00    -0.352 N 
ATOM     22  H   UNL     1      -2.152   3.115  -5.170  1.00  0.00     0.345 HD
ATOM     23  H   UNL     1      -3.050   2.370  -6.358  1.00  0.00     0.345 HD
ATOM     24  H   UNL     1      -1.914   3.518  -6.768  1.00  0.00     0.345 HD
ENDBRANCH  20  21
ENDBRANCH  13  16
ENDBRANCH   9  12
ENDBRANCH   3   6
ENDBRANCH   1   2
BRANCH   1  25
ATOM     25  C   UNL     1       4.045   2.002   0.083  1.00  0.00     0.042 C 
BRANCH  25  26
ATOM     26  C   UNL     1       4.771   2.024   1.417  1.00  0.00     0.118 C 
BRANCH  26  27
ATOM     27  N   UNL     1       5.957   1.178   1.421  1.00  0.00    -0.352 N 
ATOM     28  C   UNL     1       7.240   1.500   1.795  1.00  0.00     0.251 C 
ATOM     29  H   UNL     1       5.822   0.253   1.114  1.00  0.00     0.163 HD
ATOM     30  O   UNL     1       8.165   0.731   1.584  1.00  0.00    -0.269 OA
BRANCH  28  31
ATOM     31  C   UNL     1       7.480   2.805   2.441  1.00  0.00     0.039 A 
ATOM     32  C   UNL     1       8.517   3.615   1.977  1.00  0.00     0.014 A 
ATOM     33  C   UNL     1       6.640   3.237   3.470  1.00  0.00     0.014 A 
ATOM     34  C   UNL     1       8.673   4.896   2.508  1.00  0.00     0.010 A 
ATOM     35  C   UNL     1       6.739   4.541   3.929  1.00  0.00     0.010 A 
ATOM     36  C   UNL     1       7.764   5.379   3.463  1.00  0.00    -0.014 A 
BRANCH  36  37
ATOM     37  C   UNL     1       7.879   6.740   4.038  1.00  0.00     0.031 A 
ATOM     38  C   UNL     1       8.112   6.893   5.516  1.00  0.00     0.074 A 
ATOM     39  C   UNL     1       7.691   7.823   3.260  1.00  0.00     0.049 A 
ATOM     40  N   UNL     1       8.085   7.973   6.252  1.00  0.00    -0.248 NA
ATOM     41  C   UNL     1       8.372   5.656   6.273  1.00  0.00     0.031 C 
ATOM     42  C   UNL     1       7.426   7.802   1.820  1.00  0.00     0.029 A 
ATOM     43  N   UNL     1       7.678   9.157   3.580  1.00  0.00    -0.354 N 
ATOM     44  C   UNL     1       8.298   7.543   7.555  1.00  0.00     0.074 A 
ATOM     45  C   UNL     1       8.391   6.101   7.519  1.00  0.00     0.031 C 
ATOM     46  C   UNL     1       7.299   9.064   1.378  1.00  0.00     0.029 A 
ATOM     47  C   UNL     1       7.427   9.979   2.507  1.00  0.00     0.049 A 
ATOM     48  H   UNL     1       7.833   9.494   4.492  1.00  0.00     0.167 HD
ATOM     49  C   UNL     1       8.434   8.285   8.679  1.00  0.00     0.037 A 
ATOM     50  C   UNL     1       7.305  11.318   2.450  1.00  0.00     0.037 A 
ATOM     51  C   UNL     1       8.380   9.721   8.703  1.00  0.00     0.049 A 
ATOM     52  C   UNL     1       7.452  12.120   3.715  1.00  0.00     0.074 A 
ATOM     53  C   UNL     1       8.540  10.573   9.781  1.00  0.00     0.029 A 
ATOM     54  N   UNL     1       8.160  10.517   7.589  1.00  0.00    -0.354 N 
ATOM     55  N   UNL     1       7.688  11.704   4.936  1.00  0.00    -0.248 NA
ATOM     56  C   UNL     1       7.319  13.579   3.594  1.00  0.00     0.031 C 
ATOM     57  C   UNL     1       8.389  11.886   9.324  1.00  0.00     0.029 A 
ATOM     58  C   UNL     1       8.178  11.852   7.955  1.00  0.00     0.049 A 
ATOM     59  H   UNL     1       8.014  10.183   6.675  1.00  0.00     0.167 HD
ATOM     60  C   UNL     1       7.774  12.848   5.718  1.00  0.00     0.074 A 
ATOM     61  C   UNL     1       7.568  13.976   4.833  1.00  0.00     0.031 C 
ATOM     62  C   UNL     1       8.004  12.958   7.049  1.00  0.00     0.037 A 
BRANCH  49  63
ATOM     63  C   UNL     1       8.671   7.552   9.966  1.00  0.00     0.057 A 
ATOM     64  C   UNL     1       9.881   6.894  10.225  1.00  0.00     0.134 A 
ATOM     65  C   UNL     1       7.693   7.522  10.967  1.00  0.00     0.134 A 
ATOM     66  F   UNL     1      10.853   6.870   9.301  1.00  0.00    -0.206 F 
ATOM     67  C   UNL     1      10.099   6.210  11.422  1.00  0.00     0.040 A 
ATOM     68  C   UNL     1       7.910   6.866  12.180  1.00  0.00     0.040 A 
ATOM     69  F   UNL     1       6.513   8.134  10.786  1.00  0.00    -0.206 F 
ATOM     70  C   UNL     1       9.114   6.202  12.407  1.00  0.00     0.006 A 
ENDBRANCH  49  63
BRANCH  50  71
ATOM     71  C   UNL     1       7.054  11.995   1.153  1.00  0.00     0.057 A 
ATOM     72  C   UNL     1       8.040  12.793   0.558  1.00  0.00     0.134 A 
ATOM     73  C   UNL     1       5.826  11.890   0.491  1.00  0.00     0.134 A 
ATOM     74  F   UNL     1       9.232  12.947   1.153  1.00  0.00    -0.206 F 
ATOM     75  C   UNL     1       7.805  13.482  -0.632  1.00  0.00     0.040 A 
ATOM     76  C   UNL     1       5.585  12.554  -0.713  1.00  0.00     0.040 A 
ATOM     77  F   UNL     1       4.843  11.135   1.004  1.00  0.00    -0.206 F 
ATOM     78  C   UNL     1       6.573  13.361  -1.273  1.00  0.00     0.006 A 
ENDBRANCH  50  71
BRANCH  62  79
ATOM     79  C   UNL     1       8.114  14.340   7.618  1.00  0.00     0.057 A 
ATOM     80  C   UNL     1       6.994  15.159   7.801  1.00  0.00     0.134 A 
ATOM     81  C   UNL     1       9.356  14.833   8.040  1.00  0.00     0.134 A 
ATOM     82  F   UNL     1       5.779  14.748   7.405  1.00  0.00    -0.206 F 
ATOM     83  C   UNL     1       7.107  16.429   8.369  1.00  0.00     0.040 A 
ATOM     84  C   UNL     1       9.478  16.090   8.632  1.00  0.00     0.040 A 
ATOM     85  F   UNL     1      10.466  14.093   7.901  1.00  0.00    -0.206 F 
ATOM     86  C   UNL     1       8.351  16.893   8.794  1.00  0.00     0.006 A 
ENDBRANCH  62  79
ENDBRANCH  36  37
ENDBRANCH  28  31
ENDBRANCH  26  27
ENDBRANCH  25  26
ENDBRANCH   1  25
TORSDOF 13
