REMARK SMILES O=C(NCCCNC(=O)[C@@]1(CCc2ccccc2)CCC[N@@H+](Cc2cccnc2)C1)c1ccc(-c2c3nc(c(-c4c(F)cccc4F)c4ccc([nH]4)c(-c4c(F)cccc4F)c4nc(c(-c5c(F)cccc5F)c5ccc2[nH]5)C=C4)C=C3)cc1
REMARK SMILES IDX 5 1 4 2 3 3 1 4 2 5 31 7 32 8 84 9 33 10 83 11 34 12 35 13
REMARK SMILES IDX 36 14 77 15 37 16 82 17 76 18 78 19 38 20 81 21 75 22 74 23
REMARK SMILES IDX 39 25 65 26 48 27 64 28 49 29 52 30 63 31 79 32 50 33 51 34
REMARK SMILES IDX 62 36 80 37 53 38 40 39 41 40 46 41 42 42 43 43 45 44 47 45
REMARK SMILES IDX 44 46 66 47 67 48 72 49 68 50 69 51 71 52 73 53 70 54 54 55
REMARK SMILES IDX 55 56 60 57 56 58 57 59 59 60 61 61 58 62 6 63 7 64 8 65
REMARK SMILES IDX 9 67 10 68 19 69 30 70 20 71 22 72 21 73 11 75 12 76 13 77
REMARK SMILES IDX 14 78 18 79 15 80 17 81 16 82 23 83 24 84 25 85 29 86 26 87
REMARK SMILES IDX 28 88 27 89
REMARK H PARENT 3 6 78 24 52 35 7 66 22 74
REMARK Flexibility Score: inf
ROOT
ATOM      1  C   UNL     1       3.079  -3.552  -1.339  1.00  0.00     0.042 C 
ENDROOT
BRANCH   1   2
ATOM      2  C   UNL     1       3.155  -3.198   0.135  1.00  0.00     0.118 C 
BRANCH   2   3
ATOM      3  N   UNL     1       2.898  -1.781   0.393  1.00  0.00    -0.352 N 
ATOM      4  O   UNL     1       1.786   0.161   0.578  1.00  0.00    -0.269 OA
ATOM      5  C   UNL     1       1.747  -1.069   0.632  1.00  0.00     0.251 C 
ATOM      6  H   UNL     1       3.712  -1.227   0.396  1.00  0.00     0.163 HD
BRANCH   5   7
ATOM      7  C   UNL     1       0.465  -1.744   0.924  1.00  0.00     0.039 A 
ATOM      8  C   UNL     1       0.439  -2.949   1.613  1.00  0.00     0.014 A 
ATOM      9  C   UNL     1      -0.745  -1.149   0.545  1.00  0.00     0.014 A 
ATOM     10  C   UNL     1      -0.737  -3.673   1.703  1.00  0.00     0.010 A 
ATOM     11  C   UNL     1      -1.959  -1.806   0.789  1.00  0.00     0.010 A 
ATOM     12  C   UNL     1      -1.961  -3.101   1.326  1.00  0.00    -0.014 A 
BRANCH  12  13
ATOM     13  C   UNL     1      -3.203  -3.883   1.568  1.00  0.00     0.031 A 
ATOM     14  C   UNL     1      -4.119  -4.268   0.439  1.00  0.00     0.074 A 
ATOM     15  C   UNL     1      -3.447  -4.328   2.818  1.00  0.00     0.049 A 
ATOM     16  N   UNL     1      -5.192  -5.018   0.473  1.00  0.00    -0.248 NA
ATOM     17  C   UNL     1      -3.805  -3.736  -0.896  1.00  0.00     0.031 C 
ATOM     18  C   UNL     1      -2.635  -4.010   3.998  1.00  0.00     0.029 A 
ATOM     19  N   UNL     1      -4.402  -5.184   3.302  1.00  0.00    -0.354 N 
ATOM     20  C   UNL     1      -5.702  -5.015  -0.820  1.00  0.00     0.074 A 
ATOM     21  C   UNL     1      -4.829  -4.177  -1.613  1.00  0.00     0.031 C 
ATOM     22  C   UNL     1      -3.058  -4.742   5.037  1.00  0.00     0.029 A 
ATOM     23  C   UNL     1      -4.228  -5.505   4.627  1.00  0.00     0.049 A 
ATOM     24  H   UNL     1      -5.141  -5.534   2.753  1.00  0.00     0.167 HD
ATOM     25  C   UNL     1      -6.795  -5.655  -1.299  1.00  0.00     0.037 A 
ATOM     26  C   UNL     1      -4.936  -6.317   5.432  1.00  0.00     0.037 A 
ATOM     27  C   UNL     1      -7.637  -6.519  -0.510  1.00  0.00     0.049 A 
ATOM     28  C   UNL     1      -6.138  -7.016   4.873  1.00  0.00     0.074 A 
ATOM     29  C   UNL     1      -8.744  -7.246  -0.912  1.00  0.00     0.029 A 
ATOM     30  N   UNL     1      -7.461  -6.776   0.842  1.00  0.00    -0.354 N 
ATOM     31  N   UNL     1      -6.596  -7.012   3.645  1.00  0.00    -0.248 NA
ATOM     32  C   UNL     1      -6.930  -7.817   5.813  1.00  0.00     0.031 C 
ATOM     33  C   UNL     1      -9.264  -7.908   0.206  1.00  0.00     0.029 A 
ATOM     34  C   UNL     1      -8.452  -7.632   1.295  1.00  0.00     0.049 A 
ATOM     35  H   UNL     1      -6.738  -6.404   1.398  1.00  0.00     0.167 HD
ATOM     36  C   UNL     1      -7.725  -7.817   3.661  1.00  0.00     0.074 A 
ATOM     37  C   UNL     1      -7.865  -8.313   5.016  1.00  0.00     0.031 C 
ATOM     38  C   UNL     1      -8.574  -8.114   2.647  1.00  0.00     0.037 A 
BRANCH  25  39
ATOM     39  C   UNL     1      -7.165  -5.421  -2.736  1.00  0.00     0.057 A 
ATOM     40  C   UNL     1      -6.422  -5.955  -3.796  1.00  0.00     0.134 A 
ATOM     41  C   UNL     1      -8.306  -4.675  -3.060  1.00  0.00     0.134 A 
ATOM     42  F   UNL     1      -5.311  -6.668  -3.557  1.00  0.00    -0.206 F 
ATOM     43  C   UNL     1      -6.787  -5.736  -5.127  1.00  0.00     0.040 A 
ATOM     44  C   UNL     1      -8.695  -4.470  -4.385  1.00  0.00     0.040 A 
ATOM     45  F   UNL     1      -9.067  -4.139  -2.094  1.00  0.00    -0.206 F 
ATOM     46  C   UNL     1      -7.931  -4.997  -5.424  1.00  0.00     0.006 A 
ENDBRANCH  25  39
BRANCH  26  47
ATOM     47  C   UNL     1      -4.527  -6.500   6.847  1.00  0.00     0.057 A 
ATOM     48  C   UNL     1      -4.032  -7.725   7.306  1.00  0.00     0.134 A 
ATOM     49  C   UNL     1      -4.605  -5.449   7.771  1.00  0.00     0.134 A 
ATOM     50  F   UNL     1      -3.948  -8.774   6.474  1.00  0.00    -0.206 F 
ATOM     51  C   UNL     1      -3.636  -7.903   8.633  1.00  0.00     0.040 A 
ATOM     52  C   UNL     1      -4.185  -5.604   9.092  1.00  0.00     0.040 A 
ATOM     53  F   UNL     1      -5.063  -4.247   7.392  1.00  0.00    -0.206 F 
ATOM     54  C   UNL     1      -3.704  -6.836   9.528  1.00  0.00     0.006 A 
ENDBRANCH  26  47
BRANCH  38  55
ATOM     55  C   UNL     1      -9.707  -9.041   2.968  1.00  0.00     0.057 A 
ATOM     56  C   UNL     1     -10.800  -8.630   3.742  1.00  0.00     0.134 A 
ATOM     57  C   UNL     1      -9.707 -10.357   2.491  1.00  0.00     0.134 A 
ATOM     58  F   UNL     1     -10.850  -7.386   4.242  1.00  0.00    -0.206 F 
ATOM     59  C   UNL     1     -11.840  -9.507   4.055  1.00  0.00     0.040 A 
ATOM     60  C   UNL     1     -10.753 -11.235   2.776  1.00  0.00     0.040 A 
ATOM     61  F   UNL     1      -8.691 -10.809   1.740  1.00  0.00    -0.206 F 
ATOM     62  C   UNL     1     -11.820 -10.812   3.567  1.00  0.00     0.006 A 
ENDBRANCH  38  55
ENDBRANCH  12  13
ENDBRANCH   5   7
ENDBRANCH   2   3
ENDBRANCH   1   2
BRANCH   1  63
ATOM     63  C   UNL     1       4.081  -2.773  -2.169  1.00  0.00     0.117 C 
BRANCH  63  64
ATOM     64  N   UNL     1       5.478  -3.131  -1.936  1.00  0.00    -0.355 N 
ATOM     65  C   UNL     1       6.452  -3.566  -2.806  1.00  0.00     0.231 C 
ATOM     66  H   UNL     1       5.772  -3.048  -1.000  1.00  0.00     0.163 HD
ATOM     67  O   UNL     1       7.597  -3.679  -2.367  1.00  0.00    -0.274 OA
BRANCH  65  68
ATOM     68  C   UNL     1       6.069  -4.012  -4.231  1.00  0.00     0.098 C 
ATOM     69  C   UNL     1       7.261  -4.601  -5.028  1.00  0.00     0.028 C 
ATOM     70  C   UNL     1       5.138  -5.255  -3.945  1.00  0.00     0.279 C 
ATOM     71  C   UNL     1       6.747  -5.329  -6.281  1.00  0.00     0.063 C 
ATOM     72  N   UNL     1       4.932  -6.346  -4.906  1.00  0.00    -0.330 N 
ATOM     73  C   UNL     1       5.992  -6.585  -5.881  1.00  0.00     0.262 C 
ATOM     74  H   UNL     1       4.174  -5.997  -5.493  1.00  0.00     0.348 HD
BRANCH  68  75
ATOM     75  C   UNL     1       5.500  -2.812  -5.074  1.00  0.00     0.027 C 
BRANCH  75  76
ATOM     76  C   UNL     1       5.675  -1.338  -4.594  1.00  0.00     0.037 C 
BRANCH  76  77
ATOM     77  C   UNL     1       7.021  -0.695  -4.338  1.00  0.00    -0.048 A 
ATOM     78  C   UNL     1       7.093   0.355  -3.397  1.00  0.00     0.004 A 
ATOM     79  C   UNL     1       8.167  -0.982  -5.080  1.00  0.00     0.004 A 
ATOM     80  C   UNL     1       8.271   1.080  -3.200  1.00  0.00     0.000 A 
ATOM     81  C   UNL     1       9.355  -0.269  -4.870  1.00  0.00     0.000 A 
ATOM     82  C   UNL     1       9.406   0.765  -3.937  1.00  0.00     0.000 A 
ENDBRANCH  76  77
ENDBRANCH  75  76
ENDBRANCH  68  75
BRANCH  72  83
ATOM     83  C   UNL     1       4.488  -7.600  -4.230  1.00  0.00     0.300 C 
BRANCH  83  84
ATOM     84  C   UNL     1       5.576  -8.544  -3.742  1.00  0.00     0.025 A 
ATOM     85  C   UNL     1       6.419  -8.266  -2.659  1.00  0.00     0.013 A 
ATOM     86  C   UNL     1       5.821  -9.736  -4.425  1.00  0.00     0.120 A 
ATOM     87  C   UNL     1       7.472  -9.126  -2.350  1.00  0.00     0.021 A 
ATOM     88  N   UNL     1       6.825 -10.599  -4.139  1.00  0.00    -0.264 NA
ATOM     89  C   UNL     1       7.639 -10.265  -3.117  1.00  0.00     0.111 A 
ENDBRANCH  83  84
ENDBRANCH  72  83
ENDBRANCH  65  68
ENDBRANCH  63  64
ENDBRANCH   1  63
TORSDOF 15
