REMARK SMILES Cc1c(C[NH2+]Cc2cccc(F)c2)c(C(=O)NCCCNC(=O)c2ccc(-c3c4nc(c(-c5c(F)cccc5F)c5ccc([nH]5)c(-c5c(F)cccc5F)c5nc(c(-c6c(F)cccc6F)c6ccc3[nH]6)C=C5)C=C4)cc2)c(C)n1Cc1c(F)cccc1Cl
REMARK SMILES IDX 18 1 17 2 15 3 16 4 14 6 1 7 2 8 3 9 80 10 78 11 79 12 4 13
REMARK SMILES IDX 5 14 6 17 7 18 8 19 13 20 9 21 11 22 10 23 12 24 81 25 82 26
REMARK SMILES IDX 83 27 88 28 84 29 85 30 87 31 89 32 86 33 19 34 20 35 21 36
REMARK SMILES IDX 22 37 23 39 24 40 25 41 77 42 26 43 76 44 27 45 28 46 29 47
REMARK SMILES IDX 70 48 30 49 75 50 69 51 71 52 31 53 74 54 68 55 67 56 32 58
REMARK SMILES IDX 58 59 41 60 57 61 42 62 45 63 56 64 72 65 43 66 44 67 55 69
REMARK SMILES IDX 73 70 46 71 33 72 34 73 39 74 35 75 36 76 38 77 40 78 37 79
REMARK SMILES IDX 59 80 60 81 65 82 61 83 62 84 64 85 66 86 63 87 47 88 48 89
REMARK SMILES IDX 53 90 49 91 50 92 52 93 54 94 51 95
REMARK H PARENT 17 5 5 15 5 16 21 38 71 57 45 68
REMARK Flexibility Score: inf
ROOT
ATOM      1  C   UNL     1      -1.715  -6.322  -2.469  1.00  0.00     0.118 C 
ENDROOT
BRANCH   1   2
ATOM      2  N   UNL     1      -0.623  -6.319  -1.513  1.00  0.00    -0.352 N 
ATOM      3  C   UNL     1       0.089  -5.395  -0.804  1.00  0.00     0.253 C 
ATOM      4  O   UNL     1       1.028  -5.927  -0.164  1.00  0.00    -0.269 OA
ATOM      5  H   UNL     1      -0.311  -7.234  -1.323  1.00  0.00     0.163 HD
BRANCH   3   6
ATOM      6  C   UNL     1      -0.079  -3.929  -0.822  1.00  0.00     0.069 A 
ATOM      7  C   UNL     1       1.053  -0.398  -0.100  1.00  0.00     0.065 C 
ATOM      8  C   UNL     1       0.458  -1.697  -0.538  1.00  0.00     0.025 A 
ATOM      9  C   UNL     1       0.888  -2.993  -0.249  1.00  0.00     0.040 A 
ATOM     10  N   UNL     1      -0.698  -1.814  -1.291  1.00  0.00    -0.343 N 
ATOM     11  C   UNL     1      -1.179  -3.111  -1.111  1.00  0.00     0.028 A 
ATOM     12  C   UNL     1      -2.640  -3.400  -1.099  1.00  0.00     0.065 C 
BRANCH   9  13
ATOM     13  C   UNL     1       2.110  -3.355   0.574  1.00  0.00     0.300 C 
BRANCH  13  14
ATOM     14  N   UNL     1       1.661  -3.806   1.890  1.00  0.00    -0.339 N 
ATOM     15  H   UNL     1       1.147  -4.680   1.772  1.00  0.00     0.346 HD
ATOM     16  H   UNL     1       1.082  -3.061   2.277  1.00  0.00     0.346 HD
BRANCH  14  17
ATOM     17  C   UNL     1       2.745  -4.036   2.840  1.00  0.00     0.297 C 
BRANCH  17  18
ATOM     18  C   UNL     1       3.326  -2.808   3.518  1.00  0.00     0.009 A 
ATOM     19  C   UNL     1       2.779  -1.520   3.394  1.00  0.00     0.010 A 
ATOM     20  C   UNL     1       4.454  -2.966   4.343  1.00  0.00     0.048 A 
ATOM     21  C   UNL     1       3.363  -0.419   4.029  1.00  0.00     0.004 A 
ATOM     22  C   UNL     1       5.023  -1.865   4.979  1.00  0.00     0.123 A 
ATOM     23  C   UNL     1       4.494  -0.591   4.821  1.00  0.00     0.039 A 
ATOM     24  F   UNL     1       6.101  -2.036   5.757  1.00  0.00    -0.207 F 
ENDBRANCH  17  18
ENDBRANCH  14  17
ENDBRANCH  13  14
ENDBRANCH   9  13
BRANCH  10  25
ATOM     25  C   UNL     1      -1.415  -0.712  -1.965  1.00  0.00     0.162 C 
BRANCH  25  26
ATOM     26  C   UNL     1      -1.199  -0.679  -3.465  1.00  0.00     0.026 A 
ATOM     27  C   UNL     1      -1.827  -1.633  -4.278  1.00  0.00     0.129 A 
ATOM     28  C   UNL     1      -0.434   0.290  -4.133  1.00  0.00     0.048 A 
ATOM     29  F   UNL     1      -2.716  -2.481  -3.755  1.00  0.00    -0.207 F 
ATOM     30  C   UNL     1      -1.631  -1.710  -5.656  1.00  0.00     0.040 A 
ATOM     31  C   UNL     1      -0.251   0.239  -5.527  1.00  0.00     0.021 A 
ATOM     32  Cl  UNL     1       0.263   1.645  -3.319  1.00  0.00    -0.084 Cl
ATOM     33  C   UNL     1      -0.826  -0.777  -6.286  1.00  0.00     0.005 A 
ENDBRANCH  25  26
ENDBRANCH  10  25
ENDBRANCH   3   6
ENDBRANCH   1   2
BRANCH   1  34
ATOM     34  C   UNL     1      -1.272  -6.241  -3.932  1.00  0.00     0.042 C 
BRANCH  34  35
ATOM     35  C   UNL     1      -0.569  -7.503  -4.468  1.00  0.00     0.118 C 
BRANCH  35  36
ATOM     36  N   UNL     1      -1.448  -8.424  -5.173  1.00  0.00    -0.352 N 
ATOM     37  C   UNL     1      -1.109  -9.329  -6.156  1.00  0.00     0.251 C 
ATOM     38  H   UNL     1      -2.398  -8.397  -4.917  1.00  0.00     0.163 HD
ATOM     39  O   UNL     1      -2.010 -10.028  -6.649  1.00  0.00    -0.269 OA
BRANCH  37  40
ATOM     40  C   UNL     1       0.285  -9.419  -6.708  1.00  0.00     0.039 A 
ATOM     41  C   UNL     1       0.550  -8.779  -7.907  1.00  0.00     0.014 A 
ATOM     42  C   UNL     1       1.301 -10.246  -6.194  1.00  0.00     0.014 A 
ATOM     43  C   UNL     1       1.819  -8.921  -8.536  1.00  0.00     0.010 A 
ATOM     44  C   UNL     1       2.560 -10.463  -6.894  1.00  0.00     0.010 A 
ATOM     45  C   UNL     1       2.867  -9.818  -8.109  1.00  0.00    -0.014 A 
BRANCH  45  46
ATOM     46  C   UNL     1       3.846 -10.346  -9.282  1.00  0.00     0.031 A 
ATOM     47  C   UNL     1       2.862 -10.686 -10.352  1.00  0.00     0.074 A 
ATOM     48  C   UNL     1       5.157 -10.727  -9.576  1.00  0.00     0.049 A 
ATOM     49  N   UNL     1       1.897 -11.517 -10.065  1.00  0.00    -0.248 NA
ATOM     50  C   UNL     1       2.625  -9.869 -11.543  1.00  0.00     0.031 C 
ATOM     51  C   UNL     1       6.299 -10.841  -8.653  1.00  0.00     0.029 A 
ATOM     52  N   UNL     1       5.806 -11.121 -10.796  1.00  0.00    -0.354 N 
ATOM     53  C   UNL     1       1.103 -11.584 -11.178  1.00  0.00     0.074 A 
ATOM     54  C   UNL     1       1.448 -10.380 -11.927  1.00  0.00     0.031 C 
ATOM     55  C   UNL     1       7.469 -11.098  -9.315  1.00  0.00     0.029 A 
ATOM     56  C   UNL     1       7.248 -11.250 -10.754  1.00  0.00     0.049 A 
ATOM     57  H   UNL     1       5.296 -11.295 -11.620  1.00  0.00     0.167 HD
ATOM     58  C   UNL     1       0.912 -12.850 -11.648  1.00  0.00     0.037 A 
ATOM     59  C   UNL     1       8.181 -11.540 -11.755  1.00  0.00     0.037 A 
ATOM     60  C   UNL     1       1.785 -13.141 -12.753  1.00  0.00     0.049 A 
ATOM     61  C   UNL     1       7.459 -12.372 -12.720  1.00  0.00     0.074 A 
ATOM     62  C   UNL     1       2.177 -12.419 -13.863  1.00  0.00     0.029 A 
ATOM     63  N   UNL     1       2.741 -14.109 -12.554  1.00  0.00    -0.354 N 
ATOM     64  N   UNL     1       7.238 -13.629 -12.488  1.00  0.00    -0.248 NA
ATOM     65  C   UNL     1       7.085 -11.895 -14.046  1.00  0.00     0.031 C 
ATOM     66  C   UNL     1       3.566 -12.641 -13.961  1.00  0.00     0.029 A 
ATOM     67  C   UNL     1       3.900 -13.756 -13.205  1.00  0.00     0.049 A 
ATOM     68  H   UNL     1       2.615 -14.930 -12.026  1.00  0.00     0.167 HD
ATOM     69  C   UNL     1       6.264 -13.934 -13.378  1.00  0.00     0.074 A 
ATOM     70  C   UNL     1       6.422 -12.977 -14.460  1.00  0.00     0.031 C 
ATOM     71  C   UNL     1       5.125 -14.425 -12.835  1.00  0.00     0.037 A 
BRANCH  58  72
ATOM     72  C   UNL     1       0.566 -13.834 -10.558  1.00  0.00     0.057 A 
ATOM     73  C   UNL     1       1.470 -14.226  -9.547  1.00  0.00     0.134 A 
ATOM     74  C   UNL     1      -0.751 -14.273 -10.428  1.00  0.00     0.134 A 
ATOM     75  F   UNL     1       2.779 -13.942  -9.643  1.00  0.00    -0.206 F 
ATOM     76  C   UNL     1       1.055 -14.911  -8.406  1.00  0.00     0.040 A 
ATOM     77  C   UNL     1      -1.168 -15.012  -9.316  1.00  0.00     0.040 A 
ATOM     78  F   UNL     1      -1.657 -13.984 -11.375  1.00  0.00    -0.206 F 
ATOM     79  C   UNL     1      -0.273 -15.300  -8.284  1.00  0.00     0.006 A 
ENDBRANCH  58  72
BRANCH  59  80
ATOM     80  C   UNL     1       9.691 -11.552 -12.161  1.00  0.00     0.057 A 
ATOM     81  C   UNL     1      10.540 -10.454 -11.986  1.00  0.00     0.134 A 
ATOM     82  C   UNL     1      10.202 -12.491 -13.129  1.00  0.00     0.134 A 
ATOM     83  F   UNL     1      10.225  -9.490 -11.112  1.00  0.00    -0.206 F 
ATOM     84  C   UNL     1      11.717 -10.258 -12.767  1.00  0.00     0.040 A 
ATOM     85  C   UNL     1      11.337 -12.284 -13.937  1.00  0.00     0.040 A 
ATOM     86  F   UNL     1       9.578 -13.647 -13.394  1.00  0.00    -0.206 F 
ATOM     87  C   UNL     1      12.093 -11.145 -13.776  1.00  0.00     0.006 A 
ENDBRANCH  59  80
BRANCH  71  88
ATOM     88  C   UNL     1       5.254 -15.487 -11.752  1.00  0.00     0.057 A 
ATOM     89  C   UNL     1       4.480 -16.646 -11.909  1.00  0.00     0.134 A 
ATOM     90  C   UNL     1       6.088 -15.472 -10.610  1.00  0.00     0.134 A 
ATOM     91  F   UNL     1       3.637 -16.755 -12.947  1.00  0.00    -0.206 F 
ATOM     92  C   UNL     1       4.516 -17.713 -11.007  1.00  0.00     0.040 A 
ATOM     93  C   UNL     1       6.179 -16.564  -9.734  1.00  0.00     0.040 A 
ATOM     94  F   UNL     1       6.824 -14.409 -10.257  1.00  0.00    -0.206 F 
ATOM     95  C   UNL     1       5.384 -17.685  -9.925  1.00  0.00     0.006 A 
ENDBRANCH  71  88
ENDBRANCH  45  46
ENDBRANCH  37  40
ENDBRANCH  35  36
ENDBRANCH  34  35
ENDBRANCH   1  34
TORSDOF 16
