REMARK SMILES CS(=O)(=O)c1ccc(/C=C(/C(=O)NCCCNC(=O)c2ccc(-c3c4nc(c(-c5c(F)cccc5F)c5ccc([nH]5)c(-c5c(F)cccc5F)c5nc(c(-c6c(F)cccc6F)c6ccc3[nH]6)C=C5)C=C4)cc2)c2ccc(F)cc2)cc1
REMARK SMILES IDX 15 1 14 2 13 3 11 4 12 5 10 7 9 8 8 9 5 10 6 11 82 12 7 13
REMARK SMILES IDX 81 14 2 15 1 16 3 17 4 18 74 19 75 20 80 21 76 22 79 23
REMARK SMILES IDX 77 24 78 25 16 26 17 27 18 28 19 30 20 31 21 32 73 33 22 34
REMARK SMILES IDX 72 35 23 36 24 37 25 38 66 39 26 40 71 41 65 42 67 43 27 44
REMARK SMILES IDX 70 45 64 46 63 47 28 49 54 50 37 51 53 52 38 53 41 54 52 55
REMARK SMILES IDX 68 56 39 57 40 58 51 60 69 61 42 62 29 63 30 64 35 65 31 66
REMARK SMILES IDX 32 67 34 68 36 69 33 70 55 71 56 72 61 73 57 74 58 75 60 76
REMARK SMILES IDX 62 77 59 78 43 79 44 80 49 81 45 82 46 83 48 84 50 85 47 86
REMARK H PARENT 13 6 17 29 67 48 41 59
REMARK Flexibility Score: inf
ROOT
ATOM      1  C   UNL     1       1.532   6.748   7.300  1.00  0.00     0.042 C 
ENDROOT
BRANCH   1   2
ATOM      2  C   UNL     1       2.740   5.817   7.164  1.00  0.00     0.118 C 
BRANCH   2   3
ATOM      3  N   UNL     1       2.647   4.705   8.092  1.00  0.00    -0.352 N 
ATOM      4  C   UNL     1       2.312   3.393   7.969  1.00  0.00     0.251 C 
ATOM      5  O   UNL     1       2.335   2.730   9.008  1.00  0.00    -0.269 OA
ATOM      6  H   UNL     1       2.878   4.956   9.015  1.00  0.00     0.163 HD
BRANCH   4   7
ATOM      7  C   UNL     1       2.004   2.729   6.647  1.00  0.00     0.047 C 
ATOM      8  C   UNL     1       1.321   3.370   5.674  1.00  0.00     0.022 C 
BRANCH   8   9
ATOM      9  C   UNL     1       0.986   2.914   4.308  1.00  0.00    -0.025 A 
ATOM     10  C   UNL     1       0.460   2.165   1.653  1.00  0.00     0.067 A 
ATOM     11  C   UNL     1       0.187   1.275   2.692  1.00  0.00     0.021 A 
ATOM     12  C   UNL     1       0.953   3.441   1.927  1.00  0.00     0.021 A 
ATOM     13  C   UNL     1       0.437   1.659   4.015  1.00  0.00     0.009 A 
ATOM     14  C   UNL     1       1.211   3.811   3.250  1.00  0.00     0.009 A 
BRANCH  10  15
ATOM     15  S   UNL     1       0.173   1.684  -0.034  1.00  0.00     0.175 S 
ATOM     16  C   UNL     1       0.981   0.115  -0.213  1.00  0.00     0.163 C 
ATOM     17  O   UNL     1       0.878   2.624  -0.879  1.00  0.00    -0.224 OA
ATOM     18  O   UNL     1      -1.259   1.480  -0.169  1.00  0.00    -0.224 OA
ENDBRANCH  10  15
ENDBRANCH   8   9
BRANCH   7  19
ATOM     19  C   UNL     1       2.325   1.284   6.529  1.00  0.00    -0.013 A 
ATOM     20  C   UNL     1       1.610   0.363   7.319  1.00  0.00     0.012 A 
ATOM     21  C   UNL     1       3.267   0.803   5.608  1.00  0.00     0.012 A 
ATOM     22  C   UNL     1       1.812  -1.009   7.175  1.00  0.00     0.040 A 
ATOM     23  C   UNL     1       3.462  -0.573   5.459  1.00  0.00     0.040 A 
ATOM     24  C   UNL     1       2.730  -1.464   6.238  1.00  0.00     0.123 A 
ATOM     25  F   UNL     1       2.905  -2.782   6.076  1.00  0.00    -0.207 F 
ENDBRANCH   7  19
ENDBRANCH   4   7
ENDBRANCH   2   3
ENDBRANCH   1   2
BRANCH   1  26
ATOM     26  C   UNL     1       1.469   7.495   8.634  1.00  0.00     0.118 C 
BRANCH  26  27
ATOM     27  N   UNL     1       2.522   8.492   8.760  1.00  0.00    -0.352 N 
ATOM     28  C   UNL     1       2.440   9.840   9.002  1.00  0.00     0.251 C 
ATOM     29  H   UNL     1       3.437   8.144   8.655  1.00  0.00     0.163 HD
ATOM     30  O   UNL     1       3.444  10.536   8.873  1.00  0.00    -0.269 OA
BRANCH  28  31
ATOM     31  C   UNL     1       1.162  10.470   9.405  1.00  0.00     0.039 A 
ATOM     32  C   UNL     1       0.828  11.713   8.856  1.00  0.00     0.014 A 
ATOM     33  C   UNL     1       0.326   9.885  10.360  1.00  0.00     0.014 A 
ATOM     34  C   UNL     1      -0.364  12.342   9.224  1.00  0.00     0.010 A 
ATOM     35  C   UNL     1      -0.890  10.487  10.685  1.00  0.00     0.010 A 
ATOM     36  C   UNL     1      -1.245  11.722  10.123  1.00  0.00    -0.014 A 
BRANCH  36  37
ATOM     37  C   UNL     1      -2.542  12.352  10.479  1.00  0.00     0.031 A 
ATOM     38  C   UNL     1      -2.798  12.835  11.880  1.00  0.00     0.074 A 
ATOM     39  C   UNL     1      -3.517  12.434   9.553  1.00  0.00     0.049 A 
ATOM     40  N   UNL     1      -3.888  13.349  12.392  1.00  0.00    -0.248 NA
ATOM     41  C   UNL     1      -1.689  12.703  12.837  1.00  0.00     0.031 C 
ATOM     42  C   UNL     1      -3.410  11.964   8.171  1.00  0.00     0.029 A 
ATOM     43  N   UNL     1      -4.792  12.933   9.638  1.00  0.00    -0.354 N 
ATOM     44  C   UNL     1      -3.604  13.583  13.731  1.00  0.00     0.074 A 
ATOM     45  C   UNL     1      -2.252  13.120  13.962  1.00  0.00     0.031 C 
ATOM     46  C   UNL     1      -4.566  12.210   7.534  1.00  0.00     0.029 A 
ATOM     47  C   UNL     1      -5.504  12.825   8.468  1.00  0.00     0.049 A 
ATOM     48  H   UNL     1      -5.162  13.329  10.459  1.00  0.00     0.167 HD
ATOM     49  C   UNL     1      -4.391  14.148  14.678  1.00  0.00     0.037 A 
ATOM     50  C   UNL     1      -6.771  13.178   8.181  1.00  0.00     0.037 A 
ATOM     51  C   UNL     1      -5.725  14.635  14.442  1.00  0.00     0.049 A 
ATOM     52  C   UNL     1      -7.620  13.812   9.245  1.00  0.00     0.074 A 
ATOM     53  C   UNL     1      -6.576  15.282  15.322  1.00  0.00     0.029 A 
ATOM     54  N   UNL     1      -6.403  14.527  13.237  1.00  0.00    -0.354 N 
ATOM     55  N   UNL     1      -7.317  14.082  10.491  1.00  0.00    -0.248 NA
ATOM     56  C   UNL     1      -8.987  14.194   8.861  1.00  0.00     0.031 C 
ATOM     57  C   UNL     1      -7.782  15.536  14.659  1.00  0.00     0.029 A 
ATOM     58  C   UNL     1      -7.668  15.080  13.355  1.00  0.00     0.049 A 
ATOM     59  H   UNL     1      -6.039  14.119  12.419  1.00  0.00     0.167 HD
ATOM     60  C   UNL     1      -8.444  14.684  11.034  1.00  0.00     0.074 A 
ATOM     61  C   UNL     1      -9.433  14.752   9.978  1.00  0.00     0.031 C 
ATOM     62  C   UNL     1      -8.641  15.141  12.295  1.00  0.00     0.037 A 
BRANCH  49  63
ATOM     63  C   UNL     1      -3.824  14.271  16.062  1.00  0.00     0.057 A 
ATOM     64  C   UNL     1      -2.817  15.195  16.367  1.00  0.00     0.134 A 
ATOM     65  C   UNL     1      -4.311  13.476  17.108  1.00  0.00     0.134 A 
ATOM     66  F   UNL     1      -2.300  15.977  15.408  1.00  0.00    -0.206 F 
ATOM     67  C   UNL     1      -2.295  15.306  17.657  1.00  0.00     0.040 A 
ATOM     68  C   UNL     1      -3.814  13.596  18.407  1.00  0.00     0.040 A 
ATOM     69  F   UNL     1      -5.281  12.576  16.886  1.00  0.00    -0.206 F 
ATOM     70  C   UNL     1      -2.798  14.508  18.683  1.00  0.00     0.006 A 
ENDBRANCH  49  63
BRANCH  50  71
ATOM     71  C   UNL     1      -7.304  12.961   6.814  1.00  0.00     0.057 A 
ATOM     72  C   UNL     1      -7.513  14.037   5.945  1.00  0.00     0.134 A 
ATOM     73  C   UNL     1      -7.610  11.679   6.343  1.00  0.00     0.134 A 
ATOM     74  F   UNL     1      -7.255  15.290   6.349  1.00  0.00    -0.206 F 
ATOM     75  C   UNL     1      -8.019  13.849   4.658  1.00  0.00     0.040 A 
ATOM     76  C   UNL     1      -8.097  11.474   5.052  1.00  0.00     0.040 A 
ATOM     77  F   UNL     1      -7.424  10.607   7.128  1.00  0.00    -0.206 F 
ATOM     78  C   UNL     1      -8.307  12.562   4.207  1.00  0.00     0.006 A 
ENDBRANCH  50  71
BRANCH  62  79
ATOM     79  C   UNL     1      -9.967  15.774  12.593  1.00  0.00     0.057 A 
ATOM     80  C   UNL     1     -11.130  15.009  12.745  1.00  0.00     0.134 A 
ATOM     81  C   UNL     1     -10.075  17.160  12.759  1.00  0.00     0.134 A 
ATOM     82  F   UNL     1     -11.094  13.678  12.584  1.00  0.00    -0.206 F 
ATOM     83  C   UNL     1     -12.359  15.604  13.034  1.00  0.00     0.040 A 
ATOM     84  C   UNL     1     -11.294  17.764  13.069  1.00  0.00     0.040 A 
ATOM     85  F   UNL     1      -8.996  17.947  12.631  1.00  0.00    -0.206 F 
ATOM     86  C   UNL     1     -12.442  16.985  13.203  1.00  0.00     0.006 A 
ENDBRANCH  62  79
ENDBRANCH  36  37
ENDBRANCH  28  31
ENDBRANCH  26  27
ENDBRANCH   1  26
TORSDOF 13
