REMARK SMILES CC(C)(C)N(CC(=O)NCCCNC(=O)c1ccc(-c2c3nc(c(-c4c(F)cccc4F)c4ccc([nH]4)c(-c4c(F)cccc4F)c4nc(c(-c5c(F)cccc5F)c5ccc2[nH]5)C=C4)C=C3)cc1)C(=O)N1CC[C@H](C[NH3+])C1
REMARK SMILES IDX 7 1 8 2 9 3 6 5 5 6 2 7 1 8 3 9 4 10 70 11 71 12 72 13 73 14
REMARK SMILES IDX 78 15 74 16 75 17 76 18 77 19 10 23 11 24 12 25 13 26 14 27
REMARK SMILES IDX 15 29 16 30 17 31 69 32 18 33 68 34 19 35 20 36 21 37 62 38
REMARK SMILES IDX 22 39 67 40 61 41 63 42 23 43 66 44 60 45 59 46 24 48 50 49
REMARK SMILES IDX 33 50 49 51 34 52 37 53 48 54 64 55 35 56 36 57 47 59 65 60
REMARK SMILES IDX 38 61 25 62 26 63 31 64 27 65 28 66 30 67 32 68 29 69 51 70
REMARK SMILES IDX 52 71 57 72 53 73 54 74 56 75 58 76 55 77 39 78 40 79 45 80
REMARK SMILES IDX 41 81 42 82 44 83 46 84 43 85
REMARK H PARENT 9 4 77 20 77 21 77 22 13 28 63 47 37 58
REMARK Flexibility Score: inf
ROOT
ATOM      1  C   UNL     1       3.323   2.786   0.430  1.00  0.00     0.239 C 
ATOM      2  O   UNL     1       3.855   3.535   1.261  1.00  0.00    -0.273 OA
ATOM      3  N   UNL     1       4.174   2.070  -0.355  1.00  0.00    -0.354 N 
ATOM      4  H   UNL     1       5.104   2.393  -0.354  1.00  0.00     0.163 HD
ENDROOT
BRANCH   1   5
ATOM      5  C   UNL     1       1.791   2.614   0.430  1.00  0.00     0.221 C 
BRANCH   5   6
ATOM      6  N   UNL     1       1.052   2.385  -0.829  1.00  0.00    -0.311 N 
BRANCH   6   7
ATOM      7  C   UNL     1       0.195   1.135  -0.979  1.00  0.00     0.037 C 
ATOM      8  C   UNL     1       0.440   0.040   0.097  1.00  0.00     0.034 C 
ATOM      9  C   UNL     1       0.416   0.452  -2.348  1.00  0.00     0.034 C 
ATOM     10  C   UNL     1      -1.307   1.493  -0.833  1.00  0.00     0.034 C 
ENDBRANCH   6   7
BRANCH   6  11
ATOM     11  C   UNL     1       0.765   3.471  -1.688  1.00  0.00     0.320 C 
ATOM     12  O   UNL     1       0.035   3.373  -2.675  1.00  0.00    -0.248 OA
BRANCH  11  13
ATOM     13  N   UNL     1       1.170   4.721  -1.275  1.00  0.00    -0.324 N 
ATOM     14  C   UNL     1       2.514   5.243  -1.402  1.00  0.00     0.122 C 
ATOM     15  C   UNL     1       0.248   5.847  -1.385  1.00  0.00     0.130 C 
ATOM     16  C   UNL     1       2.430   6.516  -0.581  1.00  0.00     0.033 C 
ATOM     17  C   UNL     1       1.077   7.095  -1.025  1.00  0.00     0.065 C 
BRANCH  17  18
ATOM     18  C   UNL     1       0.379   7.972   0.014  1.00  0.00     0.264 C 
BRANCH  18  19
ATOM     19  N   UNL     1       1.209   9.100   0.424  1.00  0.00    -0.357 N 
ATOM     20  H   UNL     1       2.069   8.753   0.850  1.00  0.00     0.344 HD
ATOM     21  H   UNL     1       0.700   9.669   1.101  1.00  0.00     0.344 HD
ATOM     22  H   UNL     1       1.439   9.668  -0.392  1.00  0.00     0.344 HD
ENDBRANCH  18  19
ENDBRANCH  17  18
ENDBRANCH  11  13
ENDBRANCH   6  11
ENDBRANCH   5   6
ENDBRANCH   1   5
BRANCH   3  23
ATOM     23  C   UNL     1       3.937   0.914  -1.189  1.00  0.00     0.117 C 
BRANCH  23  24
ATOM     24  C   UNL     1       3.895   1.216  -2.681  1.00  0.00     0.042 C 
BRANCH  24  25
ATOM     25  C   UNL     1       5.227   1.655  -3.277  1.00  0.00     0.118 C 
BRANCH  25  26
ATOM     26  N   UNL     1       6.257   0.627  -3.179  1.00  0.00    -0.352 N 
ATOM     27  C   UNL     1       6.775  -0.249  -4.101  1.00  0.00     0.251 C 
ATOM     28  H   UNL     1       6.657   0.547  -2.283  1.00  0.00     0.163 HD
ATOM     29  O   UNL     1       7.489  -1.167  -3.704  1.00  0.00    -0.269 OA
BRANCH  27  30
ATOM     30  C   UNL     1       6.492  -0.129  -5.551  1.00  0.00     0.039 A 
ATOM     31  C   UNL     1       6.385  -1.301  -6.313  1.00  0.00     0.014 A 
ATOM     32  C   UNL     1       6.412   1.108  -6.190  1.00  0.00     0.014 A 
ATOM     33  C   UNL     1       6.133  -1.229  -7.687  1.00  0.00     0.010 A 
ATOM     34  C   UNL     1       6.076   1.180  -7.542  1.00  0.00     0.010 A 
ATOM     35  C   UNL     1       5.938   0.013  -8.308  1.00  0.00    -0.014 A 
BRANCH  35  36
ATOM     36  C   UNL     1       5.599   0.123  -9.752  1.00  0.00     0.031 A 
ATOM     37  C   UNL     1       6.524   0.843 -10.697  1.00  0.00     0.074 A 
ATOM     38  C   UNL     1       4.419  -0.349 -10.200  1.00  0.00     0.049 A 
ATOM     39  N   UNL     1       6.343   1.157 -11.955  1.00  0.00    -0.248 NA
ATOM     40  C   UNL     1       7.811   1.295 -10.145  1.00  0.00     0.031 C 
ATOM     41  C   UNL     1       3.413  -1.031  -9.383  1.00  0.00     0.029 A 
ATOM     42  N   UNL     1       3.857  -0.310 -11.452  1.00  0.00    -0.354 N 
ATOM     43  C   UNL     1       7.475   1.868 -12.335  1.00  0.00     0.074 A 
ATOM     44  C   UNL     1       8.319   1.973 -11.164  1.00  0.00     0.031 C 
ATOM     45  C   UNL     1       2.366  -1.357 -10.156  1.00  0.00     0.029 A 
ATOM     46  C   UNL     1       2.605  -0.872 -11.511  1.00  0.00     0.049 A 
ATOM     47  H   UNL     1       4.309   0.084 -12.233  1.00  0.00     0.167 HD
ATOM     48  C   UNL     1       7.791   2.371 -13.552  1.00  0.00     0.037 A 
ATOM     49  C   UNL     1       1.738  -0.971 -12.537  1.00  0.00     0.037 A 
ATOM     50  C   UNL     1       6.971   2.231 -14.726  1.00  0.00     0.049 A 
ATOM     51  C   UNL     1       2.115  -0.409 -13.879  1.00  0.00     0.074 A 
ATOM     52  C   UNL     1       7.240   2.644 -16.020  1.00  0.00     0.029 A 
ATOM     53  N   UNL     1       5.722   1.629 -14.750  1.00  0.00    -0.354 N 
ATOM     54  N   UNL     1       3.213   0.211 -14.236  1.00  0.00    -0.248 NA
ATOM     55  C   UNL     1       1.132  -0.562 -14.961  1.00  0.00     0.031 C 
ATOM     56  C   UNL     1       6.138   2.324 -16.820  1.00  0.00     0.029 A 
ATOM     57  C   UNL     1       5.200   1.676 -16.032  1.00  0.00     0.049 A 
ATOM     58  H   UNL     1       5.274   1.228 -13.970  1.00  0.00     0.167 HD
ATOM     59  C   UNL     1       3.064   0.500 -15.586  1.00  0.00     0.074 A 
ATOM     60  C   UNL     1       1.775  -0.023 -15.988  1.00  0.00     0.031 C 
ATOM     61  C   UNL     1       3.919   1.143 -16.418  1.00  0.00     0.037 A 
BRANCH  48  62
ATOM     62  C   UNL     1       9.087   3.118 -13.677  1.00  0.00     0.057 A 
ATOM     63  C   UNL     1      10.325   2.463 -13.630  1.00  0.00     0.134 A 
ATOM     64  C   UNL     1       9.097   4.503 -13.884  1.00  0.00     0.134 A 
ATOM     65  F   UNL     1      10.386   1.139 -13.424  1.00  0.00    -0.206 F 
ATOM     66  C   UNL     1      11.527   3.163 -13.757  1.00  0.00     0.040 A 
ATOM     67  C   UNL     1      10.291   5.210 -14.038  1.00  0.00     0.040 A 
ATOM     68  F   UNL     1       7.947   5.192 -13.947  1.00  0.00    -0.206 F 
ATOM     69  C   UNL     1      11.511   4.540 -13.968  1.00  0.00     0.006 A 
ENDBRANCH  48  62
BRANCH  49  70
ATOM     70  C   UNL     1       0.431  -1.644 -12.339  1.00  0.00     0.057 A 
ATOM     71  C   UNL     1       0.175  -2.898 -12.906  1.00  0.00     0.134 A 
ATOM     72  C   UNL     1      -0.591  -1.055 -11.586  1.00  0.00     0.134 A 
ATOM     73  F   UNL     1       1.109  -3.503 -13.655  1.00  0.00    -0.206 F 
ATOM     74  C   UNL     1      -1.055  -3.537 -12.743  1.00  0.00     0.040 A 
ATOM     75  C   UNL     1      -1.818  -1.692 -11.395  1.00  0.00     0.040 A 
ATOM     76  F   UNL     1      -0.405   0.143 -11.013  1.00  0.00    -0.206 F 
ATOM     77  C   UNL     1      -2.054  -2.935 -11.981  1.00  0.00     0.006 A 
ENDBRANCH  49  70
BRANCH  61  78
ATOM     78  C   UNL     1       3.504   1.287 -17.852  1.00  0.00     0.057 A 
ATOM     79  C   UNL     1       2.519   2.200 -18.246  1.00  0.00     0.134 A 
ATOM     80  C   UNL     1       4.129   0.533 -18.853  1.00  0.00     0.134 A 
ATOM     81  F   UNL     1       1.874   2.941 -17.333  1.00  0.00    -0.206 F 
ATOM     82  C   UNL     1       2.158   2.346 -19.586  1.00  0.00     0.040 A 
ATOM     83  C   UNL     1       3.793   0.687 -20.198  1.00  0.00     0.040 A 
ATOM     84  F   UNL     1       5.086  -0.354 -18.541  1.00  0.00    -0.206 F 
ATOM     85  C   UNL     1       2.801   1.594 -20.567  1.00  0.00     0.006 A 
ENDBRANCH  61  78
ENDBRANCH  35  36
ENDBRANCH  27  30
ENDBRANCH  25  26
ENDBRANCH  24  25
ENDBRANCH  23  24
ENDBRANCH   3  23
TORSDOF 16
