REMARK SMILES C[C@@H](NC(=O)[C@@H]1CC[C@@H]2CCCC[C@@H]2[NH2+]1)C(=O)NCCCNC(=O)c1ccc(-c2c3nc(c(-c4c(F)cccc4F)c4ccc([nH]4)c(-c4c(F)cccc4F)c4nc(c(-c5c(F)cccc5F)c5ccc2[nH]5)C=C4)C=C3)cc1
REMARK SMILES IDX 20 1 19 2 18 3 16 4 17 5 2 7 1 8 3 9 4 10 5 12 6 13 7 14
REMARK SMILES IDX 15 15 8 16 14 17 9 20 13 21 10 22 12 23 11 24 21 25 22 26
REMARK SMILES IDX 23 27 24 29 25 30 26 31 78 32 27 33 77 34 28 35 29 36 30 37
REMARK SMILES IDX 71 38 31 39 76 40 70 41 72 42 32 43 75 44 69 45 68 46 33 48
REMARK SMILES IDX 59 49 42 50 58 51 43 52 46 53 57 54 73 55 44 56 45 57 56 59
REMARK SMILES IDX 74 60 47 61 34 62 35 63 40 64 36 65 37 66 39 67 41 68 38 69
REMARK SMILES IDX 60 70 61 71 66 72 62 73 63 74 65 75 67 76 64 77 48 78 49 79
REMARK SMILES IDX 54 80 50 81 51 82 53 83 55 84 52 85
REMARK H PARENT 18 6 3 11 15 18 15 19 22 28 72 47 46 58
REMARK Flexibility Score: inf
ROOT
ATOM      1  C   UNL     1      -1.691   1.822   2.375  1.00  0.00     0.042 C 
ENDROOT
BRANCH   1   2
ATOM      2  C   UNL     1      -0.739   1.079   1.403  1.00  0.00     0.117 C 
BRANCH   2   3
ATOM      3  N   UNL     1      -1.361   0.433   0.266  1.00  0.00    -0.354 N 
ATOM      4  C   UNL     1      -0.998  -0.651  -0.475  1.00  0.00     0.242 C 
ATOM      5  O   UNL     1      -1.734  -0.922  -1.433  1.00  0.00    -0.273 OA
ATOM      6  H   UNL     1      -2.201   0.855  -0.025  1.00  0.00     0.163 HD
BRANCH   4   7
ATOM      7  C   UNL     1       0.297  -1.472  -0.251  1.00  0.00     0.168 C 
ATOM      8  C   UNL     1       1.489  -0.541  -0.511  1.00  0.00     0.041 C 
BRANCH   7   9
ATOM      9  N   UNL     1       0.545  -2.241   0.984  1.00  0.00    -0.339 N 
ATOM     10  C   UNL     1       0.070  -3.503   1.257  1.00  0.00     0.278 C 
ATOM     11  H   UNL     1       1.100  -1.812   1.675  1.00  0.00     0.164 HD
ATOM     12  O   UNL     1       0.903  -4.418   1.259  1.00  0.00    -0.268 OA
BRANCH  10  13
ATOM     13  C   UNL     1      -1.379  -3.764   1.768  1.00  0.00     0.272 C 
ATOM     14  C   UNL     1      -2.282  -2.558   1.871  1.00  0.00     0.076 C 
ATOM     15  N   UNL     1      -1.351  -4.467   3.092  1.00  0.00    -0.333 N 
ATOM     16  C   UNL     1      -1.744  -1.656   2.959  1.00  0.00     0.016 C 
ATOM     17  C   UNL     1      -1.092  -3.637   4.297  1.00  0.00     0.186 C 
ATOM     18  H   UNL     1      -0.620  -5.177   3.047  1.00  0.00     0.347 HD
ATOM     19  H   UNL     1      -2.297  -4.826   3.219  1.00  0.00     0.347 HD
ATOM     20  C   UNL     1      -1.894  -2.324   4.309  1.00  0.00     0.048 C 
ATOM     21  C   UNL     1       0.419  -3.455   4.545  1.00  0.00     0.065 C 
ATOM     22  C   UNL     1      -1.471  -1.367   5.431  1.00  0.00     0.010 C 
ATOM     23  C   UNL     1       0.808  -2.382   5.562  1.00  0.00     0.006 C 
ATOM     24  C   UNL     1       0.024  -1.087   5.423  1.00  0.00     0.001 C 
ENDBRANCH  10  13
ENDBRANCH   7   9
ENDBRANCH   4   7
ENDBRANCH   2   3
ENDBRANCH   1   2
BRANCH   1  25
ATOM     25  C   UNL     1      -3.218   1.678   2.216  1.00  0.00     0.118 C 
BRANCH  25  26
ATOM     26  N   UNL     1      -3.888   0.815   3.198  1.00  0.00    -0.352 N 
ATOM     27  C   UNL     1      -4.383   1.065   4.456  1.00  0.00     0.251 C 
ATOM     28  H   UNL     1      -4.005  -0.115   2.899  1.00  0.00     0.163 HD
ATOM     29  O   UNL     1      -4.659   0.153   5.220  1.00  0.00    -0.269 OA
BRANCH  27  30
ATOM     30  C   UNL     1      -4.633   2.455   4.854  1.00  0.00     0.039 A 
ATOM     31  C   UNL     1      -4.297   2.910   6.131  1.00  0.00     0.014 A 
ATOM     32  C   UNL     1      -5.255   3.295   3.934  1.00  0.00     0.014 A 
ATOM     33  C   UNL     1      -4.506   4.252   6.448  1.00  0.00     0.010 A 
ATOM     34  C   UNL     1      -5.352   4.642   4.204  1.00  0.00     0.010 A 
ATOM     35  C   UNL     1      -4.992   5.131   5.468  1.00  0.00    -0.014 A 
BRANCH  35  36
ATOM     36  C   UNL     1      -5.177   6.578   5.697  1.00  0.00     0.031 A 
ATOM     37  C   UNL     1      -6.548   7.167   5.514  1.00  0.00     0.074 A 
ATOM     38  C   UNL     1      -4.097   7.359   5.876  1.00  0.00     0.049 A 
ATOM     39  N   UNL     1      -6.902   8.417   5.381  1.00  0.00    -0.248 NA
ATOM     40  C   UNL     1      -7.661   6.208   5.391  1.00  0.00     0.031 C 
ATOM     41  C   UNL     1      -2.715   6.886   5.995  1.00  0.00     0.029 A 
ATOM     42  N   UNL     1      -3.989   8.722   5.950  1.00  0.00    -0.354 N 
ATOM     43  C   UNL     1      -8.264   8.390   5.109  1.00  0.00     0.074 A 
ATOM     44  C   UNL     1      -8.660   7.002   5.039  1.00  0.00     0.031 C 
ATOM     45  C   UNL     1      -1.900   7.942   6.142  1.00  0.00     0.029 A 
ATOM     46  C   UNL     1      -2.695   9.163   6.080  1.00  0.00     0.049 A 
ATOM     47  H   UNL     1      -4.765   9.327   5.915  1.00  0.00     0.167 HD
ATOM     48  C   UNL     1      -9.108   9.435   4.953  1.00  0.00     0.037 A 
ATOM     49  C   UNL     1      -2.212  10.417   6.127  1.00  0.00     0.037 A 
ATOM     50  C   UNL     1      -8.698  10.807   5.087  1.00  0.00     0.049 A 
ATOM     51  C   UNL     1      -3.180  11.562   6.024  1.00  0.00     0.074 A 
ATOM     52  C   UNL     1      -9.472  11.951   5.037  1.00  0.00     0.029 A 
ATOM     53  N   UNL     1      -7.391  11.213   5.316  1.00  0.00    -0.354 N 
ATOM     54  N   UNL     1      -4.476  11.530   5.821  1.00  0.00    -0.248 NA
ATOM     55  C   UNL     1      -2.623  12.913   6.162  1.00  0.00     0.031 C 
ATOM     56  C   UNL     1      -8.628  13.053   5.213  1.00  0.00     0.029 A 
ATOM     57  C   UNL     1      -7.335  12.592   5.410  1.00  0.00     0.049 A 
ATOM     58  H   UNL     1      -6.617  10.609   5.400  1.00  0.00     0.167 HD
ATOM     59  C   UNL     1      -4.896  12.852   5.837  1.00  0.00     0.074 A 
ATOM     60  C   UNL     1      -3.716  13.660   6.079  1.00  0.00     0.031 C 
ATOM     61  C   UNL     1      -6.142  13.358   5.668  1.00  0.00     0.037 A 
BRANCH  48  62
ATOM     62  C   UNL     1     -10.545   9.128   4.641  1.00  0.00     0.057 A 
ATOM     63  C   UNL     1     -11.390   8.513   5.575  1.00  0.00     0.134 A 
ATOM     64  C   UNL     1     -11.094   9.453   3.394  1.00  0.00     0.134 A 
ATOM     65  F   UNL     1     -10.925   8.161   6.784  1.00  0.00    -0.206 F 
ATOM     66  C   UNL     1     -12.716   8.200   5.269  1.00  0.00     0.040 A 
ATOM     67  C   UNL     1     -12.427   9.173   3.087  1.00  0.00     0.040 A 
ATOM     68  F   UNL     1     -10.344  10.046   2.453  1.00  0.00    -0.206 F 
ATOM     69  C   UNL     1     -13.239   8.536   4.023  1.00  0.00     0.006 A 
ENDBRANCH  48  62
BRANCH  49  70
ATOM     70  C   UNL     1      -0.760  10.646   6.330  1.00  0.00     0.057 A 
ATOM     71  C   UNL     1      -0.278  11.121   7.554  1.00  0.00     0.134 A 
ATOM     72  C   UNL     1       0.179  10.374   5.328  1.00  0.00     0.134 A 
ATOM     73  F   UNL     1      -1.131  11.408   8.549  1.00  0.00    -0.206 F 
ATOM     74  C   UNL     1       1.083  11.336   7.772  1.00  0.00     0.040 A 
ATOM     75  C   UNL     1       1.547  10.563   5.540  1.00  0.00     0.040 A 
ATOM     76  F   UNL     1      -0.216   9.899   4.138  1.00  0.00    -0.206 F 
ATOM     77  C   UNL     1       2.001  11.052   6.763  1.00  0.00     0.006 A 
ENDBRANCH  49  70
BRANCH  61  78
ATOM     78  C   UNL     1      -6.292  14.844   5.782  1.00  0.00     0.057 A 
ATOM     79  C   UNL     1      -5.869  15.707   4.766  1.00  0.00     0.134 A 
ATOM     80  C   UNL     1      -6.917  15.408   6.901  1.00  0.00     0.134 A 
ATOM     81  F   UNL     1      -5.252  15.225   3.676  1.00  0.00    -0.206 F 
ATOM     82  C   UNL     1      -6.046  17.087   4.866  1.00  0.00     0.040 A 
ATOM     83  C   UNL     1      -7.122  16.783   7.001  1.00  0.00     0.040 A 
ATOM     84  F   UNL     1      -7.352  14.630   7.903  1.00  0.00    -0.206 F 
ATOM     85  C   UNL     1      -6.682  17.627   5.983  1.00  0.00     0.006 A 
ENDBRANCH  61  78
ENDBRANCH  35  36
ENDBRANCH  27  30
ENDBRANCH  25  26
ENDBRANCH   1  25
TORSDOF 12
