REMARK SMILES COc1cc(/C=N/c2cccc(F)c2)ccc1OCc1cccc(C(=O)NCCCNC(=O)c2ccc(-c3c4nc(c(-c5c(F)cccc5F)c5ccc([nH]5)c(-c5c(F)cccc5F)c5nc(c(-c6c(F)cccc6F)c6ccc3[nH]6)C=C5)C=C4)cc2)c1
REMARK SMILES IDX 25 1 26 2 27 3 24 5 20 6 21 7 88 8 22 9 23 10 19 11 18 12
REMARK SMILES IDX 17 13 3 14 4 15 5 16 16 17 15 18 2 19 1 20 6 21 7 22 8 23
REMARK SMILES IDX 9 24 14 25 10 26 12 27 11 28 13 29 28 30 29 31 30 32 31 33
REMARK SMILES IDX 32 34 33 36 34 37 35 38 87 39 36 40 86 41 37 42 38 43 39 44
REMARK SMILES IDX 80 45 40 46 85 47 79 48 81 49 41 50 84 51 78 52 77 53 42 55
REMARK SMILES IDX 68 56 51 57 67 58 52 59 55 60 66 61 82 62 53 63 54 64 65 66
REMARK SMILES IDX 83 67 56 68 43 69 44 70 49 71 45 72 46 73 48 74 50 75 47 76
REMARK SMILES IDX 69 77 70 78 75 79 71 80 72 81 74 82 76 83 73 84 57 85 58 86
REMARK SMILES IDX 63 87 59 88 60 89 62 90 64 91 61 92
REMARK H PARENT 27 4 31 35 81 54 55 65
REMARK Flexibility Score: inf
ROOT
ATOM      1  C   UNL     1       0.367  -3.296   2.763  1.00  0.00     0.251 C 
ATOM      2  O   UNL     1      -0.367  -3.662   3.683  1.00  0.00    -0.269 OA
ATOM      3  N   UNL     1       0.798  -4.269   1.899  1.00  0.00    -0.352 N 
ATOM      4  H   UNL     1       0.499  -5.173   2.149  1.00  0.00     0.163 HD
ENDROOT
BRANCH   1   5
ATOM      5  C   UNL     1       0.709  -1.847   2.647  1.00  0.00     0.040 A 
ATOM      6  C   UNL     1       2.037   0.053   1.838  1.00  0.00    -0.010 A 
ATOM      7  C   UNL     1       1.246   0.913   2.605  1.00  0.00     0.007 A 
ATOM      8  C   UNL     1       1.782  -1.329   1.917  1.00  0.00     0.021 A 
ATOM      9  C   UNL     1       0.174   0.420   3.346  1.00  0.00     0.001 A 
ATOM     10  C   UNL     1      -0.099  -0.948   3.357  1.00  0.00     0.014 A 
BRANCH   6  11
ATOM     11  C   UNL     1       3.134   0.503   0.881  1.00  0.00     0.265 C 
BRANCH  11  12
ATOM     12  O   UNL     1       3.413   1.897   0.769  1.00  0.00    -0.485 OA
BRANCH  12  13
ATOM     13  C   UNL     1       2.435   2.759   0.354  1.00  0.00     0.161 A 
ATOM     14  C   UNL     1       1.282   2.471  -0.395  1.00  0.00     0.161 A 
ATOM     15  C   UNL     1       0.313   3.468  -0.579  1.00  0.00     0.060 A 
ATOM     16  C   UNL     1       0.501   4.736  -0.013  1.00  0.00    -0.003 A 
ATOM     17  C   UNL     1       2.635   4.051   0.855  1.00  0.00     0.051 A 
ATOM     18  C   UNL     1       1.669   5.035   0.687  1.00  0.00     0.014 A 
BRANCH  14  19
ATOM     19  O   UNL     1       1.168   1.246  -0.996  1.00  0.00    -0.493 OA
ATOM     20  C   UNL     1      -0.106   0.622  -0.844  1.00  0.00     0.278 C 
ENDBRANCH  14  19
BRANCH  16  21
ATOM     21  C   UNL     1      -0.488   5.816  -0.172  1.00  0.00     0.120 C 
ATOM     22  N   UNL     1      -1.592   5.667  -0.834  1.00  0.00    -0.256 NA
BRANCH  22  23
ATOM     23  C   UNL     1      -2.372   6.825  -1.000  1.00  0.00     0.066 A 
ATOM     24  C   UNL     1      -3.689   6.857  -0.531  1.00  0.00     0.028 A 
ATOM     25  C   UNL     1      -1.872   7.932  -1.693  1.00  0.00     0.067 A 
ATOM     26  C   UNL     1      -4.493   7.983  -0.741  1.00  0.00     0.005 A 
ATOM     27  C   UNL     1      -2.673   9.048  -1.892  1.00  0.00     0.125 A 
ATOM     28  C   UNL     1      -3.981   9.084  -1.425  1.00  0.00     0.039 A 
ATOM     29  F   UNL     1      -2.178  10.104  -2.552  1.00  0.00    -0.207 F 
ENDBRANCH  22  23
ENDBRANCH  16  21
ENDBRANCH  12  13
ENDBRANCH  11  12
ENDBRANCH   6  11
ENDBRANCH   1   5
BRANCH   3  30
ATOM     30  C   UNL     1       1.603  -4.243   0.693  1.00  0.00     0.118 C 
BRANCH  30  31
ATOM     31  C   UNL     1       3.080  -4.492   0.996  1.00  0.00     0.042 C 
BRANCH  31  32
ATOM     32  C   UNL     1       3.384  -5.927   1.412  1.00  0.00     0.118 C 
BRANCH  32  33
ATOM     33  N   UNL     1       3.202  -6.864   0.313  1.00  0.00    -0.352 N 
ATOM     34  C   UNL     1       4.105  -7.683  -0.309  1.00  0.00     0.251 C 
ATOM     35  H   UNL     1       2.284  -6.917  -0.039  1.00  0.00     0.163 HD
ATOM     36  O   UNL     1       3.794  -8.223  -1.374  1.00  0.00    -0.269 OA
BRANCH  34  37
ATOM     37  C   UNL     1       5.444  -7.926   0.267  1.00  0.00     0.039 A 
ATOM     38  C   UNL     1       6.539  -8.034  -0.596  1.00  0.00     0.014 A 
ATOM     39  C   UNL     1       5.622  -8.107   1.642  1.00  0.00     0.014 A 
ATOM     40  C   UNL     1       7.814  -8.277  -0.080  1.00  0.00     0.010 A 
ATOM     41  C   UNL     1       6.904  -8.273   2.162  1.00  0.00     0.010 A 
ATOM     42  C   UNL     1       8.010  -8.372   1.306  1.00  0.00    -0.014 A 
BRANCH  42  43
ATOM     43  C   UNL     1       9.364  -8.583   1.878  1.00  0.00     0.031 A 
ATOM     44  C   UNL     1       9.676  -9.838   2.645  1.00  0.00     0.074 A 
ATOM     45  C   UNL     1      10.289  -7.610   1.771  1.00  0.00     0.049 A 
ATOM     46  N   UNL     1      10.772 -10.168   3.281  1.00  0.00    -0.248 NA
ATOM     47  C   UNL     1       8.604 -10.841   2.736  1.00  0.00     0.031 C 
ATOM     48  C   UNL     1      10.087  -6.323   1.104  1.00  0.00     0.029 A 
ATOM     49  N   UNL     1      11.577  -7.546   2.238  1.00  0.00    -0.354 N 
ATOM     50  C   UNL     1      10.513 -11.402   3.865  1.00  0.00     0.074 A 
ATOM     51  C   UNL     1       9.142 -11.739   3.548  1.00  0.00     0.031 C 
ATOM     52  C   UNL     1      11.214  -5.600   1.197  1.00  0.00     0.029 A 
ATOM     53  C   UNL     1      12.204  -6.357   1.956  1.00  0.00     0.049 A 
ATOM     54  H   UNL     1      12.010  -8.281   2.729  1.00  0.00     0.167 HD
ATOM     55  C   UNL     1      11.347 -12.191   4.583  1.00  0.00     0.037 A 
ATOM     56  C   UNL     1      13.436  -5.922   2.281  1.00  0.00     0.037 A 
ATOM     57  C   UNL     1      12.720 -11.865   4.870  1.00  0.00     0.049 A 
ATOM     58  C   UNL     1      14.354  -6.824   3.055  1.00  0.00     0.074 A 
ATOM     59  C   UNL     1      13.672 -12.633   5.517  1.00  0.00     0.029 A 
ATOM     60  N   UNL     1      13.334 -10.668   4.531  1.00  0.00    -0.354 N 
ATOM     61  N   UNL     1      14.124  -8.024   3.530  1.00  0.00    -0.248 NA
ATOM     62  C   UNL     1      15.706  -6.317   3.329  1.00  0.00     0.031 C 
ATOM     63  C   UNL     1      14.850 -11.882   5.609  1.00  0.00     0.029 A 
ATOM     64  C   UNL     1      14.645 -10.666   4.977  1.00  0.00     0.049 A 
ATOM     65  H   UNL     1      12.901  -9.930   4.044  1.00  0.00     0.167 HD
ATOM     66  C   UNL     1      15.304  -8.424   4.143  1.00  0.00     0.074 A 
ATOM     67  C   UNL     1      16.254  -7.345   3.963  1.00  0.00     0.031 C 
ATOM     68  C   UNL     1      15.577  -9.581   4.794  1.00  0.00     0.037 A 
BRANCH  55  69
ATOM     69  C   UNL     1      10.792 -13.483   5.112  1.00  0.00     0.057 A 
ATOM     70  C   UNL     1      10.464 -14.551   4.266  1.00  0.00     0.134 A 
ATOM     71  C   UNL     1      10.596 -13.667   6.486  1.00  0.00     0.134 A 
ATOM     72  F   UNL     1      10.616 -14.438   2.938  1.00  0.00    -0.206 F 
ATOM     73  C   UNL     1       9.928 -15.741   4.763  1.00  0.00     0.040 A 
ATOM     74  C   UNL     1      10.088 -14.863   6.999  1.00  0.00     0.040 A 
ATOM     75  F   UNL     1      10.896 -12.689   7.355  1.00  0.00    -0.206 F 
ATOM     76  C   UNL     1       9.744 -15.900   6.135  1.00  0.00     0.006 A 
ENDBRANCH  55  69
BRANCH  56  77
ATOM     77  C   UNL     1      13.871  -4.569   1.854  1.00  0.00     0.057 A 
ATOM     78  C   UNL     1      14.817  -4.401   0.836  1.00  0.00     0.134 A 
ATOM     79  C   UNL     1      13.335  -3.414   2.435  1.00  0.00     0.134 A 
ATOM     80  F   UNL     1      15.377  -5.471   0.253  1.00  0.00    -0.206 F 
ATOM     81  C   UNL     1      15.223  -3.133   0.419  1.00  0.00     0.040 A 
ATOM     82  C   UNL     1      13.715  -2.139   2.012  1.00  0.00     0.040 A 
ATOM     83  F   UNL     1      12.417  -3.508   3.408  1.00  0.00    -0.206 F 
ATOM     84  C   UNL     1      14.666  -1.997   1.003  1.00  0.00     0.006 A 
ENDBRANCH  56  77
BRANCH  68  85
ATOM     85  C   UNL     1      16.963  -9.747   5.344  1.00  0.00     0.057 A 
ATOM     86  C   UNL     1      17.399  -9.040   6.471  1.00  0.00     0.134 A 
ATOM     87  C   UNL     1      17.858 -10.652   4.759  1.00  0.00     0.134 A 
ATOM     88  F   UNL     1      16.594  -8.149   7.069  1.00  0.00    -0.206 F 
ATOM     89  C   UNL     1      18.685  -9.213   6.986  1.00  0.00     0.040 A 
ATOM     90  C   UNL     1      19.137 -10.852   5.280  1.00  0.00     0.040 A 
ATOM     91  F   UNL     1      17.500 -11.366   3.682  1.00  0.00    -0.206 F 
ATOM     92  C   UNL     1      19.555 -10.127   6.394  1.00  0.00     0.006 A 
ENDBRANCH  68  85
ENDBRANCH  42  43
ENDBRANCH  34  37
ENDBRANCH  32  33
ENDBRANCH  31  32
ENDBRANCH  30  31
ENDBRANCH   3  30
TORSDOF 16
