REMARK SMILES O=C(CC1(C[S@](=O)C[C@H]2Cc3ccccc3S2)CC1)NCCCNC(=O)c1ccc(-c2c3nc(c(-c4c(F)cccc4F)c4ccc([nH]4)c(-c4c(F)cccc4F)c4nc(c(-c5c(F)cccc5F)c5ccc2[nH]5)C=C4)C=C3)cc1
REMARK SMILES IDX 1 1 2 2 20 3 3 5 4 6 18 7 19 8 5 9 6 10 7 11 8 12 9 13 10 14
REMARK SMILES IDX 17 15 11 16 16 17 12 18 15 19 13 20 14 21 21 22 22 23 23 24
REMARK SMILES IDX 24 25 25 26 26 28 27 29 28 30 80 31 29 32 79 33 30 34 31 35
REMARK SMILES IDX 32 36 73 37 33 38 78 39 72 40 74 41 34 42 77 43 71 44 70 45
REMARK SMILES IDX 35 47 61 48 44 49 60 50 45 51 48 52 59 53 75 54 46 55 47 56
REMARK SMILES IDX 58 58 76 59 49 60 36 61 37 62 42 63 38 64 39 65 41 66 43 67
REMARK SMILES IDX 40 68 62 69 63 70 68 71 64 72 65 73 67 74 69 75 66 76 50 77
REMARK SMILES IDX 51 78 56 79 52 80 53 81 55 82 57 83 54 84
REMARK H PARENT 20 4 24 27 74 46 48 57
REMARK Flexibility Score: inf
ROOT
ATOM      1  O   UNL     1       3.175  -0.003   4.208  1.00  0.00    -0.275 OA
ATOM      2  C   UNL     1       3.332  -1.026   3.544  1.00  0.00     0.220 C 
ATOM      3  N   UNL     1       2.299  -1.649   2.885  1.00  0.00    -0.356 N 
ATOM      4  H   UNL     1       2.501  -2.418   2.305  1.00  0.00     0.163 HD
ENDROOT
BRANCH   2   5
ATOM      5  C   UNL     1       4.694  -1.699   3.464  1.00  0.00     0.108 C 
BRANCH   5   6
ATOM      6  C   UNL     1       4.947  -2.657   2.313  1.00  0.00    -0.009 C 
ATOM      7  C   UNL     1       5.909  -3.796   2.642  1.00  0.00     0.009 C 
ATOM      8  C   UNL     1       4.452  -4.089   2.500  1.00  0.00     0.009 C 
BRANCH   6   9
ATOM      9  C   UNL     1       5.105  -2.118   0.897  1.00  0.00     0.112 C 
BRANCH   9  10
ATOM     10  S   UNL     1       4.357  -0.605   0.294  1.00  0.00     0.023 S 
ATOM     11  O   UNL     1       4.707  -0.436  -1.154  1.00  0.00    -0.260 OA
BRANCH  10  12
ATOM     12  C   UNL     1       5.137   0.720   1.229  1.00  0.00     0.120 C 
BRANCH  12  13
ATOM     13  C   UNL     1       6.596   1.106   0.969  1.00  0.00     0.068 C 
ATOM     14  C   UNL     1       7.024   2.176   2.015  1.00  0.00     0.052 C 
ATOM     15  S   UNL     1       7.845  -0.221   1.147  1.00  0.00    -0.121 SA
ATOM     16  C   UNL     1       7.711   1.463   3.151  1.00  0.00    -0.033 A 
ATOM     17  C   UNL     1       8.199   0.201   2.819  1.00  0.00     0.011 A 
ATOM     18  C   UNL     1       7.947   1.984   4.418  1.00  0.00     0.005 A 
ATOM     19  C   UNL     1       8.886  -0.579   3.737  1.00  0.00     0.015 A 
ATOM     20  C   UNL     1       8.650   1.213   5.350  1.00  0.00     0.000 A 
ATOM     21  C   UNL     1       9.111  -0.066   5.014  1.00  0.00     0.001 A 
ENDBRANCH  12  13
ENDBRANCH  10  12
ENDBRANCH   9  10
ENDBRANCH   6   9
ENDBRANCH   5   6
ENDBRANCH   2   5
BRANCH   3  22
ATOM     22  C   UNL     1       0.921  -1.215   3.016  1.00  0.00     0.117 C 
BRANCH  22  23
ATOM     23  C   UNL     1       0.416  -0.427   1.813  1.00  0.00     0.042 C 
BRANCH  23  24
ATOM     24  C   UNL     1       0.370  -1.212   0.504  1.00  0.00     0.118 C 
BRANCH  24  25
ATOM     25  N   UNL     1      -0.478  -2.396   0.562  1.00  0.00    -0.352 N 
ATOM     26  C   UNL     1      -1.654  -2.719  -0.068  1.00  0.00     0.251 C 
ATOM     27  H   UNL     1      -0.144  -3.096   1.167  1.00  0.00     0.163 HD
ATOM     28  O   UNL     1      -2.237  -3.750   0.265  1.00  0.00    -0.269 OA
BRANCH  26  29
ATOM     29  C   UNL     1      -2.257  -1.848  -1.104  1.00  0.00     0.039 A 
ATOM     30  C   UNL     1      -1.486  -1.188  -2.060  1.00  0.00     0.014 A 
ATOM     31  C   UNL     1      -3.651  -1.723  -1.143  1.00  0.00     0.014 A 
ATOM     32  C   UNL     1      -2.082  -0.270  -2.924  1.00  0.00     0.010 A 
ATOM     33  C   UNL     1      -4.259  -0.871  -2.072  1.00  0.00     0.010 A 
ATOM     34  C   UNL     1      -3.475  -0.091  -2.934  1.00  0.00    -0.014 A 
BRANCH  34  35
ATOM     35  C   UNL     1      -4.084   0.932  -3.828  1.00  0.00     0.031 A 
ATOM     36  C   UNL     1      -4.806   2.123  -3.249  1.00  0.00     0.074 A 
ATOM     37  C   UNL     1      -3.949   0.822  -5.163  1.00  0.00     0.049 A 
ATOM     38  N   UNL     1      -5.374   3.129  -3.868  1.00  0.00    -0.248 NA
ATOM     39  C   UNL     1      -4.910   2.190  -1.783  1.00  0.00     0.031 C 
ATOM     40  C   UNL     1      -3.273  -0.277  -5.856  1.00  0.00     0.029 A 
ATOM     41  N   UNL     1      -4.354   1.654  -6.177  1.00  0.00    -0.354 N 
ATOM     42  C   UNL     1      -5.908   3.939  -2.873  1.00  0.00     0.074 A 
ATOM     43  C   UNL     1      -5.636   3.285  -1.611  1.00  0.00     0.031 C 
ATOM     44  C   UNL     1      -3.270  -0.028  -7.175  1.00  0.00     0.029 A 
ATOM     45  C   UNL     1      -3.989   1.216  -7.427  1.00  0.00     0.049 A 
ATOM     46  H   UNL     1      -4.859   2.485  -6.023  1.00  0.00     0.167 HD
ATOM     47  C   UNL     1      -6.549   5.127  -2.993  1.00  0.00     0.037 A 
ATOM     48  C   UNL     1      -4.217   1.750  -8.641  1.00  0.00     0.037 A 
ATOM     49  C   UNL     1      -6.813   5.788  -4.245  1.00  0.00     0.049 A 
ATOM     50  C   UNL     1      -4.982   3.039  -8.749  1.00  0.00     0.074 A 
ATOM     51  C   UNL     1      -7.435   7.005  -4.465  1.00  0.00     0.029 A 
ATOM     52  N   UNL     1      -6.473   5.284  -5.491  1.00  0.00    -0.354 N 
ATOM     53  N   UNL     1      -5.454   3.806  -7.796  1.00  0.00    -0.248 NA
ATOM     54  C   UNL     1      -5.250   3.534 -10.107  1.00  0.00     0.031 C 
ATOM     55  C   UNL     1      -7.512   7.216  -5.846  1.00  0.00     0.029 A 
ATOM     56  C   UNL     1      -6.894   6.154  -6.485  1.00  0.00     0.049 A 
ATOM     57  H   UNL     1      -6.002   4.434  -5.647  1.00  0.00     0.167 HD
ATOM     58  C   UNL     1      -6.054   4.882  -8.437  1.00  0.00     0.074 A 
ATOM     59  C   UNL     1      -5.868   4.679  -9.859  1.00  0.00     0.031 C 
ATOM     60  C   UNL     1      -6.704   5.941  -7.897  1.00  0.00     0.037 A 
BRANCH  47  61
ATOM     61  C   UNL     1      -7.025   5.784  -1.728  1.00  0.00     0.057 A 
ATOM     62  C   UNL     1      -8.392   5.867  -1.435  1.00  0.00     0.134 A 
ATOM     63  C   UNL     1      -6.133   6.354  -0.809  1.00  0.00     0.134 A 
ATOM     64  F   UNL     1      -9.302   5.351  -2.275  1.00  0.00    -0.206 F 
ATOM     65  C   UNL     1      -8.854   6.490  -0.274  1.00  0.00     0.040 A 
ATOM     66  C   UNL     1      -6.582   6.955   0.369  1.00  0.00     0.040 A 
ATOM     67  F   UNL     1      -4.809   6.298  -1.022  1.00  0.00    -0.206 F 
ATOM     68  C   UNL     1      -7.947   7.029   0.636  1.00  0.00     0.006 A 
ENDBRANCH  47  61
BRANCH  48  69
ATOM     69  C   UNL     1      -3.722   1.066  -9.863  1.00  0.00     0.057 A 
ATOM     70  C   UNL     1      -4.269  -0.150 -10.290  1.00  0.00     0.134 A 
ATOM     71  C   UNL     1      -2.711   1.629 -10.649  1.00  0.00     0.134 A 
ATOM     72  F   UNL     1      -5.240  -0.743  -9.579  1.00  0.00    -0.206 F 
ATOM     73  C   UNL     1      -3.825  -0.784 -11.450  1.00  0.00     0.040 A 
ATOM     74  C   UNL     1      -2.276   1.021 -11.827  1.00  0.00     0.040 A 
ATOM     75  F   UNL     1      -2.163   2.804 -10.304  1.00  0.00    -0.206 F 
ATOM     76  C   UNL     1      -2.832  -0.193 -12.228  1.00  0.00     0.006 A 
ENDBRANCH  48  69
BRANCH  60  77
ATOM     77  C   UNL     1      -7.233   6.974  -8.849  1.00  0.00     0.057 A 
ATOM     78  C   UNL     1      -6.636   8.238  -8.935  1.00  0.00     0.134 A 
ATOM     79  C   UNL     1      -8.336   6.722  -9.676  1.00  0.00     0.134 A 
ATOM     80  F   UNL     1      -5.581   8.547  -8.167  1.00  0.00    -0.206 F 
ATOM     81  C   UNL     1      -7.116   9.214  -9.810  1.00  0.00     0.040 A 
ATOM     82  C   UNL     1      -8.807   7.680 -10.575  1.00  0.00     0.040 A 
ATOM     83  F   UNL     1      -8.943   5.526  -9.654  1.00  0.00    -0.206 F 
ATOM     84  C   UNL     1      -8.199   8.932 -10.640  1.00  0.00     0.006 A 
ENDBRANCH  60  77
ENDBRANCH  34  35
ENDBRANCH  26  29
ENDBRANCH  24  25
ENDBRANCH  23  24
ENDBRANCH  22  23
ENDBRANCH   3  22
TORSDOF 15
