REMARK SMILES Cc1nonc1CSCC(=O)NCCCNC(=O)c1ccc(-c2c3nc(c(-c4c(F)cccc4F)c4ccc([nH]4)c(-c4c(F)cccc4F)c4nc(c(-c5c(F)cccc5F)c5ccc2[nH]5)C=C4)C=C3)cc1
REMARK SMILES IDX 13 1 12 2 10 3 11 4 9 6 8 7 7 8 6 9 1 10 2 11 3 12 4 13 5 14
REMARK SMILES IDX 14 15 15 16 16 17 17 18 18 20 19 21 20 22 72 23 21 24 71 25
REMARK SMILES IDX 22 26 23 27 24 28 65 29 25 30 70 31 64 32 66 33 26 34 69 35
REMARK SMILES IDX 63 36 62 37 27 39 53 40 36 41 52 42 37 43 40 44 51 45 67 46
REMARK SMILES IDX 38 47 39 48 50 50 68 51 41 52 28 53 29 54 34 55 30 56 31 57
REMARK SMILES IDX 33 58 35 59 32 60 54 61 55 62 60 63 56 64 57 65 59 66 61 67
REMARK SMILES IDX 58 68 42 69 43 70 48 71 44 72 45 73 47 74 49 75 46 76
REMARK H PARENT 12 5 16 19 66 38 40 49
REMARK Flexibility Score: inf
ROOT
ATOM      1  C   UNL     1       1.415   5.253  -3.391  1.00  0.00     0.117 C 
ENDROOT
BRANCH   1   2
ATOM      2  N   UNL     1       2.068   3.980  -3.144  1.00  0.00    -0.355 N 
ATOM      3  C   UNL     1       1.517   2.779  -2.806  1.00  0.00     0.230 C 
ATOM      4  O   UNL     1       2.277   1.858  -2.500  1.00  0.00    -0.274 OA
ATOM      5  H   UNL     1       3.049   3.984  -3.233  1.00  0.00     0.163 HD
BRANCH   3   6
ATOM      6  C   UNL     1       0.011   2.594  -2.798  1.00  0.00     0.169 C 
BRANCH   6   7
ATOM      7  S   UNL     1      -0.763   3.325  -1.322  1.00  0.00    -0.145 SA
BRANCH   7   8
ATOM      8  C   UNL     1       0.128   2.440   0.004  1.00  0.00     0.132 C 
BRANCH   8   9
ATOM      9  C   UNL     1      -0.091   0.971   0.019  1.00  0.00     0.117 A 
ATOM     10  C   UNL     1       2.329  -0.045  -0.013  1.00  0.00     0.073 C 
ATOM     11  C   UNL     1       0.852  -0.079   0.021  1.00  0.00     0.106 A 
ATOM     12  N   UNL     1       0.211  -1.249   0.079  1.00  0.00    -0.055 NA
ATOM     13  O   UNL     1      -1.138  -0.923   0.122  1.00  0.00    -0.244 OA
ATOM     14  N   UNL     1      -1.322   0.453   0.102  1.00  0.00    -0.054 NA
ENDBRANCH   8   9
ENDBRANCH   7   8
ENDBRANCH   6   7
ENDBRANCH   3   6
ENDBRANCH   1   2
BRANCH   1  15
ATOM     15  C   UNL     1       1.524   6.196  -2.192  1.00  0.00     0.042 C 
BRANCH  15  16
ATOM     16  C   UNL     1       2.949   6.623  -1.845  1.00  0.00     0.118 C 
BRANCH  16  17
ATOM     17  N   UNL     1       3.562   7.435  -2.884  1.00  0.00    -0.352 N 
ATOM     18  C   UNL     1       4.166   8.662  -2.812  1.00  0.00     0.251 C 
ATOM     19  H   UNL     1       3.538   7.038  -3.784  1.00  0.00     0.163 HD
ATOM     20  O   UNL     1       4.469   9.236  -3.861  1.00  0.00    -0.269 OA
BRANCH  18  21
ATOM     21  C   UNL     1       4.455   9.319  -1.517  1.00  0.00     0.039 A 
ATOM     22  C   UNL     1       4.306  10.708  -1.433  1.00  0.00     0.014 A 
ATOM     23  C   UNL     1       4.941   8.610  -0.414  1.00  0.00     0.014 A 
ATOM     24  C   UNL     1       4.610  11.377  -0.244  1.00  0.00     0.010 A 
ATOM     25  C   UNL     1       5.187   9.270   0.792  1.00  0.00     0.010 A 
ATOM     26  C   UNL     1       5.039  10.662   0.885  1.00  0.00    -0.014 A 
BRANCH  26  27
ATOM     27  C   UNL     1       5.355  11.370   2.152  1.00  0.00     0.031 A 
ATOM     28  C   UNL     1       6.770  11.428   2.662  1.00  0.00     0.074 A 
ATOM     29  C   UNL     1       4.365  11.943   2.862  1.00  0.00     0.049 A 
ATOM     30  N   UNL     1       7.235  11.992   3.748  1.00  0.00    -0.248 NA
ATOM     31  C   UNL     1       7.793  10.742   1.858  1.00  0.00     0.031 C 
ATOM     32  C   UNL     1       2.946  11.921   2.505  1.00  0.00     0.029 A 
ATOM     33  N   UNL     1       4.403  12.657   4.034  1.00  0.00    -0.354 N 
ATOM     34  C   UNL     1       8.596  11.718   3.766  1.00  0.00     0.074 A 
ATOM     35  C   UNL     1       8.876  10.901   2.604  1.00  0.00     0.031 C 
ATOM     36  C   UNL     1       2.252  12.612   3.424  1.00  0.00     0.029 A 
ATOM     37  C   UNL     1       3.172  13.107   4.444  1.00  0.00     0.049 A 
ATOM     38  H   UNL     1       5.234  12.830   4.533  1.00  0.00     0.167 HD
ATOM     39  C   UNL     1       9.534  12.125   4.656  1.00  0.00     0.037 A 
ATOM     40  C   UNL     1       2.825  13.844   5.515  1.00  0.00     0.037 A 
ATOM     41  C   UNL     1       9.267  12.964   5.794  1.00  0.00     0.049 A 
ATOM     42  C   UNL     1       3.889  14.318   6.464  1.00  0.00     0.074 A 
ATOM     43  C   UNL     1      10.160  13.467   6.726  1.00  0.00     0.029 A 
ATOM     44  N   UNL     1       8.013  13.432   6.152  1.00  0.00    -0.354 N 
ATOM     45  N   UNL     1       5.180  14.097   6.436  1.00  0.00    -0.248 NA
ATOM     46  C   UNL     1       3.447  15.159   7.586  1.00  0.00     0.031 C 
ATOM     47  C   UNL     1       9.442  14.221   7.661  1.00  0.00     0.029 A 
ATOM     48  C   UNL     1       8.107  14.213   7.293  1.00  0.00     0.049 A 
ATOM     49  H   UNL     1       7.178  13.237   5.668  1.00  0.00     0.167 HD
ATOM     50  C   UNL     1       5.708  14.790   7.517  1.00  0.00     0.074 A 
ATOM     51  C   UNL     1       4.598  15.450   8.174  1.00  0.00     0.031 C 
ATOM     52  C   UNL     1       6.996  14.873   7.929  1.00  0.00     0.037 A 
BRANCH  39  53
ATOM     53  C   UNL     1      10.944  11.669   4.424  1.00  0.00     0.057 A 
ATOM     54  C   UNL     1      11.728  12.200   3.392  1.00  0.00     0.134 A 
ATOM     55  C   UNL     1      11.533  10.710   5.257  1.00  0.00     0.134 A 
ATOM     56  F   UNL     1      11.218  13.112   2.551  1.00  0.00    -0.206 F 
ATOM     57  C   UNL     1      13.041  11.775   3.180  1.00  0.00     0.040 A 
ATOM     58  C   UNL     1      12.852  10.293   5.070  1.00  0.00     0.040 A 
ATOM     59  F   UNL     1      10.838  10.166   6.267  1.00  0.00    -0.206 F 
ATOM     60  C   UNL     1      13.608  10.822   4.025  1.00  0.00     0.006 A 
ENDBRANCH  39  53
BRANCH  40  61
ATOM     61  C   UNL     1       1.407  14.221   5.725  1.00  0.00     0.057 A 
ATOM     62  C   UNL     1       0.971  15.532   5.501  1.00  0.00     0.134 A 
ATOM     63  C   UNL     1       0.459  13.287   6.157  1.00  0.00     0.134 A 
ATOM     64  F   UNL     1       1.839  16.473   5.104  1.00  0.00    -0.206 F 
ATOM     65  C   UNL     1      -0.356  15.907   5.717  1.00  0.00     0.040 A 
ATOM     66  C   UNL     1      -0.875  13.643   6.358  1.00  0.00     0.040 A 
ATOM     67  F   UNL     1       0.816  12.014   6.382  1.00  0.00    -0.206 F 
ATOM     68  C   UNL     1      -1.284  14.959   6.143  1.00  0.00     0.006 A 
ENDBRANCH  40  61
BRANCH  52  69
ATOM     69  C   UNL     1       7.276  15.735   9.122  1.00  0.00     0.057 A 
ATOM     70  C   UNL     1       6.939  15.332  10.420  1.00  0.00     0.134 A 
ATOM     71  C   UNL     1       7.903  16.978   8.971  1.00  0.00     0.134 A 
ATOM     72  F   UNL     1       6.324  14.158  10.629  1.00  0.00    -0.206 F 
ATOM     73  C   UNL     1       7.194  16.146  11.524  1.00  0.00     0.040 A 
ATOM     74  C   UNL     1       8.183  17.791  10.069  1.00  0.00     0.040 A 
ATOM     75  F   UNL     1       8.256  17.419   7.754  1.00  0.00    -0.206 F 
ATOM     76  C   UNL     1       7.822  17.378  11.351  1.00  0.00     0.006 A 
ENDBRANCH  52  69
ENDBRANCH  26  27
ENDBRANCH  18  21
ENDBRANCH  16  17
ENDBRANCH  15  16
ENDBRANCH   1  15
TORSDOF 13
