REMARK SMILES O=C(NCCCNC(=O)c1ccc(Br)c(NC(=S)NC(=O)c2cccs2)c1)c1ccc(-c2c3nc(c(-c4c(F)cccc4F)c4ccc([nH]4)c(-c4c(F)cccc4F)c4nc(c(-c5c(F)cccc5F)c5ccc2[nH]5)C=C4)C=C3)cc1
REMARK SMILES IDX 6 1 5 2 4 3 3 4 1 5 2 6 28 8 29 9 81 10 30 11 80 12 31 13
REMARK SMILES IDX 32 14 33 15 74 16 34 17 79 18 73 19 75 20 35 21 78 22 72 23
REMARK SMILES IDX 71 24 36 26 62 27 45 28 61 29 46 30 49 31 60 32 76 33 47 34
REMARK SMILES IDX 48 35 59 37 77 38 50 39 37 40 38 41 43 42 39 43 40 44 42 45
REMARK SMILES IDX 44 46 41 47 63 48 64 49 69 50 65 51 66 52 68 53 70 54 67 55
REMARK SMILES IDX 51 56 52 57 57 58 53 59 54 60 56 61 58 62 55 63 7 64 8 65
REMARK SMILES IDX 9 67 10 68 11 69 27 70 12 71 15 72 13 73 14 74 16 75 17 77
REMARK SMILES IDX 18 78 19 79 20 80 21 82 22 83 23 84 26 85 24 86 25 87
REMARK H PARENT 3 7 75 25 49 36 7 66 16 76 19 81
REMARK Flexibility Score: inf
ROOT
ATOM      1  C   UNL     1       4.329   3.264   1.274  1.00  0.00     0.118 C 
ENDROOT
BRANCH   1   2
ATOM      2  C   UNL     1       4.975   2.167   0.451  1.00  0.00     0.042 C 
BRANCH   2   3
ATOM      3  C   UNL     1       4.561   0.773   0.879  1.00  0.00     0.118 C 
BRANCH   3   4
ATOM      4  N   UNL     1       3.116   0.576   0.823  1.00  0.00    -0.352 N 
ATOM      5  O   UNL     1       1.156  -0.046  -0.115  1.00  0.00    -0.269 OA
ATOM      6  C   UNL     1       2.375  -0.160  -0.068  1.00  0.00     0.251 C 
ATOM      7  H   UNL     1       2.600   1.037   1.523  1.00  0.00     0.163 HD
BRANCH   6   8
ATOM      8  C   UNL     1       3.078  -1.082  -0.977  1.00  0.00     0.039 A 
ATOM      9  C   UNL     1       4.111  -1.876  -0.477  1.00  0.00     0.014 A 
ATOM     10  C   UNL     1       2.724  -1.141  -2.325  1.00  0.00     0.014 A 
ATOM     11  C   UNL     1       4.906  -2.596  -1.348  1.00  0.00     0.010 A 
ATOM     12  C   UNL     1       3.434  -1.986  -3.179  1.00  0.00     0.010 A 
ATOM     13  C   UNL     1       4.532  -2.715  -2.694  1.00  0.00    -0.014 A 
BRANCH  13  14
ATOM     14  C   UNL     1       5.197  -3.752  -3.513  1.00  0.00     0.031 A 
ATOM     15  C   UNL     1       5.977  -3.408  -4.744  1.00  0.00     0.074 A 
ATOM     16  C   UNL     1       5.069  -5.033  -3.110  1.00  0.00     0.049 A 
ATOM     17  N   UNL     1       6.573  -4.218  -5.581  1.00  0.00    -0.248 NA
ATOM     18  C   UNL     1       6.106  -1.984  -5.088  1.00  0.00     0.031 C 
ATOM     19  C   UNL     1       4.324  -5.474  -1.923  1.00  0.00     0.029 A 
ATOM     20  N   UNL     1       5.556  -6.199  -3.639  1.00  0.00    -0.354 N 
ATOM     21  C   UNL     1       7.125  -3.409  -6.564  1.00  0.00     0.074 A 
ATOM     22  C   UNL     1       6.788  -2.043  -6.226  1.00  0.00     0.031 C 
ATOM     23  C   UNL     1       4.434  -6.801  -1.797  1.00  0.00     0.029 A 
ATOM     24  C   UNL     1       5.164  -7.317  -2.944  1.00  0.00     0.049 A 
ATOM     25  H   UNL     1       6.130  -6.232  -4.438  1.00  0.00     0.167 HD
ATOM     26  C   UNL     1       7.841  -3.789  -7.648  1.00  0.00     0.037 A 
ATOM     27  C   UNL     1       5.320  -8.622  -3.225  1.00  0.00     0.037 A 
ATOM     28  C   UNL     1       8.171  -5.157  -7.961  1.00  0.00     0.049 A 
ATOM     29  C   UNL     1       6.064  -8.999  -4.472  1.00  0.00     0.074 A 
ATOM     30  C   UNL     1       8.943  -5.633  -9.006  1.00  0.00     0.029 A 
ATOM     31  N   UNL     1       7.731  -6.264  -7.252  1.00  0.00    -0.354 N 
ATOM     32  N   UNL     1       6.649  -8.222  -5.351  1.00  0.00    -0.248 NA
ATOM     33  C   UNL     1       6.165 -10.432  -4.774  1.00  0.00     0.031 C 
ATOM     34  C   UNL     1       8.894  -7.028  -8.984  1.00  0.00     0.029 A 
ATOM     35  C   UNL     1       8.165  -7.423  -7.875  1.00  0.00     0.049 A 
ATOM     36  H   UNL     1       7.190  -6.232  -6.429  1.00  0.00     0.167 HD
ATOM     37  C   UNL     1       7.203  -9.072  -6.297  1.00  0.00     0.074 A 
ATOM     38  C   UNL     1       6.917 -10.423  -5.864  1.00  0.00     0.031 C 
ATOM     39  C   UNL     1       7.877  -8.762  -7.429  1.00  0.00     0.037 A 
BRANCH  26  40
ATOM     40  C   UNL     1       8.295  -2.733  -8.613  1.00  0.00     0.057 A 
ATOM     41  C   UNL     1       9.320  -1.831  -8.308  1.00  0.00     0.134 A 
ATOM     42  C   UNL     1       7.773  -2.703  -9.915  1.00  0.00     0.134 A 
ATOM     43  F   UNL     1       9.861  -1.804  -7.081  1.00  0.00    -0.206 F 
ATOM     44  C   UNL     1       9.810  -0.936  -9.262  1.00  0.00     0.040 A 
ATOM     45  C   UNL     1       8.274  -1.834 -10.884  1.00  0.00     0.040 A 
ATOM     46  F   UNL     1       6.795  -3.547 -10.276  1.00  0.00    -0.206 F 
ATOM     47  C   UNL     1       9.296  -0.946 -10.558  1.00  0.00     0.006 A 
ENDBRANCH  26  40
BRANCH  27  48
ATOM     48  C   UNL     1       4.702  -9.660  -2.360  1.00  0.00     0.057 A 
ATOM     49  C   UNL     1       5.480 -10.615  -1.698  1.00  0.00     0.134 A 
ATOM     50  C   UNL     1       3.310  -9.757  -2.222  1.00  0.00     0.134 A 
ATOM     51  F   UNL     1       6.818 -10.581  -1.796  1.00  0.00    -0.206 F 
ATOM     52  C   UNL     1       4.899 -11.659  -0.979  1.00  0.00     0.040 A 
ATOM     53  C   UNL     1       2.717 -10.769  -1.467  1.00  0.00     0.040 A 
ATOM     54  F   UNL     1       2.502  -8.865  -2.815  1.00  0.00    -0.206 F 
ATOM     55  C   UNL     1       3.513 -11.737  -0.862  1.00  0.00     0.006 A 
ENDBRANCH  27  48
BRANCH  39  56
ATOM     56  C   UNL     1       8.371  -9.904  -8.268  1.00  0.00     0.057 A 
ATOM     57  C   UNL     1       7.493 -10.731  -8.980  1.00  0.00     0.134 A 
ATOM     58  C   UNL     1       9.743 -10.149  -8.404  1.00  0.00     0.134 A 
ATOM     59  F   UNL     1       6.166 -10.560  -8.883  1.00  0.00    -0.206 F 
ATOM     60  C   UNL     1       7.962 -11.775  -9.778  1.00  0.00     0.040 A 
ATOM     61  C   UNL     1      10.225 -11.165  -9.228  1.00  0.00     0.040 A 
ATOM     62  F   UNL     1      10.639  -9.388  -7.756  1.00  0.00    -0.206 F 
ATOM     63  C   UNL     1       9.332 -11.986  -9.913  1.00  0.00     0.006 A 
ENDBRANCH  39  56
ENDBRANCH  13  14
ENDBRANCH   6   8
ENDBRANCH   3   4
ENDBRANCH   2   3
ENDBRANCH   1   2
BRANCH   1  64
ATOM     64  N   UNL     1       4.543   3.076   2.697  1.00  0.00    -0.352 N 
ATOM     65  C   UNL     1       5.261   3.787   3.626  1.00  0.00     0.251 C 
ATOM     66  H   UNL     1       4.085   2.288   3.067  1.00  0.00     0.163 HD
ATOM     67  O   UNL     1       5.400   3.234   4.713  1.00  0.00    -0.269 OA
BRANCH  65  68
ATOM     68  C   UNL     1       5.812   5.207   3.232  1.00  0.00     0.041 A 
ATOM     69  C   UNL     1       4.510   6.126   2.358  1.00  0.00     0.015 A 
ATOM     70  C   UNL     1       7.597   6.226   3.361  1.00  0.00     0.041 A 
ATOM     71  C   UNL     1       4.951   7.716   1.692  1.00  0.00     0.018 A 
ATOM     72  C   UNL     1       7.925   7.659   2.615  1.00  0.00     0.055 A 
ATOM     73  C   UNL     1       6.593   8.421   1.816  1.00  0.00     0.041 A 
ATOM     74  Br  UNL     1       6.924  10.009   0.836  1.00  0.00    -0.049 Br
BRANCH  72  75
ATOM     75  N   UNL     1       9.328   7.785   2.533  1.00  0.00    -0.331 N 
ATOM     76  H   UNL     1       9.649   8.630   2.143  1.00  0.00     0.169 HD
BRANCH  75  77
ATOM     77  C   UNL     1      10.332   6.891   2.921  1.00  0.00     0.177 C 
ATOM     78  S   UNL     1      11.915   7.403   2.670  1.00  0.00    -0.040 S 
BRANCH  77  79
ATOM     79  N   UNL     1      10.195   5.579   3.536  1.00  0.00    -0.298 N 
ATOM     80  C   UNL     1       9.392   4.397   4.103  1.00  0.00     0.267 C 
ATOM     81  H   UNL     1      11.129   5.291   3.655  1.00  0.00     0.172 HD
ATOM     82  O   UNL     1      10.007   3.553   4.753  1.00  0.00    -0.268 OA
BRANCH  80  83
ATOM     83  C   UNL     1       7.887   4.302   3.810  1.00  0.00     0.092 A 
ATOM     84  C   UNL     1       7.525   4.556   2.162  1.00  0.00     0.025 A 
ATOM     85  S   UNL     1       6.703   5.638   5.282  1.00  0.00    -0.139 S 
ATOM     86  C   UNL     1       6.559   6.173   1.837  1.00  0.00     0.012 A 
ATOM     87  C   UNL     1       5.992   7.024   3.540  1.00  0.00     0.065 A 
ENDBRANCH  80  83
ENDBRANCH  77  79
ENDBRANCH  75  77
ENDBRANCH  72  75
ENDBRANCH  65  68
ENDBRANCH   1  64
TORSDOF 14
