REMARK SMILES [NH3+]CCOCC(=O)N[C@H](C(=O)NCCCNC(=O)c1ccc(-c2c3nc(c(-c4c(F)cccc4F)c4ccc([nH]4)c(-c4c(F)cccc4F)c4nc(c(-c5c(F)cccc5F)c5ccc2[nH]5)C=C4)C=C3)cc1)C1CCCCC1
REMARK SMILES IDX 10 1 11 2 12 3 9 5 8 6 6 7 7 8 5 10 4 11 3 12 2 13 1 14
REMARK SMILES IDX 73 18 74 19 78 20 75 21 77 22 76 23 13 24 14 25 15 26 16 27
REMARK SMILES IDX 17 28 18 30 19 31 20 32 72 33 21 34 71 35 22 36 23 37 24 38
REMARK SMILES IDX 65 39 25 40 70 41 64 42 66 43 26 44 69 45 63 46 62 47 27 49
REMARK SMILES IDX 53 50 36 51 52 52 37 53 40 54 51 55 67 56 38 57 39 58 50 60
REMARK SMILES IDX 68 61 41 62 28 63 29 64 34 65 30 66 31 67 33 68 35 69 32 70
REMARK SMILES IDX 54 71 55 72 60 73 56 74 57 75 59 76 61 77 58 78 42 79 43 80
REMARK SMILES IDX 48 81 44 82 45 83 47 84 49 85 46 86
REMARK H PARENT 12 4 8 9 1 15 1 16 1 17 16 29 66 48 40 59
REMARK Flexibility Score: inf
ROOT
ATOM      1  C   UNL     1       2.830   2.299  -2.530  1.00  0.00     0.242 C 
ATOM      2  O   UNL     1       2.956   1.195  -3.060  1.00  0.00    -0.273 OA
ATOM      3  N   UNL     1       2.485   2.281  -1.203  1.00  0.00    -0.354 N 
ATOM      4  H   UNL     1       2.523   1.397  -0.772  1.00  0.00     0.163 HD
ENDROOT
BRANCH   1   5
ATOM      5  C   UNL     1       2.810   3.640  -3.327  1.00  0.00     0.174 C 
BRANCH   5   6
ATOM      6  N   UNL     1       3.354   4.780  -2.573  1.00  0.00    -0.342 N 
ATOM      7  C   UNL     1       4.615   5.093  -2.173  1.00  0.00     0.246 C 
ATOM      8  O   UNL     1       4.758   6.111  -1.488  1.00  0.00    -0.272 OA
ATOM      9  H   UNL     1       2.676   5.442  -2.307  1.00  0.00     0.164 HD
BRANCH   7  10
ATOM     10  C   UNL     1       5.814   4.200  -2.510  1.00  0.00     0.260 C 
BRANCH  10  11
ATOM     11  O   UNL     1       5.999   3.005  -1.779  1.00  0.00    -0.366 OA
BRANCH  11  12
ATOM     12  C   UNL     1       5.905   3.137  -0.364  1.00  0.00     0.222 C 
BRANCH  12  13
ATOM     13  C   UNL     1       7.124   3.739   0.352  1.00  0.00     0.287 C 
BRANCH  13  14
ATOM     14  N   UNL     1       7.294   5.181   0.179  1.00  0.00    -0.356 N 
ATOM     15  H   UNL     1       8.124   5.489   0.686  1.00  0.00     0.344 HD
ATOM     16  H   UNL     1       6.474   5.666   0.543  1.00  0.00     0.344 HD
ATOM     17  H   UNL     1       7.404   5.394  -0.812  1.00  0.00     0.344 HD
ENDBRANCH  13  14
ENDBRANCH  12  13
ENDBRANCH  11  12
ENDBRANCH  10  11
ENDBRANCH   7  10
ENDBRANCH   5   6
BRANCH   5  18
ATOM     18  C   UNL     1       3.148   3.623  -4.861  1.00  0.00     0.021 C 
ATOM     19  C   UNL     1       3.585   5.017  -5.371  1.00  0.00     0.006 C 
ATOM     20  C   UNL     1       4.086   2.498  -5.346  1.00  0.00     0.006 C 
ATOM     21  C   UNL     1       3.950   5.049  -6.849  1.00  0.00     0.000 C 
ATOM     22  C   UNL     1       4.477   2.614  -6.819  1.00  0.00     0.000 C 
ATOM     23  C   UNL     1       5.000   3.997  -7.168  1.00  0.00     0.000 C 
ENDBRANCH   5  18
ENDBRANCH   1   5
BRANCH   3  24
ATOM     24  C   UNL     1       2.074   3.372  -0.340  1.00  0.00     0.117 C 
BRANCH  24  25
ATOM     25  C   UNL     1       1.517   2.917   1.003  1.00  0.00     0.042 C 
BRANCH  25  26
ATOM     26  C   UNL     1       2.441   2.044   1.846  1.00  0.00     0.118 C 
BRANCH  26  27
ATOM     27  N   UNL     1       3.654   2.705   2.300  1.00  0.00    -0.352 N 
ATOM     28  C   UNL     1       4.269   2.708   3.531  1.00  0.00     0.251 C 
ATOM     29  H   UNL     1       4.112   3.239   1.612  1.00  0.00     0.163 HD
ATOM     30  O   UNL     1       5.324   3.305   3.689  1.00  0.00    -0.269 OA
BRANCH  28  31
ATOM     31  C   UNL     1       3.605   2.067   4.681  1.00  0.00     0.039 A 
ATOM     32  C   UNL     1       3.467   2.813   5.855  1.00  0.00     0.014 A 
ATOM     33  C   UNL     1       3.044   0.796   4.577  1.00  0.00     0.014 A 
ATOM     34  C   UNL     1       2.659   2.331   6.883  1.00  0.00     0.010 A 
ATOM     35  C   UNL     1       2.162   0.363   5.557  1.00  0.00     0.010 A 
ATOM     36  C   UNL     1       1.948   1.135   6.709  1.00  0.00    -0.014 A 
BRANCH  36  37
ATOM     37  C   UNL     1       0.946   0.686   7.704  1.00  0.00     0.031 A 
ATOM     38  C   UNL     1       1.129  -0.625   8.409  1.00  0.00     0.074 A 
ATOM     39  C   UNL     1      -0.174   1.414   7.884  1.00  0.00     0.049 A 
ATOM     40  N   UNL     1       0.317  -1.246   9.225  1.00  0.00    -0.248 NA
ATOM     41  C   UNL     1       2.373  -1.359   8.123  1.00  0.00     0.031 C 
ATOM     42  C   UNL     1      -0.494   2.665   7.191  1.00  0.00     0.029 A 
ATOM     43  N   UNL     1      -1.261   1.199   8.692  1.00  0.00    -0.354 N 
ATOM     44  C   UNL     1       0.937  -2.453   9.522  1.00  0.00     0.074 A 
ATOM     45  C   UNL     1       2.163  -2.501   8.758  1.00  0.00     0.031 C 
ATOM     46  C   UNL     1      -1.683   3.116   7.620  1.00  0.00     0.029 A 
ATOM     47  C   UNL     1      -2.224   2.173   8.591  1.00  0.00     0.049 A 
ATOM     48  H   UNL     1      -1.343   0.420   9.289  1.00  0.00     0.167 HD
ATOM     49  C   UNL     1       0.528  -3.422  10.375  1.00  0.00     0.037 A 
ATOM     50  C   UNL     1      -3.413   2.289   9.212  1.00  0.00     0.037 A 
ATOM     51  C   UNL     1      -0.674  -3.340  11.160  1.00  0.00     0.049 A 
ATOM     52  C   UNL     1      -3.815   1.231  10.200  1.00  0.00     0.074 A 
ATOM     53  C   UNL     1      -1.146  -4.222  12.115  1.00  0.00     0.029 A 
ATOM     54  N   UNL     1      -1.595  -2.304  11.081  1.00  0.00    -0.354 N 
ATOM     55  N   UNL     1      -3.185   0.130  10.532  1.00  0.00    -0.248 NA
ATOM     56  C   UNL     1      -5.085   1.436  10.909  1.00  0.00     0.031 C 
ATOM     57  C   UNL     1      -2.369  -3.736  12.590  1.00  0.00     0.029 A 
ATOM     58  C   UNL     1      -2.640  -2.531  11.960  1.00  0.00     0.049 A 
ATOM     59  H   UNL     1      -1.516  -1.523  10.486  1.00  0.00     0.167 HD
ATOM     60  C   UNL     1      -3.969  -0.481  11.500  1.00  0.00     0.074 A 
ATOM     61  C   UNL     1      -5.112   0.384  11.715  1.00  0.00     0.031 C 
ATOM     62  C   UNL     1      -3.766  -1.652  12.151  1.00  0.00     0.037 A 
BRANCH  49  63
ATOM     63  C   UNL     1       1.397  -4.641  10.498  1.00  0.00     0.057 A 
ATOM     64  C   UNL     1       2.665  -4.590  11.093  1.00  0.00     0.134 A 
ATOM     65  C   UNL     1       0.962  -5.880  10.013  1.00  0.00     0.134 A 
ATOM     66  F   UNL     1       3.149  -3.430  11.564  1.00  0.00    -0.206 F 
ATOM     67  C   UNL     1       3.484  -5.718  11.168  1.00  0.00     0.040 A 
ATOM     68  C   UNL     1       1.760  -7.022  10.109  1.00  0.00     0.040 A 
ATOM     69  F   UNL     1      -0.242  -6.003   9.435  1.00  0.00    -0.206 F 
ATOM     70  C   UNL     1       3.030  -6.941  10.678  1.00  0.00     0.006 A 
ENDBRANCH  49  63
BRANCH  50  71
ATOM     71  C   UNL     1      -4.278   3.465   8.946  1.00  0.00     0.057 A 
ATOM     72  C   UNL     1      -4.442   4.471   9.905  1.00  0.00     0.134 A 
ATOM     73  C   UNL     1      -4.944   3.624   7.725  1.00  0.00     0.134 A 
ATOM     74  F   UNL     1      -3.840   4.368  11.099  1.00  0.00    -0.206 F 
ATOM     75  C   UNL     1      -5.247   5.586   9.667  1.00  0.00     0.040 A 
ATOM     76  C   UNL     1      -5.735   4.745   7.464  1.00  0.00     0.040 A 
ATOM     77  F   UNL     1      -4.819   2.702   6.759  1.00  0.00    -0.206 F 
ATOM     78  C   UNL     1      -5.892   5.728   8.440  1.00  0.00     0.006 A 
ENDBRANCH  50  71
BRANCH  62  79
ATOM     79  C   UNL     1      -4.794  -2.048  13.168  1.00  0.00     0.057 A 
ATOM     80  C   UNL     1      -6.060  -2.513  12.791  1.00  0.00     0.134 A 
ATOM     81  C   UNL     1      -4.502  -1.992  14.536  1.00  0.00     0.134 A 
ATOM     82  F   UNL     1      -6.404  -2.576  11.496  1.00  0.00    -0.206 F 
ATOM     83  C   UNL     1      -7.010  -2.886  13.742  1.00  0.00     0.040 A 
ATOM     84  C   UNL     1      -5.434  -2.386  15.495  1.00  0.00     0.040 A 
ATOM     85  F   UNL     1      -3.304  -1.563  14.960  1.00  0.00    -0.206 F 
ATOM     86  C   UNL     1      -6.695  -2.829  15.099  1.00  0.00     0.006 A 
ENDBRANCH  62  79
ENDBRANCH  36  37
ENDBRANCH  28  31
ENDBRANCH  26  27
ENDBRANCH  25  26
ENDBRANCH  24  25
ENDBRANCH   3  24
TORSDOF 17
