REMARK SMILES COc1cc(/C=C2/N=C(c3ccccc3)OC2=O)ccc1OCC(=O)NCCCNC(=O)c1ccc(-c2c3nc(c(-c4c(F)cccc4F)c4ccc([nH]4)c(-c4c(F)cccc4F)c4nc(c(-c5c(F)cccc5F)c5ccc2[nH]5)C=C4)C=C3)cc1
REMARK SMILES IDX 27 1 26 2 24 3 25 4 23 6 22 7 21 8 3 9 4 10 5 11 20 12 19 13
REMARK SMILES IDX 2 14 1 15 6 16 7 17 8 18 17 19 9 20 16 21 18 22 10 23 11 24
REMARK SMILES IDX 15 25 12 26 14 27 13 28 28 29 29 30 30 31 31 32 32 34 33 35
REMARK SMILES IDX 34 36 86 37 35 38 85 39 36 40 37 41 38 42 79 43 39 44 84 45
REMARK SMILES IDX 78 46 80 47 40 48 83 49 77 50 76 51 41 53 67 54 50 55 66 56
REMARK SMILES IDX 51 57 54 58 65 59 81 60 52 61 53 62 64 64 82 65 55 66 42 67
REMARK SMILES IDX 43 68 48 69 44 70 45 71 47 72 49 73 46 74 68 75 69 76 74 77
REMARK SMILES IDX 70 78 71 79 73 80 75 81 72 82 56 83 57 84 62 85 58 86 59 87
REMARK SMILES IDX 61 88 63 89 60 90
REMARK H PARENT 26 5 30 33 80 52 54 63
REMARK Flexibility Score: inf
ROOT
ATOM      1  C   UNL     1       3.588  -1.163  -2.677  1.00  0.00     0.117 C 
ENDROOT
BRANCH   1   2
ATOM      2  N   UNL     1       2.479  -0.308  -2.305  1.00  0.00    -0.353 N 
ATOM      3  C   UNL     1       2.194   0.236  -1.086  1.00  0.00     0.257 C 
ATOM      4  O   UNL     1       1.338   1.123  -1.045  1.00  0.00    -0.271 OA
ATOM      5  H   UNL     1       1.846  -0.091  -3.027  1.00  0.00     0.163 HD
BRANCH   3   6
ATOM      6  C   UNL     1       2.982  -0.199   0.154  1.00  0.00     0.329 C 
BRANCH   6   7
ATOM      7  O   UNL     1       3.187  -1.590   0.311  1.00  0.00    -0.480 OA
BRANCH   7   8
ATOM      8  C   UNL     1       2.185  -2.416   0.732  1.00  0.00     0.161 A 
ATOM      9  C   UNL     1       0.957  -2.093   1.318  1.00  0.00     0.161 A 
ATOM     10  C   UNL     1       0.098  -3.115   1.761  1.00  0.00     0.058 A 
ATOM     11  C   UNL     1       0.461  -4.462   1.623  1.00  0.00    -0.019 A 
ATOM     12  C   UNL     1       2.517  -3.769   0.568  1.00  0.00     0.051 A 
ATOM     13  C   UNL     1       1.665  -4.785   0.998  1.00  0.00     0.012 A 
BRANCH   9  14
ATOM     14  O   UNL     1       0.651  -0.800   1.645  1.00  0.00    -0.493 OA
ATOM     15  C   UNL     1      -0.453  -0.285   0.903  1.00  0.00     0.278 C 
ENDBRANCH   9  14
BRANCH  11  16
ATOM     16  C   UNL     1      -0.340  -5.523   2.236  1.00  0.00     0.044 C 
ATOM     17  C   UNL     1      -0.055  -6.087   3.419  1.00  0.00     0.153 C 
ATOM     18  N   UNL     1      -0.841  -7.040   4.021  1.00  0.00    -0.205 NA
ATOM     19  C   UNL     1       1.088  -5.727   4.319  1.00  0.00     0.363 C 
ATOM     20  C   UNL     1      -0.296  -7.154   5.189  1.00  0.00     0.231 C 
ATOM     21  O   UNL     1       0.820  -6.437   5.448  1.00  0.00    -0.402 OA
ATOM     22  O   UNL     1       2.040  -4.995   4.142  1.00  0.00    -0.244 OA
BRANCH  20  23
ATOM     23  C   UNL     1      -0.737  -7.990   6.305  1.00  0.00     0.037 A 
ATOM     24  C   UNL     1      -1.231  -9.272   6.057  1.00  0.00     0.014 A 
ATOM     25  C   UNL     1      -0.710  -7.480   7.608  1.00  0.00     0.014 A 
ATOM     26  C   UNL     1      -1.699 -10.047   7.120  1.00  0.00     0.001 A 
ATOM     27  C   UNL     1      -1.196  -8.252   8.663  1.00  0.00     0.001 A 
ATOM     28  C   UNL     1      -1.689  -9.534   8.418  1.00  0.00     0.000 A 
ENDBRANCH  20  23
ENDBRANCH  11  16
ENDBRANCH   7   8
ENDBRANCH   6   7
ENDBRANCH   3   6
ENDBRANCH   1   2
BRANCH   1  29
ATOM     29  C   UNL     1       3.154  -2.561  -3.095  1.00  0.00     0.042 C 
BRANCH  29  30
ATOM     30  C   UNL     1       2.108  -2.598  -4.203  1.00  0.00     0.118 C 
BRANCH  30  31
ATOM     31  N   UNL     1       2.527  -1.895  -5.409  1.00  0.00    -0.352 N 
ATOM     32  C   UNL     1       2.818  -2.369  -6.664  1.00  0.00     0.251 C 
ATOM     33  H   UNL     1       2.617  -0.920  -5.307  1.00  0.00     0.163 HD
ATOM     34  O   UNL     1       3.334  -1.624  -7.493  1.00  0.00    -0.269 OA
BRANCH  32  35
ATOM     35  C   UNL     1       2.535  -3.775  -7.016  1.00  0.00     0.039 A 
ATOM     36  C   UNL     1       3.486  -4.496  -7.743  1.00  0.00     0.014 A 
ATOM     37  C   UNL     1       1.331  -4.378  -6.647  1.00  0.00     0.014 A 
ATOM     38  C   UNL     1       3.260  -5.844  -8.033  1.00  0.00     0.010 A 
ATOM     39  C   UNL     1       1.148  -5.740  -6.855  1.00  0.00     0.010 A 
ATOM     40  C   UNL     1       2.108  -6.487  -7.555  1.00  0.00    -0.014 A 
BRANCH  40  41
ATOM     41  C   UNL     1       1.873  -7.936  -7.784  1.00  0.00     0.031 A 
ATOM     42  C   UNL     1       0.672  -8.386  -8.571  1.00  0.00     0.074 A 
ATOM     43  C   UNL     1       2.692  -8.846  -7.222  1.00  0.00     0.049 A 
ATOM     44  N   UNL     1       0.232  -9.599  -8.790  1.00  0.00    -0.248 NA
ATOM     45  C   UNL     1      -0.162  -7.329  -9.167  1.00  0.00     0.031 C 
ATOM     46  C   UNL     1       3.868  -8.538  -6.405  1.00  0.00     0.029 A 
ATOM     47  N   UNL     1       2.653 -10.218  -7.241  1.00  0.00    -0.354 N 
ATOM     48  C   UNL     1      -0.934  -9.449  -9.530  1.00  0.00     0.074 A 
ATOM     49  C   UNL     1      -1.167  -8.029  -9.672  1.00  0.00     0.031 C 
ATOM     50  C   UNL     1       4.448  -9.686  -6.019  1.00  0.00     0.029 A 
ATOM     51  C   UNL     1       3.662 -10.809  -6.520  1.00  0.00     0.049 A 
ATOM     52  H   UNL     1       1.966 -10.730  -7.726  1.00  0.00     0.167 HD
ATOM     53  C   UNL     1      -1.726 -10.408 -10.065  1.00  0.00     0.037 A 
ATOM     54  C   UNL     1       3.916 -12.109  -6.277  1.00  0.00     0.037 A 
ATOM     55  C   UNL     1      -1.480 -11.821  -9.939  1.00  0.00     0.049 A 
ATOM     56  C   UNL     1       3.005 -13.155  -6.861  1.00  0.00     0.074 A 
ATOM     57  C   UNL     1      -2.195 -12.872 -10.485  1.00  0.00     0.029 A 
ATOM     58  N   UNL     1      -0.439 -12.379  -9.212  1.00  0.00    -0.354 N 
ATOM     59  N   UNL     1       1.939 -13.001  -7.609  1.00  0.00    -0.248 NA
ATOM     60  C   UNL     1       3.335 -14.557  -6.571  1.00  0.00     0.031 C 
ATOM     61  C   UNL     1      -1.618 -14.067 -10.044  1.00  0.00     0.029 A 
ATOM     62  C   UNL     1      -0.506 -13.761  -9.277  1.00  0.00     0.049 A 
ATOM     63  H   UNL     1       0.247 -11.868  -8.724  1.00  0.00     0.167 HD
ATOM     64  C   UNL     1       1.495 -14.282  -7.909  1.00  0.00     0.074 A 
ATOM     65  C   UNL     1       2.413 -15.202  -7.271  1.00  0.00     0.031 C 
ATOM     66  C   UNL     1       0.425 -14.664  -8.649  1.00  0.00     0.037 A 
BRANCH  53  67
ATOM     67  C   UNL     1      -2.935  -9.960 -10.837  1.00  0.00     0.057 A 
ATOM     68  C   UNL     1      -2.824  -9.306 -12.072  1.00  0.00     0.134 A 
ATOM     69  C   UNL     1      -4.226 -10.215 -10.357  1.00  0.00     0.134 A 
ATOM     70  F   UNL     1      -1.618  -9.020 -12.585  1.00  0.00    -0.206 F 
ATOM     71  C   UNL     1      -3.952  -8.897 -12.786  1.00  0.00     0.040 A 
ATOM     72  C   UNL     1      -5.361  -9.839 -11.078  1.00  0.00     0.040 A 
ATOM     73  F   UNL     1      -4.406 -10.843  -9.185  1.00  0.00    -0.206 F 
ATOM     74  C   UNL     1      -5.225  -9.171 -12.293  1.00  0.00     0.006 A 
ENDBRANCH  53  67
BRANCH  54  75
ATOM     75  C   UNL     1       5.089 -12.502  -5.454  1.00  0.00     0.057 A 
ATOM     76  C   UNL     1       6.176 -13.178  -6.022  1.00  0.00     0.134 A 
ATOM     77  C   UNL     1       5.146 -12.234  -4.081  1.00  0.00     0.134 A 
ATOM     78  F   UNL     1       6.174 -13.481  -7.329  1.00  0.00    -0.206 F 
ATOM     79  C   UNL     1       7.262 -13.598  -5.252  1.00  0.00     0.040 A 
ATOM     80  C   UNL     1       6.239 -12.621  -3.304  1.00  0.00     0.040 A 
ATOM     81  F   UNL     1       4.142 -11.582  -3.476  1.00  0.00    -0.206 F 
ATOM     82  C   UNL     1       7.297 -13.315  -3.888  1.00  0.00     0.006 A 
ENDBRANCH  54  75
BRANCH  66  83
ATOM     83  C   UNL     1       0.217 -16.137  -8.855  1.00  0.00     0.057 A 
ATOM     84  C   UNL     1      -0.203 -16.982  -7.821  1.00  0.00     0.134 A 
ATOM     85  C   UNL     1       0.397 -16.706 -10.123  1.00  0.00     0.134 A 
ATOM     86  F   UNL     1      -0.383 -16.504  -6.581  1.00  0.00    -0.206 F 
ATOM     87  C   UNL     1      -0.412 -18.346  -8.035  1.00  0.00     0.040 A 
ATOM     88  C   UNL     1       0.160 -18.061 -10.356  1.00  0.00     0.040 A 
ATOM     89  F   UNL     1       0.788 -15.951 -11.161  1.00  0.00    -0.206 F 
ATOM     90  C   UNL     1      -0.239 -18.887  -9.308  1.00  0.00     0.006 A 
ENDBRANCH  66  83
ENDBRANCH  40  41
ENDBRANCH  32  35
ENDBRANCH  30  31
ENDBRANCH  29  30
ENDBRANCH   1  29
TORSDOF 15
