REMARK SMILES O=C(NCCCNC(=O)c1ccc2nc(C3CCCCC3)[nH]c2c1)c1ccc(-c2c3nc(c(-c4c(F)cccc4F)c4ccc([nH]4)c(-c4c(F)cccc4F)c4nc(c(-c5c(F)cccc5F)c5ccc2[nH]5)C=C4)C=C3)cc1
REMARK SMILES IDX 4 1 3 2 1 3 2 4 25 6 26 7 78 8 27 9 77 10 28 11 29 12 30 13
REMARK SMILES IDX 71 14 31 15 76 16 70 17 72 18 32 19 75 20 69 21 68 22 33 24
REMARK SMILES IDX 59 25 42 26 58 27 43 28 46 29 57 30 73 31 44 32 45 33 56 35
REMARK SMILES IDX 74 36 47 37 34 38 35 39 40 40 36 41 37 42 39 43 41 44 38 45
REMARK SMILES IDX 60 46 61 47 66 48 62 49 63 50 65 51 67 52 64 53 48 54 49 55
REMARK SMILES IDX 54 56 50 57 51 58 53 59 55 60 52 61 5 62 6 63 7 64 8 65 9 67
REMARK SMILES IDX 10 68 11 69 24 70 12 71 23 72 13 73 22 74 14 75 15 76 16 78
REMARK SMILES IDX 17 79 21 80 18 81 20 82 19 83
REMARK H PARENT 3 5 72 23 46 34 7 66 22 77
REMARK Flexibility Score: inf
ROOT
ATOM      1  C   UNL     1       4.593  -1.026   0.898  1.00  0.00     0.118 C 
ENDROOT
BRANCH   1   2
ATOM      2  N   UNL     1       3.160  -0.986   0.641  1.00  0.00    -0.352 N 
ATOM      3  O   UNL     1       1.173  -0.126   0.047  1.00  0.00    -0.269 OA
ATOM      4  C   UNL     1       2.397  -0.077  -0.045  1.00  0.00     0.251 C 
ATOM      5  H   UNL     1       2.655  -1.740   1.023  1.00  0.00     0.163 HD
BRANCH   4   6
ATOM      6  C   UNL     1       3.025   0.970  -0.880  1.00  0.00     0.039 A 
ATOM      7  C   UNL     1       4.114   0.685  -1.708  1.00  0.00     0.014 A 
ATOM      8  C   UNL     1       2.464   2.251  -0.882  1.00  0.00     0.014 A 
ATOM      9  C   UNL     1       4.722   1.705  -2.436  1.00  0.00     0.010 A 
ATOM     10  C   UNL     1       3.026   3.255  -1.673  1.00  0.00     0.010 A 
ATOM     11  C   UNL     1       4.176   2.996  -2.435  1.00  0.00    -0.014 A 
BRANCH  11  12
ATOM     12  C   UNL     1       4.778   4.065  -3.268  1.00  0.00     0.031 A 
ATOM     13  C   UNL     1       5.392   5.277  -2.630  1.00  0.00     0.074 A 
ATOM     14  C   UNL     1       4.736   3.956  -4.609  1.00  0.00     0.049 A 
ATOM     15  N   UNL     1       5.876   6.353  -3.196  1.00  0.00    -0.248 NA
ATOM     16  C   UNL     1       5.461   5.286  -1.161  1.00  0.00     0.031 C 
ATOM     17  C   UNL     1       4.162   2.827  -5.345  1.00  0.00     0.029 A 
ATOM     18  N   UNL     1       5.169   4.809  -5.591  1.00  0.00    -0.354 N 
ATOM     19  C   UNL     1       6.282   7.178  -2.155  1.00  0.00     0.074 A 
ATOM     20  C   UNL     1       5.968   6.487  -0.922  1.00  0.00     0.031 C 
ATOM     21  C   UNL     1       4.282   3.055  -6.660  1.00  0.00     0.029 A 
ATOM     22  C   UNL     1       4.887   4.368  -6.860  1.00  0.00     0.049 A 
ATOM     23  H   UNL     1       5.636   5.655  -5.404  1.00  0.00     0.167 HD
ATOM     24  C   UNL     1       6.865   8.399  -2.225  1.00  0.00     0.037 A 
ATOM     25  C   UNL     1       5.061   4.966  -8.053  1.00  0.00     0.037 A 
ATOM     26  C   UNL     1       7.183   9.075  -3.456  1.00  0.00     0.049 A 
ATOM     27  C   UNL     1       5.679   6.332  -8.106  1.00  0.00     0.074 A 
ATOM     28  C   UNL     1       7.814  10.295  -3.633  1.00  0.00     0.029 A 
ATOM     29  N   UNL     1       6.885   8.593  -4.722  1.00  0.00    -0.354 N 
ATOM     30  N   UNL     1       6.090   7.088  -7.117  1.00  0.00    -0.248 NA
ATOM     31  C   UNL     1       5.856   6.930  -9.436  1.00  0.00     0.031 C 
ATOM     32  C   UNL     1       7.856  10.571  -5.003  1.00  0.00     0.029 A 
ATOM     33  C   UNL     1       7.296   9.501  -5.684  1.00  0.00     0.049 A 
ATOM     34  H   UNL     1       6.446   7.732  -4.910  1.00  0.00     0.167 HD
ATOM     35  C   UNL     1       6.597   8.239  -7.704  1.00  0.00     0.074 A 
ATOM     36  C   UNL     1       6.443   8.081  -9.136  1.00  0.00     0.031 C 
ATOM     37  C   UNL     1       7.144   9.325  -7.107  1.00  0.00     0.037 A 
BRANCH  24  38
ATOM     38  C   UNL     1       7.166   9.095  -0.929  1.00  0.00     0.057 A 
ATOM     39  C   UNL     1       8.185   8.661  -0.070  1.00  0.00     0.134 A 
ATOM     40  C   UNL     1       6.434  10.225  -0.542  1.00  0.00     0.134 A 
ATOM     41  F   UNL     1       8.915   7.578  -0.375  1.00  0.00    -0.206 F 
ATOM     42  C   UNL     1       8.444   9.307   1.141  1.00  0.00     0.040 A 
ATOM     43  C   UNL     1       6.701  10.895   0.654  1.00  0.00     0.040 A 
ATOM     44  F   UNL     1       5.450  10.699  -1.320  1.00  0.00    -0.206 F 
ATOM     45  C   UNL     1       7.703  10.430   1.503  1.00  0.00     0.006 A 
ENDBRANCH  24  38
BRANCH  25  46
ATOM     46  C   UNL     1       4.626   4.264  -9.284  1.00  0.00     0.057 A 
ATOM     47  C   UNL     1       5.556   3.710 -10.168  1.00  0.00     0.134 A 
ATOM     48  C   UNL     1       3.267   4.082  -9.573  1.00  0.00     0.134 A 
ATOM     49  F   UNL     1       6.870   3.864  -9.948  1.00  0.00    -0.206 F 
ATOM     50  C   UNL     1       5.152   2.997 -11.298  1.00  0.00     0.040 A 
ATOM     51  C   UNL     1       2.850   3.353 -10.687  1.00  0.00     0.040 A 
ATOM     52  F   UNL     1       2.328   4.582  -8.757  1.00  0.00    -0.206 F 
ATOM     53  C   UNL     1       3.795   2.809 -11.554  1.00  0.00     0.006 A 
ENDBRANCH  25  46
BRANCH  37  54
ATOM     54  C   UNL     1       7.658  10.416  -7.998  1.00  0.00     0.057 A 
ATOM     55  C   UNL     1       6.797  11.307  -8.648  1.00  0.00     0.134 A 
ATOM     56  C   UNL     1       9.036  10.614  -8.153  1.00  0.00     0.134 A 
ATOM     57  F   UNL     1       5.467  11.162  -8.550  1.00  0.00    -0.206 F 
ATOM     58  C   UNL     1       7.289  12.355  -9.428  1.00  0.00     0.040 A 
ATOM     59  C   UNL     1       9.540  11.670  -8.913  1.00  0.00     0.040 A 
ATOM     60  F   UNL     1       9.913   9.796  -7.551  1.00  0.00    -0.206 F 
ATOM     61  C   UNL     1       8.665  12.544  -9.554  1.00  0.00     0.006 A 
ENDBRANCH  37  54
ENDBRANCH  11  12
ENDBRANCH   4   6
ENDBRANCH   1   2
BRANCH   1  62
ATOM     62  C   UNL     1       4.933  -0.724   2.353  1.00  0.00     0.042 C 
BRANCH  62  63
ATOM     63  C   UNL     1       4.332  -1.708   3.349  1.00  0.00     0.118 C 
BRANCH  63  64
ATOM     64  N   UNL     1       4.820  -3.065   3.148  1.00  0.00    -0.352 N 
ATOM     65  C   UNL     1       5.700  -3.797   3.903  1.00  0.00     0.251 C 
ATOM     66  H   UNL     1       4.465  -3.525   2.353  1.00  0.00     0.163 HD
ATOM     67  O   UNL     1       6.160  -4.850   3.467  1.00  0.00    -0.269 OA
BRANCH  65  68
ATOM     68  C   UNL     1       6.122  -3.304   5.229  1.00  0.00     0.042 A 
ATOM     69  C   UNL     1       5.166  -2.935   6.186  1.00  0.00     0.016 A 
ATOM     70  C   UNL     1       7.496  -3.245   5.501  1.00  0.00     0.042 A 
ATOM     71  C   UNL     1       5.561  -2.398   7.417  1.00  0.00     0.031 A 
ATOM     72  C   UNL     1       7.855  -2.717   6.742  1.00  0.00     0.066 A 
ATOM     73  C   UNL     1       6.932  -2.280   7.685  1.00  0.00     0.089 A 
ATOM     74  N   UNL     1       9.070  -2.500   7.335  1.00  0.00    -0.342 N 
ATOM     75  N   UNL     1       7.564  -1.779   8.792  1.00  0.00    -0.233 NA
ATOM     76  C   UNL     1       8.854  -1.918   8.562  1.00  0.00     0.110 A 
ATOM     77  H   UNL     1       9.948  -2.722   6.948  1.00  0.00     0.168 HD
BRANCH  76  78
ATOM     78  C   UNL     1       9.962  -1.541   9.497  1.00  0.00     0.055 C 
ATOM     79  C   UNL     1      10.642  -2.794  10.065  1.00  0.00     0.011 C 
ATOM     80  C   UNL     1      10.978  -0.601   8.829  1.00  0.00     0.011 C 
ATOM     81  C   UNL     1      11.794  -2.435  10.999  1.00  0.00     0.001 C 
ATOM     82  C   UNL     1      12.129  -0.257   9.771  1.00  0.00     0.001 C 
ATOM     83  C   UNL     1      12.801  -1.514  10.317  1.00  0.00     0.000 C 
ENDBRANCH  76  78
ENDBRANCH  65  68
ENDBRANCH  63  64
ENDBRANCH  62  63
ENDBRANCH   1  62
TORSDOF 11
