REMARK SMILES CC(C)(C)c1csc(C[C@H](C(=O)NCCCNC(=O)c2ccc(-c3c4nc(c(-c5c(F)cccc5F)c5ccc([nH]5)c(-c5c(F)cccc5F)c5nc(c(-c6c(F)cccc6F)c6ccc3[nH]6)C=C5)C=C4)cc2)c2ccccc2Cl)n1
REMARK SMILES IDX 14 1 13 2 11 3 12 4 10 6 9 7 8 8 5 9 6 10 81 11 7 12 2 13
REMARK SMILES IDX 1 14 3 15 4 16 74 17 75 18 79 19 76 20 78 21 80 22 77 23
REMARK SMILES IDX 15 24 16 25 17 26 18 27 19 29 20 30 21 31 73 32 22 33 72 34
REMARK SMILES IDX 23 35 24 36 25 37 66 38 26 39 71 40 65 41 67 42 27 43 70 44
REMARK SMILES IDX 64 45 63 46 28 48 54 49 37 50 53 51 38 52 41 53 52 54 68 55
REMARK SMILES IDX 39 56 40 57 51 59 69 60 42 61 29 62 30 63 35 64 31 65 32 66
REMARK SMILES IDX 34 67 36 68 33 69 55 70 56 71 61 72 57 73 58 74 60 75 62 76
REMARK SMILES IDX 59 77 43 78 44 79 49 80 45 81 46 82 48 83 50 84 47 85
REMARK H PARENT 13 5 17 28 67 47 41 58
REMARK Flexibility Score: inf
ROOT
ATOM      1  C   UNL     1       0.370   1.803   3.962  1.00  0.00     0.117 C 
ENDROOT
BRANCH   1   2
ATOM      2  N   UNL     1       1.666   2.411   4.211  1.00  0.00    -0.355 N 
ATOM      3  C   UNL     1       2.171   2.978   5.349  1.00  0.00     0.228 C 
ATOM      4  O   UNL     1       3.272   3.524   5.264  1.00  0.00    -0.274 OA
ATOM      5  H   UNL     1       2.277   2.416   3.439  1.00  0.00     0.163 HD
BRANCH   3   6
ATOM      6  C   UNL     1       1.386   2.849   6.661  1.00  0.00     0.117 C 
BRANCH   6   7
ATOM      7  C   UNL     1       1.670   1.407   7.173  1.00  0.00     0.086 C 
BRANCH   7   8
ATOM      8  C   UNL     1       2.940   1.220   7.959  1.00  0.00     0.094 A 
ATOM      9  C   UNL     1       4.209   0.982   9.773  1.00  0.00     0.057 A 
ATOM     10  C   UNL     1       5.182   1.309   8.846  1.00  0.00     0.091 A 
ATOM     11  N   UNL     1       2.933   0.894   9.235  1.00  0.00    -0.246 NA
ATOM     12  S   UNL     1       4.500   1.424   7.282  1.00  0.00    -0.127 S 
BRANCH   9  13
ATOM     13  C   UNL     1       4.379   0.784  11.270  1.00  0.00     0.005 C 
ATOM     14  C   UNL     1       5.747   0.159  11.599  1.00  0.00     0.017 C 
ATOM     15  C   UNL     1       3.284  -0.151  11.825  1.00  0.00     0.017 C 
ATOM     16  C   UNL     1       4.263   2.145  11.983  1.00  0.00     0.017 C 
ENDBRANCH   9  13
ENDBRANCH   7   8
ENDBRANCH   6   7
BRANCH   6  17
ATOM     17  C   UNL     1       1.541   4.027   7.636  1.00  0.00    -0.016 A 
ATOM     18  C   UNL     1       1.609   3.808   9.027  1.00  0.00     0.006 A 
ATOM     19  C   UNL     1       1.531   5.374   7.218  1.00  0.00     0.045 A 
ATOM     20  C   UNL     1       1.822   4.848   9.936  1.00  0.00     0.000 A 
ATOM     21  C   UNL     1       1.749   6.418   8.130  1.00  0.00     0.021 A 
ATOM     22  Cl  UNL     1       1.136   5.854   5.601  1.00  0.00    -0.084 Cl
ATOM     23  C   UNL     1       1.921   6.154   9.485  1.00  0.00     0.002 A 
ENDBRANCH   6  17
ENDBRANCH   3   6
ENDBRANCH   1   2
BRANCH   1  24
ATOM     24  C   UNL     1      -0.509   2.693   3.091  1.00  0.00     0.042 C 
BRANCH  24  25
ATOM     25  C   UNL     1       0.035   2.905   1.680  1.00  0.00     0.118 C 
BRANCH  25  26
ATOM     26  N   UNL     1       0.119   1.665   0.918  1.00  0.00    -0.352 N 
ATOM     27  C   UNL     1      -0.461   1.315  -0.275  1.00  0.00     0.251 C 
ATOM     28  H   UNL     1       0.683   0.967   1.323  1.00  0.00     0.163 HD
ATOM     29  O   UNL     1      -0.406   0.148  -0.659  1.00  0.00    -0.269 OA
BRANCH  27  30
ATOM     30  C   UNL     1      -1.173   2.322  -1.089  1.00  0.00     0.039 A 
ATOM     31  C   UNL     1      -2.389   1.972  -1.683  1.00  0.00     0.014 A 
ATOM     32  C   UNL     1      -0.645   3.601  -1.280  1.00  0.00     0.014 A 
ATOM     33  C   UNL     1      -3.112   2.927  -2.400  1.00  0.00     0.010 A 
ATOM     34  C   UNL     1      -1.402   4.574  -1.927  1.00  0.00     0.010 A 
ATOM     35  C   UNL     1      -2.647   4.249  -2.488  1.00  0.00    -0.014 A 
BRANCH  35  36
ATOM     36  C   UNL     1      -3.461   5.311  -3.133  1.00  0.00     0.031 A 
ATOM     37  C   UNL     1      -2.958   6.022  -4.358  1.00  0.00     0.074 A 
ATOM     38  C   UNL     1      -4.624   5.687  -2.566  1.00  0.00     0.049 A 
ATOM     39  N   UNL     1      -3.500   7.015  -5.018  1.00  0.00    -0.248 NA
ATOM     40  C   UNL     1      -1.665   5.576  -4.898  1.00  0.00     0.031 C 
ATOM     41  C   UNL     1      -5.203   5.102  -1.355  1.00  0.00     0.029 A 
ATOM     42  N   UNL     1      -5.526   6.656  -2.930  1.00  0.00    -0.354 N 
ATOM     43  C   UNL     1      -2.607   7.324  -6.036  1.00  0.00     0.074 A 
ATOM     44  C   UNL     1      -1.468   6.445  -5.878  1.00  0.00     0.031 C 
ATOM     45  C   UNL     1      -6.376   5.700  -1.096  1.00  0.00     0.029 A 
ATOM     46  C   UNL     1      -6.610   6.743  -2.090  1.00  0.00     0.049 A 
ATOM     47  H   UNL     1      -5.407   7.235  -3.717  1.00  0.00     0.167 HD
ATOM     48  C   UNL     1      -2.733   8.245  -7.022  1.00  0.00     0.037 A 
ATOM     49  C   UNL     1      -7.668   7.574  -2.113  1.00  0.00     0.037 A 
ATOM     50  C   UNL     1      -3.876   9.106  -7.184  1.00  0.00     0.049 A 
ATOM     51  C   UNL     1      -7.767   8.610  -3.197  1.00  0.00     0.074 A 
ATOM     52  C   UNL     1      -4.132  10.017  -8.194  1.00  0.00     0.029 A 
ATOM     53  N   UNL     1      -4.947   9.174  -6.304  1.00  0.00    -0.354 N 
ATOM     54  N   UNL     1      -6.956   8.836  -4.202  1.00  0.00    -0.248 NA
ATOM     55  C   UNL     1      -8.928   9.510  -3.148  1.00  0.00     0.031 C 
ATOM     56  C   UNL     1      -5.324  10.683  -7.891  1.00  0.00     0.029 A 
ATOM     57  C   UNL     1      -5.845  10.142  -6.727  1.00  0.00     0.049 A 
ATOM     58  H   UNL     1      -5.053   8.617  -5.499  1.00  0.00     0.167 HD
ATOM     59  C   UNL     1      -7.524   9.879  -4.922  1.00  0.00     0.074 A 
ATOM     60  C   UNL     1      -8.754  10.233  -4.244  1.00  0.00     0.031 C 
ATOM     61  C   UNL     1      -7.068  10.486  -6.046  1.00  0.00     0.037 A 
BRANCH  48  62
ATOM     62  C   UNL     1      -1.594   8.381  -7.993  1.00  0.00     0.057 A 
ATOM     63  C   UNL     1      -1.279   7.376  -8.919  1.00  0.00     0.134 A 
ATOM     64  C   UNL     1      -0.817   9.546  -8.020  1.00  0.00     0.134 A 
ATOM     65  F   UNL     1      -1.976   6.230  -8.943  1.00  0.00    -0.206 F 
ATOM     66  C   UNL     1      -0.212   7.511  -9.809  1.00  0.00     0.040 A 
ATOM     67  C   UNL     1       0.232   9.706  -8.928  1.00  0.00     0.040 A 
ATOM     68  F   UNL     1      -1.068  10.553  -7.170  1.00  0.00    -0.206 F 
ATOM     69  C   UNL     1       0.543   8.682  -9.819  1.00  0.00     0.006 A 
ENDBRANCH  48  62
BRANCH  49  70
ATOM     70  C   UNL     1      -8.739   7.443  -1.091  1.00  0.00     0.057 A 
ATOM     71  C   UNL     1     -10.014   6.986  -1.444  1.00  0.00     0.134 A 
ATOM     72  C   UNL     1      -8.520   7.771   0.252  1.00  0.00     0.134 A 
ATOM     73  F   UNL     1     -10.289   6.674  -2.719  1.00  0.00    -0.206 F 
ATOM     74  C   UNL     1     -11.038   6.875  -0.503  1.00  0.00     0.040 A 
ATOM     75  C   UNL     1      -9.528   7.639   1.209  1.00  0.00     0.040 A 
ATOM     76  F   UNL     1      -7.319   8.208   0.657  1.00  0.00    -0.206 F 
ATOM     77  C   UNL     1     -10.794   7.197   0.830  1.00  0.00     0.006 A 
ENDBRANCH  49  70
BRANCH  61  78
ATOM     78  C   UNL     1      -7.920  11.573  -6.636  1.00  0.00     0.057 A 
ATOM     79  C   UNL     1      -8.062  12.823  -6.021  1.00  0.00     0.134 A 
ATOM     80  C   UNL     1      -8.576  11.377  -7.860  1.00  0.00     0.134 A 
ATOM     81  F   UNL     1      -7.473  13.072  -4.842  1.00  0.00    -0.206 F 
ATOM     82  C   UNL     1      -8.843  13.832  -6.590  1.00  0.00     0.040 A 
ATOM     83  C   UNL     1      -9.333  12.388  -8.453  1.00  0.00     0.040 A 
ATOM     84  F   UNL     1      -8.476  10.207  -8.507  1.00  0.00    -0.206 F 
ATOM     85  C   UNL     1      -9.474  13.618  -7.814  1.00  0.00     0.006 A 
ENDBRANCH  61  78
ENDBRANCH  35  36
ENDBRANCH  27  30
ENDBRANCH  25  26
ENDBRANCH  24  25
ENDBRANCH   1  24
TORSDOF 14
