REMARK SMILES CC[C@@H](C(=O)NCCCNC(=O)c1ccc(-c2c3nc(c(-c4c(F)cccc4F)c4ccc([nH]4)c(-c4c(F)cccc4F)c4nc(c(-c5c(F)cccc5F)c5ccc2[nH]5)C=C4)C=C3)cc1)N1C(=O)/C(=C/C(C)=C/c2ccccc2)SC1=S
REMARK SMILES IDX 7 1 6 2 4 3 5 4 3 6 2 7 1 8 67 9 68 10 82 11 69 12 70 13
REMARK SMILES IDX 81 14 83 15 71 16 72 17 73 18 74 19 75 20 76 21 80 22 77 23
REMARK SMILES IDX 79 24 78 25 8 26 9 27 10 28 11 29 12 31 13 32 14 33 66 34
REMARK SMILES IDX 15 35 65 36 16 37 17 38 18 39 59 40 19 41 64 42 58 43 60 44
REMARK SMILES IDX 20 45 63 46 57 47 56 48 21 50 47 51 30 52 46 53 31 54 34 55
REMARK SMILES IDX 45 56 61 57 32 58 33 59 44 61 62 62 35 63 22 64 23 65 28 66
REMARK SMILES IDX 24 67 25 68 27 69 29 70 26 71 48 72 49 73 54 74 50 75 51 76
REMARK SMILES IDX 53 77 55 78 52 79 36 80 37 81 42 82 38 83 39 84 41 85 43 86
REMARK SMILES IDX 40 87
REMARK H PARENT 6 5 10 30 60 49 34 60
REMARK Flexibility Score: inf
ROOT
ATOM      1  C   UNL     1       1.826  -2.239  -0.738  1.00  0.00     0.117 C 
ENDROOT
BRANCH   1   2
ATOM      2  N   UNL     1       0.644  -2.210  -1.588  1.00  0.00    -0.354 N 
ATOM      3  C   UNL     1       0.014  -1.183  -2.233  1.00  0.00     0.243 C 
ATOM      4  O   UNL     1      -1.105  -1.415  -2.701  1.00  0.00    -0.273 OA
ATOM      5  H   UNL     1       0.223  -3.090  -1.722  1.00  0.00     0.163 HD
BRANCH   3   6
ATOM      6  C   UNL     1       0.638   0.231  -2.287  1.00  0.00     0.181 C 
BRANCH   6   7
ATOM      7  C   UNL     1      -0.167   1.064  -1.240  1.00  0.00     0.032 C 
ATOM      8  C   UNL     1       0.426   1.059   0.159  1.00  0.00     0.006 C 
ENDBRANCH   6   7
BRANCH   6   9
ATOM      9  N   UNL     1       0.530   0.899  -3.618  1.00  0.00    -0.280 N 
ATOM     10  C   UNL     1       0.308   0.214  -4.799  1.00  0.00     0.266 C 
ATOM     11  C   UNL     1       0.961   2.192  -3.837  1.00  0.00     0.149 C 
ATOM     12  O   UNL     1       0.462  -0.994  -4.985  1.00  0.00    -0.268 OA
ATOM     13  C   UNL     1       0.003   1.171  -5.914  1.00  0.00     0.080 C 
ATOM     14  S   UNL     1       0.304   2.764  -5.350  1.00  0.00    -0.054 SA
ATOM     15  S   UNL     1       1.983   3.137  -2.912  1.00  0.00    -0.052 S 
ATOM     16  C   UNL     1      -0.424   0.764  -7.123  1.00  0.00     0.024 C 
BRANCH  16  17
ATOM     17  C   UNL     1      -0.835   1.515  -8.328  1.00  0.00    -0.049 C 
ATOM     18  C   UNL     1      -1.558   0.669  -9.354  1.00  0.00     0.044 C 
ATOM     19  C   UNL     1      -0.546   2.816  -8.542  1.00  0.00     0.011 C 
BRANCH  19  20
ATOM     20  C   UNL     1      -0.956   3.744  -9.615  1.00  0.00    -0.025 A 
ATOM     21  C   UNL     1      -0.076   4.788  -9.943  1.00  0.00     0.008 A 
ATOM     22  C   UNL     1      -2.231   3.742 -10.192  1.00  0.00     0.008 A 
ATOM     23  C   UNL     1      -0.450   5.790 -10.841  1.00  0.00     0.001 A 
ATOM     24  C   UNL     1      -2.601   4.738 -11.103  1.00  0.00     0.001 A 
ATOM     25  C   UNL     1      -1.713   5.762 -11.424  1.00  0.00     0.000 A 
ENDBRANCH  19  20
ENDBRANCH  16  17
ENDBRANCH   6   9
ENDBRANCH   3   6
ENDBRANCH   1   2
BRANCH   1  26
ATOM     26  C   UNL     1       1.458  -2.358   0.742  1.00  0.00     0.042 C 
BRANCH  26  27
ATOM     27  C   UNL     1       0.809  -3.683   1.135  1.00  0.00     0.118 C 
BRANCH  27  28
ATOM     28  N   UNL     1       1.789  -4.706   1.454  1.00  0.00    -0.352 N 
ATOM     29  C   UNL     1       2.023  -5.369   2.636  1.00  0.00     0.251 C 
ATOM     30  H   UNL     1       2.377  -4.966   0.709  1.00  0.00     0.163 HD
ATOM     31  O   UNL     1       3.031  -6.063   2.742  1.00  0.00    -0.269 OA
BRANCH  29  32
ATOM     32  C   UNL     1       1.098  -5.249   3.792  1.00  0.00     0.039 A 
ATOM     33  C   UNL     1       1.643  -5.187   5.080  1.00  0.00     0.014 A 
ATOM     34  C   UNL     1      -0.291  -5.264   3.636  1.00  0.00     0.014 A 
ATOM     35  C   UNL     1       0.806  -5.094   6.197  1.00  0.00     0.010 A 
ATOM     36  C   UNL     1      -1.125  -5.101   4.746  1.00  0.00     0.010 A 
ATOM     37  C   UNL     1      -0.587  -5.026   6.040  1.00  0.00    -0.014 A 
BRANCH  37  38
ATOM     38  C   UNL     1      -1.490  -4.905   7.216  1.00  0.00     0.031 A 
ATOM     39  C   UNL     1      -2.455  -6.012   7.553  1.00  0.00     0.074 A 
ATOM     40  C   UNL     1      -1.486  -3.779   7.956  1.00  0.00     0.049 A 
ATOM     41  N   UNL     1      -3.365  -6.060   8.494  1.00  0.00    -0.248 NA
ATOM     42  C   UNL     1      -2.407  -7.213   6.704  1.00  0.00     0.031 C 
ATOM     43  C   UNL     1      -0.637  -2.611   7.717  1.00  0.00     0.029 A 
ATOM     44  N   UNL     1      -2.232  -3.428   9.055  1.00  0.00    -0.354 N 
ATOM     45  C   UNL     1      -4.013  -7.278   8.334  1.00  0.00     0.074 A 
ATOM     46  C   UNL     1      -3.417  -7.924   7.184  1.00  0.00     0.031 C 
ATOM     47  C   UNL     1      -0.899  -1.679   8.649  1.00  0.00     0.029 A 
ATOM     48  C   UNL     1      -1.952  -2.170   9.533  1.00  0.00     0.049 A 
ATOM     49  H   UNL     1      -2.904  -4.022   9.462  1.00  0.00     0.167 HD
ATOM     50  C   UNL     1      -5.000  -7.821   9.085  1.00  0.00     0.037 A 
ATOM     51  C   UNL     1      -2.487  -1.486  10.562  1.00  0.00     0.037 A 
ATOM     52  C   UNL     1      -5.564  -7.206  10.258  1.00  0.00     0.049 A 
ATOM     53  C   UNL     1      -3.562  -2.121  11.399  1.00  0.00     0.074 A 
ATOM     54  C   UNL     1      -6.513  -7.716  11.128  1.00  0.00     0.029 A 
ATOM     55  N   UNL     1      -5.229  -5.946  10.727  1.00  0.00    -0.354 N 
ATOM     56  N   UNL     1      -4.117  -3.301  11.272  1.00  0.00    -0.248 NA
ATOM     57  C   UNL     1      -4.081  -1.331  12.525  1.00  0.00     0.031 C 
ATOM     58  C   UNL     1      -6.774  -6.752  12.107  1.00  0.00     0.029 A 
ATOM     59  C   UNL     1      -5.963  -5.655  11.865  1.00  0.00     0.049 A 
ATOM     60  H   UNL     1      -4.566  -5.346  10.313  1.00  0.00     0.167 HD
ATOM     61  C   UNL     1      -5.032  -3.404  12.313  1.00  0.00     0.074 A 
ATOM     62  C   UNL     1      -4.949  -2.172  13.069  1.00  0.00     0.031 C 
ATOM     63  C   UNL     1      -5.866  -4.429  12.613  1.00  0.00     0.037 A 
BRANCH  50  64
ATOM     64  C   UNL     1      -5.535  -9.158   8.665  1.00  0.00     0.057 A 
ATOM     65  C   UNL     1      -4.797 -10.335   8.840  1.00  0.00     0.134 A 
ATOM     66  C   UNL     1      -6.818  -9.274   8.116  1.00  0.00     0.134 A 
ATOM     67  F   UNL     1      -3.557 -10.291   9.351  1.00  0.00    -0.206 F 
ATOM     68  C   UNL     1      -5.306 -11.579   8.462  1.00  0.00     0.040 A 
ATOM     69  C   UNL     1      -7.348 -10.514   7.755  1.00  0.00     0.040 A 
ATOM     70  F   UNL     1      -7.580  -8.185   7.929  1.00  0.00    -0.206 F 
ATOM     71  C   UNL     1      -6.589 -11.670   7.923  1.00  0.00     0.006 A 
ENDBRANCH  50  64
BRANCH  51  72
ATOM     72  C   UNL     1      -1.998  -0.121  10.877  1.00  0.00     0.057 A 
ATOM     73  C   UNL     1      -1.209   0.118  12.008  1.00  0.00     0.134 A 
ATOM     74  C   UNL     1      -2.313   0.973  10.064  1.00  0.00     0.134 A 
ATOM     75  F   UNL     1      -0.893  -0.888  12.835  1.00  0.00    -0.206 F 
ATOM     76  C   UNL     1      -0.763   1.401  12.329  1.00  0.00     0.040 A 
ATOM     77  C   UNL     1      -1.857   2.258  10.361  1.00  0.00     0.040 A 
ATOM     78  F   UNL     1      -3.062   0.806   8.964  1.00  0.00    -0.206 F 
ATOM     79  C   UNL     1      -1.085   2.475  11.501  1.00  0.00     0.006 A 
ENDBRANCH  51  72
BRANCH  63  80
ATOM     80  C   UNL     1      -6.734  -4.275  13.825  1.00  0.00     0.057 A 
ATOM     81  C   UNL     1      -7.861  -3.444  13.822  1.00  0.00     0.134 A 
ATOM     82  C   UNL     1      -6.460  -4.994  14.995  1.00  0.00     0.134 A 
ATOM     83  F   UNL     1      -8.168  -2.719  12.736  1.00  0.00    -0.206 F 
ATOM     84  C   UNL     1      -8.677  -3.321  14.948  1.00  0.00     0.040 A 
ATOM     85  C   UNL     1      -7.281  -4.896  16.120  1.00  0.00     0.040 A 
ATOM     86  F   UNL     1      -5.399  -5.811  15.060  1.00  0.00    -0.206 F 
ATOM     87  C   UNL     1      -8.391  -4.054  16.099  1.00  0.00     0.006 A 
ENDBRANCH  63  80
ENDBRANCH  37  38
ENDBRANCH  29  32
ENDBRANCH  27  28
ENDBRANCH  26  27
ENDBRANCH   1  26
TORSDOF 14
