REMARK SMILES Cc1ccc(S(=O)(=O)Nc2cnc(N(C)C)c(C(=O)NCCCNC(=O)c3ccc(-c4c5nc(c(-c6c(F)cccc6F)c6ccc([nH]6)c(-c6c(F)cccc6F)c6nc(c(-c7c(F)cccc7F)c7ccc4[nH]7)C=C6)C=C5)cc3)c2)c(C)c1
REMARK SMILES IDX 21 1 20 2 18 3 19 4 17 6 10 7 11 8 81 9 12 10 13 11 9 12
REMARK SMILES IDX 6 14 7 15 8 16 5 17 1 18 2 19 3 20 84 21 4 22 82 23 83 24
REMARK SMILES IDX 14 25 15 26 16 27 22 28 23 29 24 30 25 31 26 33 27 34 28 35
REMARK SMILES IDX 80 36 29 37 79 38 30 39 31 40 32 41 73 42 33 43 78 44 72 45
REMARK SMILES IDX 74 46 34 47 77 48 71 49 70 50 35 52 61 53 44 54 60 55 45 56
REMARK SMILES IDX 48 57 59 58 75 59 46 60 47 61 58 63 76 64 49 65 36 66 37 67
REMARK SMILES IDX 42 68 38 69 39 70 41 71 43 72 40 73 62 74 63 75 68 76 64 77
REMARK SMILES IDX 65 78 67 79 69 80 66 81 50 82 51 83 56 84 52 85 53 86 55 87
REMARK SMILES IDX 57 88 54 89
REMARK H PARENT 20 5 9 13 24 32 74 51 48 62
REMARK Flexibility Score: inf
ROOT
ATOM      1  C   UNL     1       1.029  -1.699   2.529  1.00  0.00     0.118 C 
ENDROOT
BRANCH   1   2
ATOM      2  N   UNL     1       1.886  -2.852   2.753  1.00  0.00    -0.352 N 
ATOM      3  C   UNL     1       1.820  -4.152   2.305  1.00  0.00     0.255 C 
ATOM      4  O   UNL     1       2.445  -4.993   2.948  1.00  0.00    -0.269 OA
ATOM      5  H   UNL     1       2.659  -2.669   3.334  1.00  0.00     0.163 HD
BRANCH   3   6
ATOM      6  C   UNL     1       1.052  -4.549   1.097  1.00  0.00     0.084 A 
ATOM      7  C   UNL     1      -1.036  -4.403  -0.128  1.00  0.00     0.068 A 
ATOM      8  C   UNL     1      -0.495  -5.305  -1.017  1.00  0.00     0.140 A 
ATOM      9  C   UNL     1      -0.297  -4.138   1.012  1.00  0.00     0.046 A 
ATOM     10  N   UNL     1       0.763  -5.772  -0.930  1.00  0.00    -0.236 NA
ATOM     11  C   UNL     1       1.594  -5.354   0.068  1.00  0.00     0.141 A 
BRANCH   7  12
ATOM     12  N   UNL     1      -2.251  -3.754  -0.481  1.00  0.00    -0.278 N 
ATOM     13  H   UNL     1      -2.912  -4.273  -0.993  1.00  0.00     0.180 HD
BRANCH  12  14
ATOM     14  S   UNL     1      -2.641  -2.170  -0.089  1.00  0.00     0.262 S 
ATOM     15  O   UNL     1      -2.761  -2.107   1.356  1.00  0.00    -0.201 OA
ATOM     16  O   UNL     1      -3.747  -1.835  -0.956  1.00  0.00    -0.201 OA
BRANCH  14  17
ATOM     17  C   UNL     1      -1.289  -1.075  -0.529  1.00  0.00     0.090 A 
ATOM     18  C   UNL     1       2.353   1.235  -0.472  1.00  0.00     0.044 C 
ATOM     19  C   UNL     1       1.073   0.457  -0.565  1.00  0.00    -0.051 A 
ATOM     20  C   UNL     1       1.045  -0.809  -1.150  1.00  0.00     0.005 A 
ATOM     21  C   UNL     1      -0.124   1.009  -0.098  1.00  0.00     0.008 A 
ATOM     22  C   UNL     1      -0.134  -1.564  -1.152  1.00  0.00     0.023 A 
ATOM     23  C   UNL     1      -1.316   0.259  -0.071  1.00  0.00    -0.030 A 
ATOM     24  C   UNL     1      -2.558   0.973   0.393  1.00  0.00     0.046 C 
ENDBRANCH  14  17
ENDBRANCH  12  14
ENDBRANCH   7  12
BRANCH  11  25
ATOM     25  N   UNL     1       2.913  -5.715  -0.136  1.00  0.00    -0.362 N 
ATOM     26  C   UNL     1       3.171  -6.827  -1.053  1.00  0.00     0.145 C 
ATOM     27  C   UNL     1       4.044  -5.290   0.668  1.00  0.00     0.145 C 
ENDBRANCH  11  25
ENDBRANCH   3   6
ENDBRANCH   1   2
BRANCH   1  28
ATOM     28  C   UNL     1       0.006  -1.571   3.660  1.00  0.00     0.042 C 
BRANCH  28  29
ATOM     29  C   UNL     1       0.627  -1.118   4.978  1.00  0.00     0.118 C 
BRANCH  29  30
ATOM     30  N   UNL     1       0.977   0.293   4.958  1.00  0.00    -0.352 N 
ATOM     31  C   UNL     1       0.733   1.259   5.901  1.00  0.00     0.251 C 
ATOM     32  H   UNL     1       1.457   0.599   4.154  1.00  0.00     0.163 HD
ATOM     33  O   UNL     1       0.934   2.439   5.629  1.00  0.00    -0.269 OA
BRANCH  31  34
ATOM     34  C   UNL     1       0.216   0.889   7.238  1.00  0.00     0.039 A 
ATOM     35  C   UNL     1      -0.783   1.682   7.811  1.00  0.00     0.014 A 
ATOM     36  C   UNL     1       0.744  -0.193   7.949  1.00  0.00     0.014 A 
ATOM     37  C   UNL     1      -1.274   1.372   9.082  1.00  0.00     0.010 A 
ATOM     38  C   UNL     1       0.215  -0.534   9.193  1.00  0.00     0.010 A 
ATOM     39  C   UNL     1      -0.787   0.255   9.777  1.00  0.00    -0.014 A 
BRANCH  39  40
ATOM     40  C   UNL     1      -1.287  -0.075  11.134  1.00  0.00     0.031 A 
ATOM     41  C   UNL     1      -0.376   0.053  12.323  1.00  0.00     0.074 A 
ATOM     42  C   UNL     1      -2.543  -0.534  11.292  1.00  0.00     0.049 A 
ATOM     43  N   UNL     1      -0.609  -0.234  13.579  1.00  0.00    -0.248 NA
ATOM     44  C   UNL     1       0.985   0.546  12.062  1.00  0.00     0.031 C 
ATOM     45  C   UNL     1      -3.508  -0.749  10.213  1.00  0.00     0.029 A 
ATOM     46  N   UNL     1      -3.219  -0.909  12.425  1.00  0.00    -0.354 N 
ATOM     47  C   UNL     1       0.581   0.016  14.250  1.00  0.00     0.074 A 
ATOM     48  C   UNL     1       1.544   0.445  13.259  1.00  0.00     0.031 C 
ATOM     49  C   UNL     1      -4.659  -1.199  10.739  1.00  0.00     0.029 A 
ATOM     50  C   UNL     1      -4.505  -1.325  12.186  1.00  0.00     0.049 A 
ATOM     51  H   UNL     1      -2.819  -0.883  13.325  1.00  0.00     0.167 HD
ATOM     52  C   UNL     1       0.844  -0.085  15.575  1.00  0.00     0.037 A 
ATOM     53  C   UNL     1      -5.453  -1.755  13.038  1.00  0.00     0.037 A 
ATOM     54  C   UNL     1      -0.124  -0.469  16.567  1.00  0.00     0.049 A 
ATOM     55  C   UNL     1      -5.154  -1.809  14.509  1.00  0.00     0.074 A 
ATOM     56  C   UNL     1       0.028  -0.540  17.941  1.00  0.00     0.029 A 
ATOM     57  N   UNL     1      -1.431  -0.838  16.288  1.00  0.00    -0.354 N 
ATOM     58  N   UNL     1      -4.041  -1.518  15.136  1.00  0.00    -0.248 NA
ATOM     59  C   UNL     1      -6.247  -2.243  15.392  1.00  0.00     0.031 C 
ATOM     60  C   UNL     1      -1.184  -0.972  18.493  1.00  0.00     0.029 A 
ATOM     61  C   UNL     1      -2.096  -1.143  17.464  1.00  0.00     0.049 A 
ATOM     62  H   UNL     1      -1.828  -0.877  15.388  1.00  0.00     0.167 HD
ATOM     63  C   UNL     1      -4.303  -1.710  16.486  1.00  0.00     0.074 A 
ATOM     64  C   UNL     1      -5.685  -2.133  16.588  1.00  0.00     0.031 C 
ATOM     65  C   UNL     1      -3.474  -1.552  17.545  1.00  0.00     0.037 A 
BRANCH  52  66
ATOM     66  C   UNL     1       2.238   0.233  16.024  1.00  0.00     0.057 A 
ATOM     67  C   UNL     1       2.718   1.549  16.061  1.00  0.00     0.134 A 
ATOM     68  C   UNL     1       3.106  -0.784  16.440  1.00  0.00     0.134 A 
ATOM     69  F   UNL     1       1.941   2.566  15.661  1.00  0.00    -0.206 F 
ATOM     70  C   UNL     1       4.020   1.839  16.472  1.00  0.00     0.040 A 
ATOM     71  C   UNL     1       4.402  -0.504  16.874  1.00  0.00     0.040 A 
ATOM     72  F   UNL     1       2.707  -2.065  16.433  1.00  0.00    -0.206 F 
ATOM     73  C   UNL     1       4.865   0.810  16.884  1.00  0.00     0.006 A 
ENDBRANCH  52  66
BRANCH  53  74
ATOM     74  C   UNL     1      -6.792  -2.129  12.524  1.00  0.00     0.057 A 
ATOM     75  C   UNL     1      -7.894  -1.288  12.715  1.00  0.00     0.134 A 
ATOM     76  C   UNL     1      -7.001  -3.324  11.828  1.00  0.00     0.134 A 
ATOM     77  F   UNL     1      -7.756  -0.138  13.390  1.00  0.00    -0.206 F 
ATOM     78  C   UNL     1      -9.162  -1.629  12.242  1.00  0.00     0.040 A 
ATOM     79  C   UNL     1      -8.260  -3.670  11.334  1.00  0.00     0.040 A 
ATOM     80  F   UNL     1      -5.981  -4.168  11.610  1.00  0.00    -0.206 F 
ATOM     81  C   UNL     1      -9.346  -2.822  11.545  1.00  0.00     0.006 A 
ENDBRANCH  53  74
BRANCH  65  82
ATOM     82  C   UNL     1      -4.048  -1.810  18.904  1.00  0.00     0.057 A 
ATOM     83  C   UNL     1      -4.264  -3.110  19.376  1.00  0.00     0.134 A 
ATOM     84  C   UNL     1      -4.357  -0.746  19.760  1.00  0.00     0.134 A 
ATOM     85  F   UNL     1      -4.000  -4.168  18.596  1.00  0.00    -0.206 F 
ATOM     86  C   UNL     1      -4.785  -3.343  20.649  1.00  0.00     0.040 A 
ATOM     87  C   UNL     1      -4.861  -0.967  21.042  1.00  0.00     0.040 A 
ATOM     88  F   UNL     1      -4.168   0.523  19.367  1.00  0.00    -0.206 F 
ATOM     89  C   UNL     1      -5.080  -2.269  21.488  1.00  0.00     0.006 A 
ENDBRANCH  65  82
ENDBRANCH  39  40
ENDBRANCH  31  34
ENDBRANCH  29  30
ENDBRANCH  28  29
ENDBRANCH   1  28
TORSDOF 14
