REMARK SMILES C[C@H]1CCCC[C@@H]1n1c(SCC(=O)NCCCNC(=O)c2ccc(-c3c4nc(c(-c5c(F)cccc5F)c5ccc([nH]5)c(-c5c(F)cccc5F)c5nc(c(-c6c(F)cccc6F)c6ccc3[nH]6)C=C5)C=C4)cc2)nc2ccccc2c1=O
REMARK SMILES IDX 15 1 14 2 12 3 13 4 11 6 10 7 9 8 8 9 82 10 75 11 81 12
REMARK SMILES IDX 83 13 76 14 80 15 77 16 79 17 78 18 7 19 1 20 2 21 3 22 4 23
REMARK SMILES IDX 6 24 5 25 16 26 17 27 18 28 19 29 20 31 21 32 22 33 74 34
REMARK SMILES IDX 23 35 73 36 24 37 25 38 26 39 67 40 27 41 72 42 66 43 68 44
REMARK SMILES IDX 28 45 71 46 65 47 64 48 29 50 55 51 38 52 54 53 39 54 42 55
REMARK SMILES IDX 53 56 69 57 40 58 41 59 52 61 70 62 43 63 30 64 31 65 36 66
REMARK SMILES IDX 32 67 33 68 35 69 37 70 34 71 56 72 57 73 62 74 58 75 59 76
REMARK SMILES IDX 61 77 63 78 60 79 44 80 45 81 50 82 46 83 47 84 49 85 51 86
REMARK SMILES IDX 48 87
REMARK H PARENT 14 5 18 30 68 49 42 60
REMARK Flexibility Score: inf
ROOT
ATOM      1  C   UNL     1      -3.477  -4.725   1.575  1.00  0.00     0.117 C 
ENDROOT
BRANCH   1   2
ATOM      2  N   UNL     1      -3.449  -3.280   1.505  1.00  0.00    -0.355 N 
ATOM      3  C   UNL     1      -3.172  -2.427   0.496  1.00  0.00     0.230 C 
ATOM      4  O   UNL     1      -3.673  -1.300   0.618  1.00  0.00    -0.274 OA
ATOM      5  H   UNL     1      -3.675  -2.835   2.353  1.00  0.00     0.163 HD
BRANCH   3   6
ATOM      6  C   UNL     1      -2.404  -2.749  -0.766  1.00  0.00     0.178 C 
BRANCH   6   7
ATOM      7  S   UNL     1      -1.021  -3.842  -0.758  1.00  0.00    -0.078 SA
BRANCH   7   8
ATOM      8  C   UNL     1       0.462  -3.394   0.040  1.00  0.00     0.172 A 
ATOM      9  N   UNL     1       0.947  -2.136   0.397  1.00  0.00    -0.284 N 
ATOM     10  C   UNL     1       2.005  -2.107   1.313  1.00  0.00     0.262 A 
ATOM     11  N   UNL     1       1.164  -4.475   0.208  1.00  0.00    -0.224 NA
ATOM     12  C   UNL     1       2.957  -3.222   1.228  1.00  0.00     0.066 A 
ATOM     13  O   UNL     1       2.208  -1.224   2.141  1.00  0.00    -0.269 OA
ATOM     14  C   UNL     1       2.481  -4.381   0.645  1.00  0.00     0.079 A 
ATOM     15  C   UNL     1       4.297  -3.095   1.605  1.00  0.00     0.016 A 
ATOM     16  C   UNL     1       3.357  -5.448   0.439  1.00  0.00     0.029 A 
ATOM     17  C   UNL     1       5.174  -4.156   1.376  1.00  0.00     0.001 A 
ATOM     18  C   UNL     1       4.704  -5.334   0.794  1.00  0.00     0.002 A 
BRANCH   9  19
ATOM     19  C   UNL     1       0.413  -0.826  -0.038  1.00  0.00     0.096 C 
ATOM     20  C   UNL     1       2.698   0.103  -0.941  1.00  0.00     0.010 C 
ATOM     21  C   UNL     1       1.426   0.378  -0.140  1.00  0.00     0.009 C 
ATOM     22  C   UNL     1       0.729   1.633  -0.717  1.00  0.00     0.005 C 
ATOM     23  C   UNL     1      -0.575   1.992  -0.004  1.00  0.00     0.000 C 
ATOM     24  C   UNL     1      -0.698  -0.336   0.893  1.00  0.00     0.026 C 
ATOM     25  C   UNL     1      -1.474   0.782   0.201  1.00  0.00     0.002 C 
ENDBRANCH   9  19
ENDBRANCH   7   8
ENDBRANCH   6   7
ENDBRANCH   3   6
ENDBRANCH   1   2
BRANCH   1  26
ATOM     26  C   UNL     1      -2.547  -5.296   2.640  1.00  0.00     0.042 C 
BRANCH  26  27
ATOM     27  C   UNL     1      -2.577  -4.580   3.992  1.00  0.00     0.118 C 
BRANCH  27  28
ATOM     28  N   UNL     1      -3.862  -4.646   4.682  1.00  0.00    -0.352 N 
ATOM     29  C   UNL     1      -4.279  -5.413   5.746  1.00  0.00     0.251 C 
ATOM     30  H   UNL     1      -4.548  -4.036   4.325  1.00  0.00     0.163 HD
ATOM     31  O   UNL     1      -5.454  -5.374   6.108  1.00  0.00    -0.269 OA
BRANCH  29  32
ATOM     32  C   UNL     1      -3.337  -6.327   6.421  1.00  0.00     0.039 A 
ATOM     33  C   UNL     1      -2.070  -5.892   6.805  1.00  0.00     0.014 A 
ATOM     34  C   UNL     1      -3.720  -7.654   6.643  1.00  0.00     0.014 A 
ATOM     35  C   UNL     1      -1.114  -6.825   7.188  1.00  0.00     0.010 A 
ATOM     36  C   UNL     1      -2.783  -8.573   7.124  1.00  0.00     0.010 A 
ATOM     37  C   UNL     1      -1.451  -8.181   7.326  1.00  0.00    -0.014 A 
BRANCH  37  38
ATOM     38  C   UNL     1      -0.385  -9.174   7.623  1.00  0.00     0.031 A 
ATOM     39  C   UNL     1      -0.039 -10.246   6.619  1.00  0.00     0.074 A 
ATOM     40  C   UNL     1       0.328  -9.068   8.761  1.00  0.00     0.049 A 
ATOM     41  N   UNL     1       0.862 -11.194   6.698  1.00  0.00    -0.248 NA
ATOM     42  C   UNL     1      -0.809 -10.259   5.365  1.00  0.00     0.031 C 
ATOM     43  C   UNL     1       0.110  -8.062   9.802  1.00  0.00     0.029 A 
ATOM     44  N   UNL     1       1.396  -9.795   9.219  1.00  0.00    -0.354 N 
ATOM     45  C   UNL     1       0.749 -11.927   5.522  1.00  0.00     0.074 A 
ATOM     46  C   UNL     1      -0.325 -11.333   4.757  1.00  0.00     0.031 C 
ATOM     47  C   UNL     1       1.049  -8.200  10.749  1.00  0.00     0.029 A 
ATOM     48  C   UNL     1       1.893  -9.343  10.417  1.00  0.00     0.049 A 
ATOM     49  H   UNL     1       1.772 -10.566   8.736  1.00  0.00     0.167 HD
ATOM     50  C   UNL     1       1.481 -12.990   5.109  1.00  0.00     0.037 A 
ATOM     51  C   UNL     1       2.904  -9.807  11.174  1.00  0.00     0.037 A 
ATOM     52  C   UNL     1       2.573 -13.562   5.854  1.00  0.00     0.049 A 
ATOM     53  C   UNL     1       3.668 -11.015  10.715  1.00  0.00     0.074 A 
ATOM     54  C   UNL     1       3.391 -14.624   5.509  1.00  0.00     0.029 A 
ATOM     55  N   UNL     1       3.001 -13.114   7.094  1.00  0.00    -0.354 N 
ATOM     56  N   UNL     1       3.545 -11.700   9.604  1.00  0.00    -0.248 NA
ATOM     57  C   UNL     1       4.703 -11.524  11.626  1.00  0.00     0.031 C 
ATOM     58  C   UNL     1       4.292 -14.842   6.559  1.00  0.00     0.029 A 
ATOM     59  C   UNL     1       4.058 -13.892   7.539  1.00  0.00     0.049 A 
ATOM     60  H   UNL     1       2.612 -12.356   7.586  1.00  0.00     0.167 HD
ATOM     61  C   UNL     1       4.488 -12.715   9.678  1.00  0.00     0.074 A 
ATOM     62  C   UNL     1       5.194 -12.540  10.931  1.00  0.00     0.031 C 
ATOM     63  C   UNL     1       4.743 -13.708   8.792  1.00  0.00     0.037 A 
BRANCH  50  64
ATOM     64  C   UNL     1       1.112 -13.617   3.796  1.00  0.00     0.057 A 
ATOM     65  C   UNL     1       0.492 -14.873   3.756  1.00  0.00     0.134 A 
ATOM     66  C   UNL     1       1.393 -12.997   2.572  1.00  0.00     0.134 A 
ATOM     67  F   UNL     1       0.201 -15.525   4.892  1.00  0.00    -0.206 F 
ATOM     68  C   UNL     1       0.165 -15.489   2.547  1.00  0.00     0.040 A 
ATOM     69  C   UNL     1       1.049 -13.593   1.356  1.00  0.00     0.040 A 
ATOM     70  F   UNL     1       1.973 -11.788   2.540  1.00  0.00    -0.206 F 
ATOM     71  C   UNL     1       0.438 -14.845   1.342  1.00  0.00     0.006 A 
ENDBRANCH  50  64
BRANCH  51  72
ATOM     72  C   UNL     1       3.236  -9.140  12.456  1.00  0.00     0.057 A 
ATOM     73  C   UNL     1       2.370  -9.203  13.555  1.00  0.00     0.134 A 
ATOM     74  C   UNL     1       4.431  -8.431  12.615  1.00  0.00     0.134 A 
ATOM     75  F   UNL     1       1.208  -9.867  13.464  1.00  0.00    -0.206 F 
ATOM     76  C   UNL     1       2.673  -8.572  14.761  1.00  0.00     0.040 A 
ATOM     77  C   UNL     1       4.759  -7.816  13.824  1.00  0.00     0.040 A 
ATOM     78  F   UNL     1       5.310  -8.354  11.605  1.00  0.00    -0.206 F 
ATOM     79  C   UNL     1       3.874  -7.881  14.900  1.00  0.00     0.006 A 
ENDBRANCH  51  72
BRANCH  63  80
ATOM     80  C   UNL     1       5.837 -14.668   9.150  1.00  0.00     0.057 A 
ATOM     81  C   UNL     1       7.073 -14.622   8.493  1.00  0.00     0.134 A 
ATOM     82  C   UNL     1       5.663 -15.643  10.140  1.00  0.00     0.134 A 
ATOM     83  F   UNL     1       7.301 -13.714   7.532  1.00  0.00    -0.206 F 
ATOM     84  C   UNL     1       8.099 -15.512   8.811  1.00  0.00     0.040 A 
ATOM     85  C   UNL     1       6.689 -16.524  10.482  1.00  0.00     0.040 A 
ATOM     86  F   UNL     1       4.507 -15.726  10.816  1.00  0.00    -0.206 F 
ATOM     87  C   UNL     1       7.911 -16.462   9.813  1.00  0.00     0.006 A 
ENDBRANCH  63  80
ENDBRANCH  37  38
ENDBRANCH  29  32
ENDBRANCH  27  28
ENDBRANCH  26  27
ENDBRANCH   1  26
TORSDOF 13
