REMARK SMILES Cc1cccc2c(C(=O)NCCCNC(=O)c3ccc(-c4c5nc(c(-c6c(F)cccc6F)c6ccc([nH]6)c(-c6c(F)cccc6F)c6nc(c(-c7c(F)cccc7F)c7ccc4[nH]7)C=C6)C=C5)cc3)cc(=O)[nH]c12
REMARK SMILES IDX 13 1 12 2 11 3 10 4 8 5 9 6 7 8 1 9 2 10 3 11 75 12 4 13
REMARK SMILES IDX 6 14 74 15 5 16 72 17 71 19 73 20 14 21 15 22 16 24 17 25
REMARK SMILES IDX 18 26 70 27 19 28 69 29 20 30 21 31 22 32 63 33 23 34 68 35
REMARK SMILES IDX 62 36 64 37 24 38 67 39 61 40 60 41 25 43 51 44 34 45 50 46
REMARK SMILES IDX 35 47 38 48 49 49 65 50 36 51 37 52 48 54 66 55 39 56 26 57
REMARK SMILES IDX 27 58 32 59 28 60 29 61 31 62 33 63 30 64 52 65 53 66 58 67
REMARK SMILES IDX 54 68 55 69 57 70 59 71 56 72 40 73 41 74 46 75 42 76 43 77
REMARK SMILES IDX 45 78 47 79 44 80
REMARK H PARENT 10 7 74 18 14 23 64 42 38 53
REMARK Flexibility Score: inf
ROOT
ATOM      1  C   UNL     1      -1.921   2.863   8.922  1.00  0.00     0.118 C 
ENDROOT
BRANCH   1   2
ATOM      2  C   UNL     1      -1.401   3.196   7.526  1.00  0.00     0.042 C 
BRANCH   2   3
ATOM      3  C   UNL     1      -0.032   2.578   7.240  1.00  0.00     0.118 C 
BRANCH   3   4
ATOM      4  N   UNL     1      -0.156   1.139   7.084  1.00  0.00    -0.352 N 
ATOM      5  C   UNL     1      -0.368   0.295   6.038  1.00  0.00     0.252 C 
ATOM      6  O   UNL     1      -0.594  -0.870   6.370  1.00  0.00    -0.269 OA
ATOM      7  H   UNL     1      -0.065   0.660   7.939  1.00  0.00     0.163 HD
BRANCH   5   8
ATOM      8  C   UNL     1      -0.271   0.697   4.587  1.00  0.00     0.054 A 
ATOM      9  C   UNL     1       0.867  -0.215  -0.282  1.00  0.00     0.046 C 
ATOM     10  C   UNL     1       0.543  -0.686   1.109  1.00  0.00    -0.027 A 
ATOM     11  C   UNL     1       0.569  -2.063   1.359  1.00  0.00     0.005 A 
ATOM     12  C   UNL     1       0.258   0.190   2.179  1.00  0.00     0.052 A 
ATOM     13  C   UNL     1       0.321  -2.553   2.634  1.00  0.00     0.001 A 
ATOM     14  C   UNL     1       0.033  -0.283   3.493  1.00  0.00     0.011 A 
ATOM     15  N   UNL     1       0.146   1.564   1.932  1.00  0.00    -0.322 N 
ATOM     16  C   UNL     1       0.071  -1.672   3.688  1.00  0.00     0.011 A 
ATOM     17  C   UNL     1      -0.278   2.467   2.854  1.00  0.00     0.249 A 
ATOM     18  H   UNL     1       0.389   1.896   1.037  1.00  0.00     0.170 HD
ATOM     19  C   UNL     1      -0.530   1.960   4.214  1.00  0.00     0.086 A 
ATOM     20  O   UNL     1      -0.426   3.653   2.596  1.00  0.00    -0.270 OA
ENDBRANCH   5   8
ENDBRANCH   3   4
ENDBRANCH   2   3
ENDBRANCH   1   2
BRANCH   1  21
ATOM     21  N   UNL     1      -1.142   3.513   9.970  1.00  0.00    -0.352 N 
ATOM     22  C   UNL     1      -1.524   4.454  10.897  1.00  0.00     0.251 C 
ATOM     23  H   UNL     1      -0.199   3.236  10.022  1.00  0.00     0.163 HD
ATOM     24  O   UNL     1      -0.675   5.054  11.548  1.00  0.00    -0.269 OA
BRANCH  22  25
ATOM     25  C   UNL     1      -2.957   4.753  11.094  1.00  0.00     0.039 A 
ATOM     26  C   UNL     1      -3.892   3.718  11.135  1.00  0.00     0.014 A 
ATOM     27  C   UNL     1      -3.371   6.080  11.231  1.00  0.00     0.014 A 
ATOM     28  C   UNL     1      -5.247   4.016  11.124  1.00  0.00     0.010 A 
ATOM     29  C   UNL     1      -4.735   6.373  11.323  1.00  0.00     0.010 A 
ATOM     30  C   UNL     1      -5.687   5.346  11.215  1.00  0.00    -0.014 A 
BRANCH  30  31
ATOM     31  C   UNL     1      -7.145   5.633  11.180  1.00  0.00     0.031 A 
ATOM     32  C   UNL     1      -7.741   6.442  10.057  1.00  0.00     0.074 A 
ATOM     33  C   UNL     1      -7.942   5.106  12.130  1.00  0.00     0.049 A 
ATOM     34  N   UNL     1      -8.990   6.780   9.855  1.00  0.00    -0.248 NA
ATOM     35  C   UNL     1      -6.815   6.941   9.027  1.00  0.00     0.031 C 
ATOM     36  C   UNL     1      -7.487   4.286  13.257  1.00  0.00     0.029 A 
ATOM     37  N   UNL     1      -9.303   5.157  12.289  1.00  0.00    -0.354 N 
ATOM     38  C   UNL     1      -8.996   7.547   8.696  1.00  0.00     0.074 A 
ATOM     39  C   UNL     1      -7.624   7.650   8.252  1.00  0.00     0.031 C 
ATOM     40  C   UNL     1      -8.552   3.867  13.955  1.00  0.00     0.029 A 
ATOM     41  C   UNL     1      -9.756   4.448  13.376  1.00  0.00     0.049 A 
ATOM     42  H   UNL     1      -9.899   5.654  11.683  1.00  0.00     0.167 HD
ATOM     43  C   UNL     1     -10.051   8.107   8.056  1.00  0.00     0.037 A 
ATOM     44  C   UNL     1     -11.001   4.304  13.864  1.00  0.00     0.037 A 
ATOM     45  C   UNL     1     -11.420   7.983   8.489  1.00  0.00     0.049 A 
ATOM     46  C   UNL     1     -12.138   5.000  13.170  1.00  0.00     0.074 A 
ATOM     47  C   UNL     1     -12.563   8.484   7.891  1.00  0.00     0.029 A 
ATOM     48  N   UNL     1     -11.829   7.314   9.633  1.00  0.00    -0.354 N 
ATOM     49  N   UNL     1     -12.132   5.698  12.061  1.00  0.00    -0.248 NA
ATOM     50  C   UNL     1     -13.458   4.895  13.807  1.00  0.00     0.031 C 
ATOM     51  C   UNL     1     -13.657   8.170   8.703  1.00  0.00     0.029 A 
ATOM     52  C   UNL     1     -13.204   7.420   9.776  1.00  0.00     0.049 A 
ATOM     53  H   UNL     1     -11.232   6.835  10.252  1.00  0.00     0.167 HD
ATOM     54  C   UNL     1     -13.447   6.089  11.852  1.00  0.00     0.074 A 
ATOM     55  C   UNL     1     -14.227   5.528  12.935  1.00  0.00     0.031 C 
ATOM     56  C   UNL     1     -13.966   6.848  10.855  1.00  0.00     0.037 A 
BRANCH  43  57
ATOM     57  C   UNL     1      -9.771   8.931   6.831  1.00  0.00     0.057 A 
ATOM     58  C   UNL     1      -9.963  10.319   6.852  1.00  0.00     0.134 A 
ATOM     59  C   UNL     1      -9.362   8.356   5.621  1.00  0.00     0.134 A 
ATOM     60  F   UNL     1     -10.361  10.935   7.975  1.00  0.00    -0.206 F 
ATOM     61  C   UNL     1      -9.764  11.103   5.714  1.00  0.00     0.040 A 
ATOM     62  C   UNL     1      -9.133   9.133   4.483  1.00  0.00     0.040 A 
ATOM     63  F   UNL     1      -9.149   7.034   5.534  1.00  0.00    -0.206 F 
ATOM     64  C   UNL     1      -9.342  10.511   4.526  1.00  0.00     0.006 A 
ENDBRANCH  43  57
BRANCH  44  65
ATOM     65  C   UNL     1     -11.249   3.498  15.088  1.00  0.00     0.057 A 
ATOM     66  C   UNL     1     -10.766   3.901  16.339  1.00  0.00     0.134 A 
ATOM     67  C   UNL     1     -12.035   2.340  15.044  1.00  0.00     0.134 A 
ATOM     68  F   UNL     1     -10.003   4.998  16.451  1.00  0.00    -0.206 F 
ATOM     69  C   UNL     1     -11.057   3.186  17.501  1.00  0.00     0.040 A 
ATOM     70  C   UNL     1     -12.363   1.634  16.203  1.00  0.00     0.040 A 
ATOM     71  F   UNL     1     -12.544   1.913  13.879  1.00  0.00    -0.206 F 
ATOM     72  C   UNL     1     -11.872   2.058  17.436  1.00  0.00     0.006 A 
ENDBRANCH  44  65
BRANCH  56  73
ATOM     73  C   UNL     1     -15.451   7.069  10.873  1.00  0.00     0.057 A 
ATOM     74  C   UNL     1     -16.270   6.469   9.908  1.00  0.00     0.134 A 
ATOM     75  C   UNL     1     -16.071   7.871  11.840  1.00  0.00     0.134 A 
ATOM     76  F   UNL     1     -15.740   5.696   8.948  1.00  0.00    -0.206 F 
ATOM     77  C   UNL     1     -17.652   6.656   9.906  1.00  0.00     0.040 A 
ATOM     78  C   UNL     1     -17.456   8.038  11.868  1.00  0.00     0.040 A 
ATOM     79  F   UNL     1     -15.346   8.460  12.803  1.00  0.00    -0.206 F 
ATOM     80  C   UNL     1     -18.250   7.434  10.896  1.00  0.00     0.006 A 
ENDBRANCH  56  73
ENDBRANCH  30  31
ENDBRANCH  22  25
ENDBRANCH   1  21
TORSDOF 10
