REMARK SMILES CC[C@@H](C(=O)Nc1ccc(OC(C)=O)cc1C(=O)NCCCNC(=O)c1ccc(-c2c3nc(c(-c4c(F)cccc4F)c4ccc([nH]4)c(-c4c(F)cccc4F)c4nc(c(-c5c(F)cccc5F)c5ccc2[nH]5)C=C4)C=C3)cc1)c1ccccc1
REMARK SMILES IDX 20 1 19 2 17 3 18 4 16 6 7 7 8 8 9 9 15 10 10 11 6 12 4 13
REMARK SMILES IDX 5 14 3 16 2 17 1 18 80 19 81 20 85 21 82 22 84 23 83 24
REMARK SMILES IDX 11 25 12 26 13 27 14 28 21 29 22 30 23 31 24 32 25 34 26 35
REMARK SMILES IDX 27 36 79 37 28 38 78 39 29 40 30 41 31 42 72 43 32 44 77 45
REMARK SMILES IDX 71 46 73 47 33 48 76 49 70 50 69 51 34 53 60 54 43 55 59 56
REMARK SMILES IDX 44 57 47 58 58 59 74 60 45 61 46 62 57 64 75 65 48 66 35 67
REMARK SMILES IDX 36 68 41 69 37 70 38 71 40 72 42 73 39 74 61 75 62 76 67 77
REMARK SMILES IDX 63 78 64 79 66 80 68 81 65 82 49 83 50 84 55 85 51 86 52 87
REMARK SMILES IDX 54 88 56 89 53 90
REMARK H PARENT 19 5 6 15 23 33 73 52 47 63
REMARK Flexibility Score: inf
ROOT
ATOM      1  C   UNL     1      -0.992  -1.480   2.150  1.00  0.00     0.118 C 
ENDROOT
BRANCH   1   2
ATOM      2  N   UNL     1      -1.191  -0.559   1.050  1.00  0.00    -0.352 N 
ATOM      3  C   UNL     1      -0.367   0.356   0.465  1.00  0.00     0.253 C 
ATOM      4  O   UNL     1      -0.830   0.980  -0.494  1.00  0.00    -0.269 OA
ATOM      5  H   UNL     1      -2.089  -0.601   0.651  1.00  0.00     0.163 HD
BRANCH   3   6
ATOM      6  C   UNL     1       1.013   0.683   0.920  1.00  0.00     0.067 A 
ATOM      7  C   UNL     1       1.978  -0.146   1.518  1.00  0.00     0.054 A 
ATOM      8  C   UNL     1       3.144   0.441   2.056  1.00  0.00     0.031 A 
ATOM      9  C   UNL     1       3.461   1.777   1.826  1.00  0.00     0.049 A 
ATOM     10  C   UNL     1       1.341   2.044   0.711  1.00  0.00     0.063 A 
ATOM     11  C   UNL     1       2.578   2.548   1.092  1.00  0.00     0.131 A 
BRANCH   7  12
ATOM     12  N   UNL     1       1.937  -1.527   1.718  1.00  0.00    -0.325 N 
ATOM     13  C   UNL     1       1.768  -2.642   0.967  1.00  0.00     0.231 C 
ATOM     14  O   UNL     1       1.721  -3.665   1.675  1.00  0.00    -0.274 OA
ATOM     15  H   UNL     1       2.067  -1.753   2.668  1.00  0.00     0.169 HD
BRANCH  13  16
ATOM     16  C   UNL     1       1.817  -2.789  -0.576  1.00  0.00     0.108 C 
BRANCH  16  17
ATOM     17  C   UNL     1       1.540  -1.604  -1.506  1.00  0.00     0.015 C 
ATOM     18  C   UNL     1       2.729  -0.685  -1.724  1.00  0.00     0.005 C 
ENDBRANCH  16  17
BRANCH  16  19
ATOM     19  C   UNL     1       0.986  -4.018  -1.008  1.00  0.00    -0.036 A 
ATOM     20  C   UNL     1      -0.288  -3.916  -1.591  1.00  0.00     0.004 A 
ATOM     21  C   UNL     1       1.520  -5.304  -0.808  1.00  0.00     0.004 A 
ATOM     22  C   UNL     1      -0.975  -5.059  -2.011  1.00  0.00     0.000 A 
ATOM     23  C   UNL     1       0.821  -6.446  -1.204  1.00  0.00     0.000 A 
ATOM     24  C   UNL     1      -0.420  -6.322  -1.820  1.00  0.00     0.000 A 
ENDBRANCH  16  19
ENDBRANCH  13  16
ENDBRANCH   7  12
BRANCH  11  25
ATOM     25  O   UNL     1       2.940   3.868   0.795  1.00  0.00    -0.427 OA
BRANCH  25  26
ATOM     26  C   UNL     1       3.510   4.135  -0.448  1.00  0.00     0.308 C 
ATOM     27  C   UNL     1       2.936   3.385  -1.620  1.00  0.00     0.139 C 
ATOM     28  O   UNL     1       4.373   4.997  -0.581  1.00  0.00    -0.252 OA
ENDBRANCH  25  26
ENDBRANCH  11  25
ENDBRANCH   3   6
ENDBRANCH   1   2
BRANCH   1  29
ATOM     29  C   UNL     1      -2.293  -2.007   2.723  1.00  0.00     0.042 C 
BRANCH  29  30
ATOM     30  C   UNL     1      -3.043  -2.890   1.729  1.00  0.00     0.118 C 
BRANCH  30  31
ATOM     31  N   UNL     1      -2.495  -4.237   1.585  1.00  0.00    -0.352 N 
ATOM     32  C   UNL     1      -2.970  -5.452   2.039  1.00  0.00     0.251 C 
ATOM     33  H   UNL     1      -1.650  -4.286   1.083  1.00  0.00     0.163 HD
ATOM     34  O   UNL     1      -2.330  -6.478   1.883  1.00  0.00    -0.269 OA
BRANCH  32  35
ATOM     35  C   UNL     1      -4.250  -5.498   2.777  1.00  0.00     0.039 A 
ATOM     36  C   UNL     1      -4.311  -6.190   3.989  1.00  0.00     0.014 A 
ATOM     37  C   UNL     1      -5.362  -4.801   2.312  1.00  0.00     0.014 A 
ATOM     38  C   UNL     1      -5.446  -6.069   4.793  1.00  0.00     0.010 A 
ATOM     39  C   UNL     1      -6.423  -4.564   3.173  1.00  0.00     0.010 A 
ATOM     40  C   UNL     1      -6.481  -5.193   4.426  1.00  0.00    -0.014 A 
BRANCH  40  41
ATOM     41  C   UNL     1      -7.634  -4.912   5.321  1.00  0.00     0.031 A 
ATOM     42  C   UNL     1      -9.039  -5.125   4.821  1.00  0.00     0.074 A 
ATOM     43  C   UNL     1      -7.428  -4.365   6.537  1.00  0.00     0.049 A 
ATOM     44  N   UNL     1     -10.176  -4.793   5.377  1.00  0.00    -0.248 NA
ATOM     45  C   UNL     1      -9.183  -5.742   3.491  1.00  0.00     0.031 C 
ATOM     46  C   UNL     1      -6.123  -4.029   7.113  1.00  0.00     0.029 A 
ATOM     47  N   UNL     1      -8.322  -3.981   7.506  1.00  0.00    -0.354 N 
ATOM     48  C   UNL     1     -11.156  -5.113   4.446  1.00  0.00     0.074 A 
ATOM     49  C   UNL     1     -10.480  -5.606   3.268  1.00  0.00     0.031 C 
ATOM     50  C   UNL     1      -6.300  -3.529   8.347  1.00  0.00     0.029 A 
ATOM     51  C   UNL     1      -7.728  -3.468   8.635  1.00  0.00     0.049 A 
ATOM     52  H   UNL     1      -9.297  -4.066   7.402  1.00  0.00     0.167 HD
ATOM     53  C   UNL     1     -12.502  -5.036   4.572  1.00  0.00     0.037 A 
ATOM     54  C   UNL     1      -8.275  -3.001   9.773  1.00  0.00     0.037 A 
ATOM     55  C   UNL     1     -13.175  -4.627   5.774  1.00  0.00     0.049 A 
ATOM     56  C   UNL     1      -9.771  -3.002   9.919  1.00  0.00     0.074 A 
ATOM     57  C   UNL     1     -14.532  -4.607   6.038  1.00  0.00     0.029 A 
ATOM     58  N   UNL     1     -12.534  -4.188   6.922  1.00  0.00    -0.354 N 
ATOM     59  N   UNL     1     -10.685  -3.369   9.054  1.00  0.00    -0.248 NA
ATOM     60  C   UNL     1     -10.313  -2.530  11.201  1.00  0.00     0.031 C 
ATOM     61  C   UNL     1     -14.715  -4.135   7.342  1.00  0.00     0.029 A 
ATOM     62  C   UNL     1     -13.469  -3.892   7.898  1.00  0.00     0.049 A 
ATOM     63  H   UNL     1     -11.559  -4.100   7.027  1.00  0.00     0.167 HD
ATOM     64  C   UNL     1     -11.905  -3.198   9.694  1.00  0.00     0.074 A 
ATOM     65  C   UNL     1     -11.614  -2.708  11.026  1.00  0.00     0.031 C 
ATOM     66  C   UNL     1     -13.155  -3.424   9.223  1.00  0.00     0.037 A 
BRANCH  53  67
ATOM     67  C   UNL     1     -13.330  -5.432   3.385  1.00  0.00     0.057 A 
ATOM     68  C   UNL     1     -13.425  -6.765   2.962  1.00  0.00     0.134 A 
ATOM     69  C   UNL     1     -14.056  -4.473   2.667  1.00  0.00     0.134 A 
ATOM     70  F   UNL     1     -12.743  -7.729   3.598  1.00  0.00    -0.206 F 
ATOM     71  C   UNL     1     -14.185  -7.126   1.849  1.00  0.00     0.040 A 
ATOM     72  C   UNL     1     -14.842  -4.826   1.569  1.00  0.00     0.040 A 
ATOM     73  F   UNL     1     -14.013  -3.180   3.020  1.00  0.00    -0.206 F 
ATOM     74  C   UNL     1     -14.902  -6.155   1.153  1.00  0.00     0.006 A 
ENDBRANCH  53  67
BRANCH  54  75
ATOM     75  C   UNL     1      -7.408  -2.533  10.883  1.00  0.00     0.057 A 
ATOM     76  C   UNL     1      -7.282  -3.283  12.059  1.00  0.00     0.134 A 
ATOM     77  C   UNL     1      -6.701  -1.328  10.808  1.00  0.00     0.134 A 
ATOM     78  F   UNL     1      -7.950  -4.438  12.197  1.00  0.00    -0.206 F 
ATOM     79  C   UNL     1      -6.504  -2.840  13.130  1.00  0.00     0.040 A 
ATOM     80  C   UNL     1      -5.901  -0.884  11.863  1.00  0.00     0.040 A 
ATOM     81  F   UNL     1      -6.772  -0.568   9.706  1.00  0.00    -0.206 F 
ATOM     82  C   UNL     1      -5.808  -1.638  13.032  1.00  0.00     0.006 A 
ENDBRANCH  54  75
BRANCH  66  83
ATOM     83  C   UNL     1     -14.296  -3.180  10.162  1.00  0.00     0.057 A 
ATOM     84  C   UNL     1     -14.717  -1.886  10.489  1.00  0.00     0.134 A 
ATOM     85  C   UNL     1     -15.009  -4.255  10.708  1.00  0.00     0.134 A 
ATOM     86  F   UNL     1     -14.066  -0.817  10.007  1.00  0.00    -0.206 F 
ATOM     87  C   UNL     1     -15.801  -1.668  11.340  1.00  0.00     0.040 A 
ATOM     88  C   UNL     1     -16.108  -4.050  11.542  1.00  0.00     0.040 A 
ATOM     89  F   UNL     1     -14.658  -5.519  10.426  1.00  0.00    -0.206 F 
ATOM     90  C   UNL     1     -16.503  -2.753  11.864  1.00  0.00     0.006 A 
ENDBRANCH  66  83
ENDBRANCH  40  41
ENDBRANCH  32  35
ENDBRANCH  30  31
ENDBRANCH  29  30
ENDBRANCH   1  29
TORSDOF 16
