REMARK SMILES Cn1c(=O)c2c(nc(Nc3cccc(Cl)c3Cl)n2CC(=O)NCCCNC(=O)c2ccc(-c3c4nc(c(-c5c(F)cccc5F)c5ccc([nH]5)c(-c5c(F)cccc5F)c5nc(c(-c6c(F)cccc6F)c6ccc3[nH]6)C=C5)C=C4)cc2)n(C)c1=O
REMARK SMILES IDX 23 1 22 2 20 3 21 4 19 6 18 7 1 8 2 9 3 10 85 11 4 12 5 13
REMARK SMILES IDX 83 14 86 15 6 16 84 17 7 18 8 19 9 20 10 22 11 23 16 24
REMARK SMILES IDX 12 25 14 26 17 27 13 28 15 29 24 30 25 31 26 32 27 33 28 35
REMARK SMILES IDX 29 36 30 37 82 38 31 39 81 40 32 41 33 42 34 43 75 44 35 45
REMARK SMILES IDX 80 46 74 47 76 48 36 49 79 50 73 51 72 52 37 54 63 55 46 56
REMARK SMILES IDX 62 57 47 58 50 59 61 60 77 61 48 62 49 63 60 65 78 66 51 67
REMARK SMILES IDX 38 68 39 69 44 70 40 71 41 72 43 73 45 74 42 75 64 76 65 77
REMARK SMILES IDX 70 78 66 79 67 80 69 81 71 82 68 83 52 84 53 85 58 86 54 87
REMARK SMILES IDX 55 88 57 89 59 90 56 91
REMARK H PARENT 22 5 9 21 26 34 76 53 50 64
REMARK Flexibility Score: inf
ROOT
ATOM      1  C   UNL     1       2.534   4.473   5.690  1.00  0.00     0.117 C 
ENDROOT
BRANCH   1   2
ATOM      2  N   UNL     1       2.726   4.652   4.268  1.00  0.00    -0.354 N 
ATOM      3  C   UNL     1       1.779   4.786   3.292  1.00  0.00     0.240 C 
ATOM      4  O   UNL     1       2.168   5.190   2.195  1.00  0.00    -0.273 OA
ATOM      5  H   UNL     1       3.661   4.683   3.963  1.00  0.00     0.163 HD
BRANCH   3   6
ATOM      6  C   UNL     1       0.303   4.578   3.593  1.00  0.00     0.226 C 
BRANCH   6   7
ATOM      7  N   UNL     1      -0.074   3.242   4.033  1.00  0.00    -0.295 N 
ATOM      8  C   UNL     1       0.974   0.306   0.154  1.00  0.00     0.159 C 
ATOM      9  N   UNL     1       0.502   0.582   1.499  1.00  0.00    -0.261 N 
ATOM     10  C   UNL     1       0.467   1.930   1.886  1.00  0.00     0.282 A 
ATOM     11  C   UNL     1       0.147  -0.513   2.305  1.00  0.00     0.332 A 
ATOM     12  O   UNL     1       0.766   2.850   1.149  1.00  0.00    -0.267 OA
ATOM     13  C   UNL     1       0.037   2.115   3.237  1.00  0.00     0.154 A 
ATOM     14  N   UNL     1      -0.314  -0.228   3.591  1.00  0.00    -0.279 N 
ATOM     15  O   UNL     1       0.247  -1.673   1.896  1.00  0.00    -0.247 OA
ATOM     16  C   UNL     1      -0.348   1.078   4.021  1.00  0.00     0.170 A 
ATOM     17  C   UNL     1      -0.732  -1.300   4.476  1.00  0.00     0.157 C 
ATOM     18  N   UNL     1      -0.739   1.495   5.246  1.00  0.00    -0.194 NA
ATOM     19  C   UNL     1      -0.622   2.812   5.243  1.00  0.00     0.210 A 
BRANCH  19  20
ATOM     20  N   UNL     1      -0.905   3.509   6.369  1.00  0.00    -0.324 N 
ATOM     21  H   UNL     1      -1.141   2.926   7.127  1.00  0.00     0.170 HD
BRANCH  20  22
ATOM     22  C   UNL     1      -0.938   4.875   6.704  1.00  0.00     0.061 A 
ATOM     23  C   UNL     1      -0.122   5.276   7.784  1.00  0.00     0.028 A 
ATOM     24  C   UNL     1      -1.699   5.855   6.039  1.00  0.00     0.083 A 
ATOM     25  C   UNL     1       0.054   6.621   8.101  1.00  0.00     0.004 A 
ATOM     26  C   UNL     1      -1.517   7.212   6.361  1.00  0.00     0.061 A 
ATOM     27  Cl  UNL     1      -2.866   5.377   4.845  1.00  0.00    -0.080 Cl
ATOM     28  C   UNL     1      -0.625   7.590   7.371  1.00  0.00     0.022 A 
ATOM     29  Cl  UNL     1      -2.339   8.481   5.523  1.00  0.00    -0.083 Cl
ENDBRANCH  20  22
ENDBRANCH  19  20
ENDBRANCH   6   7
ENDBRANCH   3   6
ENDBRANCH   1   2
BRANCH   1  30
ATOM     30  C   UNL     1       2.687   3.028   6.157  1.00  0.00     0.042 C 
BRANCH  30  31
ATOM     31  C   UNL     1       4.140   2.606   6.223  1.00  0.00     0.118 C 
BRANCH  31  32
ATOM     32  N   UNL     1       4.881   3.293   7.283  1.00  0.00    -0.352 N 
ATOM     33  C   UNL     1       6.232   3.212   7.560  1.00  0.00     0.251 C 
ATOM     34  H   UNL     1       4.354   3.882   7.869  1.00  0.00     0.163 HD
ATOM     35  O   UNL     1       6.677   3.555   8.648  1.00  0.00    -0.269 OA
BRANCH  33  36
ATOM     36  C   UNL     1       7.123   2.686   6.514  1.00  0.00     0.039 A 
ATOM     37  C   UNL     1       8.118   1.754   6.807  1.00  0.00     0.014 A 
ATOM     38  C   UNL     1       6.879   3.084   5.203  1.00  0.00     0.014 A 
ATOM     39  C   UNL     1       8.801   1.159   5.749  1.00  0.00     0.010 A 
ATOM     40  C   UNL     1       7.405   2.354   4.169  1.00  0.00     0.010 A 
ATOM     41  C   UNL     1       8.415   1.440   4.426  1.00  0.00    -0.014 A 
BRANCH  41  42
ATOM     42  C   UNL     1       9.036   0.744   3.305  1.00  0.00     0.031 A 
ATOM     43  C   UNL     1       9.136  -0.733   3.445  1.00  0.00     0.074 A 
ATOM     44  C   UNL     1       9.396   1.345   2.151  1.00  0.00     0.049 A 
ATOM     45  N   UNL     1      10.203  -1.422   3.677  1.00  0.00    -0.248 NA
ATOM     46  C   UNL     1       7.900  -1.526   3.448  1.00  0.00     0.031 C 
ATOM     47  C   UNL     1       9.138   2.713   1.684  1.00  0.00     0.029 A 
ATOM     48  N   UNL     1      10.055   0.792   1.098  1.00  0.00    -0.354 N 
ATOM     49  C   UNL     1       9.815  -2.758   3.674  1.00  0.00     0.074 A 
ATOM     50  C   UNL     1       8.374  -2.754   3.679  1.00  0.00     0.031 C 
ATOM     51  C   UNL     1       9.445   2.814   0.372  1.00  0.00     0.029 A 
ATOM     52  C   UNL     1      10.104   1.590  -0.035  1.00  0.00     0.049 A 
ATOM     53  H   UNL     1      10.465  -0.102   1.137  1.00  0.00     0.167 HD
ATOM     54  C   UNL     1      10.722  -3.752   3.461  1.00  0.00     0.037 A 
ATOM     55  C   UNL     1      10.667   1.272  -1.224  1.00  0.00     0.037 A 
ATOM     56  C   UNL     1      12.071  -3.270   3.636  1.00  0.00     0.049 A 
ATOM     57  C   UNL     1      11.660   0.203  -0.961  1.00  0.00     0.074 A 
ATOM     58  C   UNL     1      12.776  -2.714   4.686  1.00  0.00     0.029 A 
ATOM     59  N   UNL     1      12.796  -2.972   2.508  1.00  0.00    -0.354 N 
ATOM     60  N   UNL     1      12.759   0.386  -0.283  1.00  0.00    -0.248 NA
ATOM     61  C   UNL     1      11.213  -1.176  -1.070  1.00  0.00     0.031 C 
ATOM     62  C   UNL     1      13.586  -1.702   4.089  1.00  0.00     0.029 A 
ATOM     63  C   UNL     1      13.372  -1.744   2.711  1.00  0.00     0.049 A 
ATOM     64  H   UNL     1      12.886  -3.534   1.705  1.00  0.00     0.167 HD
ATOM     65  C   UNL     1      12.905  -0.769   0.470  1.00  0.00     0.074 A 
ATOM     66  C   UNL     1      11.978  -1.730  -0.126  1.00  0.00     0.031 C 
ATOM     67  C   UNL     1      13.555  -0.756   1.671  1.00  0.00     0.037 A 
BRANCH  54  68
ATOM     68  C   UNL     1      10.426  -5.055   2.760  1.00  0.00     0.057 A 
ATOM     69  C   UNL     1      11.422  -6.049   2.706  1.00  0.00     0.134 A 
ATOM     70  C   UNL     1       9.332  -5.261   1.897  1.00  0.00     0.134 A 
ATOM     71  F   UNL     1      12.521  -5.968   3.472  1.00  0.00    -0.206 F 
ATOM     72  C   UNL     1      11.371  -7.118   1.802  1.00  0.00     0.040 A 
ATOM     73  C   UNL     1       9.246  -6.353   1.028  1.00  0.00     0.040 A 
ATOM     74  F   UNL     1       8.339  -4.373   1.772  1.00  0.00    -0.206 F 
ATOM     75  C   UNL     1      10.284  -7.268   0.952  1.00  0.00     0.006 A 
ENDBRANCH  54  68
BRANCH  55  76
ATOM     76  C   UNL     1      10.193   1.603  -2.583  1.00  0.00     0.057 A 
ATOM     77  C   UNL     1      11.023   1.426  -3.697  1.00  0.00     0.134 A 
ATOM     78  C   UNL     1       8.828   1.810  -2.852  1.00  0.00     0.134 A 
ATOM     79  F   UNL     1      12.334   1.193  -3.537  1.00  0.00    -0.206 F 
ATOM     80  C   UNL     1      10.520   1.406  -5.004  1.00  0.00     0.040 A 
ATOM     81  C   UNL     1       8.313   1.798  -4.152  1.00  0.00     0.040 A 
ATOM     82  F   UNL     1       7.937   1.933  -1.857  1.00  0.00    -0.206 F 
ATOM     83  C   UNL     1       9.158   1.575  -5.233  1.00  0.00     0.006 A 
ENDBRANCH  55  76
BRANCH  67  84
ATOM     84  C   UNL     1      14.317   0.487   2.050  1.00  0.00     0.057 A 
ATOM     85  C   UNL     1      13.720   1.735   2.285  1.00  0.00     0.134 A 
ATOM     86  C   UNL     1      15.679   0.375   2.353  1.00  0.00     0.134 A 
ATOM     87  F   UNL     1      12.406   1.919   2.113  1.00  0.00    -0.206 F 
ATOM     88  C   UNL     1      14.450   2.826   2.769  1.00  0.00     0.040 A 
ATOM     89  C   UNL     1      16.412   1.448   2.866  1.00  0.00     0.040 A 
ATOM     90  F   UNL     1      16.309  -0.801   2.205  1.00  0.00    -0.206 F 
ATOM     91  C   UNL     1      15.800   2.681   3.071  1.00  0.00     0.006 A 
ENDBRANCH  67  84
ENDBRANCH  41  42
ENDBRANCH  33  36
ENDBRANCH  31  32
ENDBRANCH  30  31
ENDBRANCH   1  30
TORSDOF 13
