REMARK SMILES CC1(C)CCN(S(=O)(=O)c2ccc(O)c(C(=O)NCCCNC(=O)c3ccc(-c4c5nc(c(-c6c(F)cccc6F)c6ccc([nH]6)c(-c6c(F)cccc6F)c6nc(c(-c7c(F)cccc7F)c7ccc4[nH]7)C=C6)C=C5)cc3)c2)C1
REMARK SMILES IDX 20 1 19 2 18 3 16 4 17 5 15 7 10 8 11 9 79 10 12 11 13 12
REMARK SMILES IDX 7 13 8 14 9 15 6 16 1 17 2 18 3 19 4 20 80 21 5 22 14 23
REMARK SMILES IDX 21 25 22 26 23 27 24 29 25 30 26 31 78 32 27 33 77 34 28 35
REMARK SMILES IDX 29 36 30 37 71 38 31 39 76 40 70 41 72 42 32 43 75 44 69 45
REMARK SMILES IDX 68 46 33 48 59 49 42 50 58 51 43 52 46 53 57 54 73 55 44 56
REMARK SMILES IDX 45 57 56 59 74 60 47 61 34 62 35 63 40 64 36 65 37 66 39 67
REMARK SMILES IDX 41 68 38 69 60 70 61 71 66 72 62 73 63 74 65 75 67 76 64 77
REMARK SMILES IDX 48 78 49 79 54 80 50 81 51 82 53 83 55 84 52 85
REMARK H PARENT 18 6 14 24 22 28 72 47 46 58
REMARK Flexibility Score: inf
ROOT
ATOM      1  C   UNL     1       3.758   9.245   0.968  1.00  0.00     0.042 C 
ENDROOT
BRANCH   1   2
ATOM      2  C   UNL     1       3.791   8.287  -0.226  1.00  0.00     0.118 C 
BRANCH   2   3
ATOM      3  N   UNL     1       4.762   7.231  -0.028  1.00  0.00    -0.352 N 
ATOM      4  C   UNL     1       4.664   5.941   0.419  1.00  0.00     0.255 C 
ATOM      5  O   UNL     1       5.724   5.307   0.440  1.00  0.00    -0.269 OA
ATOM      6  H   UNL     1       5.680   7.495  -0.264  1.00  0.00     0.163 HD
BRANCH   4   7
ATOM      7  C   UNL     1       3.414   5.229   0.846  1.00  0.00     0.082 A 
ATOM      8  C   UNL     1       2.454   3.005   1.231  1.00  0.00     0.083 A 
ATOM      9  C   UNL     1       1.360   3.578   1.875  1.00  0.00     0.025 A 
ATOM     10  C   UNL     1       3.472   3.820   0.720  1.00  0.00     0.039 A 
ATOM     11  C   UNL     1       1.256   4.959   1.958  1.00  0.00     0.048 A 
ATOM     12  C   UNL     1       2.282   5.777   1.469  1.00  0.00     0.128 A 
BRANCH   8  13
ATOM     13  S   UNL     1       2.642   1.234   1.263  1.00  0.00     0.243 S 
ATOM     14  O   UNL     1       2.211   0.784   2.572  1.00  0.00    -0.207 OA
ATOM     15  O   UNL     1       3.953   0.908   0.760  1.00  0.00    -0.207 OA
BRANCH  13  16
ATOM     16  N   UNL     1       1.503   0.659   0.127  1.00  0.00    -0.197 NA
ATOM     17  C   UNL     1      -0.998  -0.152  -1.636  1.00  0.00     0.012 C 
ATOM     18  C   UNL     1      -0.739  -0.208  -0.123  1.00  0.00    -0.020 C 
ATOM     19  C   UNL     1      -2.077  -0.301   0.616  1.00  0.00     0.012 C 
ATOM     20  C   UNL     1       0.198  -1.356   0.249  1.00  0.00     0.024 C 
ATOM     21  C   UNL     1       0.071   1.001   0.358  1.00  0.00     0.109 C 
ATOM     22  C   UNL     1       1.584  -0.820  -0.092  1.00  0.00     0.103 C 
ENDBRANCH  13  16
ENDBRANCH   8  13
BRANCH  12  23
ATOM     23  O   UNL     1       2.137   7.109   1.704  1.00  0.00    -0.507 OA
ATOM     24  H   UNL     1       1.363   7.429   2.124  1.00  0.00     0.293 HD
ENDBRANCH  12  23
ENDBRANCH   4   7
ENDBRANCH   2   3
ENDBRANCH   1   2
BRANCH   1  25
ATOM     25  C   UNL     1       4.894  10.257   0.996  1.00  0.00     0.118 C 
BRANCH  25  26
ATOM     26  N   UNL     1       4.718  11.300   0.002  1.00  0.00    -0.352 N 
ATOM     27  C   UNL     1       4.611  12.659   0.146  1.00  0.00     0.251 C 
ATOM     28  H   UNL     1       4.666  10.979  -0.927  1.00  0.00     0.163 HD
ATOM     29  O   UNL     1       4.233  13.327  -0.815  1.00  0.00    -0.269 OA
BRANCH  27  30
ATOM     30  C   UNL     1       4.939  13.344   1.421  1.00  0.00     0.039 A 
ATOM     31  C   UNL     1       4.233  14.509   1.743  1.00  0.00     0.014 A 
ATOM     32  C   UNL     1       5.987  12.928   2.249  1.00  0.00     0.014 A 
ATOM     33  C   UNL     1       4.569  15.245   2.882  1.00  0.00     0.010 A 
ATOM     34  C   UNL     1       6.273  13.621   3.427  1.00  0.00     0.010 A 
ATOM     35  C   UNL     1       5.591  14.805   3.737  1.00  0.00    -0.014 A 
BRANCH  35  36
ATOM     36  C   UNL     1       5.995  15.618   4.912  1.00  0.00     0.031 A 
ATOM     37  C   UNL     1       7.352  16.271   4.949  1.00  0.00     0.074 A 
ATOM     38  C   UNL     1       5.151  15.763   5.951  1.00  0.00     0.049 A 
ATOM     39  N   UNL     1       7.884  17.024   5.879  1.00  0.00    -0.248 NA
ATOM     40  C   UNL     1       8.237  16.028   3.799  1.00  0.00     0.031 C 
ATOM     41  C   UNL     1       3.829  15.144   6.059  1.00  0.00     0.029 A 
ATOM     42  N   UNL     1       5.280  16.479   7.114  1.00  0.00    -0.354 N 
ATOM     43  C   UNL     1       9.166  17.327   5.435  1.00  0.00     0.074 A 
ATOM     44  C   UNL     1       9.350  16.638   4.177  1.00  0.00     0.031 C 
ATOM     45  C   UNL     1       3.257  15.531   7.211  1.00  0.00     0.029 A 
ATOM     46  C   UNL     1       4.178  16.407   7.930  1.00  0.00     0.049 A 
ATOM     47  H   UNL     1       6.087  16.996   7.342  1.00  0.00     0.167 HD
ATOM     48  C   UNL     1      10.098  18.125   6.009  1.00  0.00     0.037 A 
ATOM     49  C   UNL     1       3.934  16.991   9.118  1.00  0.00     0.037 A 
ATOM     50  C   UNL     1       9.903  18.839   7.244  1.00  0.00     0.049 A 
ATOM     51  C   UNL     1       4.965  17.909   9.713  1.00  0.00     0.074 A 
ATOM     52  C   UNL     1      10.768  19.708   7.886  1.00  0.00     0.029 A 
ATOM     53  N   UNL     1       8.756  18.770   8.019  1.00  0.00    -0.354 N 
ATOM     54  N   UNL     1       6.150  18.230   9.252  1.00  0.00    -0.248 NA
ATOM     55  C   UNL     1       4.617  18.558  10.984  1.00  0.00     0.031 C 
ATOM     56  C   UNL     1      10.153  20.147   9.064  1.00  0.00     0.029 A 
ATOM     57  C   UNL     1       8.891  19.579   9.135  1.00  0.00     0.049 A 
ATOM     58  H   UNL     1       7.963  18.227   7.808  1.00  0.00     0.167 HD
ATOM     59  C   UNL     1       6.676  19.140  10.160  1.00  0.00     0.074 A 
ATOM     60  C   UNL     1       5.675  19.330  11.190  1.00  0.00     0.031 C 
ATOM     61  C   UNL     1       7.879  19.763  10.143  1.00  0.00     0.037 A 
BRANCH  48  62
ATOM     62  C   UNL     1      11.411  18.272   5.297  1.00  0.00     0.057 A 
ATOM     63  C   UNL     1      11.525  18.999   4.104  1.00  0.00     0.134 A 
ATOM     64  C   UNL     1      12.577  17.698   5.817  1.00  0.00     0.134 A 
ATOM     65  F   UNL     1      10.443  19.562   3.546  1.00  0.00    -0.206 F 
ATOM     66  C   UNL     1      12.747  19.125   3.440  1.00  0.00     0.040 A 
ATOM     67  C   UNL     1      13.809  17.838   5.176  1.00  0.00     0.040 A 
ATOM     68  F   UNL     1      12.540  16.993   6.958  1.00  0.00    -0.206 F 
ATOM     69  C   UNL     1      13.895  18.548   3.979  1.00  0.00     0.006 A 
ENDBRANCH  48  62
BRANCH  49  70
ATOM     70  C   UNL     1       2.636  16.768   9.800  1.00  0.00     0.057 A 
ATOM     71  C   UNL     1       1.672  17.781   9.864  1.00  0.00     0.134 A 
ATOM     72  C   UNL     1       2.330  15.545  10.407  1.00  0.00     0.134 A 
ATOM     73  F   UNL     1       1.917  18.980   9.315  1.00  0.00    -0.206 F 
ATOM     74  C   UNL     1       0.457  17.593  10.523  1.00  0.00     0.040 A 
ATOM     75  C   UNL     1       1.109  15.336  11.051  1.00  0.00     0.040 A 
ATOM     76  F   UNL     1       3.209  14.533  10.373  1.00  0.00    -0.206 F 
ATOM     77  C   UNL     1       0.171  16.365  11.116  1.00  0.00     0.006 A 
ENDBRANCH  49  70
BRANCH  61  78
ATOM     78  C   UNL     1       8.158  20.735  11.250  1.00  0.00     0.057 A 
ATOM     79  C   UNL     1       8.433  20.310  12.556  1.00  0.00     0.134 A 
ATOM     80  C   UNL     1       8.164  22.113  11.001  1.00  0.00     0.134 A 
ATOM     81  F   UNL     1       8.428  19.003  12.860  1.00  0.00    -0.206 F 
ATOM     82  C   UNL     1       8.677  21.224  13.582  1.00  0.00     0.040 A 
ATOM     83  C   UNL     1       8.430  23.035  12.014  1.00  0.00     0.040 A 
ATOM     84  F   UNL     1       7.916  22.585   9.770  1.00  0.00    -0.206 F 
ATOM     85  C   UNL     1       8.679  22.591  13.311  1.00  0.00     0.006 A 
ENDBRANCH  61  78
ENDBRANCH  35  36
ENDBRANCH  27  30
ENDBRANCH  25  26
ENDBRANCH   1  25
TORSDOF 13
