REMARK SMILES CC(C)[C@H](CO)NS(=O)(=O)c1ccc(C(=O)NCCCNC(=O)c2ccc(-c3c4nc(c(-c5c(F)cccc5F)c5ccc([nH]5)c(-c5c(F)cccc5F)c5nc(c(-c6c(F)cccc6F)c6ccc3[nH]6)C=C5)C=C4)cc2)cn1
REMARK SMILES IDX 15 1 16 2 17 3 14 5 11 6 12 7 79 8 13 9 78 10 8 11 9 12
REMARK SMILES IDX 10 13 7 14 4 16 2 17 1 18 3 19 5 20 6 21 18 23 19 24 20 25
REMARK SMILES IDX 21 26 22 27 23 29 24 30 25 31 77 32 26 33 76 34 27 35 28 36
REMARK SMILES IDX 29 37 70 38 30 39 75 40 69 41 71 42 31 43 74 44 68 45 67 46
REMARK SMILES IDX 32 48 58 49 41 50 57 51 42 52 45 53 56 54 72 55 43 56 44 57
REMARK SMILES IDX 55 59 73 60 46 61 33 62 34 63 39 64 35 65 36 66 38 67 40 68
REMARK SMILES IDX 37 69 59 70 60 71 65 72 61 73 62 74 64 75 66 76 63 77 47 78
REMARK SMILES IDX 48 79 53 80 49 81 50 82 52 83 54 84 51 85
REMARK H PARENT 17 4 7 15 6 22 21 28 71 47 45 58
REMARK Flexibility Score: inf
ROOT
ATOM      1  C   UNL     1      -5.038  -2.547   3.877  1.00  0.00     0.252 C 
ATOM      2  O   UNL     1      -5.030  -1.435   4.403  1.00  0.00    -0.269 OA
ATOM      3  N   UNL     1      -5.578  -3.589   4.587  1.00  0.00    -0.352 N 
ATOM      4  H   UNL     1      -5.869  -3.349   5.496  1.00  0.00     0.163 HD
ENDROOT
BRANCH   1   5
ATOM      5  C   UNL     1      -4.507  -2.691   2.501  1.00  0.00     0.058 A 
ATOM      6  C   UNL     1      -3.656  -2.718  -0.104  1.00  0.00     0.170 A 
ATOM      7  C   UNL     1      -3.544  -3.885   0.629  1.00  0.00     0.043 A 
ATOM      8  N   UNL     1      -4.123  -1.540   0.390  1.00  0.00    -0.243 NA
ATOM      9  C   UNL     1      -3.951  -3.853   1.961  1.00  0.00     0.018 A 
ATOM     10  C   UNL     1      -4.540  -1.562   1.682  1.00  0.00     0.126 A 
BRANCH   6  11
ATOM     11  S   UNL     1      -3.231  -2.711  -1.841  1.00  0.00     0.258 S 
ATOM     12  O   UNL     1      -4.144  -1.840  -2.545  1.00  0.00    -0.205 OA
ATOM     13  O   UNL     1      -3.093  -4.091  -2.266  1.00  0.00    -0.205 OA
BRANCH  11  14
ATOM     14  N   UNL     1      -1.669  -2.048  -1.977  1.00  0.00    -0.204 NA
ATOM     15  H   UNL     1      -1.016  -2.826  -1.885  1.00  0.00     0.141 HD
BRANCH  14  16
ATOM     16  C   UNL     1      -1.195  -0.981  -1.035  1.00  0.00     0.098 C 
BRANCH  16  17
ATOM     17  C   UNL     1      -1.341   0.457  -1.602  1.00  0.00     0.003 C 
ATOM     18  C   UNL     1      -2.669   0.747  -2.300  1.00  0.00     0.009 C 
ATOM     19  C   UNL     1      -1.181   1.484  -0.467  1.00  0.00     0.009 C 
ENDBRANCH  16  17
BRANCH  16  20
ATOM     20  C   UNL     1       0.299  -1.312  -0.761  1.00  0.00     0.176 C 
BRANCH  20  21
ATOM     21  O   UNL     1       0.990  -1.583  -1.983  1.00  0.00    -0.395 OA
ATOM     22  H   UNL     1       0.583  -2.347  -2.422  1.00  0.00     0.210 HD
ENDBRANCH  20  21
ENDBRANCH  16  20
ENDBRANCH  14  16
ENDBRANCH  11  14
ENDBRANCH   6  11
ENDBRANCH   1   5
BRANCH   3  23
ATOM     23  C   UNL     1      -5.798  -4.982   4.243  1.00  0.00     0.118 C 
BRANCH  23  24
ATOM     24  C   UNL     1      -4.683  -5.867   4.800  1.00  0.00     0.042 C 
BRANCH  24  25
ATOM     25  C   UNL     1      -4.844  -6.169   6.286  1.00  0.00     0.118 C 
BRANCH  25  26
ATOM     26  N   UNL     1      -5.998  -7.018   6.539  1.00  0.00    -0.352 N 
ATOM     27  C   UNL     1      -6.072  -8.271   7.090  1.00  0.00     0.251 C 
ATOM     28  H   UNL     1      -6.863  -6.632   6.271  1.00  0.00     0.163 HD
ATOM     29  O   UNL     1      -7.108  -8.919   6.970  1.00  0.00    -0.269 OA
BRANCH  27  30
ATOM     30  C   UNL     1      -4.923  -8.847   7.820  1.00  0.00     0.039 A 
ATOM     31  C   UNL     1      -4.675 -10.218   7.705  1.00  0.00     0.014 A 
ATOM     32  C   UNL     1      -4.128  -8.062   8.659  1.00  0.00     0.014 A 
ATOM     33  C   UNL     1      -3.605 -10.790   8.393  1.00  0.00     0.010 A 
ATOM     34  C   UNL     1      -3.011  -8.616   9.278  1.00  0.00     0.010 A 
ATOM     35  C   UNL     1      -2.745  -9.987   9.161  1.00  0.00    -0.014 A 
BRANCH  35  36
ATOM     36  C   UNL     1      -1.564 -10.571   9.844  1.00  0.00     0.031 A 
ATOM     37  C   UNL     1      -1.462 -10.553  11.343  1.00  0.00     0.074 A 
ATOM     38  C   UNL     1      -0.559 -11.075   9.103  1.00  0.00     0.049 A 
ATOM     39  N   UNL     1      -0.496 -10.989  12.112  1.00  0.00    -0.248 NA
ATOM     40  C   UNL     1      -2.581  -9.940  12.077  1.00  0.00     0.031 C 
ATOM     41  C   UNL     1      -0.521 -11.104   7.639  1.00  0.00     0.029 A 
ATOM     42  N   UNL     1       0.625 -11.657   9.478  1.00  0.00    -0.354 N 
ATOM     43  C   UNL     1      -0.885 -10.695  13.413  1.00  0.00     0.074 A 
ATOM     44  C   UNL     1      -2.145  -9.988  13.326  1.00  0.00     0.031 C 
ATOM     45  C   UNL     1       0.611 -11.706   7.241  1.00  0.00     0.029 A 
ATOM     46  C   UNL     1       1.396 -12.065   8.417  1.00  0.00     0.049 A 
ATOM     47  H   UNL     1       0.897 -11.770  10.417  1.00  0.00     0.167 HD
ATOM     48  C   UNL     1      -0.262 -11.007  14.574  1.00  0.00     0.037 A 
ATOM     49  C   UNL     1       2.603 -12.661   8.395  1.00  0.00     0.037 A 
ATOM     50  C   UNL     1       0.987 -11.719  14.652  1.00  0.00     0.049 A 
ATOM     51  C   UNL     1       3.283 -12.982   9.696  1.00  0.00     0.074 A 
ATOM     52  C   UNL     1       1.676 -12.134  15.779  1.00  0.00     0.029 A 
ATOM     53  N   UNL     1       1.740 -12.116  13.556  1.00  0.00    -0.354 N 
ATOM     54  N   UNL     1       2.870 -12.764  10.921  1.00  0.00    -0.248 NA
ATOM     55  C   UNL     1       4.594 -13.638   9.610  1.00  0.00     0.031 C 
ATOM     56  C   UNL     1       2.872 -12.730  15.365  1.00  0.00     0.029 A 
ATOM     57  C   UNL     1       2.901 -12.743  13.980  1.00  0.00     0.049 A 
ATOM     58  H   UNL     1       1.487 -11.972  12.615  1.00  0.00     0.167 HD
ATOM     59  C   UNL     1       3.856 -13.278  11.752  1.00  0.00     0.074 A 
ATOM     60  C   UNL     1       4.878 -13.836  10.889  1.00  0.00     0.031 C 
ATOM     61  C   UNL     1       3.912 -13.289  13.107  1.00  0.00     0.037 A 
BRANCH  48  62
ATOM     62  C   UNL     1      -0.923 -10.571  15.852  1.00  0.00     0.057 A 
ATOM     63  C   UNL     1      -2.134 -11.128  16.289  1.00  0.00     0.134 A 
ATOM     64  C   UNL     1      -0.336  -9.594  16.666  1.00  0.00     0.134 A 
ATOM     65  F   UNL     1      -2.758 -12.061  15.554  1.00  0.00    -0.206 F 
ATOM     66  C   UNL     1      -2.753 -10.704  17.467  1.00  0.00     0.040 A 
ATOM     67  C   UNL     1      -0.929  -9.185  17.862  1.00  0.00     0.040 A 
ATOM     68  F   UNL     1       0.826  -9.023  16.315  1.00  0.00    -0.206 F 
ATOM     69  C   UNL     1      -2.146  -9.733  18.260  1.00  0.00     0.006 A 
ENDBRANCH  48  62
BRANCH  49  70
ATOM     70  C   UNL     1       3.228 -13.019   7.096  1.00  0.00     0.057 A 
ATOM     71  C   UNL     1       3.362 -14.356   6.706  1.00  0.00     0.134 A 
ATOM     72  C   UNL     1       3.696 -12.039   6.213  1.00  0.00     0.134 A 
ATOM     73  F   UNL     1       2.946 -15.341   7.516  1.00  0.00    -0.206 F 
ATOM     74  C   UNL     1       3.955 -14.708   5.492  1.00  0.00     0.040 A 
ATOM     75  C   UNL     1       4.266 -12.375   4.984  1.00  0.00     0.040 A 
ATOM     76  F   UNL     1       3.586 -10.739   6.523  1.00  0.00    -0.206 F 
ATOM     77  C   UNL     1       4.403 -13.714   4.624  1.00  0.00     0.006 A 
ENDBRANCH  49  70
BRANCH  61  78
ATOM     78  C   UNL     1       5.105 -13.949  13.737  1.00  0.00     0.057 A 
ATOM     79  C   UNL     1       6.386 -13.386  13.672  1.00  0.00     0.134 A 
ATOM     80  C   UNL     1       4.965 -15.155  14.437  1.00  0.00     0.134 A 
ATOM     81  F   UNL     1       6.592 -12.239  13.006  1.00  0.00    -0.206 F 
ATOM     82  C   UNL     1       7.489 -14.013  14.254  1.00  0.00     0.040 A 
ATOM     83  C   UNL     1       6.054 -15.774  15.050  1.00  0.00     0.040 A 
ATOM     84  F   UNL     1       3.765 -15.744  14.547  1.00  0.00    -0.206 F 
ATOM     85  C   UNL     1       7.323 -15.208  14.951  1.00  0.00     0.006 A 
ENDBRANCH  61  78
ENDBRANCH  35  36
ENDBRANCH  27  30
ENDBRANCH  25  26
ENDBRANCH  24  25
ENDBRANCH  23  24
ENDBRANCH   3  23
TORSDOF 16
