REMARK SMILES CC(=O)N[C@@H](C)C(=O)N1CCC[C@H]1C(=O)NCCCNC(=O)c1ccc(-c2c3nc(c(-c4c(F)cccc4F)c4ccc([nH]4)c(-c4c(F)cccc4F)c4nc(c(-c5c(F)cccc5F)c5ccc2[nH]5)C=C4)C=C3)cc1
REMARK SMILES IDX 17 1 16 2 14 3 15 4 13 6 9 7 10 8 11 9 12 10 7 11 8 12 5 13
REMARK SMILES IDX 6 14 4 15 1 16 2 17 3 18 18 20 19 21 20 22 21 23 22 25 23 26
REMARK SMILES IDX 24 27 76 28 25 29 75 30 26 31 27 32 28 33 69 34 29 35 74 36
REMARK SMILES IDX 68 37 70 38 30 39 73 40 67 41 66 42 31 44 57 45 40 46 56 47
REMARK SMILES IDX 41 48 44 49 55 50 71 51 42 52 43 53 54 55 72 56 45 57 32 58
REMARK SMILES IDX 33 59 38 60 34 61 35 62 37 63 39 64 36 65 58 66 59 67 64 68
REMARK SMILES IDX 60 69 61 70 63 71 65 72 62 73 46 74 47 75 52 76 48 77 49 78
REMARK SMILES IDX 51 79 53 80 50 81
REMARK H PARENT 16 5 4 19 20 24 70 43 44 54
REMARK Flexibility Score: inf
ROOT
ATOM      1  C   UNL     1      -2.484   5.864   2.247  1.00  0.00     0.117 C 
ENDROOT
BRANCH   1   2
ATOM      2  N   UNL     1      -1.744   5.884   3.488  1.00  0.00    -0.354 N 
ATOM      3  C   UNL     1      -0.408   6.035   3.711  1.00  0.00     0.242 C 
ATOM      4  O   UNL     1      -0.064   6.261   4.876  1.00  0.00    -0.273 OA
ATOM      5  H   UNL     1      -2.291   5.771   4.299  1.00  0.00     0.163 HD
BRANCH   3   6
ATOM      6  C   UNL     1       0.615   6.133   2.557  1.00  0.00     0.174 C 
ATOM      7  N   UNL     1       0.605   5.081   1.530  1.00  0.00    -0.329 N 
ATOM      8  C   UNL     1       0.421   5.631   0.201  1.00  0.00     0.120 C 
ATOM      9  C   UNL     1       0.717   7.114   0.336  1.00  0.00     0.024 C 
ATOM     10  C   UNL     1       0.453   7.454   1.797  1.00  0.00     0.037 C 
BRANCH   7  11
ATOM     11  C   UNL     1       1.025   3.817   1.899  1.00  0.00     0.245 C 
ATOM     12  O   UNL     1       1.099   3.514   3.096  1.00  0.00    -0.272 OA
BRANCH  11  13
ATOM     13  C   UNL     1       1.605   2.831   0.858  1.00  0.00     0.168 C 
ATOM     14  C   UNL     1       2.983   3.312   0.403  1.00  0.00     0.041 C 
BRANCH  13  15
ATOM     15  N   UNL     1       0.743   2.526  -0.279  1.00  0.00    -0.345 N 
ATOM     16  C   UNL     1       0.893   0.070  -0.045  1.00  0.00     0.114 C 
ATOM     17  C   UNL     1       0.383   1.298  -0.749  1.00  0.00     0.217 C 
ATOM     18  O   UNL     1      -0.348   1.229  -1.736  1.00  0.00    -0.275 OA
ATOM     19  H   UNL     1       0.377   3.300  -0.765  1.00  0.00     0.164 HD
ENDBRANCH  13  15
ENDBRANCH  11  13
ENDBRANCH   7  11
ENDBRANCH   3   6
ENDBRANCH   1   2
BRANCH   1  20
ATOM     20  C   UNL     1      -2.957   4.470   1.871  1.00  0.00     0.042 C 
BRANCH  20  21
ATOM     21  C   UNL     1      -4.113   3.986   2.736  1.00  0.00     0.118 C 
BRANCH  21  22
ATOM     22  N   UNL     1      -5.312   4.800   2.561  1.00  0.00    -0.352 N 
ATOM     23  C   UNL     1      -6.572   4.441   2.155  1.00  0.00     0.251 C 
ATOM     24  H   UNL     1      -5.198   5.756   2.767  1.00  0.00     0.163 HD
ATOM     25  O   UNL     1      -7.389   5.307   1.863  1.00  0.00    -0.269 OA
BRANCH  23  26
ATOM     26  C   UNL     1      -6.941   3.014   2.065  1.00  0.00     0.039 A 
ATOM     27  C   UNL     1      -7.723   2.582   0.990  1.00  0.00     0.014 A 
ATOM     28  C   UNL     1      -6.541   2.111   3.052  1.00  0.00     0.014 A 
ATOM     29  C   UNL     1      -8.052   1.231   0.876  1.00  0.00     0.010 A 
ATOM     30  C   UNL     1      -6.795   0.755   2.892  1.00  0.00     0.010 A 
ATOM     31  C   UNL     1      -7.564   0.303   1.810  1.00  0.00    -0.014 A 
BRANCH  31  32
ATOM     32  C   UNL     1      -7.861  -1.144   1.695  1.00  0.00     0.031 A 
ATOM     33  C   UNL     1      -8.650  -1.832   2.775  1.00  0.00     0.074 A 
ATOM     34  C   UNL     1      -7.355  -1.851   0.667  1.00  0.00     0.049 A 
ATOM     35  N   UNL     1      -8.922  -3.104   2.920  1.00  0.00    -0.248 NA
ATOM     36  C   UNL     1      -9.177  -0.979   3.853  1.00  0.00     0.031 C 
ATOM     37  C   UNL     1      -6.538  -1.302  -0.417  1.00  0.00     0.029 A 
ATOM     38  N   UNL     1      -7.440  -3.188   0.376  1.00  0.00    -0.354 N 
ATOM     39  C   UNL     1      -9.629  -3.204   4.111  1.00  0.00     0.074 A 
ATOM     40  C   UNL     1      -9.697  -1.875   4.678  1.00  0.00     0.031 C 
ATOM     41  C   UNL     1      -6.213  -2.291  -1.265  1.00  0.00     0.029 A 
ATOM     42  C   UNL     1      -6.760  -3.547  -0.762  1.00  0.00     0.049 A 
ATOM     43  H   UNL     1      -7.941  -3.830   0.930  1.00  0.00     0.167 HD
ATOM     44  C   UNL     1     -10.190  -4.302   4.671  1.00  0.00     0.037 A 
ATOM     45  C   UNL     1      -6.588  -4.756  -1.328  1.00  0.00     0.037 A 
ATOM     46  C   UNL     1     -10.140  -5.616   4.088  1.00  0.00     0.049 A 
ATOM     47  C   UNL     1      -7.215  -5.961  -0.683  1.00  0.00     0.074 A 
ATOM     48  C   UNL     1     -10.725  -6.785   4.544  1.00  0.00     0.029 A 
ATOM     49  N   UNL     1      -9.463  -5.936   2.921  1.00  0.00    -0.354 N 
ATOM     50  N   UNL     1      -7.934  -6.034   0.410  1.00  0.00    -0.248 NA
ATOM     51  C   UNL     1      -7.011  -7.252  -1.355  1.00  0.00     0.031 C 
ATOM     52  C   UNL     1     -10.363  -7.820   3.677  1.00  0.00     0.029 A 
ATOM     53  C   UNL     1      -9.598  -7.287   2.651  1.00  0.00     0.049 A 
ATOM     54  H   UNL     1      -8.960  -5.296   2.365  1.00  0.00     0.167 HD
ATOM     55  C   UNL     1      -8.294  -7.369   0.542  1.00  0.00     0.074 A 
ATOM     56  C   UNL     1      -7.723  -8.068  -0.592  1.00  0.00     0.031 C 
ATOM     57  C   UNL     1      -9.031  -7.963   1.512  1.00  0.00     0.037 A 
BRANCH  44  58
ATOM     58  C   UNL     1     -10.907  -4.122   5.978  1.00  0.00     0.057 A 
ATOM     59  C   UNL     1     -12.115  -3.417   6.070  1.00  0.00     0.134 A 
ATOM     60  C   UNL     1     -10.397  -4.683   7.156  1.00  0.00     0.134 A 
ATOM     61  F   UNL     1     -12.652  -2.843   4.982  1.00  0.00    -0.206 F 
ATOM     62  C   UNL     1     -12.773  -3.249   7.290  1.00  0.00     0.040 A 
ATOM     63  C   UNL     1     -11.062  -4.547   8.377  1.00  0.00     0.040 A 
ATOM     64  F   UNL     1      -9.249  -5.376   7.141  1.00  0.00    -0.206 F 
ATOM     65  C   UNL     1     -12.249  -3.821   8.447  1.00  0.00     0.006 A 
ENDBRANCH  44  58
BRANCH  45  66
ATOM     66  C   UNL     1      -5.806  -4.886  -2.584  1.00  0.00     0.057 A 
ATOM     67  C   UNL     1      -6.433  -5.211  -3.792  1.00  0.00     0.134 A 
ATOM     68  C   UNL     1      -4.420  -4.694  -2.607  1.00  0.00     0.134 A 
ATOM     69  F   UNL     1      -7.756  -5.424  -3.830  1.00  0.00    -0.206 F 
ATOM     70  C   UNL     1      -5.707  -5.361  -4.975  1.00  0.00     0.040 A 
ATOM     71  C   UNL     1      -3.685  -4.814  -3.788  1.00  0.00     0.040 A 
ATOM     72  F   UNL     1      -3.761  -4.374  -1.484  1.00  0.00    -0.206 F 
ATOM     73  C   UNL     1      -4.329  -5.157  -4.976  1.00  0.00     0.006 A 
ENDBRANCH  45  66
BRANCH  57  74
ATOM     74  C   UNL     1      -9.300  -9.433   1.367  1.00  0.00     0.057 A 
ATOM     75  C   UNL     1      -8.301 -10.393   1.566  1.00  0.00     0.134 A 
ATOM     76  C   UNL     1     -10.589  -9.892   1.067  1.00  0.00     0.134 A 
ATOM     77  F   UNL     1      -7.043 -10.018   1.843  1.00  0.00    -0.206 F 
ATOM     78  C   UNL     1      -8.569 -11.758   1.448  1.00  0.00     0.040 A 
ATOM     79  C   UNL     1     -10.876 -11.254   0.976  1.00  0.00     0.040 A 
ATOM     80  F   UNL     1     -11.595  -9.025   0.875  1.00  0.00    -0.206 F 
ATOM     81  C   UNL     1      -9.862 -12.191   1.160  1.00  0.00     0.006 A 
ENDBRANCH  57  74
ENDBRANCH  31  32
ENDBRANCH  23  26
ENDBRANCH  21  22
ENDBRANCH  20  21
ENDBRANCH   1  20
TORSDOF 13
