REMARK SMILES CC(C)C(=O)Nc1ccc2c([C@H](C(=O)NCCCNC(=O)c3ccc(-c4c5nc(c(-c6c(F)cccc6F)c6ccc([nH]6)c(-c6c(F)cccc6F)c6nc(c(-c7c(F)cccc7F)c7ccc4[nH]7)C=C6)C=C5)cc3)[NH+]3CC[NH+](CC(=O)N(C)C)CC3)c[nH]c2c1
REMARK SMILES IDX 16 1 15 2 13 3 14 4 12 6 11 7 7 8 8 9 91 10 9 11 90 12 10 13
REMARK SMILES IDX 89 14 88 15 6 17 4 18 5 19 2 21 1 22 3 23 76 24 77 25 87 26
REMARK SMILES IDX 78 28 86 29 79 30 80 32 81 33 82 34 83 35 84 36 85 37 17 38
REMARK SMILES IDX 18 39 19 40 20 41 21 43 22 44 23 45 75 46 24 47 74 48 25 49
REMARK SMILES IDX 26 50 27 51 68 52 28 53 73 54 67 55 69 56 29 57 72 58 66 59
REMARK SMILES IDX 65 60 30 62 56 63 39 64 55 65 40 66 43 67 54 68 70 69 41 70
REMARK SMILES IDX 42 71 53 73 71 74 44 75 31 76 32 77 37 78 33 79 34 80 36 81
REMARK SMILES IDX 38 82 35 83 57 84 58 85 63 86 59 87 60 88 62 89 64 90 61 91
REMARK SMILES IDX 45 92 46 93 51 94 47 95 48 96 50 97 52 98 49 99
REMARK H PARENT 15 5 89 16 6 20 76 27 79 31 19 42 69 61 43 72
REMARK Flexibility Score: inf
ROOT
ATOM      1  C   UNL     1       0.372  -4.073   1.545  1.00  0.00     0.118 C 
ENDROOT
BRANCH   1   2
ATOM      2  N   UNL     1      -0.131  -4.770   0.372  1.00  0.00    -0.351 N 
ATOM      3  C   UNL     1       0.335  -5.884  -0.270  1.00  0.00     0.283 C 
ATOM      4  O   UNL     1      -0.374  -6.330  -1.175  1.00  0.00    -0.268 OA
ATOM      5  H   UNL     1      -0.940  -4.374  -0.025  1.00  0.00     0.163 HD
BRANCH   3   6
ATOM      6  C   UNL     1       1.673  -6.510   0.162  1.00  0.00     0.308 C 
BRANCH   6   7
ATOM      7  C   UNL     1       1.495  -7.814   0.897  1.00  0.00     0.044 A 
ATOM      8  C   UNL     1       4.005 -10.023   3.411  1.00  0.00     0.043 A 
ATOM      9  C   UNL     1       4.644  -9.099   2.594  1.00  0.00     0.027 A 
ATOM     10  C   UNL     1       2.662 -10.357   3.198  1.00  0.00     0.052 A 
ATOM     11  C   UNL     1       3.921  -8.321   1.694  1.00  0.00     0.013 A 
ATOM     12  C   UNL     1       1.945  -9.560   2.297  1.00  0.00     0.048 A 
ATOM     13  C   UNL     1       2.533  -8.515   1.588  1.00  0.00     0.009 A 
ATOM     14  N   UNL     1       0.616  -9.580   1.949  1.00  0.00    -0.361 N 
ATOM     15  C   UNL     1       0.328  -8.521   1.131  1.00  0.00     0.094 A 
ATOM     16  H   UNL     1      -0.035 -10.257   2.245  1.00  0.00     0.166 HD
BRANCH   8  17
ATOM     17  N   UNL     1       4.682 -10.651   4.457  1.00  0.00    -0.326 N 
ATOM     18  C   UNL     1       5.513 -10.123   5.405  1.00  0.00     0.226 C 
ATOM     19  O   UNL     1       6.134 -10.921   6.119  1.00  0.00    -0.274 OA
ATOM     20  H   UNL     1       4.539 -11.623   4.523  1.00  0.00     0.169 HD
BRANCH  18  21
ATOM     21  C   UNL     1       5.616  -8.616   5.701  1.00  0.00     0.072 C 
ATOM     22  C   UNL     1       6.544  -7.824   4.789  1.00  0.00     0.018 C 
ATOM     23  C   UNL     1       4.266  -7.927   5.903  1.00  0.00     0.018 C 
ENDBRANCH  18  21
ENDBRANCH   8  17
ENDBRANCH   6   7
BRANCH   6  24
ATOM     24  N   UNL     1       2.679  -6.589  -0.910  1.00  0.00    -0.312 N 
ATOM     25  C   UNL     1       2.514  -7.626  -1.931  1.00  0.00     0.325 C 
ATOM     26  C   UNL     1       3.051  -5.287  -1.462  1.00  0.00     0.325 C 
ATOM     27  H   UNL     1       3.486  -6.940  -0.394  1.00  0.00     0.349 HD
ATOM     28  C   UNL     1       1.878  -7.203  -3.276  1.00  0.00     0.325 C 
ATOM     29  C   UNL     1       2.365  -4.880  -2.784  1.00  0.00     0.325 C 
ATOM     30  N   UNL     1       2.298  -5.904  -3.824  1.00  0.00    -0.318 N 
ATOM     31  H   UNL     1       1.559  -5.591  -4.454  1.00  0.00     0.348 HD
BRANCH  30  32
ATOM     32  C   UNL     1       3.445  -5.969  -4.748  1.00  0.00     0.364 C 
BRANCH  32  33
ATOM     33  C   UNL     1       4.734  -6.529  -4.141  1.00  0.00     0.277 C 
ATOM     34  O   UNL     1       4.936  -7.749  -4.165  1.00  0.00    -0.268 OA
ATOM     35  N   UNL     1       5.638  -5.666  -3.534  1.00  0.00    -0.344 N 
ATOM     36  C   UNL     1       5.688  -4.221  -3.689  1.00  0.00     0.146 C 
ATOM     37  C   UNL     1       6.673  -6.259  -2.702  1.00  0.00     0.146 C 
ENDBRANCH  32  33
ENDBRANCH  30  32
ENDBRANCH   6  24
ENDBRANCH   3   6
ENDBRANCH   1   2
BRANCH   1  38
ATOM     38  C   UNL     1       0.719  -2.623   1.239  1.00  0.00     0.042 C 
BRANCH  38  39
ATOM     39  C   UNL     1      -0.418  -1.843   0.586  1.00  0.00     0.118 C 
BRANCH  39  40
ATOM     40  N   UNL     1      -1.669  -1.948   1.326  1.00  0.00    -0.352 N 
ATOM     41  C   UNL     1      -2.432  -0.974   1.915  1.00  0.00     0.251 C 
ATOM     42  H   UNL     1      -2.022  -2.863   1.417  1.00  0.00     0.163 HD
ATOM     43  O   UNL     1      -3.349  -1.286   2.670  1.00  0.00    -0.269 OA
BRANCH  41  44
ATOM     44  C   UNL     1      -2.134   0.446   1.657  1.00  0.00     0.039 A 
ATOM     45  C   UNL     1      -2.143   1.343   2.727  1.00  0.00     0.014 A 
ATOM     46  C   UNL     1      -1.845   0.889   0.364  1.00  0.00     0.014 A 
ATOM     47  C   UNL     1      -1.792   2.675   2.509  1.00  0.00     0.010 A 
ATOM     48  C   UNL     1      -1.408   2.192   0.165  1.00  0.00     0.010 A 
ATOM     49  C   UNL     1      -1.382   3.099   1.234  1.00  0.00    -0.014 A 
BRANCH  49  50
ATOM     50  C   UNL     1      -0.925   4.490   0.998  1.00  0.00     0.031 A 
ATOM     51  C   UNL     1      -1.675   5.378   0.046  1.00  0.00     0.074 A 
ATOM     52  C   UNL     1       0.203   4.928   1.590  1.00  0.00     0.049 A 
ATOM     53  N   UNL     1      -1.392   6.594  -0.348  1.00  0.00    -0.248 NA
ATOM     54  C   UNL     1      -2.887   4.815  -0.570  1.00  0.00     0.031 C 
ATOM     55  C   UNL     1       1.045   4.141   2.493  1.00  0.00     0.029 A 
ATOM     56  N   UNL     1       0.842   6.139   1.510  1.00  0.00    -0.354 N 
ATOM     57  C   UNL     1      -2.384   6.935  -1.258  1.00  0.00     0.074 A 
ATOM     58  C   UNL     1      -3.235   5.776  -1.411  1.00  0.00     0.031 C 
ATOM     59  C   UNL     1       2.077   4.897   2.901  1.00  0.00     0.029 A 
ATOM     60  C   UNL     1       1.994   6.203   2.256  1.00  0.00     0.049 A 
ATOM     61  H   UNL     1       0.507   6.891   0.970  1.00  0.00     0.167 HD
ATOM     62  C   UNL     1      -2.585   8.118  -1.886  1.00  0.00     0.037 A 
ATOM     63  C   UNL     1       2.889   7.199   2.394  1.00  0.00     0.037 A 
ATOM     64  C   UNL     1      -1.739   9.271  -1.722  1.00  0.00     0.049 A 
ATOM     65  C   UNL     1       2.657   8.496   1.669  1.00  0.00     0.074 A 
ATOM     66  C   UNL     1      -1.879  10.529  -2.279  1.00  0.00     0.029 A 
ATOM     67  N   UNL     1      -0.590   9.303  -0.945  1.00  0.00    -0.354 N 
ATOM     68  N   UNL     1       1.679   8.829   0.863  1.00  0.00    -0.248 NA
ATOM     69  C   UNL     1       3.650   9.558   1.880  1.00  0.00     0.031 C 
ATOM     70  C   UNL     1      -0.786  11.307  -1.882  1.00  0.00     0.029 A 
ATOM     71  C   UNL     1       0.003  10.552  -1.028  1.00  0.00     0.049 A 
ATOM     72  H   UNL     1      -0.246   8.548  -0.414  1.00  0.00     0.167 HD
ATOM     73  C   UNL     1       1.921  10.145   0.492  1.00  0.00     0.074 A 
ATOM     74  C   UNL     1       3.131  10.554   1.176  1.00  0.00     0.031 C 
ATOM     75  C   UNL     1       1.206  10.944  -0.338  1.00  0.00     0.037 A 
BRANCH  62  76
ATOM     76  C   UNL     1      -3.768   8.217  -2.807  1.00  0.00     0.057 A 
ATOM     77  C   UNL     1      -5.085   8.185  -2.325  1.00  0.00     0.134 A 
ATOM     78  C   UNL     1      -3.592   8.365  -4.188  1.00  0.00     0.134 A 
ATOM     79  F   UNL     1      -5.325   8.032  -1.014  1.00  0.00    -0.206 F 
ATOM     80  C   UNL     1      -6.181   8.260  -3.186  1.00  0.00     0.040 A 
ATOM     81  C   UNL     1      -4.681   8.475  -5.056  1.00  0.00     0.040 A 
ATOM     82  F   UNL     1      -2.361   8.410  -4.718  1.00  0.00    -0.206 F 
ATOM     83  C   UNL     1      -5.980   8.413  -4.556  1.00  0.00     0.006 A 
ENDBRANCH  62  76
BRANCH  63  84
ATOM     84  C   UNL     1       4.078   7.011   3.263  1.00  0.00     0.057 A 
ATOM     85  C   UNL     1       4.215   7.713   4.466  1.00  0.00     0.134 A 
ATOM     86  C   UNL     1       5.106   6.126   2.913  1.00  0.00     0.134 A 
ATOM     87  F   UNL     1       3.272   8.587   4.849  1.00  0.00    -0.206 F 
ATOM     88  C   UNL     1       5.340   7.559   5.279  1.00  0.00     0.040 A 
ATOM     89  C   UNL     1       6.222   5.941   3.731  1.00  0.00     0.040 A 
ATOM     90  F   UNL     1       5.030   5.414   1.779  1.00  0.00    -0.206 F 
ATOM     91  C   UNL     1       6.345   6.666   4.914  1.00  0.00     0.006 A 
ENDBRANCH  63  84
BRANCH  75  92
ATOM     92  C   UNL     1       1.694  12.352  -0.526  1.00  0.00     0.057 A 
ATOM     93  C   UNL     1       2.858  12.645  -1.246  1.00  0.00     0.134 A 
ATOM     94  C   UNL     1       0.963  13.431  -0.012  1.00  0.00     0.134 A 
ATOM     95  F   UNL     1       3.611  11.658  -1.754  1.00  0.00    -0.206 F 
ATOM     96  C   UNL     1       3.292  13.960  -1.427  1.00  0.00     0.040 A 
ATOM     97  C   UNL     1       1.369  14.751  -0.213  1.00  0.00     0.040 A 
ATOM     98  F   UNL     1      -0.168  13.222   0.680  1.00  0.00    -0.206 F 
ATOM     99  C   UNL     1       2.542  15.018  -0.916  1.00  0.00     0.006 A 
ENDBRANCH  75  92
ENDBRANCH  49  50
ENDBRANCH  41  44
ENDBRANCH  39  40
ENDBRANCH  38  39
ENDBRANCH   1  38
TORSDOF 16
