REMARK SMILES O=C(COc1ccccc1[C@@H]1C2=C(CCCC2=O)Nc2nc(SCc3ccccn3)nn21)NCCCNC(=O)c1ccc(-c2c3nc(c(-c4c(F)cccc4F)c4ccc([nH]4)c(-c4c(F)cccc4F)c4nc(c(-c5c(F)cccc5F)c5ccc2[nH]5)C=C4)C=C3)cc1
REMARK SMILES IDX 1 1 2 2 33 3 3 5 4 6 5 7 6 8 10 9 7 10 9 11 8 12 11 13 12 14
REMARK SMILES IDX 32 15 13 16 17 17 20 18 31 19 14 20 19 21 16 22 18 23 21 24
REMARK SMILES IDX 22 25 15 26 23 28 24 29 25 30 26 31 30 32 27 33 29 34 28 35
REMARK SMILES IDX 34 36 35 37 36 38 37 39 38 40 39 42 40 43 41 44 93 45 42 46
REMARK SMILES IDX 92 47 43 48 44 49 45 50 86 51 46 52 91 53 85 54 87 55 47 56
REMARK SMILES IDX 90 57 84 58 83 59 48 61 74 62 57 63 73 64 58 65 61 66 72 67
REMARK SMILES IDX 88 68 59 69 60 70 71 72 89 73 62 74 49 75 50 76 55 77 51 78
REMARK SMILES IDX 52 79 54 80 56 81 53 82 75 83 76 84 81 85 77 86 78 87 80 88
REMARK SMILES IDX 82 89 79 90 63 91 64 92 69 93 65 94 66 95 68 96 70 97 67 98
REMARK H PARENT 33 4 19 27 37 41 87 60 61 71
REMARK Flexibility Score: inf
ROOT
ATOM      1  O   UNL     1       0.443   1.128   0.214  1.00  0.00    -0.271 OA
ATOM      2  C   UNL     1       1.665   0.893  -0.013  1.00  0.00     0.257 C 
ATOM      3  N   UNL     1       2.190   2.266   0.021  1.00  0.00    -0.353 N 
ATOM      4  H   UNL     1       3.165   2.380  -0.056  1.00  0.00     0.163 HD
ENDROOT
BRANCH   2   5
ATOM      5  C   UNL     1       2.612  -1.050  -0.457  1.00  0.00     0.329 C 
BRANCH   5   6
ATOM      6  O   UNL     1       3.546  -1.636  -1.503  1.00  0.00    -0.483 OA
BRANCH   6   7
ATOM      7  C   UNL     1       3.036  -1.686  -2.769  1.00  0.00     0.125 A 
ATOM      8  C   UNL     1       3.642  -2.453  -3.752  1.00  0.00     0.047 A 
ATOM      9  C   UNL     1       2.032  -0.792  -3.080  1.00  0.00     0.024 A 
ATOM     10  C   UNL     1       3.228  -2.297  -5.076  1.00  0.00     0.004 A 
ATOM     11  C   UNL     1       1.607  -0.630  -4.394  1.00  0.00     0.010 A 
ATOM     12  C   UNL     1       2.217  -1.385  -5.396  1.00  0.00     0.001 A 
BRANCH   9  13
ATOM     13  C   UNL     1       1.694   0.108  -1.949  1.00  0.00     0.181 C 
ATOM     14  C   UNL     1       3.413   0.690  -1.165  1.00  0.00     0.044 C 
ATOM     15  N   UNL     1       0.568  -0.746  -0.733  1.00  0.00    -0.218 N 
ATOM     16  C   UNL     1       3.749   0.484   0.384  1.00  0.00     0.027 C 
ATOM     17  C   UNL     1       4.330   1.447  -2.031  1.00  0.00     0.163 C 
ATOM     18  C   UNL     1       1.053  -0.886   0.964  1.00  0.00     0.227 A 
ATOM     19  N   UNL     1      -0.420  -1.647  -0.878  1.00  0.00    -0.141 NA
ATOM     20  C   UNL     1       5.067   0.892   0.947  1.00  0.00     0.055 C 
ATOM     21  N   UNL     1       2.524  -0.207   1.483  1.00  0.00    -0.328 N 
ATOM     22  C   UNL     1       5.564   2.018  -1.375  1.00  0.00     0.081 C 
ATOM     23  O   UNL     1       3.985   1.751  -3.167  1.00  0.00    -0.294 OA
ATOM     24  N   UNL     1       0.090  -1.594   1.478  1.00  0.00    -0.185 NA
ATOM     25  C   UNL     1      -0.705  -2.014   0.394  1.00  0.00     0.210 A 
ATOM     26  C   UNL     1       6.079   1.223  -0.165  1.00  0.00     0.014 C 
ATOM     27  H   UNL     1       2.712  -0.194   2.449  1.00  0.00     0.169 HD
BRANCH  25  28
ATOM     28  S   UNL     1      -2.022  -3.146   0.666  1.00  0.00    -0.078 SA
BRANCH  28  29
ATOM     29  C   UNL     1      -1.881  -3.492   2.448  1.00  0.00     0.134 C 
BRANCH  29  30
ATOM     30  C   UNL     1      -0.635  -4.257   2.845  1.00  0.00     0.051 A 
ATOM     31  C   UNL     1       0.451  -3.592   3.417  1.00  0.00     0.025 A 
ATOM     32  N   UNL     1      -0.603  -5.590   2.596  1.00  0.00    -0.260 NA
ATOM     33  C   UNL     1       1.641  -4.279   3.631  1.00  0.00     0.003 A 
ATOM     34  C   UNL     1       0.551  -6.243   2.857  1.00  0.00     0.111 A 
ATOM     35  C   UNL     1       1.696  -5.633   3.344  1.00  0.00     0.020 A 
ENDBRANCH  29  30
ENDBRANCH  28  29
ENDBRANCH  25  28
ENDBRANCH   9  13
ENDBRANCH   6   7
ENDBRANCH   5   6
ENDBRANCH   2   5
BRANCH   3  36
ATOM     36  C   UNL     1       1.373   3.485   0.160  1.00  0.00     0.117 C 
BRANCH  36  37
ATOM     37  C   UNL     1       1.720   4.290   1.414  1.00  0.00     0.042 C 
BRANCH  37  38
ATOM     38  C   UNL     1       3.182   4.711   1.515  1.00  0.00     0.118 C 
BRANCH  38  39
ATOM     39  N   UNL     1       3.695   5.518   0.392  1.00  0.00    -0.352 N 
ATOM     40  C   UNL     1       4.929   6.157   0.245  1.00  0.00     0.251 C 
ATOM     41  H   UNL     1       3.076   5.621  -0.367  1.00  0.00     0.163 HD
ATOM     42  O   UNL     1       5.081   7.043  -0.588  1.00  0.00    -0.269 OA
BRANCH  40  43
ATOM     43  C   UNL     1       6.094   5.689   1.026  1.00  0.00     0.039 A 
ATOM     44  C   UNL     1       7.181   6.453   1.461  1.00  0.00     0.014 A 
ATOM     45  C   UNL     1       6.081   4.351   1.319  1.00  0.00     0.014 A 
ATOM     46  C   UNL     1       8.248   5.809   2.122  1.00  0.00     0.010 A 
ATOM     47  C   UNL     1       6.903   3.859   2.275  1.00  0.00     0.010 A 
ATOM     48  C   UNL     1       8.121   4.460   2.463  1.00  0.00    -0.014 A 
BRANCH  48  49
ATOM     49  C   UNL     1       9.053   3.652   3.243  1.00  0.00     0.031 A 
ATOM     50  C   UNL     1       8.983   4.023   4.681  1.00  0.00     0.074 A 
ATOM     51  C   UNL     1       9.622   2.511   2.766  1.00  0.00     0.049 A 
ATOM     52  N   UNL     1       9.813   4.778   5.323  1.00  0.00    -0.248 NA
ATOM     53  C   UNL     1       7.721   3.791   5.419  1.00  0.00     0.031 C 
ATOM     54  C   UNL     1       9.495   1.893   1.437  1.00  0.00     0.029 A 
ATOM     55  N   UNL     1      10.412   1.599   3.421  1.00  0.00    -0.354 N 
ATOM     56  C   UNL     1       9.303   4.847   6.615  1.00  0.00     0.074 A 
ATOM     57  C   UNL     1       7.908   4.549   6.501  1.00  0.00     0.031 C 
ATOM     58  C   UNL     1       9.980   0.625   1.456  1.00  0.00     0.029 A 
ATOM     59  C   UNL     1      10.585   0.372   2.749  1.00  0.00     0.049 A 
ATOM     60  H   UNL     1      10.826   1.787   4.294  1.00  0.00     0.167 HD
ATOM     61  C   UNL     1      10.127   4.724   7.692  1.00  0.00     0.037 A 
ATOM     62  C   UNL     1      11.175  -0.748   3.262  1.00  0.00     0.037 A 
ATOM     63  C   UNL     1      11.502   4.890   7.281  1.00  0.00     0.049 A 
ATOM     64  C   UNL     1      11.985  -0.304   4.431  1.00  0.00     0.074 A 
ATOM     65  C   UNL     1      12.212   5.891   6.649  1.00  0.00     0.029 A 
ATOM     66  N   UNL     1      12.232   3.739   7.111  1.00  0.00    -0.354 N 
ATOM     67  N   UNL     1      13.026   0.474   4.317  1.00  0.00    -0.248 NA
ATOM     68  C   UNL     1      11.294  -0.258   5.712  1.00  0.00     0.031 C 
ATOM     69  C   UNL     1      13.066   5.211   5.731  1.00  0.00     0.029 A 
ATOM     70  C   UNL     1      12.933   3.838   5.938  1.00  0.00     0.049 A 
ATOM     71  H   UNL     1      12.250   2.972   7.728  1.00  0.00     0.167 HD
ATOM     72  C   UNL     1      12.849   1.431   5.306  1.00  0.00     0.074 A 
ATOM     73  C   UNL     1      11.768   0.912   6.150  1.00  0.00     0.031 C 
ATOM     74  C   UNL     1      13.354   2.692   5.168  1.00  0.00     0.037 A 
BRANCH  61  75
ATOM     75  C   UNL     1       9.765   4.006   8.979  1.00  0.00     0.057 A 
ATOM     76  C   UNL     1      10.697   4.027  10.033  1.00  0.00     0.134 A 
ATOM     77  C   UNL     1       8.713   3.078   9.143  1.00  0.00     0.134 A 
ATOM     78  F   UNL     1      11.745   4.863  10.007  1.00  0.00    -0.206 F 
ATOM     79  C   UNL     1      10.640   3.132  11.108  1.00  0.00     0.040 A 
ATOM     80  C   UNL     1       8.621   2.213  10.238  1.00  0.00     0.040 A 
ATOM     81  F   UNL     1       7.763   2.872   8.226  1.00  0.00    -0.206 F 
ATOM     82  C   UNL     1       9.605   2.212  11.208  1.00  0.00     0.006 A 
ENDBRANCH  61  75
BRANCH  62  83
ATOM     83  C   UNL     1      10.827  -2.186   3.072  1.00  0.00     0.057 A 
ATOM     84  C   UNL     1      11.685  -3.229   3.474  1.00  0.00     0.134 A 
ATOM     85  C   UNL     1       9.508  -2.571   2.776  1.00  0.00     0.134 A 
ATOM     86  F   UNL     1      12.950  -2.969   3.835  1.00  0.00    -0.206 F 
ATOM     87  C   UNL     1      11.252  -4.563   3.585  1.00  0.00     0.040 A 
ATOM     88  C   UNL     1       9.063  -3.896   2.885  1.00  0.00     0.040 A 
ATOM     89  F   UNL     1       8.581  -1.654   2.466  1.00  0.00    -0.206 F 
ATOM     90  C   UNL     1       9.932  -4.898   3.301  1.00  0.00     0.006 A 
ENDBRANCH  62  83
BRANCH  74  91
ATOM     91  C   UNL     1      14.294   2.962   4.023  1.00  0.00     0.057 A 
ATOM     92  C   UNL     1      13.937   2.934   2.664  1.00  0.00     0.134 A 
ATOM     93  C   UNL     1      15.570   3.443   4.327  1.00  0.00     0.134 A 
ATOM     94  F   UNL     1      12.706   2.577   2.278  1.00  0.00    -0.206 F 
ATOM     95  C   UNL     1      14.822   3.341   1.659  1.00  0.00     0.040 A 
ATOM     96  C   UNL     1      16.451   3.881   3.338  1.00  0.00     0.040 A 
ATOM     97  F   UNL     1      15.959   3.552   5.607  1.00  0.00    -0.206 F 
ATOM     98  C   UNL     1      16.083   3.823   1.998  1.00  0.00     0.006 A 
ENDBRANCH  74  91
ENDBRANCH  48  49
ENDBRANCH  40  43
ENDBRANCH  38  39
ENDBRANCH  37  38
ENDBRANCH  36  37
ENDBRANCH   3  36
TORSDOF 16
