REMARK SMILES CC[N@@H+]1CCO[C@H](C[N@H+]2CCCCC[C@@H]2C(=O)NCCCNC(=O)c2ccc(-c3c4nc(c(-c5c(F)cccc5F)c5ccc([nH]5)c(-c5c(F)cccc5F)c5nc(c(-c6c(F)cccc6F)c6ccc3[nH]6)C=C5)C=C4)cc2)C1
REMARK SMILES IDX 19 1 18 2 16 3 17 4 15 6 9 7 8 9 7 10 3 11 4 12 79 13 5 15
REMARK SMILES IDX 6 16 2 17 1 18 10 19 11 20 14 22 13 23 12 24 20 26 21 27
REMARK SMILES IDX 22 28 23 29 24 31 25 32 26 33 78 34 27 35 77 36 28 37 29 38
REMARK SMILES IDX 30 39 71 40 31 41 76 42 70 43 72 44 32 45 75 46 69 47 68 48
REMARK SMILES IDX 33 50 59 51 42 52 58 53 43 54 46 55 57 56 73 57 44 58 45 59
REMARK SMILES IDX 56 61 74 62 47 63 34 64 35 65 40 66 36 67 37 68 39 69 41 70
REMARK SMILES IDX 38 71 60 72 61 73 66 74 62 75 63 76 65 77 67 78 64 79 48 80
REMARK SMILES IDX 49 81 54 82 50 83 51 84 53 85 55 86 52 87
REMARK H PARENT 18 5 9 8 3 14 22 30 72 49 46 60
REMARK Flexibility Score: 100.00
ROOT
ATOM      1  C   UNL     1      -1.525  -0.832   4.603  1.00  0.00     0.118 C 
ENDROOT
BRANCH   1   2
ATOM      2  N   UNL     1      -0.103  -0.564   4.532  1.00  0.00    -0.351 N 
ATOM      3  C   UNL     1       0.907  -1.262   3.945  1.00  0.00     0.278 C 
ATOM      4  O   UNL     1       2.047  -0.809   4.116  1.00  0.00    -0.268 OA
ATOM      5  H   UNL     1       0.180   0.263   4.984  1.00  0.00     0.163 HD
BRANCH   3   6
ATOM      6  C   UNL     1       0.710  -2.559   3.102  1.00  0.00     0.274 C 
BRANCH   6   7
ATOM      7  N   UNL     1      -0.326  -2.372   2.060  1.00  0.00    -0.322 N 
ATOM      8  H   UNL     1      -1.043  -1.815   2.525  1.00  0.00     0.348 HD
BRANCH   7   9
ATOM      9  C   UNL     1       0.246  -1.646   0.884  1.00  0.00     0.301 C 
BRANCH   9  10
ATOM     10  C   UNL     1       1.159  -2.462  -0.088  1.00  0.00     0.228 C 
ATOM     11  N   UNL     1       1.312  -0.985  -2.188  1.00  0.00    -0.331 N 
ATOM     12  C   UNL     1       0.528  -2.041  -2.863  1.00  0.00     0.291 C 
ATOM     13  C   UNL     1       2.013  -1.589  -1.040  1.00  0.00     0.300 C 
ATOM     14  H   UNL     1       2.037  -0.610  -2.799  1.00  0.00     0.348 HD
ATOM     15  C   UNL     1      -0.337  -2.882  -1.912  1.00  0.00     0.222 C 
ATOM     16  O   UNL     1       0.435  -3.451  -0.850  1.00  0.00    -0.361 OA
BRANCH  11  17
ATOM     17  C   UNL     1       0.495   0.198  -1.902  1.00  0.00     0.258 C 
ATOM     18  C   UNL     1       1.219   1.304  -1.139  1.00  0.00     0.071 C 
ENDBRANCH  11  17
ENDBRANCH   9  10
ENDBRANCH   7   9
BRANCH   7  19
ATOM     19  C   UNL     1      -1.048  -3.569   1.623  1.00  0.00     0.262 C 
BRANCH  19  20
ATOM     20  C   UNL     1      -2.083  -4.099   2.613  1.00  0.00     0.061 CG0
ATOM     21  G   UNL     1      -1.505  -5.016   3.675  1.00  0.00     0.000 G0
ENDBRANCH  19  20
ENDBRANCH   7  19
ENDBRANCH   6   7
BRANCH   6  22
ATOM     22  C   UNL     1       0.770  -3.848   3.937  1.00  0.00     0.076 C 
BRANCH  22  23
ATOM     23  C   UNL     1      -0.492  -4.369   4.601  1.00  0.00     0.007 C 
BRANCH  23  24
ATOM     24  C   UNL     1      -1.505  -5.016   3.675  1.00  0.00     0.006 CG0
ATOM     25  G   UNL     1      -2.083  -4.099   2.613  1.00  0.00     0.000 G0
ENDBRANCH  23  24
ENDBRANCH  22  23
ENDBRANCH   6  22
ENDBRANCH   3   6
ENDBRANCH   1   2
BRANCH   1  26
ATOM     26  C   UNL     1      -1.915  -1.360   5.977  1.00  0.00     0.042 C 
BRANCH  26  27
ATOM     27  C   UNL     1      -2.055  -0.278   7.030  1.00  0.00     0.118 C 
BRANCH  27  28
ATOM     28  N   UNL     1      -3.312   0.443   6.922  1.00  0.00    -0.352 N 
ATOM     29  C   UNL     1      -4.441   0.398   7.700  1.00  0.00     0.251 C 
ATOM     30  H   UNL     1      -3.362   1.069   6.163  1.00  0.00     0.163 HD
ATOM     31  O   UNL     1      -5.467   0.947   7.292  1.00  0.00    -0.269 OA
BRANCH  29  32
ATOM     32  C   UNL     1      -4.463  -0.304   9.006  1.00  0.00     0.039 A 
ATOM     33  C   UNL     1      -5.649  -0.921   9.417  1.00  0.00     0.014 A 
ATOM     34  C   UNL     1      -3.360  -0.310   9.862  1.00  0.00     0.014 A 
ATOM     35  C   UNL     1      -5.714  -1.562  10.658  1.00  0.00     0.010 A 
ATOM     36  C   UNL     1      -3.385  -1.052  11.039  1.00  0.00     0.010 A 
ATOM     37  C   UNL     1      -4.574  -1.651  11.472  1.00  0.00    -0.014 A 
BRANCH  37  38
ATOM     38  C   UNL     1      -4.630  -2.295  12.810  1.00  0.00     0.031 A 
ATOM     39  C   UNL     1      -4.337  -1.488  14.049  1.00  0.00     0.074 A 
ATOM     40  C   UNL     1      -4.901  -3.610  12.914  1.00  0.00     0.049 A 
ATOM     41  N   UNL     1      -4.309  -1.870  15.301  1.00  0.00    -0.248 NA
ATOM     42  C   UNL     1      -3.993  -0.070  13.852  1.00  0.00     0.031 C 
ATOM     43  C   UNL     1      -5.138  -4.517  11.790  1.00  0.00     0.029 A 
ATOM     44  N   UNL     1      -5.023  -4.412  14.020  1.00  0.00    -0.354 N 
ATOM     45  C   UNL     1      -3.922  -0.751  16.029  1.00  0.00     0.074 A 
ATOM     46  C   UNL     1      -3.658   0.303  15.077  1.00  0.00     0.031 C 
ATOM     47  C   UNL     1      -5.413  -5.742  12.265  1.00  0.00     0.029 A 
ATOM     48  C   UNL     1      -5.342  -5.714  13.723  1.00  0.00     0.049 A 
ATOM     49  H   UNL     1      -4.894  -4.085  14.940  1.00  0.00     0.167 HD
ATOM     50  C   UNL     1      -3.825  -0.600  17.372  1.00  0.00     0.037 A 
ATOM     51  C   UNL     1      -5.562  -6.764  14.536  1.00  0.00     0.037 A 
ATOM     52  C   UNL     1      -4.127  -1.639  18.321  1.00  0.00     0.049 A 
ATOM     53  C   UNL     1      -5.491  -6.567  16.024  1.00  0.00     0.074 A 
ATOM     54  C   UNL     1      -4.130  -1.573  19.703  1.00  0.00     0.029 A 
ATOM     55  N   UNL     1      -4.484  -2.935  17.980  1.00  0.00    -0.354 N 
ATOM     56  N   UNL     1      -5.197  -5.484  16.702  1.00  0.00    -0.248 NA
ATOM     57  C   UNL     1      -5.797  -7.736  16.860  1.00  0.00     0.031 C 
ATOM     58  C   UNL     1      -4.450  -2.842  20.199  1.00  0.00     0.029 A 
ATOM     59  C   UNL     1      -4.695  -3.684  19.126  1.00  0.00     0.049 A 
ATOM     60  H   UNL     1      -4.575  -3.273  17.060  1.00  0.00     0.167 HD
ATOM     61  C   UNL     1      -5.308  -5.831  18.042  1.00  0.00     0.074 A 
ATOM     62  C   UNL     1      -5.713  -7.222  18.079  1.00  0.00     0.031 C 
ATOM     63  C   UNL     1      -5.096  -5.068  19.143  1.00  0.00     0.037 A 
BRANCH  50  64
ATOM     64  C   UNL     1      -3.379   0.741  17.883  1.00  0.00     0.057 A 
ATOM     65  C   UNL     1      -4.178   1.887  17.759  1.00  0.00     0.134 A 
ATOM     66  C   UNL     1      -2.132   0.892  18.502  1.00  0.00     0.134 A 
ATOM     67  F   UNL     1      -5.378   1.817  17.162  1.00  0.00    -0.206 F 
ATOM     68  C   UNL     1      -3.737   3.138  18.192  1.00  0.00     0.040 A 
ATOM     69  C   UNL     1      -1.693   2.133  18.969  1.00  0.00     0.040 A 
ATOM     70  F   UNL     1      -1.317  -0.162  18.661  1.00  0.00    -0.206 F 
ATOM     71  C   UNL     1      -2.491   3.263  18.803  1.00  0.00     0.006 A 
ENDBRANCH  50  64
BRANCH  51  72
ATOM     72  C   UNL     1      -5.922  -8.082  13.954  1.00  0.00     0.057 A 
ATOM     73  C   UNL     1      -7.223  -8.586  14.060  1.00  0.00     0.134 A 
ATOM     74  C   UNL     1      -4.984  -8.857  13.264  1.00  0.00     0.134 A 
ATOM     75  F   UNL     1      -8.162  -7.895  14.724  1.00  0.00    -0.206 F 
ATOM     76  C   UNL     1      -7.577  -9.820  13.513  1.00  0.00     0.040 A 
ATOM     77  C   UNL     1      -5.329 -10.083  12.691  1.00  0.00     0.040 A 
ATOM     78  F   UNL     1      -3.723  -8.425  13.119  1.00  0.00    -0.206 F 
ATOM     79  C   UNL     1      -6.628 -10.569  12.820  1.00  0.00     0.006 A 
ENDBRANCH  51  72
BRANCH  63  80
ATOM     80  C   UNL     1      -5.329  -5.716  20.477  1.00  0.00     0.057 A 
ATOM     81  C   UNL     1      -4.460  -6.687  20.990  1.00  0.00     0.134 A 
ATOM     82  C   UNL     1      -6.425  -5.344  21.266  1.00  0.00     0.134 A 
ATOM     83  F   UNL     1      -3.399  -7.096  20.278  1.00  0.00    -0.206 F 
ATOM     84  C   UNL     1      -4.691  -7.288  22.229  1.00  0.00     0.040 A 
ATOM     85  C   UNL     1      -6.649  -5.918  22.518  1.00  0.00     0.040 A 
ATOM     86  F   UNL     1      -7.289  -4.412  20.838  1.00  0.00    -0.206 F 
ATOM     87  C   UNL     1      -5.785  -6.899  22.998  1.00  0.00     0.006 A 
ENDBRANCH  63  80
ENDBRANCH  37  38
ENDBRANCH  29  32
ENDBRANCH  27  28
ENDBRANCH  26  27
ENDBRANCH   1  26
TORSDOF 13
