REMARK SMILES C/C=C/C[C@H](Cc1cccc(F)c1)C(=O)NCCCNC(=O)c1ccc(-c2c3nc(c(-c4c(F)cccc4F)c4ccc([nH]4)c(-c4c(F)cccc4F)c4nc(c(-c5c(F)cccc5F)c5ccc2[nH]5)C=C4)C=C3)cc1
REMARK SMILES IDX 18 1 17 2 16 3 14 4 15 5 5 7 4 8 3 9 1 10 2 11 6 12 7 13
REMARK SMILES IDX 8 14 13 15 9 16 11 17 10 18 12 19 19 20 20 21 21 22 22 24
REMARK SMILES IDX 23 25 24 26 76 27 25 28 75 29 26 30 27 31 28 32 69 33 29 34
REMARK SMILES IDX 74 35 68 36 70 37 30 38 73 39 67 40 66 41 31 43 57 44 40 45
REMARK SMILES IDX 56 46 41 47 44 48 55 49 71 50 42 51 43 52 54 54 72 55 45 56
REMARK SMILES IDX 32 57 33 58 38 59 34 60 35 61 37 62 39 63 36 64 58 65 59 66
REMARK SMILES IDX 64 67 60 68 61 69 63 70 65 71 62 72 46 73 47 74 52 75 48 76
REMARK SMILES IDX 49 77 51 78 53 79 50 80
REMARK H PARENT 16 6 20 23 70 42 44 53
REMARK Flexibility Score: inf
ROOT
ATOM      1  C   UNL     1      -3.815  -2.608   4.902  1.00  0.00     0.042 C 
ENDROOT
BRANCH   1   2
ATOM      2  C   UNL     1      -3.024  -1.339   5.124  1.00  0.00     0.117 C 
BRANCH   2   3
ATOM      3  N   UNL     1      -1.892  -1.485   6.007  1.00  0.00    -0.356 N 
ATOM      4  C   UNL     1      -0.668  -0.906   5.929  1.00  0.00     0.223 C 
ATOM      5  O   UNL     1       0.051  -0.979   6.932  1.00  0.00    -0.275 OA
ATOM      6  H   UNL     1      -2.026  -2.090   6.772  1.00  0.00     0.163 HD
BRANCH   4   7
ATOM      7  C   UNL     1      -0.153  -0.199   4.675  1.00  0.00     0.086 C 
BRANCH   7   8
ATOM      8  C   UNL     1      -0.667   1.265   4.593  1.00  0.00     0.040 C 
BRANCH   8   9
ATOM      9  C   UNL     1      -2.074   1.471   4.086  1.00  0.00    -0.031 C 
ATOM     10  C   UNL     1      -4.532   1.878   4.386  1.00  0.00     0.035 C 
ATOM     11  C   UNL     1      -3.107   1.861   4.852  1.00  0.00    -0.035 C 
ENDBRANCH   8   9
ENDBRANCH   7   8
BRANCH   7  12
ATOM     12  C   UNL     1      -0.210  -0.985   3.344  1.00  0.00     0.049 C 
BRANCH  12  13
ATOM     13  C   UNL     1      -0.074  -2.497   3.344  1.00  0.00    -0.044 A 
ATOM     14  C   UNL     1       0.592  -3.225   4.340  1.00  0.00     0.004 A 
ATOM     15  C   UNL     1      -0.623  -3.211   2.264  1.00  0.00     0.043 A 
ATOM     16  C   UNL     1       0.632  -4.625   4.306  1.00  0.00     0.003 A 
ATOM     17  C   UNL     1      -0.556  -4.602   2.225  1.00  0.00     0.123 A 
ATOM     18  C   UNL     1       0.051  -5.317   3.246  1.00  0.00     0.039 A 
ATOM     19  F   UNL     1      -1.093  -5.257   1.188  1.00  0.00    -0.207 F 
ENDBRANCH  12  13
ENDBRANCH   7  12
ENDBRANCH   4   7
ENDBRANCH   2   3
ENDBRANCH   1   2
BRANCH   1  20
ATOM     20  C   UNL     1      -4.585  -3.046   6.137  1.00  0.00     0.118 C 
BRANCH  20  21
ATOM     21  N   UNL     1      -5.567  -2.059   6.588  1.00  0.00    -0.352 N 
ATOM     22  C   UNL     1      -6.930  -1.963   6.404  1.00  0.00     0.251 C 
ATOM     23  H   UNL     1      -5.183  -1.326   7.122  1.00  0.00     0.163 HD
ATOM     24  O   UNL     1      -7.515  -0.936   6.712  1.00  0.00    -0.269 OA
BRANCH  22  25
ATOM     25  C   UNL     1      -7.681  -3.088   5.806  1.00  0.00     0.039 A 
ATOM     26  C   UNL     1      -8.730  -2.831   4.918  1.00  0.00     0.014 A 
ATOM     27  C   UNL     1      -7.346  -4.401   6.117  1.00  0.00     0.014 A 
ATOM     28  C   UNL     1      -9.357  -3.894   4.258  1.00  0.00     0.010 A 
ATOM     29  C   UNL     1      -7.861  -5.438   5.359  1.00  0.00     0.010 A 
ATOM     30  C   UNL     1      -8.880  -5.202   4.425  1.00  0.00    -0.014 A 
BRANCH  30  31
ATOM     31  C   UNL     1      -9.411  -6.373   3.682  1.00  0.00     0.031 A 
ATOM     32  C   UNL     1      -9.877  -7.575   4.458  1.00  0.00     0.074 A 
ATOM     33  C   UNL     1      -9.320  -6.429   2.339  1.00  0.00     0.049 A 
ATOM     34  N   UNL     1     -10.066  -8.803   4.053  1.00  0.00    -0.248 NA
ATOM     35  C   UNL     1     -10.090  -7.379   5.902  1.00  0.00     0.031 C 
ATOM     36  C   UNL     1      -8.850  -5.351   1.469  1.00  0.00     0.029 A 
ATOM     37  N   UNL     1      -9.591  -7.459   1.473  1.00  0.00    -0.354 N 
ATOM     38  C   UNL     1     -10.343  -9.535   5.201  1.00  0.00     0.074 A 
ATOM     39  C   UNL     1     -10.255  -8.624   6.320  1.00  0.00     0.031 C 
ATOM     40  C   UNL     1      -8.886  -5.767   0.194  1.00  0.00     0.029 A 
ATOM     41  C   UNL     1      -9.320  -7.159   0.160  1.00  0.00     0.049 A 
ATOM     42  H   UNL     1      -9.946  -8.330   1.765  1.00  0.00     0.167 HD
ATOM     43  C   UNL     1     -10.661 -10.846   5.308  1.00  0.00     0.037 A 
ATOM     44  C   UNL     1      -9.390  -7.927  -0.944  1.00  0.00     0.037 A 
ATOM     45  C   UNL     1     -10.835 -11.719   4.180  1.00  0.00     0.049 A 
ATOM     46  C   UNL     1      -9.801  -9.366  -0.814  1.00  0.00     0.074 A 
ATOM     47  C   UNL     1     -11.257 -13.035   4.168  1.00  0.00     0.029 A 
ATOM     48  N   UNL     1     -10.617 -11.351   2.860  1.00  0.00    -0.354 N 
ATOM     49  N   UNL     1     -10.086 -10.045   0.272  1.00  0.00    -0.248 NA
ATOM     50  C   UNL     1      -9.895 -10.149  -2.054  1.00  0.00     0.031 C 
ATOM     51  C   UNL     1     -11.267 -13.475   2.841  1.00  0.00     0.029 A 
ATOM     52  C   UNL     1     -10.890 -12.419   2.025  1.00  0.00     0.049 A 
ATOM     53  H   UNL     1     -10.313 -10.463   2.562  1.00  0.00     0.167 HD
ATOM     54  C   UNL     1     -10.415 -11.324  -0.153  1.00  0.00     0.074 A 
ATOM     55  C   UNL     1     -10.296 -11.329  -1.597  1.00  0.00     0.031 C 
ATOM     56  C   UNL     1     -10.784 -12.396   0.588  1.00  0.00     0.037 A 
BRANCH  43  57
ATOM     57  C   UNL     1     -10.857 -11.406   6.687  1.00  0.00     0.057 A 
ATOM     58  C   UNL     1      -9.958 -12.345   7.209  1.00  0.00     0.134 A 
ATOM     59  C   UNL     1     -11.943 -11.037   7.492  1.00  0.00     0.134 A 
ATOM     60  F   UNL     1      -8.899 -12.749   6.491  1.00  0.00    -0.206 F 
ATOM     61  C   UNL     1     -10.130 -12.892   8.482  1.00  0.00     0.040 A 
ATOM     62  C   UNL     1     -12.108 -11.553   8.778  1.00  0.00     0.040 A 
ATOM     63  F   UNL     1     -12.835 -10.134   7.057  1.00  0.00    -0.206 F 
ATOM     64  C   UNL     1     -11.203 -12.489   9.274  1.00  0.00     0.006 A 
ENDBRANCH  43  57
BRANCH  44  65
ATOM     65  C   UNL     1      -9.097  -7.324  -2.267  1.00  0.00     0.057 A 
ATOM     66  C   UNL     1      -7.795  -6.985  -2.654  1.00  0.00     0.134 A 
ATOM     67  C   UNL     1     -10.136  -7.009  -3.149  1.00  0.00     0.134 A 
ATOM     68  F   UNL     1      -6.758  -7.250  -1.847  1.00  0.00    -0.206 F 
ATOM     69  C   UNL     1      -7.540  -6.333  -3.862  1.00  0.00     0.040 A 
ATOM     70  C   UNL     1      -9.894  -6.374  -4.368  1.00  0.00     0.040 A 
ATOM     71  F   UNL     1     -11.403  -7.321  -2.837  1.00  0.00    -0.206 F 
ATOM     72  C   UNL     1      -8.592  -6.026  -4.723  1.00  0.00     0.006 A 
ENDBRANCH  44  65
BRANCH  56  73
ATOM     73  C   UNL     1     -11.127 -13.664  -0.133  1.00  0.00     0.057 A 
ATOM     74  C   UNL     1     -12.459 -14.092  -0.215  1.00  0.00     0.134 A 
ATOM     75  C   UNL     1     -10.136 -14.518  -0.626  1.00  0.00     0.134 A 
ATOM     76  F   UNL     1     -13.452 -13.321   0.252  1.00  0.00    -0.206 F 
ATOM     77  C   UNL     1     -12.789 -15.342  -0.738  1.00  0.00     0.040 A 
ATOM     78  C   UNL     1     -10.456 -15.763  -1.169  1.00  0.00     0.040 A 
ATOM     79  F   UNL     1      -8.844 -14.158  -0.581  1.00  0.00    -0.206 F 
ATOM     80  C   UNL     1     -11.785 -16.183  -1.213  1.00  0.00     0.006 A 
ENDBRANCH  56  73
ENDBRANCH  30  31
ENDBRANCH  22  25
ENDBRANCH  20  21
ENDBRANCH   1  20
TORSDOF 14
