REMARK SMILES Cc1c(CC(=O)N[C@@H](C)C(=O)NCCCNC(=O)c2ccc(-c3c4nc(c(-c5c(F)cccc5F)c5ccc([nH]5)c(-c5c(F)cccc5F)c5nc(c(-c6c(F)cccc6F)c6ccc3[nH]6)C=C5)C=C4)cc2)c(=O)oc2cc3oc4c(c3cc12)CCCC4
REMARK SMILES IDX 13 1 12 2 10 3 11 4 8 6 9 7 7 8 5 9 6 10 4 12 3 13 1 14 2 15
REMARK SMILES IDX 84 16 73 17 76 18 83 19 74 20 75 21 77 22 82 23 78 24 81 25
REMARK SMILES IDX 79 26 80 27 85 28 88 29 86 30 87 31 14 32 15 33 16 34 17 35
REMARK SMILES IDX 18 37 19 38 20 39 72 40 21 41 71 42 22 43 23 44 24 45 65 46
REMARK SMILES IDX 25 47 70 48 64 49 66 50 26 51 69 52 63 53 62 54 27 56 53 57
REMARK SMILES IDX 36 58 52 59 37 60 40 61 51 62 67 63 38 64 39 65 50 67 68 68
REMARK SMILES IDX 41 69 28 70 29 71 34 72 30 73 31 74 33 75 35 76 32 77 54 78
REMARK SMILES IDX 55 79 60 80 56 81 57 82 59 83 61 84 58 85 42 86 43 87 48 88
REMARK SMILES IDX 44 89 45 90 47 91 49 92 46 93
REMARK H PARENT 12 5 7 11 16 36 66 55 40 66
REMARK Flexibility Score: inf
ROOT
ATOM      1  C   UNL     1      -2.862   5.238   2.506  1.00  0.00     0.117 C 
ENDROOT
BRANCH   1   2
ATOM      2  N   UNL     1      -2.216   6.121   1.550  1.00  0.00    -0.354 N 
ATOM      3  C   UNL     1      -1.287   5.901   0.584  1.00  0.00     0.242 C 
ATOM      4  O   UNL     1      -0.792   6.895   0.046  1.00  0.00    -0.273 OA
ATOM      5  H   UNL     1      -2.507   7.059   1.615  1.00  0.00     0.163 HD
BRANCH   3   6
ATOM      6  C   UNL     1      -0.905   4.489   0.128  1.00  0.00     0.168 C 
ATOM      7  C   UNL     1      -2.105   3.756  -0.466  1.00  0.00     0.041 C 
BRANCH   6   8
ATOM      8  N   UNL     1      -0.233   3.733   1.182  1.00  0.00    -0.344 N 
ATOM      9  C   UNL     1       0.994   3.135   1.149  1.00  0.00     0.225 C 
ATOM     10  O   UNL     1       1.439   2.667   2.199  1.00  0.00    -0.275 OA
ATOM     11  H   UNL     1      -0.731   3.642   2.027  1.00  0.00     0.164 HD
BRANCH   9  12
ATOM     12  C   UNL     1       1.772   3.017  -0.163  1.00  0.00     0.143 C 
BRANCH  12  13
ATOM     13  C   UNL     1       0.982   2.223  -1.177  1.00  0.00     0.051 A 
ATOM     14  C   UNL     1       0.838   0.162   0.268  1.00  0.00     0.046 C 
ATOM     15  C   UNL     1       0.455   1.008  -0.925  1.00  0.00    -0.029 A 
ATOM     16  C   UNL     1      -0.501   0.441  -1.884  1.00  0.00     0.022 A 
ATOM     17  C   UNL     1       0.759   2.911  -2.478  1.00  0.00     0.340 A 
ATOM     18  C   UNL     1      -0.651   1.040  -3.136  1.00  0.00     0.142 A 
ATOM     19  C   UNL     1      -1.187  -0.747  -1.611  1.00  0.00     0.024 A 
ATOM     20  O   UNL     1       1.267   3.998  -2.727  1.00  0.00    -0.246 OA
ATOM     21  O   UNL     1      -0.043   2.277  -3.410  1.00  0.00    -0.422 OA
ATOM     22  C   UNL     1      -1.312   0.435  -4.210  1.00  0.00     0.095 A 
ATOM     23  C   UNL     1      -1.688  -1.464  -2.702  1.00  0.00     0.025 A 
ATOM     24  C   UNL     1      -1.679  -0.879  -3.966  1.00  0.00     0.138 A 
ATOM     25  C   UNL     1      -1.943  -2.842  -2.897  1.00  0.00     0.001 A 
ATOM     26  O   UNL     1      -1.868  -1.831  -4.926  1.00  0.00    -0.461 OA
ATOM     27  C   UNL     1      -1.822  -3.012  -4.261  1.00  0.00     0.108 A 
ATOM     28  C   UNL     1      -1.664  -3.982  -1.986  1.00  0.00     0.040 C 
ATOM     29  C   UNL     1      -1.054  -4.149  -4.839  1.00  0.00     0.076 C 
ATOM     30  C   UNL     1      -0.300  -4.600  -2.369  1.00  0.00     0.005 C 
ATOM     31  C   UNL     1       0.127  -4.390  -3.854  1.00  0.00     0.008 C 
ENDBRANCH  12  13
ENDBRANCH   9  12
ENDBRANCH   6   8
ENDBRANCH   3   6
ENDBRANCH   1   2
BRANCH   1  32
ATOM     32  C   UNL     1      -2.243   5.381   3.892  1.00  0.00     0.042 C 
BRANCH  32  33
ATOM     33  C   UNL     1      -2.342   6.804   4.441  1.00  0.00     0.118 C 
BRANCH  33  34
ATOM     34  N   UNL     1      -3.650   7.129   4.984  1.00  0.00    -0.352 N 
ATOM     35  C   UNL     1      -4.239   6.718   6.159  1.00  0.00     0.251 C 
ATOM     36  H   UNL     1      -4.197   7.732   4.430  1.00  0.00     0.163 HD
ATOM     37  O   UNL     1      -5.390   7.024   6.416  1.00  0.00    -0.269 OA
BRANCH  35  38
ATOM     38  C   UNL     1      -3.478   5.848   7.081  1.00  0.00     0.039 A 
ATOM     39  C   UNL     1      -2.195   6.202   7.502  1.00  0.00     0.014 A 
ATOM     40  C   UNL     1      -4.069   4.660   7.521  1.00  0.00     0.014 A 
ATOM     41  C   UNL     1      -1.451   5.314   8.264  1.00  0.00     0.010 A 
ATOM     42  C   UNL     1      -3.342   3.791   8.332  1.00  0.00     0.010 A 
ATOM     43  C   UNL     1      -2.026   4.111   8.685  1.00  0.00    -0.014 A 
BRANCH  43  44
ATOM     44  C   UNL     1      -1.239   3.309   9.626  1.00  0.00     0.031 A 
ATOM     45  C   UNL     1      -1.823   3.241  10.994  1.00  0.00     0.074 A 
ATOM     46  C   UNL     1      -0.433   2.305   9.231  1.00  0.00     0.049 A 
ATOM     47  N   UNL     1      -2.753   2.391  11.315  1.00  0.00    -0.248 NA
ATOM     48  C   UNL     1      -1.602   4.292  11.986  1.00  0.00     0.031 C 
ATOM     49  C   UNL     1      -0.686   1.453   8.066  1.00  0.00     0.029 A 
ATOM     50  N   UNL     1       0.595   1.685   9.898  1.00  0.00    -0.354 N 
ATOM     51  C   UNL     1      -3.297   2.824  12.507  1.00  0.00     0.074 A 
ATOM     52  C   UNL     1      -2.538   3.992  12.899  1.00  0.00     0.031 C 
ATOM     53  C   UNL     1       0.030   0.318   8.206  1.00  0.00     0.029 A 
ATOM     54  C   UNL     1       0.912   0.443   9.363  1.00  0.00     0.049 A 
ATOM     55  H   UNL     1       1.057   2.079  10.673  1.00  0.00     0.167 HD
ATOM     56  C   UNL     1      -4.361   2.221  13.097  1.00  0.00     0.037 A 
ATOM     57  C   UNL     1       1.421  -0.598  10.075  1.00  0.00     0.037 A 
ATOM     58  C   UNL     1      -4.881   1.066  12.431  1.00  0.00     0.049 A 
ATOM     59  C   UNL     1       0.230  -0.993  10.908  1.00  0.00     0.074 A 
ATOM     60  C   UNL     1      -5.887   0.788  11.531  1.00  0.00     0.029 A 
ATOM     61  N   UNL     1      -4.238  -0.133  12.623  1.00  0.00    -0.354 N 
ATOM     62  N   UNL     1      -0.769  -1.736  10.510  1.00  0.00    -0.248 NA
ATOM     63  C   UNL     1      -0.026  -0.240  12.139  1.00  0.00     0.031 C 
ATOM     64  C   UNL     1      -5.513  -0.443  10.906  1.00  0.00     0.029 A 
ATOM     65  C   UNL     1      -4.272  -0.803  11.426  1.00  0.00     0.049 A 
ATOM     66  H   UNL     1      -3.830  -0.451  13.461  1.00  0.00     0.167 HD
ATOM     67  C   UNL     1      -1.862  -1.327  11.278  1.00  0.00     0.074 A 
ATOM     68  C   UNL     1      -1.329  -0.436  12.287  1.00  0.00     0.031 C 
ATOM     69  C   UNL     1      -3.158  -1.580  10.933  1.00  0.00     0.037 A 
BRANCH  56  70
ATOM     70  C   UNL     1      -4.895   2.611  14.411  1.00  0.00     0.057 A 
ATOM     71  C   UNL     1      -4.564   1.833  15.526  1.00  0.00     0.134 A 
ATOM     72  C   UNL     1      -5.848   3.616  14.568  1.00  0.00     0.134 A 
ATOM     73  F   UNL     1      -3.653   0.852  15.416  1.00  0.00    -0.206 F 
ATOM     74  C   UNL     1      -5.189   2.021  16.755  1.00  0.00     0.040 A 
ATOM     75  C   UNL     1      -6.480   3.819  15.797  1.00  0.00     0.040 A 
ATOM     76  F   UNL     1      -6.208   4.386  13.530  1.00  0.00    -0.206 F 
ATOM     77  C   UNL     1      -6.160   3.011  16.890  1.00  0.00     0.006 A 
ENDBRANCH  56  70
BRANCH  57  78
ATOM     78  C   UNL     1       2.791  -0.362  10.630  1.00  0.00     0.057 A 
ATOM     79  C   UNL     1       3.799   0.089   9.753  1.00  0.00     0.134 A 
ATOM     80  C   UNL     1       3.189  -0.555  11.958  1.00  0.00     0.134 A 
ATOM     81  F   UNL     1       3.556   0.198   8.437  1.00  0.00    -0.206 F 
ATOM     82  C   UNL     1       5.078   0.443  10.191  1.00  0.00     0.040 A 
ATOM     83  C   UNL     1       4.460  -0.184  12.416  1.00  0.00     0.040 A 
ATOM     84  F   UNL     1       2.365  -1.100  12.862  1.00  0.00    -0.206 F 
ATOM     85  C   UNL     1       5.403   0.334  11.536  1.00  0.00     0.006 A 
ENDBRANCH  57  78
BRANCH  69  86
ATOM     86  C   UNL     1      -3.340  -2.525   9.796  1.00  0.00     0.057 A 
ATOM     87  C   UNL     1      -3.066  -3.887   9.962  1.00  0.00     0.134 A 
ATOM     88  C   UNL     1      -3.793  -2.104   8.539  1.00  0.00     0.134 A 
ATOM     89  F   UNL     1      -2.635  -4.356  11.145  1.00  0.00    -0.206 F 
ATOM     90  C   UNL     1      -3.249  -4.799   8.922  1.00  0.00     0.040 A 
ATOM     91  C   UNL     1      -4.005  -3.012   7.500  1.00  0.00     0.040 A 
ATOM     92  F   UNL     1      -4.053  -0.810   8.295  1.00  0.00    -0.206 F 
ATOM     93  C   UNL     1      -3.731  -4.364   7.690  1.00  0.00     0.006 A 
ENDBRANCH  69  86
ENDBRANCH  43  44
ENDBRANCH  35  38
ENDBRANCH  33  34
ENDBRANCH  32  33
ENDBRANCH   1  32
TORSDOF 13
