REMARK SMILES Cc1cc([N+](=O)[O-])ccc1NC(=O)[C@@H]1[C@@H](C(=O)NCCCNC(=O)c2ccc(-c3c4nc(c(-c5c(F)cccc5F)c5ccc([nH]5)c(-c5c(F)cccc5F)c5nc(c(-c6c(F)cccc6F)c6ccc3[nH]6)C=C5)C=C4)cc2)[C@H]2C=C[C@@H]1C2
REMARK SMILES IDX 19 1 18 2 16 3 17 4 15 6 14 7 82 8 79 9 81 10 83 11 80 12
REMARK SMILES IDX 12 13 11 14 13 16 10 17 1 18 2 19 3 20 4 21 9 22 8 23 5 24
REMARK SMILES IDX 6 25 7 26 20 27 21 28 22 29 23 30 24 32 25 33 26 34 78 35
REMARK SMILES IDX 27 36 77 37 28 38 29 39 30 40 71 41 31 42 76 43 70 44 72 45
REMARK SMILES IDX 32 46 75 47 69 48 68 49 33 51 59 52 42 53 58 54 43 55 46 56
REMARK SMILES IDX 57 57 73 58 44 59 45 60 56 62 74 63 47 64 34 65 35 66 40 67
REMARK SMILES IDX 36 68 37 69 39 70 41 71 38 72 60 73 61 74 66 75 62 76 63 77
REMARK SMILES IDX 65 78 67 79 64 80 48 81 49 82 54 83 50 84 51 85 53 86 55 87
REMARK SMILES IDX 52 88
REMARK H PARENT 18 5 11 15 22 31 72 50 46 61
REMARK Flexibility Score: inf
ROOT
ATOM      1  C   UNL     1      -4.166   7.272   0.787  1.00  0.00     0.117 C 
ENDROOT
BRANCH   1   2
ATOM      2  N   UNL     1      -3.656   6.565  -0.375  1.00  0.00    -0.356 N 
ATOM      3  C   UNL     1      -2.699   5.616  -0.540  1.00  0.00     0.224 C 
ATOM      4  O   UNL     1      -2.501   5.260  -1.708  1.00  0.00    -0.275 OA
ATOM      5  H   UNL     1      -4.096   6.827  -1.216  1.00  0.00     0.163 HD
BRANCH   3   6
ATOM      6  C   UNL     1      -1.822   5.074   0.591  1.00  0.00     0.098 C 
ATOM      7  C   UNL     1      -1.343   3.599   0.229  1.00  0.00     0.099 C 
ATOM      8  C   UNL     1      -1.718   2.805   1.507  1.00  0.00     0.025 C 
ATOM      9  C   UNL     1      -2.462   4.851   1.981  1.00  0.00     0.025 C 
ATOM     10  C   UNL     1      -3.226   2.724   1.556  1.00  0.00    -0.027 C 
ATOM     11  C   UNL     1      -1.495   3.843   2.602  1.00  0.00     0.017 C 
ATOM     12  C   UNL     1      -3.673   3.953   1.847  1.00  0.00    -0.027 C 
BRANCH   7  13
ATOM     13  C   UNL     1       0.136   3.462  -0.105  1.00  0.00     0.228 C 
ATOM     14  N   UNL     1       0.707   2.242  -0.377  1.00  0.00    -0.326 N 
ATOM     15  H   UNL     1       1.673   2.292  -0.561  1.00  0.00     0.169 HD
ATOM     16  O   UNL     1       0.888   4.441  -0.084  1.00  0.00    -0.274 OA
BRANCH  14  17
ATOM     17  C   UNL     1       0.188   0.930  -0.447  1.00  0.00     0.044 A 
ATOM     18  C   UNL     1       2.504  -0.066   0.126  1.00  0.00     0.047 C 
ATOM     19  C   UNL     1       1.020  -0.166  -0.121  1.00  0.00    -0.021 A 
ATOM     20  C   UNL     1       0.457  -1.458  -0.021  1.00  0.00     0.091 A 
ATOM     21  C   UNL     1      -0.907  -1.661  -0.257  1.00  0.00     0.269 A 
ATOM     22  C   UNL     1      -1.143   0.670  -0.801  1.00  0.00     0.033 A 
ATOM     23  C   UNL     1      -1.704  -0.604  -0.682  1.00  0.00     0.088 A 
BRANCH  21  24
ATOM     24  N   UNL     1      -1.503  -2.984  -0.052  1.00  0.00     0.062 N 
ATOM     25  O   UNL     1      -0.736  -3.942   0.118  1.00  0.00    -0.258 OA
ATOM     26  O   UNL     1      -2.740  -3.062  -0.046  1.00  0.00    -0.258 OA
ENDBRANCH  21  24
ENDBRANCH  14  17
ENDBRANCH   7  13
ENDBRANCH   3   6
ENDBRANCH   1   2
BRANCH   1  27
ATOM     27  C   UNL     1      -3.444   8.592   1.015  1.00  0.00     0.042 C 
BRANCH  27  28
ATOM     28  C   UNL     1      -4.202   9.758   0.397  1.00  0.00     0.118 C 
BRANCH  28  29
ATOM     29  N   UNL     1      -5.274  10.287   1.243  1.00  0.00    -0.352 N 
ATOM     30  C   UNL     1      -6.277  11.195   0.925  1.00  0.00     0.251 C 
ATOM     31  H   UNL     1      -5.285   9.951   2.168  1.00  0.00     0.163 HD
ATOM     32  O   UNL     1      -7.113  11.508   1.747  1.00  0.00    -0.269 OA
BRANCH  30  33
ATOM     33  C   UNL     1      -6.381  11.670  -0.478  1.00  0.00     0.039 A 
ATOM     34  C   UNL     1      -7.619  11.553  -1.118  1.00  0.00     0.014 A 
ATOM     35  C   UNL     1      -5.232  11.957  -1.205  1.00  0.00     0.014 A 
ATOM     36  C   UNL     1      -7.651  11.442  -2.505  1.00  0.00     0.010 A 
ATOM     37  C   UNL     1      -5.244  11.728  -2.565  1.00  0.00     0.010 A 
ATOM     38  C   UNL     1      -6.444  11.403  -3.204  1.00  0.00    -0.014 A 
BRANCH  38  39
ATOM     39  C   UNL     1      -6.339  10.906  -4.570  1.00  0.00     0.031 A 
ATOM     40  C   UNL     1      -6.085  11.838  -5.685  1.00  0.00     0.074 A 
ATOM     41  C   UNL     1      -6.443   9.580  -4.816  1.00  0.00     0.049 A 
ATOM     42  N   UNL     1      -6.532  11.660  -6.882  1.00  0.00    -0.248 NA
ATOM     43  C   UNL     1      -5.324  13.073  -5.526  1.00  0.00     0.031 C 
ATOM     44  C   UNL     1      -6.171   8.893  -6.076  1.00  0.00     0.029 A 
ATOM     45  N   UNL     1      -7.019   8.596  -3.999  1.00  0.00    -0.354 N 
ATOM     46  C   UNL     1      -5.920  12.587  -7.690  1.00  0.00     0.074 A 
ATOM     47  C   UNL     1      -5.224  13.482  -6.794  1.00  0.00     0.031 C 
ATOM     48  C   UNL     1      -6.818   7.717  -6.075  1.00  0.00     0.029 A 
ATOM     49  C   UNL     1      -7.626   7.665  -4.869  1.00  0.00     0.049 A 
ATOM     50  H   UNL     1      -7.003   8.562  -3.015  1.00  0.00     0.167 HD
ATOM     51  C   UNL     1      -5.941  12.439  -9.043  1.00  0.00     0.037 A 
ATOM     52  C   UNL     1      -8.968   7.427  -4.833  1.00  0.00     0.037 A 
ATOM     53  C   UNL     1      -6.650  11.233  -9.445  1.00  0.00     0.049 A 
ATOM     54  C   UNL     1      -9.684   7.762  -6.121  1.00  0.00     0.074 A 
ATOM     55  C   UNL     1      -6.209   9.951  -9.730  1.00  0.00     0.029 A 
ATOM     56  N   UNL     1      -8.024  11.143  -9.257  1.00  0.00    -0.354 N 
ATOM     57  N   UNL     1      -9.161   8.483  -7.073  1.00  0.00    -0.248 NA
ATOM     58  C   UNL     1     -11.054   7.353  -6.422  1.00  0.00     0.031 C 
ATOM     59  C   UNL     1      -7.316   9.074  -9.645  1.00  0.00     0.029 A 
ATOM     60  C   UNL     1      -8.435   9.826  -9.336  1.00  0.00     0.049 A 
ATOM     61  H   UNL     1      -8.620  11.909  -9.090  1.00  0.00     0.167 HD
ATOM     62  C   UNL     1     -10.091   8.681  -8.060  1.00  0.00     0.074 A 
ATOM     63  C   UNL     1     -11.251   7.931  -7.621  1.00  0.00     0.031 C 
ATOM     64  C   UNL     1      -9.831   9.465  -9.147  1.00  0.00     0.037 A 
BRANCH  51  65
ATOM     65  C   UNL     1      -5.031  13.242  -9.929  1.00  0.00     0.057 A 
ATOM     66  C   UNL     1      -4.315  12.646 -10.982  1.00  0.00     0.134 A 
ATOM     67  C   UNL     1      -4.782  14.612  -9.739  1.00  0.00     0.134 A 
ATOM     68  F   UNL     1      -4.503  11.366 -11.326  1.00  0.00    -0.206 F 
ATOM     69  C   UNL     1      -3.345  13.335 -11.720  1.00  0.00     0.040 A 
ATOM     70  C   UNL     1      -3.781  15.301 -10.436  1.00  0.00     0.040 A 
ATOM     71  F   UNL     1      -5.504  15.329  -8.864  1.00  0.00    -0.206 F 
ATOM     72  C   UNL     1      -3.048  14.657 -11.424  1.00  0.00     0.006 A 
ENDBRANCH  51  65
BRANCH  52  73
ATOM     73  C   UNL     1      -9.548   7.550  -3.471  1.00  0.00     0.057 A 
ATOM     74  C   UNL     1      -9.155   6.621  -2.490  1.00  0.00     0.134 A 
ATOM     75  C   UNL     1     -10.140   8.733  -3.025  1.00  0.00     0.134 A 
ATOM     76  F   UNL     1      -8.583   5.461  -2.852  1.00  0.00    -0.206 F 
ATOM     77  C   UNL     1      -9.237   6.907  -1.126  1.00  0.00     0.040 A 
ATOM     78  C   UNL     1     -10.236   9.027  -1.659  1.00  0.00     0.040 A 
ATOM     79  F   UNL     1     -10.525   9.675  -3.899  1.00  0.00    -0.206 F 
ATOM     80  C   UNL     1      -9.747   8.132  -0.708  1.00  0.00     0.006 A 
ENDBRANCH  52  73
BRANCH  64  81
ATOM     81  C   UNL     1     -10.836   9.905 -10.177  1.00  0.00     0.057 A 
ATOM     82  C   UNL     1     -12.183  10.171  -9.895  1.00  0.00     0.134 A 
ATOM     83  C   UNL     1     -10.416  10.231 -11.486  1.00  0.00     0.134 A 
ATOM     84  F   UNL     1     -12.688   9.997  -8.666  1.00  0.00    -0.206 F 
ATOM     85  C   UNL     1     -13.062  10.683 -10.859  1.00  0.00     0.040 A 
ATOM     86  C   UNL     1     -11.271  10.790 -12.439  1.00  0.00     0.040 A 
ATOM     87  F   UNL     1      -9.149  10.042 -11.885  1.00  0.00    -0.206 F 
ATOM     88  C   UNL     1     -12.604  11.007 -12.131  1.00  0.00     0.006 A 
ENDBRANCH  64  81
ENDBRANCH  38  39
ENDBRANCH  30  33
ENDBRANCH  28  29
ENDBRANCH  27  28
ENDBRANCH   1  27
TORSDOF 13
