REMARK SMILES Nn1c(S[C@@H](C(=O)NCCCNC(=O)c2ccc(-c3c4nc(c(-c5c(F)cccc5F)c5ccc([nH]5)c(-c5c(F)cccc5F)c5nc(c(-c6c(F)cccc6F)c6ccc3[nH]6)C=C5)C=C4)cc2)c2ccccc2)nc2ccc(Br)cc2c1=O
REMARK SMILES IDX 9 1 8 2 6 3 7 4 5 6 4 7 3 8 2 9 83 10 75 11 82 12 84 13
REMARK SMILES IDX 76 14 81 15 77 16 79 17 78 18 80 19 1 20 69 23 70 24 74 25
REMARK SMILES IDX 71 26 73 27 72 28 10 29 11 30 12 31 13 32 14 34 15 35 16 36
REMARK SMILES IDX 68 37 17 38 67 39 18 40 19 41 20 42 61 43 21 44 66 45 60 46
REMARK SMILES IDX 62 47 22 48 65 49 59 50 58 51 23 53 49 54 32 55 48 56 33 57
REMARK SMILES IDX 36 58 47 59 63 60 34 61 35 62 46 64 64 65 37 66 24 67 25 68
REMARK SMILES IDX 30 69 26 70 27 71 29 72 31 73 28 74 50 75 51 76 56 77 52 78
REMARK SMILES IDX 53 79 55 80 57 81 54 82 38 83 39 84 44 85 40 86 41 87 43 88
REMARK SMILES IDX 45 89 42 90
REMARK H PARENT 8 5 1 21 1 22 12 33 62 52 36 63
REMARK Flexibility Score: inf
ROOT
ATOM      1  C   UNL     1       5.272   1.313  -1.430  1.00  0.00     0.117 C 
ENDROOT
BRANCH   1   2
ATOM      2  N   UNL     1       4.601   0.754  -0.266  1.00  0.00    -0.355 N 
ATOM      3  C   UNL     1       3.572  -0.145  -0.158  1.00  0.00     0.238 C 
ATOM      4  O   UNL     1       3.394  -0.616   0.974  1.00  0.00    -0.273 OA
ATOM      5  H   UNL     1       4.946   1.080   0.596  1.00  0.00     0.163 HD
BRANCH   3   6
ATOM      6  C   UNL     1       2.749  -0.616  -1.382  1.00  0.00     0.174 C 
BRANCH   6   7
ATOM      7  S   UNL     1       2.110   0.732  -2.383  1.00  0.00    -0.068 SA
BRANCH   7   8
ATOM      8  C   UNL     1       0.689   1.488  -1.719  1.00  0.00     0.191 A 
ATOM      9  N   UNL     1       0.322   1.500  -0.375  1.00  0.00    -0.202 N 
ATOM     10  C   UNL     1      -0.909   2.019   0.046  1.00  0.00     0.280 A 
ATOM     11  N   UNL     1      -0.025   2.070  -2.632  1.00  0.00    -0.222 NA
ATOM     12  C   UNL     1      -1.718   2.686  -0.983  1.00  0.00     0.069 A 
ATOM     13  O   UNL     1      -1.307   1.962   1.210  1.00  0.00    -0.267 OA
ATOM     14  C   UNL     1      -1.202   2.727  -2.275  1.00  0.00     0.079 A 
ATOM     15  C   UNL     1      -2.931   3.304  -0.663  1.00  0.00     0.031 A 
ATOM     16  C   UNL     1      -1.894   3.440  -3.255  1.00  0.00     0.030 A 
ATOM     17  C   UNL     1      -3.616   3.998  -1.657  1.00  0.00     0.018 A 
ATOM     18  C   UNL     1      -3.097   4.081  -2.949  1.00  0.00     0.018 A 
ATOM     19  Br  UNL     1      -5.256   4.842  -1.251  1.00  0.00    -0.051 Br
BRANCH   9  20
ATOM     20  N   UNL     1       1.175   1.067   0.662  1.00  0.00    -0.334 N 
ATOM     21  H   UNL     1       2.059   0.690   0.448  1.00  0.00     0.178 HD
ATOM     22  H   UNL     1       0.887   1.142   1.601  1.00  0.00     0.178 HD
ENDBRANCH   9  20
ENDBRANCH   7   8
ENDBRANCH   6   7
BRANCH   6  23
ATOM     23  C   UNL     1       1.838  -1.822  -1.112  1.00  0.00    -0.025 A 
ATOM     24  C   UNL     1       2.447  -3.054  -0.792  1.00  0.00     0.005 A 
ATOM     25  C   UNL     1       0.434  -1.795  -1.134  1.00  0.00     0.005 A 
ATOM     26  C   UNL     1       1.690  -4.186  -0.477  1.00  0.00     0.000 A 
ATOM     27  C   UNL     1      -0.325  -2.921  -0.798  1.00  0.00     0.000 A 
ATOM     28  C   UNL     1       0.302  -4.116  -0.467  1.00  0.00     0.000 A 
ENDBRANCH   6  23
ENDBRANCH   3   6
ENDBRANCH   1   2
BRANCH   1  29
ATOM     29  C   UNL     1       4.897   2.764  -1.732  1.00  0.00     0.042 C 
BRANCH  29  30
ATOM     30  C   UNL     1       5.159   3.748  -0.598  1.00  0.00     0.118 C 
BRANCH  30  31
ATOM     31  N   UNL     1       6.574   3.989  -0.363  1.00  0.00    -0.352 N 
ATOM     32  C   UNL     1       7.366   5.078  -0.653  1.00  0.00     0.251 C 
ATOM     33  H   UNL     1       7.047   3.247   0.078  1.00  0.00     0.163 HD
ATOM     34  O   UNL     1       8.579   4.994  -0.509  1.00  0.00    -0.269 OA
BRANCH  32  35
ATOM     35  C   UNL     1       6.776   6.336  -1.169  1.00  0.00     0.039 A 
ATOM     36  C   UNL     1       5.604   6.869  -0.633  1.00  0.00     0.014 A 
ATOM     37  C   UNL     1       7.436   7.018  -2.198  1.00  0.00     0.014 A 
ATOM     38  C   UNL     1       4.998   7.968  -1.238  1.00  0.00     0.010 A 
ATOM     39  C   UNL     1       6.873   8.176  -2.746  1.00  0.00     0.010 A 
ATOM     40  C   UNL     1       5.622   8.633  -2.304  1.00  0.00    -0.014 A 
BRANCH  40  41
ATOM     41  C   UNL     1       4.953   9.798  -2.944  1.00  0.00     0.031 A 
ATOM     42  C   UNL     1       4.515   9.738  -4.385  1.00  0.00     0.074 A 
ATOM     43  C   UNL     1       4.700  10.902  -2.214  1.00  0.00     0.049 A 
ATOM     44  N   UNL     1       3.927  10.657  -5.110  1.00  0.00    -0.248 NA
ATOM     45  C   UNL     1       4.774   8.483  -5.108  1.00  0.00     0.031 C 
ATOM     46  C   UNL     1       5.056  11.083  -0.805  1.00  0.00     0.029 A 
ATOM     47  N   UNL     1       4.070  12.074  -2.549  1.00  0.00    -0.354 N 
ATOM     48  C   UNL     1       3.764  10.101  -6.374  1.00  0.00     0.074 A 
ATOM     49  C   UNL     1       4.340   8.774  -6.326  1.00  0.00     0.031 C 
ATOM     50  C   UNL     1       4.601  12.273  -0.385  1.00  0.00     0.029 A 
ATOM     51  C   UNL     1       3.983  12.968  -1.509  1.00  0.00     0.049 A 
ATOM     52  H   UNL     1       3.715  12.257  -3.449  1.00  0.00     0.167 HD
ATOM     53  C   UNL     1       3.179  10.642  -7.470  1.00  0.00     0.037 A 
ATOM     54  C   UNL     1       3.484  14.217  -1.470  1.00  0.00     0.037 A 
ATOM     55  C   UNL     1       2.588  11.956  -7.512  1.00  0.00     0.049 A 
ATOM     56  C   UNL     1       2.915  14.818  -2.723  1.00  0.00     0.074 A 
ATOM     57  C   UNL     1       1.928  12.572  -8.562  1.00  0.00     0.029 A 
ATOM     58  N   UNL     1       2.592  12.858  -6.460  1.00  0.00    -0.354 N 
ATOM     59  N   UNL     1       2.741  14.270  -3.901  1.00  0.00    -0.248 NA
ATOM     60  C   UNL     1       2.491  16.223  -2.644  1.00  0.00     0.031 C 
ATOM     61  C   UNL     1       1.582  13.868  -8.162  1.00  0.00     0.029 A 
ATOM     62  C   UNL     1       1.984  14.042  -6.848  1.00  0.00     0.049 A 
ATOM     63  H   UNL     1       2.972  12.684  -5.568  1.00  0.00     0.167 HD
ATOM     64  C   UNL     1       2.179  15.257  -4.699  1.00  0.00     0.074 A 
ATOM     65  C   UNL     1       2.012  16.427  -3.862  1.00  0.00     0.031 C 
ATOM     66  C   UNL     1       1.839  15.203  -6.010  1.00  0.00     0.037 A 
BRANCH  53  67
ATOM     67  C   UNL     1       3.167   9.824  -8.730  1.00  0.00     0.057 A 
ATOM     68  C   UNL     1       3.958  10.194  -9.826  1.00  0.00     0.134 A 
ATOM     69  C   UNL     1       2.344   8.700  -8.879  1.00  0.00     0.134 A 
ATOM     70  F   UNL     1       4.764  11.264  -9.754  1.00  0.00    -0.206 F 
ATOM     71  C   UNL     1       3.928   9.479 -11.024  1.00  0.00     0.040 A 
ATOM     72  C   UNL     1       2.324   7.962 -10.065  1.00  0.00     0.040 A 
ATOM     73  F   UNL     1       1.569   8.285  -7.866  1.00  0.00    -0.206 F 
ATOM     74  C   UNL     1       3.113   8.356 -11.144  1.00  0.00     0.006 A 
ENDBRANCH  53  67
BRANCH  54  75
ATOM     75  C   UNL     1       3.527  15.004  -0.211  1.00  0.00     0.057 A 
ATOM     76  C   UNL     1       4.739  15.448   0.332  1.00  0.00     0.134 A 
ATOM     77  C   UNL     1       2.352  15.363   0.457  1.00  0.00     0.134 A 
ATOM     78  F   UNL     1       5.902  15.139  -0.262  1.00  0.00    -0.206 F 
ATOM     79  C   UNL     1       4.782  16.214   1.497  1.00  0.00     0.040 A 
ATOM     80  C   UNL     1       2.377  16.153   1.608  1.00  0.00     0.040 A 
ATOM     81  F   UNL     1       1.158  14.988  -0.028  1.00  0.00    -0.206 F 
ATOM     82  C   UNL     1       3.596  16.577   2.133  1.00  0.00     0.006 A 
ENDBRANCH  54  75
BRANCH  66  83
ATOM     83  C   UNL     1       1.249  16.447  -6.607  1.00  0.00     0.057 A 
ATOM     84  C   UNL     1      -0.109  16.510  -6.939  1.00  0.00     0.134 A 
ATOM     85  C   UNL     1       2.030  17.584  -6.853  1.00  0.00     0.134 A 
ATOM     86  F   UNL     1      -0.912  15.455  -6.735  1.00  0.00    -0.206 F 
ATOM     87  C   UNL     1      -0.671  17.662  -7.494  1.00  0.00     0.040 A 
ATOM     88  C   UNL     1       1.474  18.750  -7.381  1.00  0.00     0.040 A 
ATOM     89  F   UNL     1       3.335  17.593  -6.539  1.00  0.00    -0.206 F 
ATOM     90  C   UNL     1       0.120  18.789  -7.708  1.00  0.00     0.006 A 
ENDBRANCH  66  83
ENDBRANCH  40  41
ENDBRANCH  32  35
ENDBRANCH  30  31
ENDBRANCH  29  30
ENDBRANCH   1  29
TORSDOF 14
