REMARK SMILES C[C@@H](CCC(=O)NCCCNC(=O)c1ccc(-c2c3nc(c(-c4c(F)cccc4F)c4ccc([nH]4)c(-c4c(F)cccc4F)c4nc(c(-c5c(F)cccc5F)c5ccc2[nH]5)C=C4)C=C3)cc1)NC(=O)Nc1ccc(Cl)c(Br)c1
REMARK SMILES IDX 8 1 7 2 5 3 6 4 4 6 3 7 2 8 1 9 68 10 69 11 70 13 71 14
REMARK SMILES IDX 72 16 73 17 79 18 74 19 77 20 75 21 78 22 76 23 9 24 10 25
REMARK SMILES IDX 11 26 12 27 13 29 14 30 15 31 67 32 16 33 66 34 17 35 18 36
REMARK SMILES IDX 19 37 60 38 20 39 65 40 59 41 61 42 21 43 64 44 58 45 57 46
REMARK SMILES IDX 22 48 48 49 31 50 47 51 32 52 35 53 46 54 62 55 33 56 34 57
REMARK SMILES IDX 45 59 63 60 36 61 23 62 24 63 29 64 25 65 26 66 28 67 30 68
REMARK SMILES IDX 27 69 49 70 50 71 55 72 51 73 52 74 54 75 56 76 53 77 37 78
REMARK SMILES IDX 38 79 43 80 39 81 40 82 42 83 44 84 41 85
REMARK H PARENT 7 5 68 12 71 15 11 28 61 47 35 58
REMARK Flexibility Score: inf
ROOT
ATOM      1  C   UNL     1      -1.842   0.017  -1.490  1.00  0.00     0.117 C 
ENDROOT
BRANCH   1   2
ATOM      2  N   UNL     1      -2.096   1.433  -1.280  1.00  0.00    -0.356 N 
ATOM      3  C   UNL     1      -1.256   2.501  -1.255  1.00  0.00     0.220 C 
ATOM      4  O   UNL     1      -1.733   3.605  -0.986  1.00  0.00    -0.275 OA
ATOM      5  H   UNL     1      -3.042   1.658  -1.131  1.00  0.00     0.163 HD
BRANCH   3   6
ATOM      6  C   UNL     1       0.228   2.344  -1.495  1.00  0.00     0.102 C 
BRANCH   6   7
ATOM      7  C   UNL     1       1.056   2.823  -0.295  1.00  0.00     0.034 C 
BRANCH   7   8
ATOM      8  C   UNL     1       1.006   1.941   0.974  1.00  0.00     0.081 C 
ATOM      9  C   UNL     1       1.497   0.520   0.683  1.00  0.00     0.031 C 
BRANCH   8  10
ATOM     10  N   UNL     1      -0.309   2.021   1.627  1.00  0.00    -0.335 N 
ATOM     11  C   UNL     1      -0.867   1.463   2.719  1.00  0.00     0.319 C 
ATOM     12  H   UNL     1      -0.927   2.625   1.155  1.00  0.00     0.165 HD
ATOM     13  O   UNL     1      -2.097   1.497   2.814  1.00  0.00    -0.248 OA
ATOM     14  N   UNL     1      -0.173   0.750   3.630  1.00  0.00    -0.308 N 
ATOM     15  H   UNL     1      -0.707   0.060   4.087  1.00  0.00     0.171 HD
BRANCH  14  16
ATOM     16  C   UNL     1       1.160   0.804   4.047  1.00  0.00     0.044 A 
ATOM     17  C   UNL     1       1.736  -0.375   4.523  1.00  0.00     0.028 A 
ATOM     18  C   UNL     1       1.917   1.973   4.009  1.00  0.00     0.043 A 
ATOM     19  C   UNL     1       3.102  -0.419   4.807  1.00  0.00     0.024 A 
ATOM     20  C   UNL     1       3.288   1.933   4.285  1.00  0.00     0.038 A 
ATOM     21  C   UNL     1       3.888   0.728   4.660  1.00  0.00     0.055 A 
ATOM     22  Br  UNL     1       4.266   3.547   4.074  1.00  0.00    -0.049 Br
ATOM     23  Cl  UNL     1       5.585   0.573   4.937  1.00  0.00    -0.083 Cl
ENDBRANCH  14  16
ENDBRANCH   8  10
ENDBRANCH   7   8
ENDBRANCH   6   7
ENDBRANCH   3   6
ENDBRANCH   1   2
BRANCH   1  24
ATOM     24  C   UNL     1      -1.760  -0.770  -0.182  1.00  0.00     0.042 C 
BRANCH  24  25
ATOM     25  C   UNL     1      -3.058  -0.830   0.617  1.00  0.00     0.118 C 
BRANCH  25  26
ATOM     26  N   UNL     1      -3.937  -1.878   0.128  1.00  0.00    -0.352 N 
ATOM     27  C   UNL     1      -4.519  -2.910   0.813  1.00  0.00     0.251 C 
ATOM     28  H   UNL     1      -4.144  -1.841  -0.834  1.00  0.00     0.163 HD
ATOM     29  O   UNL     1      -5.035  -3.835   0.171  1.00  0.00    -0.269 OA
BRANCH  27  30
ATOM     30  C   UNL     1      -4.554  -2.955   2.295  1.00  0.00     0.039 A 
ATOM     31  C   UNL     1      -4.443  -4.201   2.924  1.00  0.00     0.014 A 
ATOM     32  C   UNL     1      -4.805  -1.815   3.069  1.00  0.00     0.014 A 
ATOM     33  C   UNL     1      -4.583  -4.309   4.311  1.00  0.00     0.010 A 
ATOM     34  C   UNL     1      -4.902  -1.917   4.461  1.00  0.00     0.010 A 
ATOM     35  C   UNL     1      -4.821  -3.168   5.092  1.00  0.00    -0.014 A 
BRANCH  35  36
ATOM     36  C   UNL     1      -5.049  -3.290   6.555  1.00  0.00     0.031 A 
ATOM     37  C   UNL     1      -6.427  -3.087   7.126  1.00  0.00     0.074 A 
ATOM     38  C   UNL     1      -4.024  -3.579   7.378  1.00  0.00     0.049 A 
ATOM     39  N   UNL     1      -6.826  -3.159   8.372  1.00  0.00    -0.248 NA
ATOM     40  C   UNL     1      -7.495  -2.748   6.173  1.00  0.00     0.031 C 
ATOM     41  C   UNL     1      -2.636  -3.782   6.962  1.00  0.00     0.029 A 
ATOM     42  N   UNL     1      -3.994  -3.751   8.740  1.00  0.00    -0.354 N 
ATOM     43  C   UNL     1      -8.184  -2.868   8.353  1.00  0.00     0.074 A 
ATOM     44  C   UNL     1      -8.534  -2.582   6.978  1.00  0.00     0.031 C 
ATOM     45  C   UNL     1      -1.892  -4.063   8.045  1.00  0.00     0.029 A 
ATOM     46  C   UNL     1      -2.745  -4.042   9.231  1.00  0.00     0.049 A 
ATOM     47  H   UNL     1      -4.792  -3.673   9.310  1.00  0.00     0.167 HD
ATOM     48  C   UNL     1      -9.065  -2.856   9.382  1.00  0.00     0.037 A 
ATOM     49  C   UNL     1      -2.334  -4.268  10.493  1.00  0.00     0.037 A 
ATOM     50  C   UNL     1      -8.732  -3.161  10.748  1.00  0.00     0.049 A 
ATOM     51  C   UNL     1      -3.330  -4.247  11.619  1.00  0.00     0.074 A 
ATOM     52  C   UNL     1      -9.572  -3.224  11.848  1.00  0.00     0.029 A 
ATOM     53  N   UNL     1      -7.456  -3.453  11.203  1.00  0.00    -0.354 N 
ATOM     54  N   UNL     1      -4.621  -4.026  11.576  1.00  0.00    -0.248 NA
ATOM     55  C   UNL     1      -2.811  -4.516  12.969  1.00  0.00     0.031 C 
ATOM     56  C   UNL     1      -8.797  -3.525  12.974  1.00  0.00     0.029 A 
ATOM     57  C   UNL     1      -7.482  -3.682  12.569  1.00  0.00     0.049 A 
ATOM     58  H   UNL     1      -6.651  -3.493  10.638  1.00  0.00     0.167 HD
ATOM     59  C   UNL     1      -5.072  -4.152  12.883  1.00  0.00     0.074 A 
ATOM     60  C   UNL     1      -3.919  -4.479  13.696  1.00  0.00     0.031 C 
ATOM     61  C   UNL     1      -6.330  -4.011  13.366  1.00  0.00     0.037 A 
BRANCH  48  62
ATOM     62  C   UNL     1     -10.487  -2.502   9.066  1.00  0.00     0.057 A 
ATOM     63  C   UNL     1     -11.340  -3.401   8.413  1.00  0.00     0.134 A 
ATOM     64  C   UNL     1     -11.020  -1.265   9.451  1.00  0.00     0.134 A 
ATOM     65  F   UNL     1     -10.886  -4.597   8.010  1.00  0.00    -0.206 F 
ATOM     66  C   UNL     1     -12.669  -3.075   8.136  1.00  0.00     0.040 A 
ATOM     67  C   UNL     1     -12.352  -0.936   9.198  1.00  0.00     0.040 A 
ATOM     68  F   UNL     1     -10.257  -0.363  10.085  1.00  0.00    -0.206 F 
ATOM     69  C   UNL     1     -13.180  -1.840   8.535  1.00  0.00     0.006 A 
ENDBRANCH  48  62
BRANCH  49  70
ATOM     70  C   UNL     1      -0.906  -4.564  10.761  1.00  0.00     0.057 A 
ATOM     71  C   UNL     1      -0.489  -5.857  11.096  1.00  0.00     0.134 A 
ATOM     72  C   UNL     1       0.070  -3.563  10.697  1.00  0.00     0.134 A 
ATOM     73  F   UNL     1      -1.384  -6.851  11.191  1.00  0.00    -0.206 F 
ATOM     74  C   UNL     1       0.849  -6.143  11.371  1.00  0.00     0.040 A 
ATOM     75  C   UNL     1       1.414  -3.839  10.953  1.00  0.00     0.040 A 
ATOM     76  F   UNL     1      -0.269  -2.306  10.377  1.00  0.00    -0.206 F 
ATOM     77  C   UNL     1       1.805  -5.132  11.296  1.00  0.00     0.006 A 
ENDBRANCH  49  70
BRANCH  61  78
ATOM     78  C   UNL     1      -6.530  -4.235  14.834  1.00  0.00     0.057 A 
ATOM     79  C   UNL     1      -6.138  -3.283  15.783  1.00  0.00     0.134 A 
ATOM     80  C   UNL     1      -7.151  -5.400  15.301  1.00  0.00     0.134 A 
ATOM     81  F   UNL     1      -5.526  -2.152  15.399  1.00  0.00    -0.206 F 
ATOM     82  C   UNL     1      -6.341  -3.490  17.149  1.00  0.00     0.040 A 
ATOM     83  C   UNL     1      -7.377  -5.610  16.663  1.00  0.00     0.040 A 
ATOM     84  F   UNL     1      -7.555  -6.348  14.442  1.00  0.00    -0.206 F 
ATOM     85  C   UNL     1      -6.967  -4.654  17.591  1.00  0.00     0.006 A 
ENDBRANCH  61  78
ENDBRANCH  35  36
ENDBRANCH  27  30
ENDBRANCH  25  26
ENDBRANCH  24  25
ENDBRANCH   1  24
TORSDOF 14
