REMARK SMILES CCC(CC)[C@@H](C(=O)NCCCNC(=O)c1ccc(-c2c3nc(c(-c4c(F)cccc4F)c4ccc([nH]4)c(-c4c(F)cccc4F)c4nc(c(-c5c(F)cccc5F)c5ccc2[nH]5)C=C4)C=C3)cc1)c1ccccc1OC
REMARK SMILES IDX 11 1 10 2 9 3 7 4 8 5 6 7 3 8 2 9 1 10 4 11 5 12 70 13 71 14
REMARK SMILES IDX 75 15 72 16 74 17 73 18 76 19 77 20 12 21 13 22 14 23 15 25
REMARK SMILES IDX 16 26 17 27 69 28 18 29 68 30 19 31 20 32 21 33 62 34 22 35
REMARK SMILES IDX 67 36 61 37 63 38 23 39 66 40 60 41 59 42 24 44 50 45 33 46
REMARK SMILES IDX 49 47 34 48 37 49 48 50 64 51 35 52 36 53 47 55 65 56 38 57
REMARK SMILES IDX 25 58 26 59 31 60 27 61 28 62 30 63 32 64 29 65 51 66 52 67
REMARK SMILES IDX 57 68 53 69 54 70 56 71 58 72 55 73 39 74 40 75 45 76 41 77
REMARK SMILES IDX 42 78 44 79 46 80 43 81
REMARK H PARENT 9 6 13 24 63 43 37 54
REMARK Flexibility Score: inf
ROOT
ATOM      1  C   UNL     1      -0.278  -1.803   2.714  1.00  0.00     0.042 C 
ENDROOT
BRANCH   1   2
ATOM      2  C   UNL     1      -0.678  -0.471   3.369  1.00  0.00     0.117 C 
BRANCH   2   3
ATOM      3  N   UNL     1       0.459   0.223   3.950  1.00  0.00    -0.355 N 
ATOM      4  C   UNL     1       1.202   1.299   3.567  1.00  0.00     0.227 C 
ATOM      5  O   UNL     1       2.285   1.387   4.155  1.00  0.00    -0.274 OA
ATOM      6  H   UNL     1       0.757  -0.169   4.803  1.00  0.00     0.163 HD
BRANCH   4   7
ATOM      7  C   UNL     1       0.733   2.310   2.474  1.00  0.00     0.115 C 
BRANCH   7   8
ATOM      8  C   UNL     1       1.375   2.018   1.065  1.00  0.00     0.005 C 
BRANCH   8   9
ATOM      9  C   UNL     1       1.341   0.517   0.721  1.00  0.00     0.001 C 
ATOM     10  C   UNL     1       1.954   0.120  -0.614  1.00  0.00     0.004 C 
ENDBRANCH   8   9
BRANCH   8  11
ATOM     11  C   UNL     1       0.744   2.854  -0.083  1.00  0.00     0.001 C 
ATOM     12  C   UNL     1      -0.687   2.472  -0.457  1.00  0.00     0.004 C 
ENDBRANCH   8  11
ENDBRANCH   7   8
BRANCH   7  13
ATOM     13  C   UNL     1       0.983   3.778   2.905  1.00  0.00     0.007 A 
ATOM     14  C   UNL     1       2.182   4.170   3.537  1.00  0.00     0.008 A 
ATOM     15  C   UNL     1       0.064   4.805   2.621  1.00  0.00     0.122 A 
ATOM     16  C   UNL     1       2.425   5.495   3.914  1.00  0.00     0.001 A 
ATOM     17  C   UNL     1       0.324   6.142   2.956  1.00  0.00     0.047 A 
ATOM     18  C   UNL     1       1.496   6.484   3.624  1.00  0.00     0.004 A 
BRANCH  15  19
ATOM     19  O   UNL     1      -1.038   4.565   1.843  1.00  0.00    -0.496 OA
ATOM     20  C   UNL     1      -2.214   4.371   2.619  1.00  0.00     0.278 C 
ENDBRANCH  15  19
ENDBRANCH   7  13
ENDBRANCH   4   7
ENDBRANCH   2   3
ENDBRANCH   1   2
BRANCH   1  21
ATOM     21  C   UNL     1       0.454  -2.795   3.620  1.00  0.00     0.118 C 
BRANCH  21  22
ATOM     22  N   UNL     1      -0.456  -3.711   4.286  1.00  0.00    -0.352 N 
ATOM     23  C   UNL     1      -0.677  -5.048   4.062  1.00  0.00     0.251 C 
ATOM     24  H   UNL     1      -0.996  -3.314   5.007  1.00  0.00     0.163 HD
ATOM     25  O   UNL     1      -1.652  -5.592   4.584  1.00  0.00    -0.269 OA
BRANCH  23  26
ATOM     26  C   UNL     1       0.217  -5.848   3.190  1.00  0.00     0.039 A 
ATOM     27  C   UNL     1      -0.356  -6.768   2.305  1.00  0.00     0.014 A 
ATOM     28  C   UNL     1       1.609  -5.754   3.277  1.00  0.00     0.014 A 
ATOM     29  C   UNL     1       0.456  -7.544   1.472  1.00  0.00     0.010 A 
ATOM     30  C   UNL     1       2.418  -6.482   2.401  1.00  0.00     0.010 A 
ATOM     31  C   UNL     1       1.851  -7.387   1.489  1.00  0.00    -0.014 A 
BRANCH  31  32
ATOM     32  C   UNL     1       2.725  -8.151   0.558  1.00  0.00     0.031 A 
ATOM     33  C   UNL     1       3.705  -9.165   1.080  1.00  0.00     0.074 A 
ATOM     34  C   UNL     1       2.676  -7.894  -0.764  1.00  0.00     0.049 A 
ATOM     35  N   UNL     1       4.585  -9.881   0.424  1.00  0.00    -0.248 NA
ATOM     36  C   UNL     1       3.712  -9.389   2.533  1.00  0.00     0.031 C 
ATOM     37  C   UNL     1       1.793  -6.917  -1.403  1.00  0.00     0.029 A 
ATOM     38  N   UNL     1       3.391  -8.429  -1.807  1.00  0.00    -0.354 N 
ATOM     39  C   UNL     1       5.257 -10.628   1.383  1.00  0.00     0.074 A 
ATOM     40  C   UNL     1       4.714 -10.245   2.669  1.00  0.00     0.031 C 
ATOM     41  C   UNL     1       2.000  -6.941  -2.729  1.00  0.00     0.029 A 
ATOM     42  C   UNL     1       3.056  -7.903  -3.031  1.00  0.00     0.049 A 
ATOM     43  H   UNL     1       4.078  -9.124  -1.689  1.00  0.00     0.167 HD
ATOM     44  C   UNL     1       6.224 -11.562   1.209  1.00  0.00     0.037 A 
ATOM     45  C   UNL     1       3.547  -8.158  -4.259  1.00  0.00     0.037 A 
ATOM     46  C   UNL     1       6.753 -11.960  -0.070  1.00  0.00     0.049 A 
ATOM     47  C   UNL     1       4.647  -9.167  -4.424  1.00  0.00     0.074 A 
ATOM     48  C   UNL     1       7.680 -12.949  -0.351  1.00  0.00     0.029 A 
ATOM     49  N   UNL     1       6.407 -11.382  -1.282  1.00  0.00    -0.354 N 
ATOM     50  N   UNL     1       5.229  -9.910  -3.515  1.00  0.00    -0.248 NA
ATOM     51  C   UNL     1       5.163  -9.367  -5.786  1.00  0.00     0.031 C 
ATOM     52  C   UNL     1       7.930 -12.938  -1.729  1.00  0.00     0.029 A 
ATOM     53  C   UNL     1       7.128 -11.969  -2.310  1.00  0.00     0.049 A 
ATOM     54  H   UNL     1       5.747 -10.660  -1.396  1.00  0.00     0.167 HD
ATOM     55  C   UNL     1       6.166 -10.678  -4.194  1.00  0.00     0.074 A 
ATOM     56  C   UNL     1       6.066 -10.319  -5.594  1.00  0.00     0.031 C 
ATOM     57  C   UNL     1       7.030 -11.598  -3.699  1.00  0.00     0.037 A 
BRANCH  44  58
ATOM     58  C   UNL     1       6.778 -12.214   2.443  1.00  0.00     0.057 A 
ATOM     59  C   UNL     1       6.024 -13.120   3.202  1.00  0.00     0.134 A 
ATOM     60  C   UNL     1       8.083 -11.944   2.871  1.00  0.00     0.134 A 
ATOM     61  F   UNL     1       4.764 -13.416   2.851  1.00  0.00    -0.206 F 
ATOM     62  C   UNL     1       6.536 -13.705   4.361  1.00  0.00     0.040 A 
ATOM     63  C   UNL     1       8.616 -12.542   4.015  1.00  0.00     0.040 A 
ATOM     64  F   UNL     1       8.863 -11.093   2.187  1.00  0.00    -0.206 F 
ATOM     65  C   UNL     1       7.838 -13.419   4.769  1.00  0.00     0.006 A 
ENDBRANCH  44  58
BRANCH  45  66
ATOM     66  C   UNL     1       2.979  -7.457  -5.436  1.00  0.00     0.057 A 
ATOM     67  C   UNL     1       2.160  -8.135  -6.346  1.00  0.00     0.134 A 
ATOM     68  C   UNL     1       3.221  -6.099  -5.670  1.00  0.00     0.134 A 
ATOM     69  F   UNL     1       1.910  -9.443  -6.184  1.00  0.00    -0.206 F 
ATOM     70  C   UNL     1       1.603  -7.488  -7.449  1.00  0.00     0.040 A 
ATOM     71  C   UNL     1       2.654  -5.434  -6.758  1.00  0.00     0.040 A 
ATOM     72  F   UNL     1       3.995  -5.395  -4.831  1.00  0.00    -0.206 F 
ATOM     73  C   UNL     1       1.844  -6.131  -7.653  1.00  0.00     0.006 A 
ENDBRANCH  45  66
BRANCH  57  74
ATOM     74  C   UNL     1       7.931 -12.289  -4.680  1.00  0.00     0.057 A 
ATOM     75  C   UNL     1       9.031 -11.638  -5.251  1.00  0.00     0.134 A 
ATOM     76  C   UNL     1       7.717 -13.628  -5.028  1.00  0.00     0.134 A 
ATOM     77  F   UNL     1       9.280 -10.350  -4.970  1.00  0.00    -0.206 F 
ATOM     78  C   UNL     1       9.880 -12.291  -6.146  1.00  0.00     0.040 A 
ATOM     79  C   UNL     1       8.572 -14.299  -5.905  1.00  0.00     0.040 A 
ATOM     80  F   UNL     1       6.684 -14.310  -4.512  1.00  0.00    -0.206 F 
ATOM     81  C   UNL     1       9.655 -13.628  -6.470  1.00  0.00     0.006 A 
ENDBRANCH  57  74
ENDBRANCH  31  32
ENDBRANCH  23  26
ENDBRANCH  21  22
ENDBRANCH   1  21
TORSDOF 15
