REMARK SMILES C[C@@H](Sc1nc(-c2ccc3c(c2)OCO3)ccc1C#N)C(=O)NCCCNC(=O)c1ccc(-c2c3nc(c(-c4c(F)cccc4F)c4ccc([nH]4)c(-c4c(F)cccc4F)c4nc(c(-c5c(F)cccc5F)c5ccc2[nH]5)C=C4)C=C3)cc1
REMARK SMILES IDX 24 1 23 2 21 3 22 4 2 6 1 7 3 8 4 9 5 10 18 11 6 12 17 13
REMARK SMILES IDX 16 14 19 15 20 16 7 17 8 18 12 19 9 20 11 21 10 22 13 23
REMARK SMILES IDX 15 24 14 25 25 26 26 27 27 28 28 29 29 31 30 32 31 33 83 34
REMARK SMILES IDX 32 35 82 36 33 37 34 38 35 39 76 40 36 41 81 42 75 43 77 44
REMARK SMILES IDX 37 45 80 46 74 47 73 48 38 50 64 51 47 52 63 53 48 54 51 55
REMARK SMILES IDX 62 56 78 57 49 58 50 59 61 61 79 62 52 63 39 64 40 65 45 66
REMARK SMILES IDX 41 67 42 68 44 69 46 70 43 71 65 72 66 73 71 74 67 75 68 76
REMARK SMILES IDX 70 77 72 78 69 79 53 80 54 81 59 82 55 83 56 84 58 85 60 86
REMARK SMILES IDX 57 87
REMARK H PARENT 23 5 27 30 77 49 51 60
REMARK Flexibility Score: inf
ROOT
ATOM      1  C   UNL     1      -1.027  -0.766   2.090  1.00  0.00     0.117 C 
ENDROOT
BRANCH   1   2
ATOM      2  N   UNL     1      -1.499  -1.104   0.756  1.00  0.00    -0.355 N 
ATOM      3  C   UNL     1      -0.798  -1.436  -0.370  1.00  0.00     0.233 C 
ATOM      4  O   UNL     1      -1.447  -1.699  -1.387  1.00  0.00    -0.274 OA
ATOM      5  H   UNL     1      -2.478  -1.091   0.647  1.00  0.00     0.163 HD
BRANCH   3   6
ATOM      6  C   UNL     1       0.737  -1.450  -0.387  1.00  0.00     0.139 C 
ATOM      7  C   UNL     1       1.265  -0.028  -0.235  1.00  0.00     0.030 C 
BRANCH   6   8
ATOM      8  S   UNL     1       1.272  -2.745   0.816  1.00  0.00    -0.092 SA
BRANCH   8   9
ATOM      9  C   UNL     1       3.047  -2.737   0.747  1.00  0.00     0.115 A 
ATOM     10  N   UNL     1       3.656  -1.526   0.783  1.00  0.00    -0.240 NA
ATOM     11  C   UNL     1       3.756  -3.938   0.810  1.00  0.00     0.084 A 
ATOM     12  C   UNL     1       5.010  -1.488   0.843  1.00  0.00     0.072 A 
ATOM     13  C   UNL     1       5.147  -3.882   0.899  1.00  0.00     0.024 A 
ATOM     14  C   UNL     1       5.781  -2.645   0.914  1.00  0.00     0.030 A 
BRANCH  11  15
ATOM     15  C   UNL     1       3.112  -5.218   0.804  1.00  0.00     0.102 C 
ATOM     16  N   UNL     1       2.625  -6.269   0.796  1.00  0.00    -0.192 NA
ENDBRANCH  11  15
BRANCH  12  17
ATOM     17  C   UNL     1       5.639  -0.161   0.803  1.00  0.00     0.004 A 
ATOM     18  C   UNL     1       6.571   0.148  -0.222  1.00  0.00     0.014 A 
ATOM     19  C   UNL     1       5.370   0.807   1.787  1.00  0.00     0.061 A 
ATOM     20  C   UNL     1       7.241   1.374  -0.260  1.00  0.00     0.051 A 
ATOM     21  C   UNL     1       6.058   2.005   1.734  1.00  0.00     0.166 A 
ATOM     22  C   UNL     1       6.969   2.277   0.741  1.00  0.00     0.165 A 
ATOM     23  O   UNL     1       5.951   3.027   2.626  1.00  0.00    -0.454 OA
ATOM     24  O   UNL     1       7.546   3.501   0.880  1.00  0.00    -0.454 OA
ATOM     25  C   UNL     1       6.921   3.957   2.096  1.00  0.00     0.468 C 
ENDBRANCH  12  17
ENDBRANCH   8   9
ENDBRANCH   6   8
ENDBRANCH   3   6
ENDBRANCH   1   2
BRANCH   1  26
ATOM     26  C   UNL     1      -1.387   0.657   2.479  1.00  0.00     0.042 C 
BRANCH  26  27
ATOM     27  C   UNL     1      -2.879   0.863   2.677  1.00  0.00     0.118 C 
BRANCH  27  28
ATOM     28  N   UNL     1      -3.405   0.086   3.792  1.00  0.00    -0.352 N 
ATOM     29  C   UNL     1      -3.974   0.502   4.970  1.00  0.00     0.251 C 
ATOM     30  H   UNL     1      -3.342  -0.891   3.685  1.00  0.00     0.163 HD
ATOM     31  O   UNL     1      -4.162  -0.302   5.877  1.00  0.00    -0.269 OA
BRANCH  29  32
ATOM     32  C   UNL     1      -4.339   1.922   5.154  1.00  0.00     0.039 A 
ATOM     33  C   UNL     1      -4.092   2.528   6.388  1.00  0.00     0.014 A 
ATOM     34  C   UNL     1      -4.926   2.653   4.119  1.00  0.00     0.014 A 
ATOM     35  C   UNL     1      -4.366   3.886   6.556  1.00  0.00     0.010 A 
ATOM     36  C   UNL     1      -5.100   4.026   4.253  1.00  0.00     0.010 A 
ATOM     37  C   UNL     1      -4.828   4.657   5.475  1.00  0.00    -0.014 A 
BRANCH  37  38
ATOM     38  C   UNL     1      -5.023   6.122   5.605  1.00  0.00     0.031 A 
ATOM     39  C   UNL     1      -6.385   6.729   5.403  1.00  0.00     0.074 A 
ATOM     40  C   UNL     1      -3.961   6.914   5.850  1.00  0.00     0.049 A 
ATOM     41  N   UNL     1      -6.740   7.989   5.429  1.00  0.00    -0.248 NA
ATOM     42  C   UNL     1      -7.489   5.802   5.107  1.00  0.00     0.031 C 
ATOM     43  C   UNL     1      -2.581   6.451   6.018  1.00  0.00     0.029 A 
ATOM     44  N   UNL     1      -3.872   8.276   5.994  1.00  0.00    -0.354 N 
ATOM     45  C   UNL     1      -8.100   8.004   5.147  1.00  0.00     0.074 A 
ATOM     46  C   UNL     1      -8.494   6.636   4.889  1.00  0.00     0.031 C 
ATOM     47  C   UNL     1      -1.792   7.505   6.276  1.00  0.00     0.029 A 
ATOM     48  C   UNL     1      -2.595   8.722   6.239  1.00  0.00     0.049 A 
ATOM     49  H   UNL     1      -4.649   8.876   5.928  1.00  0.00     0.167 HD
ATOM     50  C   UNL     1      -8.949   9.059   5.129  1.00  0.00     0.037 A 
ATOM     51  C   UNL     1      -2.123   9.972   6.402  1.00  0.00     0.037 A 
ATOM     52  C   UNL     1      -8.552  10.417   5.393  1.00  0.00     0.049 A 
ATOM     53  C   UNL     1      -3.080  11.130   6.340  1.00  0.00     0.074 A 
ATOM     54  C   UNL     1      -9.345  11.550   5.448  1.00  0.00     0.029 A 
ATOM     55  N   UNL     1      -7.249  10.829   5.632  1.00  0.00    -0.354 N 
ATOM     56  N   UNL     1      -4.377  11.123   6.146  1.00  0.00    -0.248 NA
ATOM     57  C   UNL     1      -2.509  12.471   6.524  1.00  0.00     0.031 C 
ATOM     58  C   UNL     1      -8.514  12.655   5.651  1.00  0.00     0.029 A 
ATOM     59  C   UNL     1      -7.212  12.204   5.800  1.00  0.00     0.049 A 
ATOM     60  H   UNL     1      -6.466  10.233   5.675  1.00  0.00     0.167 HD
ATOM     61  C   UNL     1      -4.781  12.450   6.219  1.00  0.00     0.074 A 
ATOM     62  C   UNL     1      -3.594  13.232   6.491  1.00  0.00     0.031 C 
ATOM     63  C   UNL     1      -6.024  12.973   6.077  1.00  0.00     0.037 A 
BRANCH  50  64
ATOM     64  C   UNL     1     -10.391   8.786   4.807  1.00  0.00     0.057 A 
ATOM     65  C   UNL     1     -11.223   8.064   5.674  1.00  0.00     0.134 A 
ATOM     66  C   UNL     1     -10.967   9.285   3.631  1.00  0.00     0.134 A 
ATOM     67  F   UNL     1     -10.736   7.549   6.813  1.00  0.00    -0.206 F 
ATOM     68  C   UNL     1     -12.564   7.823   5.369  1.00  0.00     0.040 A 
ATOM     69  C   UNL     1     -12.315   9.080   3.332  1.00  0.00     0.040 A 
ATOM     70  F   UNL     1     -10.233   9.992   2.759  1.00  0.00    -0.206 F 
ATOM     71  C   UNL     1     -13.116   8.339   4.199  1.00  0.00     0.006 A 
ENDBRANCH  50  64
BRANCH  51  72
ATOM     72  C   UNL     1      -0.674  10.196   6.649  1.00  0.00     0.057 A 
ATOM     73  C   UNL     1      -0.216  10.695   7.874  1.00  0.00     0.134 A 
ATOM     74  C   UNL     1       0.285   9.933   5.663  1.00  0.00     0.134 A 
ATOM     75  F   UNL     1      -1.086  10.983   8.854  1.00  0.00    -0.206 F 
ATOM     76  C   UNL     1       1.137  10.953   8.101  1.00  0.00     0.040 A 
ATOM     77  C   UNL     1       1.645  10.155   5.887  1.00  0.00     0.040 A 
ATOM     78  F   UNL     1      -0.084   9.444   4.471  1.00  0.00    -0.206 F 
ATOM     79  C   UNL     1       2.073  10.677   7.106  1.00  0.00     0.006 A 
ENDBRANCH  51  72
BRANCH  63  80
ATOM     80  C   UNL     1      -6.176  14.457   6.259  1.00  0.00     0.057 A 
ATOM     81  C   UNL     1      -5.662  15.379   5.338  1.00  0.00     0.134 A 
ATOM     82  C   UNL     1      -6.885  14.967   7.355  1.00  0.00     0.134 A 
ATOM     83  F   UNL     1      -4.964  14.959   4.272  1.00  0.00    -0.206 F 
ATOM     84  C   UNL     1      -5.824  16.754   5.514  1.00  0.00     0.040 A 
ATOM     85  C   UNL     1      -7.083  16.338   7.523  1.00  0.00     0.040 A 
ATOM     86  F   UNL     1      -7.413  14.141   8.271  1.00  0.00    -0.206 F 
ATOM     87  C   UNL     1      -6.545  17.236   6.605  1.00  0.00     0.006 A 
ENDBRANCH  63  80
ENDBRANCH  37  38
ENDBRANCH  29  32
ENDBRANCH  27  28
ENDBRANCH  26  27
ENDBRANCH   1  26
TORSDOF 14
