REMARK SMILES CC(C)[C@@H]1C(=O)Nc2ccccc2N1C(=O)N[C@H](Cc1ccccc1)C(=O)NCCCNC(=O)c1ccc(-c2c3nc(c(-c4c(F)cccc4F)c4ccc([nH]4)c(-c4c(F)cccc4F)c4nc(c(-c5c(F)cccc5F)c5ccc2[nH]5)C=C4)C=C3)cc1
REMARK SMILES IDX 29 1 28 2 26 3 27 4 18 6 17 7 15 8 16 9 14 11 4 12 5 13 6 14
REMARK SMILES IDX 7 15 13 16 8 17 12 19 9 20 11 21 10 22 2 23 1 24 3 25 19 26
REMARK SMILES IDX 20 27 21 28 25 29 22 30 24 31 23 32 30 33 31 34 32 35 33 36
REMARK SMILES IDX 34 38 35 39 36 40 88 41 37 42 87 43 38 44 39 45 40 46 81 47
REMARK SMILES IDX 41 48 86 49 80 50 82 51 42 52 85 53 79 54 78 55 43 57 69 58
REMARK SMILES IDX 52 59 68 60 53 61 56 62 67 63 83 64 54 65 55 66 66 68 84 69
REMARK SMILES IDX 57 70 44 71 45 72 50 73 46 74 47 75 49 76 51 77 48 78 70 79
REMARK SMILES IDX 71 80 76 81 72 82 73 83 75 84 77 85 74 86 58 87 59 88 64 89
REMARK SMILES IDX 60 90 61 91 63 92 65 93 62 94
REMARK H PARENT 28 5 17 10 7 18 32 37 82 56 56 67
REMARK Flexibility Score: inf
ROOT
ATOM      1  C   UNL     1       3.379   1.443   2.204  1.00  0.00     0.117 C 
ENDROOT
BRANCH   1   2
ATOM      2  N   UNL     1       2.035   0.639   1.700  1.00  0.00    -0.354 N 
ATOM      3  C   UNL     1       1.270  -0.168   0.858  1.00  0.00     0.242 C 
ATOM      4  O   UNL     1       0.342  -0.654   1.558  1.00  0.00    -0.273 OA
ATOM      5  H   UNL     1       1.391   0.855   2.413  1.00  0.00     0.163 HD
BRANCH   3   6
ATOM      6  C   UNL     1       1.005  -0.498  -0.865  1.00  0.00     0.177 C 
BRANCH   6   7
ATOM      7  N   UNL     1       1.935  -0.764  -2.175  1.00  0.00    -0.326 N 
ATOM      8  C   UNL     1       2.874  -0.289  -3.090  1.00  0.00     0.323 C 
ATOM      9  O   UNL     1       3.191  -1.124  -3.949  1.00  0.00    -0.248 OA
ATOM     10  H   UNL     1       1.747  -1.691  -2.448  1.00  0.00     0.166 HD
BRANCH   8  11
ATOM     11  N   UNL     1       3.538   0.941  -3.030  1.00  0.00    -0.280 N 
ATOM     12  C   UNL     1       3.251   2.131  -2.195  1.00  0.00     0.184 C 
ATOM     13  C   UNL     1       2.954   3.292  -3.128  1.00  0.00     0.247 C 
ATOM     14  O   UNL     1       2.027   4.081  -3.043  1.00  0.00    -0.272 OA
ATOM     15  N   UNL     1       4.094   3.518  -3.912  1.00  0.00    -0.322 N 
ATOM     16  C   UNL     1       4.859   1.200  -3.576  1.00  0.00     0.070 A 
ATOM     17  C   UNL     1       5.160   2.575  -3.863  1.00  0.00     0.065 A 
ATOM     18  H   UNL     1       4.156   4.315  -4.486  1.00  0.00     0.170 HD
ATOM     19  C   UNL     1       5.904   0.318  -3.290  1.00  0.00     0.028 A 
ATOM     20  C   UNL     1       6.464   3.058  -3.771  1.00  0.00     0.028 A 
ATOM     21  C   UNL     1       7.199   0.831  -3.129  1.00  0.00     0.002 A 
ATOM     22  C   UNL     1       7.469   2.191  -3.341  1.00  0.00     0.002 A 
BRANCH  12  23
ATOM     23  C   UNL     1       2.626   1.696  -0.945  1.00  0.00     0.015 C 
ATOM     24  C   UNL     1       3.713   0.524  -0.457  1.00  0.00     0.010 C 
ATOM     25  C   UNL     1       1.906   2.799  -0.133  1.00  0.00     0.010 C 
ENDBRANCH  12  23
ENDBRANCH   8  11
ENDBRANCH   6   7
BRANCH   6  26
ATOM     26  C   UNL     1      -0.255   0.373  -1.323  1.00  0.00     0.070 C 
BRANCH  26  27
ATOM     27  C   UNL     1      -1.542  -0.132  -1.944  1.00  0.00    -0.045 A 
ATOM     28  C   UNL     1      -2.450   0.873  -2.358  1.00  0.00     0.004 A 
ATOM     29  C   UNL     1      -1.907  -1.462  -2.139  1.00  0.00     0.004 A 
ATOM     30  C   UNL     1      -3.679   0.566  -2.941  1.00  0.00     0.000 A 
ATOM     31  C   UNL     1      -3.147  -1.771  -2.726  1.00  0.00     0.000 A 
ATOM     32  C   UNL     1      -4.029  -0.763  -3.123  1.00  0.00     0.000 A 
ENDBRANCH  26  27
ENDBRANCH   6  26
ENDBRANCH   3   6
ENDBRANCH   1   2
BRANCH   1  33
ATOM     33  C   UNL     1       4.514   2.241   1.398  1.00  0.00     0.042 C 
BRANCH  33  34
ATOM     34  C   UNL     1       5.092   3.588   1.885  1.00  0.00     0.118 C 
BRANCH  34  35
ATOM     35  N   UNL     1       6.420   3.809   1.258  1.00  0.00    -0.352 N 
ATOM     36  C   UNL     1       7.018   4.692   0.386  1.00  0.00     0.251 C 
ATOM     37  H   UNL     1       7.062   3.122   1.551  1.00  0.00     0.163 HD
ATOM     38  O   UNL     1       8.142   4.375  -0.019  1.00  0.00    -0.269 OA
BRANCH  36  39
ATOM     39  C   UNL     1       6.463   5.995  -0.084  1.00  0.00     0.039 A 
ATOM     40  C   UNL     1       7.097   6.633  -1.176  1.00  0.00     0.014 A 
ATOM     41  C   UNL     1       5.451   6.687   0.571  1.00  0.00     0.014 A 
ATOM     42  C   UNL     1       6.739   7.930  -1.583  1.00  0.00     0.010 A 
ATOM     43  C   UNL     1       5.046   7.955   0.125  1.00  0.00     0.010 A 
ATOM     44  C   UNL     1       5.709   8.611  -0.927  1.00  0.00    -0.014 A 
BRANCH  44  45
ATOM     45  C   UNL     1       5.381  10.036  -1.226  1.00  0.00     0.031 A 
ATOM     46  C   UNL     1       5.617  11.088  -0.168  1.00  0.00     0.074 A 
ATOM     47  C   UNL     1       4.822  10.394  -2.399  1.00  0.00     0.049 A 
ATOM     48  N   UNL     1       5.272  12.351  -0.151  1.00  0.00    -0.248 NA
ATOM     49  C   UNL     1       6.312  10.643   1.050  1.00  0.00     0.031 C 
ATOM     50  C   UNL     1       4.532   9.489  -3.509  1.00  0.00     0.029 A 
ATOM     51  N   UNL     1       4.374  11.617  -2.841  1.00  0.00    -0.354 N 
ATOM     52  C   UNL     1       5.674  12.839   1.088  1.00  0.00     0.074 A 
ATOM     53  C   UNL     1       6.249  11.725   1.811  1.00  0.00     0.031 C 
ATOM     54  C   UNL     1       3.952  10.183  -4.502  1.00  0.00     0.029 A 
ATOM     55  C   UNL     1       3.793  11.575  -4.086  1.00  0.00     0.049 A 
ATOM     56  H   UNL     1       4.461  12.445  -2.315  1.00  0.00     0.167 HD
ATOM     57  C   UNL     1       5.589  14.100   1.578  1.00  0.00     0.037 A 
ATOM     58  C   UNL     1       3.184  12.541  -4.803  1.00  0.00     0.037 A 
ATOM     59  C   UNL     1       5.048  15.216   0.846  1.00  0.00     0.049 A 
ATOM     60  C   UNL     1       3.086  13.933  -4.238  1.00  0.00     0.074 A 
ATOM     61  C   UNL     1       4.970  16.544   1.228  1.00  0.00     0.029 A 
ATOM     62  N   UNL     1       4.489  15.132  -0.421  1.00  0.00    -0.354 N 
ATOM     63  N   UNL     1       3.507  14.388  -3.082  1.00  0.00    -0.248 NA
ATOM     64  C   UNL     1       2.433  14.947  -5.079  1.00  0.00     0.031 C 
ATOM     65  C   UNL     1       4.320  17.254   0.213  1.00  0.00     0.029 A 
ATOM     66  C   UNL     1       4.043  16.379  -0.826  1.00  0.00     0.049 A 
ATOM     67  H   UNL     1       4.420  14.307  -0.954  1.00  0.00     0.167 HD
ATOM     68  C   UNL     1       3.195  15.742  -3.068  1.00  0.00     0.074 A 
ATOM     69  C   UNL     1       2.561  16.038  -4.336  1.00  0.00     0.031 C 
ATOM     70  C   UNL     1       3.416  16.659  -2.093  1.00  0.00     0.037 A 
BRANCH  57  71
ATOM     71  C   UNL     1       6.085  14.336   2.979  1.00  0.00     0.057 A 
ATOM     72  C   UNL     1       7.444  14.255   3.312  1.00  0.00     0.134 A 
ATOM     73  C   UNL     1       5.190  14.661   4.007  1.00  0.00     0.134 A 
ATOM     74  F   UNL     1       8.355  13.938   2.380  1.00  0.00    -0.206 F 
ATOM     75  C   UNL     1       7.890  14.449   4.622  1.00  0.00     0.040 A 
ATOM     76  C   UNL     1       5.628  14.888   5.314  1.00  0.00     0.040 A 
ATOM     77  F   UNL     1       3.876  14.765   3.761  1.00  0.00    -0.206 F 
ATOM     78  C   UNL     1       6.980  14.772   5.626  1.00  0.00     0.006 A 
ENDBRANCH  57  71
BRANCH  58  79
ATOM     79  C   UNL     1       2.628  12.226  -6.145  1.00  0.00     0.057 A 
ATOM     80  C   UNL     1       3.226  12.722  -7.310  1.00  0.00     0.134 A 
ATOM     81  C   UNL     1       1.496  11.416  -6.298  1.00  0.00     0.134 A 
ATOM     82  F   UNL     1       4.298  13.523  -7.228  1.00  0.00    -0.206 F 
ATOM     83  C   UNL     1       2.716  12.430  -8.577  1.00  0.00     0.040 A 
ATOM     84  C   UNL     1       0.990  11.095  -7.560  1.00  0.00     0.040 A 
ATOM     85  F   UNL     1       0.875  10.909  -5.223  1.00  0.00    -0.206 F 
ATOM     86  C   UNL     1       1.600  11.606  -8.704  1.00  0.00     0.006 A 
ENDBRANCH  58  79
BRANCH  70  87
ATOM     87  C   UNL     1       3.001  18.075  -2.371  1.00  0.00     0.057 A 
ATOM     88  C   UNL     1       1.655  18.462  -2.401  1.00  0.00     0.134 A 
ATOM     89  C   UNL     1       3.964  19.073  -2.570  1.00  0.00     0.134 A 
ATOM     90  F   UNL     1       0.682  17.554  -2.229  1.00  0.00    -0.206 F 
ATOM     91  C   UNL     1       1.282  19.786  -2.641  1.00  0.00     0.040 A 
ATOM     92  C   UNL     1       3.604  20.404  -2.783  1.00  0.00     0.040 A 
ATOM     93  F   UNL     1       5.272  18.773  -2.543  1.00  0.00    -0.206 F 
ATOM     94  C   UNL     1       2.259  20.763  -2.826  1.00  0.00     0.006 A 
ENDBRANCH  70  87
ENDBRANCH  44  45
ENDBRANCH  36  39
ENDBRANCH  34  35
ENDBRANCH  33  34
ENDBRANCH   1  33
TORSDOF 15
