REMARK SMILES COC(=O)c1sc(SCC(=O)NCCCNC(=O)c2ccc(-c3c4nc(c(-c5c(F)cccc5F)c5ccc([nH]5)c(-c5c(F)cccc5F)c5nc(c(-c6c(F)cccc6F)c6ccc3[nH]6)C=C5)C=C4)cc2)c(NC(=O)c2ccccc2)c1O
REMARK SMILES IDX 13 1 12 2 10 3 11 4 9 6 8 7 7 8 5 9 6 10 83 11 73 12 3 13
REMARK SMILES IDX 4 14 2 15 1 16 84 17 74 19 75 20 76 22 77 23 78 24 82 25
REMARK SMILES IDX 79 26 81 27 80 28 14 29 15 30 16 31 17 32 18 34 19 35 20 36
REMARK SMILES IDX 72 37 21 38 71 39 22 40 23 41 24 42 65 43 25 44 70 45 64 46
REMARK SMILES IDX 66 47 26 48 69 49 63 50 62 51 27 53 53 54 36 55 52 56 37 57
REMARK SMILES IDX 40 58 51 59 67 60 38 61 39 62 50 64 68 65 41 66 28 67 29 68
REMARK SMILES IDX 34 69 30 70 31 71 33 72 35 73 32 74 54 75 55 76 60 77 56 78
REMARK SMILES IDX 57 79 59 80 61 81 58 82 42 83 43 84 48 85 44 86 45 87 47 88
REMARK SMILES IDX 49 89 46 90
REMARK H PARENT 12 5 84 18 74 21 16 33 66 52 40 63
REMARK Flexibility Score: inf
ROOT
ATOM      1  C   UNL     1      -0.471   6.488  -8.829  1.00  0.00     0.117 C 
ENDROOT
BRANCH   1   2
ATOM      2  N   UNL     1      -1.620   5.827  -8.235  1.00  0.00    -0.355 N 
ATOM      3  C   UNL     1      -2.328   6.095  -7.090  1.00  0.00     0.230 C 
ATOM      4  O   UNL     1      -3.404   5.496  -6.999  1.00  0.00    -0.274 OA
ATOM      5  H   UNL     1      -1.949   5.051  -8.744  1.00  0.00     0.163 HD
BRANCH   3   6
ATOM      6  C   UNL     1      -1.765   7.299  -5.958  1.00  0.00     0.175 C 
BRANCH   6   7
ATOM      7  S   UNL     1      -0.929   7.016  -3.525  1.00  0.00    -0.103 SA
BRANCH   7   8
ATOM      8  C   UNL     1      -0.786   5.317  -2.805  1.00  0.00     0.089 A 
ATOM      9  C   UNL     1       0.153   3.307  -1.635  1.00  0.00     0.157 A 
ATOM     10  S   UNL     1       0.699   4.889  -2.019  1.00  0.00    -0.116 S 
ATOM     11  C   UNL     1      -1.138   3.127  -2.079  1.00  0.00     0.166 A 
ATOM     12  C   UNL     1      -1.701   4.268  -2.713  1.00  0.00     0.109 A 
BRANCH   9  13
ATOM     13  C   UNL     1       1.017   2.386  -0.921  1.00  0.00     0.352 C 
ATOM     14  O   UNL     1       2.113   2.625  -0.433  1.00  0.00    -0.245 OA
BRANCH  13  15
ATOM     15  O   UNL     1       0.395   1.166  -0.848  1.00  0.00    -0.465 OA
ATOM     16  C   UNL     1       1.058   0.173  -0.061  1.00  0.00     0.282 C 
ENDBRANCH  13  15
ENDBRANCH   9  13
BRANCH  11  17
ATOM     17  O   UNL     1      -1.833   1.971  -1.953  1.00  0.00    -0.504 OA
ATOM     18  H   UNL     1      -1.440   1.232  -1.531  1.00  0.00     0.293 HD
ENDBRANCH  11  17
BRANCH  12  19
ATOM     19  N   UNL     1      -3.011   4.205  -3.178  1.00  0.00    -0.317 N 
ATOM     20  C   UNL     1      -3.627   5.124  -3.969  1.00  0.00     0.255 C 
ATOM     21  H   UNL     1      -3.543   3.421  -2.908  1.00  0.00     0.170 HD
ATOM     22  O   UNL     1      -4.838   5.204  -4.108  1.00  0.00    -0.269 OA
BRANCH  20  23
ATOM     23  C   UNL     1      -2.717   6.064  -4.614  1.00  0.00     0.040 A 
ATOM     24  C   UNL     1      -3.004   7.804  -4.296  1.00  0.00     0.014 A 
ATOM     25  C   UNL     1      -1.091   5.494  -5.267  1.00  0.00     0.014 A 
ATOM     26  C   UNL     1      -1.692   8.982  -4.630  1.00  0.00     0.001 A 
ATOM     27  C   UNL     1       0.210   6.707  -5.553  1.00  0.00     0.001 A 
ATOM     28  C   UNL     1      -0.094   8.444  -5.221  1.00  0.00     0.000 A 
ENDBRANCH  20  23
ENDBRANCH  12  19
ENDBRANCH   7   8
ENDBRANCH   6   7
ENDBRANCH   3   6
ENDBRANCH   1   2
BRANCH   1  29
ATOM     29  C   UNL     1       0.842   5.745  -8.591  1.00  0.00     0.042 C 
BRANCH  29  30
ATOM     30  C   UNL     1       0.979   4.523  -9.460  1.00  0.00     0.118 C 
BRANCH  30  31
ATOM     31  N   UNL     1       1.102   4.823 -10.886  1.00  0.00    -0.352 N 
ATOM     32  C   UNL     1       1.440   3.947 -11.903  1.00  0.00     0.251 C 
ATOM     33  H   UNL     1       0.923   5.753 -11.153  1.00  0.00     0.163 HD
ATOM     34  O   UNL     1       1.775   4.348 -13.009  1.00  0.00    -0.269 OA
BRANCH  32  35
ATOM     35  C   UNL     1       1.377   2.507 -11.608  1.00  0.00     0.039 A 
ATOM     36  C   UNL     1       2.338   1.596 -12.050  1.00  0.00     0.014 A 
ATOM     37  C   UNL     1       0.340   2.102 -10.779  1.00  0.00     0.014 A 
ATOM     38  C   UNL     1       2.250   0.281 -11.603  1.00  0.00     0.010 A 
ATOM     39  C   UNL     1       0.452   0.931 -10.105  1.00  0.00     0.010 A 
ATOM     40  C   UNL     1       1.294  -0.033 -10.627  1.00  0.00    -0.014 A 
BRANCH  40  41
ATOM     41  C   UNL     1       1.124  -1.362 -10.073  1.00  0.00     0.031 A 
ATOM     42  C   UNL     1       2.322  -1.880  -9.375  1.00  0.00     0.074 A 
ATOM     43  C   UNL     1      -0.106  -1.915  -9.967  1.00  0.00     0.049 A 
ATOM     44  N   UNL     1       3.097  -2.842  -9.745  1.00  0.00    -0.248 NA
ATOM     45  C   UNL     1       2.824  -1.121  -8.217  1.00  0.00     0.031 C 
ATOM     46  C   UNL     1      -1.415  -1.328 -10.303  1.00  0.00     0.029 A 
ATOM     47  N   UNL     1      -0.456  -3.103  -9.414  1.00  0.00    -0.354 N 
ATOM     48  C   UNL     1       4.046  -2.966  -8.735  1.00  0.00     0.074 A 
ATOM     49  C   UNL     1       3.974  -1.751  -7.971  1.00  0.00     0.031 C 
ATOM     50  C   UNL     1      -2.403  -2.051  -9.734  1.00  0.00     0.029 A 
ATOM     51  C   UNL     1      -1.819  -3.246  -9.164  1.00  0.00     0.049 A 
ATOM     52  H   UNL     1       0.200  -3.807  -9.206  1.00  0.00     0.167 HD
ATOM     53  C   UNL     1       4.598  -4.178  -8.445  1.00  0.00     0.037 A 
ATOM     54  C   UNL     1      -2.400  -4.276  -8.501  1.00  0.00     0.037 A 
ATOM     55  C   UNL     1       4.350  -5.116  -9.516  1.00  0.00     0.049 A 
ATOM     56  C   UNL     1      -1.418  -5.392  -8.501  1.00  0.00     0.074 A 
ATOM     57  C   UNL     1       4.654  -5.156 -10.863  1.00  0.00     0.029 A 
ATOM     58  N   UNL     1       3.333  -6.024  -9.337  1.00  0.00    -0.354 N 
ATOM     59  N   UNL     1      -1.040  -6.021  -9.581  1.00  0.00    -0.248 NA
ATOM     60  C   UNL     1      -0.490  -5.462  -7.381  1.00  0.00     0.031 C 
ATOM     61  C   UNL     1       3.493  -5.703 -11.486  1.00  0.00     0.029 A 
ATOM     62  C   UNL     1       2.582  -6.043 -10.484  1.00  0.00     0.049 A 
ATOM     63  H   UNL     1       3.172  -6.564  -8.530  1.00  0.00     0.167 HD
ATOM     64  C   UNL     1       0.328  -6.205  -9.428  1.00  0.00     0.074 A 
ATOM     65  C   UNL     1       0.596  -5.902  -8.023  1.00  0.00     0.031 C 
ATOM     66  C   UNL     1       1.156  -6.287 -10.513  1.00  0.00     0.037 A 
BRANCH  53  67
ATOM     67  C   UNL     1       4.986  -4.638  -7.056  1.00  0.00     0.057 A 
ATOM     68  C   UNL     1       5.583  -5.905  -6.911  1.00  0.00     0.134 A 
ATOM     69  C   UNL     1       4.550  -4.050  -5.850  1.00  0.00     0.134 A 
ATOM     70  F   UNL     1       6.055  -6.571  -7.976  1.00  0.00    -0.206 F 
ATOM     71  C   UNL     1       5.637  -6.578  -5.684  1.00  0.00     0.040 A 
ATOM     72  C   UNL     1       4.646  -4.693  -4.612  1.00  0.00     0.040 A 
ATOM     73  F   UNL     1       3.923  -2.871  -5.797  1.00  0.00    -0.206 F 
ATOM     74  C   UNL     1       5.153  -5.977  -4.531  1.00  0.00     0.006 A 
ENDBRANCH  53  67
BRANCH  54  75
ATOM     75  C   UNL     1      -3.580  -4.243  -7.609  1.00  0.00     0.057 A 
ATOM     76  C   UNL     1      -4.270  -5.415  -7.270  1.00  0.00     0.134 A 
ATOM     77  C   UNL     1      -3.894  -3.100  -6.851  1.00  0.00     0.134 A 
ATOM     78  F   UNL     1      -4.008  -6.564  -7.908  1.00  0.00    -0.206 F 
ATOM     79  C   UNL     1      -5.204  -5.454  -6.225  1.00  0.00     0.040 A 
ATOM     80  C   UNL     1      -4.827  -3.124  -5.809  1.00  0.00     0.040 A 
ATOM     81  F   UNL     1      -3.239  -1.945  -7.039  1.00  0.00    -0.206 F 
ATOM     82  C   UNL     1      -5.477  -4.308  -5.483  1.00  0.00     0.006 A 
ENDBRANCH  54  75
BRANCH  66  83
ATOM     83  C   UNL     1       0.529  -6.402 -11.878  1.00  0.00     0.057 A 
ATOM     84  C   UNL     1      -0.227  -5.388 -12.487  1.00  0.00     0.134 A 
ATOM     85  C   UNL     1       0.863  -7.500 -12.676  1.00  0.00     0.134 A 
ATOM     86  F   UNL     1      -0.520  -4.257 -11.837  1.00  0.00    -0.206 F 
ATOM     87  C   UNL     1      -0.650  -5.474 -13.818  1.00  0.00     0.040 A 
ATOM     88  C   UNL     1       0.474  -7.586 -14.016  1.00  0.00     0.040 A 
ATOM     89  F   UNL     1       1.630  -8.484 -12.181  1.00  0.00    -0.206 F 
ATOM     90  C   UNL     1      -0.290  -6.573 -14.590  1.00  0.00     0.006 A 
ENDBRANCH  66  83
ENDBRANCH  40  41
ENDBRANCH  32  35
ENDBRANCH  30  31
ENDBRANCH  29  30
ENDBRANCH   1  29
TORSDOF 17
