REMARK SMILES O=C(NCCCNC(=O)c1noc(-c2ccccc2C(F)(F)F)n1)c1ccc(-c2c3nc(c(-c4c(F)cccc4F)c4ccc([nH]4)c(-c4c(F)cccc4F)c4nc(c(-c5c(F)cccc5F)c5ccc2[nH]5)C=C4)C=C3)cc1
REMARK SMILES IDX 5 1 4 2 3 3 1 4 2 5 25 7 26 8 78 9 27 10 77 11 28 12 29 13
REMARK SMILES IDX 30 14 71 15 31 16 76 17 70 18 72 19 32 20 75 21 69 22 68 23
REMARK SMILES IDX 33 25 59 26 42 27 58 28 43 29 46 30 57 31 73 32 44 33 45 34
REMARK SMILES IDX 56 36 74 37 47 38 34 39 35 40 40 41 36 42 37 43 39 44 41 45
REMARK SMILES IDX 38 46 60 47 61 48 66 49 62 50 63 51 65 52 67 53 64 54 48 55
REMARK SMILES IDX 49 56 54 57 50 58 51 59 53 60 55 61 52 62 6 63 7 64 8 65
REMARK SMILES IDX 9 67 10 68 11 69 24 70 12 71 13 72 14 73 15 74 19 75 16 76
REMARK SMILES IDX 18 77 17 78 20 79 21 80 22 81 23 82
REMARK H PARENT 3 6 72 24 46 35 7 66
REMARK Flexibility Score: inf
ROOT
ATOM      1  C   UNL     1       4.665   2.660   0.021  1.00  0.00     0.042 C 
ENDROOT
BRANCH   1   2
ATOM      2  C   UNL     1       4.435   1.291   0.651  1.00  0.00     0.118 C 
BRANCH   2   3
ATOM      3  N   UNL     1       3.025   0.926   0.667  1.00  0.00    -0.352 N 
ATOM      4  O   UNL     1       1.152  -0.141   0.036  1.00  0.00    -0.269 OA
ATOM      5  C   UNL     1       2.379  -0.133   0.084  1.00  0.00     0.251 C 
ATOM      6  H   UNL     1       2.445   1.536   1.177  1.00  0.00     0.163 HD
BRANCH   5   7
ATOM      7  C   UNL     1       3.142  -1.264  -0.487  1.00  0.00     0.039 A 
ATOM      8  C   UNL     1       4.258  -1.785   0.171  1.00  0.00     0.014 A 
ATOM      9  C   UNL     1       2.683  -1.864  -1.665  1.00  0.00     0.014 A 
ATOM     10  C   UNL     1       4.973  -2.835  -0.396  1.00  0.00     0.010 A 
ATOM     11  C   UNL     1       3.357  -2.968  -2.196  1.00  0.00     0.010 A 
ATOM     12  C   UNL     1       4.513  -3.454  -1.569  1.00  0.00    -0.014 A 
BRANCH  12  13
ATOM     13  C   UNL     1       5.196  -4.677  -2.056  1.00  0.00     0.031 A 
ATOM     14  C   UNL     1       5.952  -4.688  -3.352  1.00  0.00     0.074 A 
ATOM     15  C   UNL     1       5.134  -5.786  -1.293  1.00  0.00     0.049 A 
ATOM     16  N   UNL     1       6.619  -5.671  -3.903  1.00  0.00    -0.248 NA
ATOM     17  C   UNL     1       5.956  -3.445  -4.137  1.00  0.00     0.031 C 
ATOM     18  C   UNL     1       4.402  -5.898  -0.028  1.00  0.00     0.029 A 
ATOM     19  N   UNL     1       5.700  -7.023  -1.459  1.00  0.00    -0.354 N 
ATOM     20  C   UNL     1       7.106  -5.174  -5.104  1.00  0.00     0.074 A 
ATOM     21  C   UNL     1       6.647  -3.805  -5.211  1.00  0.00     0.031 C 
ATOM     22  C   UNL     1       4.596  -7.121   0.486  1.00  0.00     0.029 A 
ATOM     23  C   UNL     1       5.421  -7.894  -0.434  1.00  0.00     0.049 A 
ATOM     24  H   UNL     1       6.254  -7.264  -2.236  1.00  0.00     0.167 HD
ATOM     25  C   UNL     1       7.872  -5.805  -6.025  1.00  0.00     0.037 A 
ATOM     26  C   UNL     1       5.777  -9.179  -0.260  1.00  0.00     0.037 A 
ATOM     27  C   UNL     1       8.349  -7.158  -5.899  1.00  0.00     0.049 A 
ATOM     28  C   UNL     1       6.624  -9.848  -1.300  1.00  0.00     0.074 A 
ATOM     29  C   UNL     1       9.187  -7.859  -6.749  1.00  0.00     0.029 A 
ATOM     30  N   UNL     1       8.026  -8.016  -4.859  1.00  0.00    -0.354 N 
ATOM     31  N   UNL     1       7.120  -9.347  -2.404  1.00  0.00    -0.248 NA
ATOM     32  C   UNL     1       6.954 -11.262  -1.075  1.00  0.00     0.031 C 
ATOM     33  C   UNL     1       9.341  -9.154  -6.243  1.00  0.00     0.029 A 
ATOM     34  C   UNL     1       8.625  -9.249  -5.061  1.00  0.00     0.049 A 
ATOM     35  H   UNL     1       7.455  -7.784  -4.092  1.00  0.00     0.167 HD
ATOM     36  C   UNL     1       7.821 -10.381  -3.007  1.00  0.00     0.074 A 
ATOM     37  C   UNL     1       7.709 -11.530  -2.131  1.00  0.00     0.031 C 
ATOM     38  C   UNL     1       8.490 -10.382  -4.184  1.00  0.00     0.037 A 
BRANCH  25  39
ATOM     39  C   UNL     1       8.245  -5.047  -7.263  1.00  0.00     0.057 A 
ATOM     40  C   UNL     1       9.248  -4.071  -7.256  1.00  0.00     0.134 A 
ATOM     41  C   UNL     1       7.649  -5.356  -8.493  1.00  0.00     0.134 A 
ATOM     42  F   UNL     1       9.851  -3.724  -6.109  1.00  0.00    -0.206 F 
ATOM     43  C   UNL     1       9.644  -3.425  -8.430  1.00  0.00     0.040 A 
ATOM     44  C   UNL     1       8.046  -4.729  -9.674  1.00  0.00     0.040 A 
ATOM     45  F   UNL     1       6.685  -6.286  -8.567  1.00  0.00    -0.206 F 
ATOM     46  C   UNL     1       9.048  -3.760  -9.645  1.00  0.00     0.006 A 
ENDBRANCH  25  39
BRANCH  26  47
ATOM     47  C   UNL     1       5.315  -9.916   0.940  1.00  0.00     0.057 A 
ATOM     48  C   UNL     1       6.205 -10.271   1.960  1.00  0.00     0.134 A 
ATOM     49  C   UNL     1       3.971 -10.275   1.099  1.00  0.00     0.134 A 
ATOM     50  F   UNL     1       7.507  -9.969   1.854  1.00  0.00    -0.206 F 
ATOM     51  C   UNL     1       5.777 -10.968   3.090  1.00  0.00     0.040 A 
ATOM     52  C   UNL     1       3.525 -10.951   2.234  1.00  0.00     0.040 A 
ATOM     53  F   UNL     1       3.070  -9.956   0.158  1.00  0.00    -0.206 F 
ATOM     54  C   UNL     1       4.431 -11.304   3.232  1.00  0.00     0.006 A 
ENDBRANCH  26  47
BRANCH  38  55
ATOM     55  C   UNL     1       9.145 -11.667  -4.585  1.00  0.00     0.057 A 
ATOM     56  C   UNL     1       8.396 -12.743  -5.079  1.00  0.00     0.134 A 
ATOM     57  C   UNL     1      10.532 -11.826  -4.493  1.00  0.00     0.134 A 
ATOM     58  F   UNL     1       7.061 -12.655  -5.175  1.00  0.00    -0.206 F 
ATOM     59  C   UNL     1       9.005 -13.943  -5.449  1.00  0.00     0.040 A 
ATOM     60  C   UNL     1      11.154 -13.014  -4.878  1.00  0.00     0.040 A 
ATOM     61  F   UNL     1      11.303 -10.830  -4.031  1.00  0.00    -0.206 F 
ATOM     62  C   UNL     1      10.389 -14.078  -5.353  1.00  0.00     0.006 A 
ENDBRANCH  38  55
ENDBRANCH  12  13
ENDBRANCH   5   7
ENDBRANCH   2   3
ENDBRANCH   1   2
BRANCH   1  63
ATOM     63  C   UNL     1       4.100   3.808   0.853  1.00  0.00     0.118 C 
BRANCH  63  64
ATOM     64  N   UNL     1       4.868   4.016   2.071  1.00  0.00    -0.349 N 
ATOM     65  C   UNL     1       5.923   4.883   2.290  1.00  0.00     0.292 C 
ATOM     66  H   UNL     1       4.601   3.465   2.843  1.00  0.00     0.163 HD
ATOM     67  O   UNL     1       6.599   4.722   3.308  1.00  0.00    -0.266 OA
BRANCH  65  68
ATOM     68  C   UNL     1       6.196   5.929   1.298  1.00  0.00     0.260 A 
ATOM     69  N   UNL     1       7.441   6.275   0.924  1.00  0.00    -0.051 NA
ATOM     70  N   UNL     1       5.201   6.622   0.632  1.00  0.00    -0.182 NA
ATOM     71  O   UNL     1       7.231   7.200  -0.102  1.00  0.00    -0.333 OA
ATOM     72  C   UNL     1       5.881   7.347  -0.218  1.00  0.00     0.259 A 
BRANCH  72  73
ATOM     73  C   UNL     1       5.383   8.185  -1.293  1.00  0.00     0.052 A 
ATOM     74  C   UNL     1       5.828   7.932  -2.603  1.00  0.00     0.014 A 
ATOM     75  C   UNL     1       4.394   9.164  -1.074  1.00  0.00     0.068 A 
ATOM     76  C   UNL     1       5.283   8.617  -3.688  1.00  0.00     0.001 A 
ATOM     77  C   UNL     1       3.853   9.844  -2.184  1.00  0.00     0.014 A 
ATOM     78  C   UNL     1       4.292   9.569  -3.479  1.00  0.00     0.001 A 
BRANCH  75  79
ATOM     79  C   UNL     1       3.867   9.487   0.306  1.00  0.00     0.417 C 
ATOM     80  F   UNL     1       3.403  10.768   0.396  1.00  0.00    -0.166 F 
ATOM     81  F   UNL     1       2.822   8.695   0.666  1.00  0.00    -0.166 F 
ATOM     82  F   UNL     1       4.796   9.381   1.295  1.00  0.00    -0.166 F 
ENDBRANCH  75  79
ENDBRANCH  72  73
ENDBRANCH  65  68
ENDBRANCH  63  64
ENDBRANCH   1  63
TORSDOF 12
