REMARK SMILES O=C(NCCCNC(=O)c1ccc(-c2c3nc(c(-c4c(F)cccc4F)c4ccc([nH]4)c(-c4c(F)cccc4F)c4nc(c(-c5c(F)cccc5F)c5ccc2[nH]5)C=C4)C=C3)cc1)c1ccc(/[NH+]=C2\S[C@@H](Cc3ccc(F)cc3)C(=O)N2Cc2ccccc2)cc1
REMARK SMILES IDX 4 1 3 2 1 3 2 4 64 6 65 7 91 8 66 9 90 10 67 11 68 12 69 13
REMARK SMILES IDX 70 15 82 16 71 17 80 18 81 19 83 20 84 21 85 22 89 23 86 24
REMARK SMILES IDX 88 25 87 26 72 27 73 28 74 29 79 30 75 31 78 32 76 33 77 34
REMARK SMILES IDX 5 35 6 36 7 37 8 38 9 40 10 41 11 42 63 43 12 44 62 45 13 46
REMARK SMILES IDX 14 47 15 48 56 49 16 50 61 51 55 52 57 53 17 54 60 55 54 56
REMARK SMILES IDX 53 57 18 59 44 60 27 61 43 62 28 63 31 64 42 65 58 66 29 67
REMARK SMILES IDX 30 68 41 70 59 71 32 72 19 73 20 74 25 75 21 76 22 77 24 78
REMARK SMILES IDX 26 79 23 80 45 81 46 82 51 83 47 84 48 85 50 86 52 87 49 88
REMARK SMILES IDX 33 89 34 90 39 91 35 92 36 93 38 94 40 95 37 96
REMARK H PARENT 3 5 68 14 7 39 57 58 31 69
REMARK Flexibility Score: inf
ROOT
ATOM      1  C   UNL     1       4.482  -0.698  -1.012  1.00  0.00     0.118 C 
ENDROOT
BRANCH   1   2
ATOM      2  N   UNL     1       3.039  -0.494  -0.987  1.00  0.00    -0.352 N 
ATOM      3  O   UNL     1       1.023   0.070  -0.156  1.00  0.00    -0.269 OA
ATOM      4  C   UNL     1       2.246   0.171  -0.083  1.00  0.00     0.251 C 
ATOM      5  H   UNL     1       2.553  -0.898  -1.742  1.00  0.00     0.163 HD
BRANCH   4   6
ATOM      6  C   UNL     1       2.850   0.984   0.993  1.00  0.00     0.040 A 
ATOM      7  C   UNL     1       3.895   1.865   0.720  1.00  0.00     0.018 A 
ATOM      8  C   UNL     1       2.345   0.885   2.294  1.00  0.00     0.018 A 
ATOM      9  C   UNL     1       4.538   2.510   1.770  1.00  0.00     0.052 A 
ATOM     10  C   UNL     1       2.962   1.584   3.338  1.00  0.00     0.052 A 
ATOM     11  C   UNL     1       4.104   2.347   3.090  1.00  0.00     0.125 A 
BRANCH  11  12
ATOM     12  N   UNL     1       4.825   3.018   4.081  1.00  0.00    -0.235 N 
ATOM     13  C   UNL     1       5.519   2.392   4.971  1.00  0.00     0.320 C 
ATOM     14  H   UNL     1       4.803   4.002   4.102  1.00  0.00     0.313 HD
ATOM     15  S   UNL     1       5.541   0.679   5.295  1.00  0.00    -0.022 SA
ATOM     16  N   UNL     1       6.403   3.045   5.788  1.00  0.00    -0.186 N 
ATOM     17  C   UNL     1       6.420   0.908   6.874  1.00  0.00     0.178 C 
ATOM     18  C   UNL     1       7.040   2.293   6.755  1.00  0.00     0.324 C 
ATOM     19  O   UNL     1       7.937   2.710   7.479  1.00  0.00    -0.245 OA
BRANCH  16  20
ATOM     20  C   UNL     1       6.730   4.455   5.606  1.00  0.00     0.283 C 
BRANCH  20  21
ATOM     21  C   UNL     1       7.682   4.707   4.452  1.00  0.00    -0.006 A 
ATOM     22  C   UNL     1       9.068   4.749   4.648  1.00  0.00     0.008 A 
ATOM     23  C   UNL     1       7.186   4.906   3.154  1.00  0.00     0.008 A 
ATOM     24  C   UNL     1       9.930   4.981   3.571  1.00  0.00     0.000 A 
ATOM     25  C   UNL     1       8.047   5.104   2.073  1.00  0.00     0.000 A 
ATOM     26  C   UNL     1       9.421   5.147   2.283  1.00  0.00     0.000 A 
ENDBRANCH  20  21
ENDBRANCH  16  20
BRANCH  17  27
ATOM     27  C   UNL     1       7.411  -0.233   7.100  1.00  0.00     0.063 C 
BRANCH  27  28
ATOM     28  C   UNL     1       8.081  -0.227   8.457  1.00  0.00    -0.046 A 
ATOM     29  C   UNL     1       9.479  -0.121   8.542  1.00  0.00     0.007 A 
ATOM     30  C   UNL     1       7.334  -0.341   9.641  1.00  0.00     0.007 A 
ATOM     31  C   UNL     1      10.115  -0.106   9.783  1.00  0.00     0.039 A 
ATOM     32  C   UNL     1       7.973  -0.320  10.882  1.00  0.00     0.039 A 
ATOM     33  C   UNL     1       9.356  -0.200  10.942  1.00  0.00     0.123 A 
ATOM     34  F   UNL     1       9.967  -0.178  12.134  1.00  0.00    -0.207 F 
ENDBRANCH  27  28
ENDBRANCH  17  27
ENDBRANCH  11  12
ENDBRANCH   4   6
ENDBRANCH   1   2
BRANCH   1  35
ATOM     35  C   UNL     1       4.888  -2.115  -0.634  1.00  0.00     0.042 C 
BRANCH  35  36
ATOM     36  C   UNL     1       4.374  -3.195  -1.577  1.00  0.00     0.118 C 
BRANCH  36  37
ATOM     37  N   UNL     1       4.819  -3.011  -2.951  1.00  0.00    -0.352 N 
ATOM     38  C   UNL     1       5.559  -3.817  -3.779  1.00  0.00     0.251 C 
ATOM     39  H   UNL     1       4.540  -2.159  -3.358  1.00  0.00     0.163 HD
ATOM     40  O   UNL     1       5.945  -3.369  -4.856  1.00  0.00    -0.269 OA
BRANCH  38  41
ATOM     41  C   UNL     1       5.922  -5.200  -3.392  1.00  0.00     0.039 A 
ATOM     42  C   UNL     1       7.177  -5.688  -3.773  1.00  0.00     0.014 A 
ATOM     43  C   UNL     1       5.038  -6.035  -2.706  1.00  0.00     0.014 A 
ATOM     44  C   UNL     1       7.564  -6.980  -3.410  1.00  0.00     0.010 A 
ATOM     45  C   UNL     1       5.458  -7.290  -2.267  1.00  0.00     0.010 A 
ATOM     46  C   UNL     1       6.723  -7.779  -2.619  1.00  0.00    -0.014 A 
BRANCH  46  47
ATOM     47  C   UNL     1       7.165  -9.118  -2.150  1.00  0.00     0.031 A 
ATOM     48  C   UNL     1       6.435 -10.362  -2.578  1.00  0.00     0.074 A 
ATOM     49  C   UNL     1       8.202  -9.208  -1.293  1.00  0.00     0.049 A 
ATOM     50  N   UNL     1       6.670 -11.609  -2.254  1.00  0.00    -0.248 NA
ATOM     51  C   UNL     1       5.274 -10.182  -3.464  1.00  0.00     0.031 C 
ATOM     52  C   UNL     1       8.951  -8.074  -0.748  1.00  0.00     0.029 A 
ATOM     53  N   UNL     1       8.802 -10.304  -0.726  1.00  0.00    -0.354 N 
ATOM     54  C   UNL     1       5.681 -12.356  -2.880  1.00  0.00     0.074 A 
ATOM     55  C   UNL     1       4.814 -11.421  -3.563  1.00  0.00     0.031 C 
ATOM     56  C   UNL     1       9.928  -8.534   0.050  1.00  0.00     0.029 A 
ATOM     57  C   UNL     1       9.856  -9.990   0.099  1.00  0.00     0.049 A 
ATOM     58  H   UNL     1       8.506 -11.228  -0.893  1.00  0.00     0.167 HD
ATOM     59  C   UNL     1       5.522 -13.701  -2.905  1.00  0.00     0.037 A 
ATOM     60  C   UNL     1      10.673 -10.786   0.813  1.00  0.00     0.037 A 
ATOM     61  C   UNL     1       6.405 -14.634  -2.254  1.00  0.00     0.049 A 
ATOM     62  C   UNL     1      10.494 -12.276   0.744  1.00  0.00     0.074 A 
ATOM     63  C   UNL     1       6.373 -16.018  -2.287  1.00  0.00     0.029 A 
ATOM     64  N   UNL     1       7.478 -14.278  -1.452  1.00  0.00    -0.354 N 
ATOM     65  N   UNL     1       9.605 -12.971   0.077  1.00  0.00    -0.248 NA
ATOM     66  C   UNL     1      11.438 -13.092   1.519  1.00  0.00     0.031 C 
ATOM     67  C   UNL     1       7.402 -16.499  -1.471  1.00  0.00     0.029 A 
ATOM     68  C   UNL     1       8.102 -15.416  -0.966  1.00  0.00     0.049 A 
ATOM     69  H   UNL     1       7.755 -13.354  -1.256  1.00  0.00     0.167 HD
ATOM     70  C   UNL     1       9.895 -14.304   0.334  1.00  0.00     0.074 A 
ATOM     71  C   UNL     1      11.056 -14.321   1.200  1.00  0.00     0.031 C 
ATOM     72  C   UNL     1       9.256 -15.416  -0.104  1.00  0.00     0.037 A 
BRANCH  59  73
ATOM     73  C   UNL     1       4.355 -14.251  -3.672  1.00  0.00     0.057 A 
ATOM     74  C   UNL     1       4.312 -14.223  -5.072  1.00  0.00     0.134 A 
ATOM     75  C   UNL     1       3.283 -14.858  -3.006  1.00  0.00     0.134 A 
ATOM     76  F   UNL     1       5.302 -13.646  -5.771  1.00  0.00    -0.206 F 
ATOM     77  C   UNL     1       3.237 -14.762  -5.782  1.00  0.00     0.040 A 
ATOM     78  C   UNL     1       2.215 -15.424  -3.705  1.00  0.00     0.040 A 
ATOM     79  F   UNL     1       3.263 -14.925  -1.666  1.00  0.00    -0.206 F 
ATOM     80  C   UNL     1       2.188 -15.372  -5.097  1.00  0.00     0.006 A 
ENDBRANCH  59  73
BRANCH  60  81
ATOM     81  C   UNL     1      11.756 -10.191   1.636  1.00  0.00     0.057 A 
ATOM     82  C   UNL     1      13.101 -10.334   1.274  1.00  0.00     0.134 A 
ATOM     83  C   UNL     1      11.476  -9.477   2.807  1.00  0.00     0.134 A 
ATOM     84  F   UNL     1      13.433 -11.023   0.172  1.00  0.00    -0.206 F 
ATOM     85  C   UNL     1      14.129  -9.809   2.058  1.00  0.00     0.040 A 
ATOM     86  C   UNL     1      12.492  -8.925   3.587  1.00  0.00     0.040 A 
ATOM     87  F   UNL     1      10.207  -9.297   3.203  1.00  0.00    -0.206 F 
ATOM     88  C   UNL     1      13.825  -9.097   3.217  1.00  0.00     0.006 A 
ENDBRANCH  60  81
BRANCH  72  89
ATOM     89  C   UNL     1       9.814 -16.739   0.329  1.00  0.00     0.057 A 
ATOM     90  C   UNL     1       9.686 -17.198   1.646  1.00  0.00     0.134 A 
ATOM     91  C   UNL     1      10.469 -17.573  -0.586  1.00  0.00     0.134 A 
ATOM     92  F   UNL     1       9.081 -16.441   2.574  1.00  0.00    -0.206 F 
ATOM     93  C   UNL     1      10.215 -18.427   2.045  1.00  0.00     0.040 A 
ATOM     94  C   UNL     1      10.979 -18.815  -0.206  1.00  0.00     0.040 A 
ATOM     95  F   UNL     1      10.618 -17.196  -1.865  1.00  0.00    -0.206 F 
ATOM     96  C   UNL     1      10.859 -19.241   1.115  1.00  0.00     0.006 A 
ENDBRANCH  72  89
ENDBRANCH  46  47
ENDBRANCH  38  41
ENDBRANCH  36  37
ENDBRANCH  35  36
ENDBRANCH   1  35
TORSDOF 15
