REMARK SMILES C[C@@]([NH2+]CC(=O)NC1CCOCC1)(C(=O)NCCCNC(=O)c1ccc(-c2c3nc(c(-c4c(F)cccc4F)c4ccc([nH]4)c(-c4c(F)cccc4F)c4nc(c(-c5c(F)cccc5F)c5ccc2[nH]5)C=C4)C=C3)cc1)C(F)(F)F
REMARK SMILES IDX 17 1 16 2 14 3 15 4 2 6 1 7 3 8 4 11 5 12 6 13 7 14 8 16
REMARK SMILES IDX 9 17 13 18 10 19 12 20 11 21 77 22 78 23 79 24 80 25 18 26
REMARK SMILES IDX 19 27 20 28 21 29 22 31 23 32 24 33 76 34 25 35 75 36 26 37
REMARK SMILES IDX 27 38 28 39 69 40 29 41 74 42 68 43 70 44 30 45 73 46 67 47
REMARK SMILES IDX 66 48 31 50 57 51 40 52 56 53 41 54 44 55 55 56 71 57 42 58
REMARK SMILES IDX 43 59 54 61 72 62 45 63 32 64 33 65 38 66 34 67 35 68 37 69
REMARK SMILES IDX 39 70 36 71 58 72 59 73 64 74 60 75 61 76 63 77 65 78 62 79
REMARK SMILES IDX 46 80 47 81 52 82 48 83 49 84 51 85 53 86 50 87
REMARK H PARENT 16 5 3 9 3 10 7 15 20 30 70 49 44 60
REMARK Flexibility Score: inf
ROOT
ATOM      1  C   UNL     1      -0.667  -2.479  -0.493  1.00  0.00     0.118 C 
ENDROOT
BRANCH   1   2
ATOM      2  N   UNL     1      -0.908  -1.047  -0.544  1.00  0.00    -0.350 N 
ATOM      3  C   UNL     1      -0.045   0.008  -0.464  1.00  0.00     0.290 C 
ATOM      4  O   UNL     1      -0.546   1.046  -0.021  1.00  0.00    -0.267 OA
ATOM      5  H   UNL     1      -1.853  -0.795  -0.657  1.00  0.00     0.163 HD
BRANCH   3   6
ATOM      6  C   UNL     1       1.427  -0.075  -0.911  1.00  0.00     0.268 C 
ATOM      7  C   UNL     1       2.197  -0.772   0.231  1.00  0.00     0.101 C 
BRANCH   6   8
ATOM      8  N   UNL     1       1.617  -0.898  -2.166  1.00  0.00    -0.318 N 
ATOM      9  H   UNL     1       1.601  -1.879  -1.887  1.00  0.00     0.347 HD
ATOM     10  H   UNL     1       2.493  -0.553  -2.558  1.00  0.00     0.347 HD
BRANCH   8  11
ATOM     11  C   UNL     1       0.645  -0.745  -3.274  1.00  0.00     0.362 C 
BRANCH  11  12
ATOM     12  C   UNL     1       0.798   0.505  -4.146  1.00  0.00     0.275 C 
ATOM     13  O   UNL     1       1.785   0.648  -4.871  1.00  0.00    -0.268 OA
ATOM     14  N   UNL     1      -0.184   1.463  -4.164  1.00  0.00    -0.348 N 
ATOM     15  H   UNL     1      -0.210   2.041  -4.961  1.00  0.00     0.163 HD
BRANCH  14  16
ATOM     16  C   UNL     1      -1.195   1.730  -3.148  1.00  0.00     0.086 C 
ATOM     17  C   UNL     1      -2.484   0.924  -3.293  1.00  0.00     0.053 C 
ATOM     18  C   UNL     1      -1.516   3.222  -3.017  1.00  0.00     0.053 C 
ATOM     19  C   UNL     1      -3.436   1.270  -2.150  1.00  0.00     0.162 C 
ATOM     20  C   UNL     1      -2.506   3.430  -1.876  1.00  0.00     0.162 C 
ATOM     21  O   UNL     1      -3.693   2.670  -2.108  1.00  0.00    -0.381 OA
ENDBRANCH  14  16
ENDBRANCH  11  12
ENDBRANCH   8  11
ENDBRANCH   6   8
BRANCH   6  22
ATOM     22  C   UNL     1       2.011   1.370  -0.981  1.00  0.00     0.453 C 
ATOM     23  F   UNL     1       1.860   2.067   0.166  1.00  0.00    -0.164 F 
ATOM     24  F   UNL     1       3.351   1.307  -1.216  1.00  0.00    -0.164 F 
ATOM     25  F   UNL     1       1.488   2.108  -1.980  1.00  0.00    -0.164 F 
ENDBRANCH   6  22
ENDBRANCH   3   6
ENDBRANCH   1   2
BRANCH   1  26
ATOM     26  C   UNL     1      -1.066  -2.985   0.893  1.00  0.00     0.042 C 
BRANCH  26  27
ATOM     27  C   UNL     1      -2.578  -2.953   1.123  1.00  0.00     0.118 C 
BRANCH  27  28
ATOM     28  N   UNL     1      -3.262  -4.025   0.416  1.00  0.00    -0.352 N 
ATOM     29  C   UNL     1      -3.966  -5.090   0.922  1.00  0.00     0.251 C 
ATOM     30  H   UNL     1      -3.212  -3.980  -0.566  1.00  0.00     0.163 HD
ATOM     31  O   UNL     1      -4.285  -6.016   0.185  1.00  0.00    -0.269 OA
BRANCH  29  32
ATOM     32  C   UNL     1      -4.321  -5.132   2.358  1.00  0.00     0.039 A 
ATOM     33  C   UNL     1      -4.136  -6.325   3.061  1.00  0.00     0.014 A 
ATOM     34  C   UNL     1      -4.849  -4.011   3.005  1.00  0.00     0.014 A 
ATOM     35  C   UNL     1      -4.422  -6.375   4.427  1.00  0.00     0.010 A 
ATOM     36  C   UNL     1      -5.063  -4.042   4.382  1.00  0.00     0.010 A 
ATOM     37  C   UNL     1      -4.853  -5.224   5.108  1.00  0.00    -0.014 A 
BRANCH  37  38
ATOM     38  C   UNL     1      -5.075  -5.240   6.577  1.00  0.00     0.031 A 
ATOM     39  C   UNL     1      -6.446  -4.989   7.146  1.00  0.00     0.074 A 
ATOM     40  C   UNL     1      -4.029  -5.424   7.407  1.00  0.00     0.049 A 
ATOM     41  N   UNL     1      -6.819  -4.908   8.398  1.00  0.00    -0.248 NA
ATOM     42  C   UNL     1      -7.535  -4.781   6.180  1.00  0.00     0.031 C 
ATOM     43  C   UNL     1      -2.643  -5.635   6.985  1.00  0.00     0.029 A 
ATOM     44  N   UNL     1      -3.966  -5.453   8.778  1.00  0.00    -0.354 N 
ATOM     45  C   UNL     1      -8.180  -4.629   8.370  1.00  0.00     0.074 A 
ATOM     46  C   UNL     1      -8.555  -4.501   6.978  1.00  0.00     0.031 C 
ATOM     47  C   UNL     1      -1.872  -5.795   8.072  1.00  0.00     0.029 A 
ATOM     48  C   UNL     1      -2.698  -5.655   9.267  1.00  0.00     0.049 A 
ATOM     49  H   UNL     1      -4.755  -5.340   9.356  1.00  0.00     0.167 HD
ATOM     50  C   UNL     1      -9.043  -4.511   9.408  1.00  0.00     0.037 A 
ATOM     51  C   UNL     1      -2.248  -5.710  10.535  1.00  0.00     0.037 A 
ATOM     52  C   UNL     1      -8.671  -4.652  10.792  1.00  0.00     0.049 A 
ATOM     53  C   UNL     1      -3.222  -5.552  11.670  1.00  0.00     0.074 A 
ATOM     54  C   UNL     1      -9.483  -4.604  11.912  1.00  0.00     0.029 A 
ATOM     55  N   UNL     1      -7.377  -4.861  11.246  1.00  0.00    -0.354 N 
ATOM     56  N   UNL     1      -4.518  -5.357  11.627  1.00  0.00    -0.248 NA
ATOM     57  C   UNL     1      -2.672  -5.626  13.031  1.00  0.00     0.031 C 
ATOM     58  C   UNL     1      -8.675  -4.729  13.046  1.00  0.00     0.029 A 
ATOM     59  C   UNL     1      -7.366  -4.917  12.631  1.00  0.00     0.049 A 
ATOM     60  H   UNL     1      -6.585  -4.956  10.671  1.00  0.00     0.167 HD
ATOM     61  C   UNL     1      -4.941  -5.317  12.949  1.00  0.00     0.074 A 
ATOM     62  C   UNL     1      -3.766  -5.523  13.770  1.00  0.00     0.031 C 
ATOM     63  C   UNL     1      -6.191  -5.128  13.439  1.00  0.00     0.037 A 
BRANCH  50  64
ATOM     64  C   UNL     1     -10.480  -4.212   9.085  1.00  0.00     0.057 A 
ATOM     65  C   UNL     1     -11.311  -5.154   8.464  1.00  0.00     0.134 A 
ATOM     66  C   UNL     1     -11.051  -2.982   9.436  1.00  0.00     0.134 A 
ATOM     67  F   UNL     1     -10.826  -6.349   8.092  1.00  0.00    -0.206 F 
ATOM     68  C   UNL     1     -12.648  -4.874   8.178  1.00  0.00     0.040 A 
ATOM     69  C   UNL     1     -12.395  -2.701   9.183  1.00  0.00     0.040 A 
ATOM     70  F   UNL     1     -10.316  -2.037  10.042  1.00  0.00    -0.206 F 
ATOM     71  C   UNL     1     -13.196  -3.646   8.545  1.00  0.00     0.006 A 
ENDBRANCH  50  64
BRANCH  51  72
ATOM     72  C   UNL     1      -0.805  -5.940  10.804  1.00  0.00     0.057 A 
ATOM     73  C   UNL     1      -0.358  -7.134  11.381  1.00  0.00     0.134 A 
ATOM     74  C   UNL     1       0.159  -4.969  10.505  1.00  0.00     0.134 A 
ATOM     75  F   UNL     1      -1.235  -8.095  11.707  1.00  0.00    -0.206 F 
ATOM     76  C   UNL     1       0.990  -7.347  11.673  1.00  0.00     0.040 A 
ATOM     77  C   UNL     1       1.514  -5.179  10.765  1.00  0.00     0.040 A 
ATOM     78  F   UNL     1      -0.202  -3.806   9.943  1.00  0.00    -0.206 F 
ATOM     79  C   UNL     1       1.932  -6.369  11.359  1.00  0.00     0.006 A 
ENDBRANCH  51  72
BRANCH  63  80
ATOM     80  C   UNL     1      -6.362  -5.176  14.930  1.00  0.00     0.057 A 
ATOM     81  C   UNL     1      -5.883  -4.159  15.766  1.00  0.00     0.134 A 
ATOM     82  C   UNL     1      -7.048  -6.238  15.534  1.00  0.00     0.134 A 
ATOM     83  F   UNL     1      -5.206  -3.120  15.254  1.00  0.00    -0.206 F 
ATOM     84  C   UNL     1      -6.059  -4.209  17.150  1.00  0.00     0.040 A 
ATOM     85  C   UNL     1      -7.256  -6.284  16.913  1.00  0.00     0.040 A 
ATOM     86  F   UNL     1      -7.541  -7.241  14.792  1.00  0.00    -0.206 F 
ATOM     87  C   UNL     1      -6.755  -5.270  17.726  1.00  0.00     0.006 A 
ENDBRANCH  63  80
ENDBRANCH  37  38
ENDBRANCH  29  32
ENDBRANCH  27  28
ENDBRANCH  26  27
ENDBRANCH   1  26
TORSDOF 15
