REMARK SMILES O=C(CC1CC[NH+](CC[NH+]2CCCCC2)CC1)NCCCNC(=O)c1ccc(-c2c3nc(c(-c4c(F)cccc4F)c4ccc([nH]4)c(-c4c(F)cccc4F)c4nc(c(-c5c(F)cccc5F)c5ccc2[nH]5)C=C4)C=C3)cc1
REMARK SMILES IDX 19 1 18 2 1 3 2 4 3 6 4 7 5 8 17 9 6 10 16 11 7 12 8 14 9 15
REMARK SMILES IDX 10 16 11 17 15 18 12 20 14 21 13 22 20 23 21 24 22 25 23 26
REMARK SMILES IDX 24 28 25 29 26 30 78 31 27 32 77 33 28 34 29 35 30 36 71 37
REMARK SMILES IDX 31 38 76 39 70 40 72 41 32 42 75 43 69 44 68 45 33 47 59 48
REMARK SMILES IDX 42 49 58 50 43 51 46 52 57 53 73 54 44 55 45 56 56 58 74 59
REMARK SMILES IDX 47 60 34 61 35 62 40 63 36 64 37 65 39 66 41 67 38 68 60 69
REMARK SMILES IDX 61 70 66 71 62 72 63 73 65 74 67 75 64 76 48 77 49 78 54 79
REMARK SMILES IDX 50 80 51 81 53 82 55 83 52 84
REMARK H PARENT 18 5 7 13 10 19 22 27 72 46 46 57
REMARK Flexibility Score: inf
ROOT
ATOM      1  C   UNL     1       1.700  -1.724  -1.843  1.00  0.00     0.117 C 
ENDROOT
BRANCH   1   2
ATOM      2  N   UNL     1       2.285  -0.630  -1.096  1.00  0.00    -0.356 N 
ATOM      3  O   UNL     1       0.963  -0.929   0.765  1.00  0.00    -0.275 OA
ATOM      4  C   UNL     1       1.912  -0.382   0.214  1.00  0.00     0.220 C 
ATOM      5  H   UNL     1       2.958  -0.054  -1.526  1.00  0.00     0.163 HD
BRANCH   4   6
ATOM      6  C   UNL     1       2.828   0.582   0.946  1.00  0.00     0.104 C 
BRANCH   6   7
ATOM      7  C   UNL     1       3.801  -0.093   1.946  1.00  0.00     0.009 C 
ATOM      8  C   UNL     1       5.084   0.731   2.135  1.00  0.00     0.066 C 
ATOM      9  C   UNL     1       4.253  -1.518   1.606  1.00  0.00     0.066 C 
ATOM     10  C   UNL     1       5.944   0.724   0.868  1.00  0.00     0.262 C 
ATOM     11  C   UNL     1       5.152  -1.586   0.373  1.00  0.00     0.262 C 
ATOM     12  N   UNL     1       6.240  -0.609   0.344  1.00  0.00    -0.330 N 
ATOM     13  H   UNL     1       6.899  -0.978   1.029  1.00  0.00     0.348 HD
BRANCH  12  14
ATOM     14  C   UNL     1       6.913  -0.561  -0.975  1.00  0.00     0.324 C 
BRANCH  14  15
ATOM     15  C   UNL     1       6.124  -0.001  -2.204  1.00  0.00     0.324 C 
BRANCH  15  16
ATOM     16  N   UNL     1       5.797   1.432  -2.164  1.00  0.00    -0.330 N 
ATOM     17  C   UNL     1       6.961   2.264  -2.500  1.00  0.00     0.262 C 
ATOM     18  C   UNL     1       4.650   1.812  -2.995  1.00  0.00     0.262 C 
ATOM     19  H   UNL     1       5.524   1.607  -1.197  1.00  0.00     0.348 HD
ATOM     20  C   UNL     1       6.665   3.736  -2.209  1.00  0.00     0.062 C 
ATOM     21  C   UNL     1       4.245   3.255  -2.682  1.00  0.00     0.062 C 
ATOM     22  C   UNL     1       5.404   4.216  -2.920  1.00  0.00     0.012 C 
ENDBRANCH  15  16
ENDBRANCH  14  15
ENDBRANCH  12  14
ENDBRANCH   6   7
ENDBRANCH   4   6
ENDBRANCH   1   2
BRANCH   1  23
ATOM     23  C   UNL     1       1.767  -1.587  -3.365  1.00  0.00     0.042 C 
BRANCH  23  24
ATOM     24  C   UNL     1       3.128  -1.768  -4.038  1.00  0.00     0.118 C 
BRANCH  24  25
ATOM     25  N   UNL     1       3.829  -3.002  -3.717  1.00  0.00    -0.352 N 
ATOM     26  C   UNL     1       4.792  -3.651  -4.460  1.00  0.00     0.251 C 
ATOM     27  H   UNL     1       3.585  -3.427  -2.863  1.00  0.00     0.163 HD
ATOM     28  O   UNL     1       5.250  -4.728  -4.089  1.00  0.00    -0.269 OA
BRANCH  26  29
ATOM     29  C   UNL     1       5.257  -3.056  -5.730  1.00  0.00     0.039 A 
ATOM     30  C   UNL     1       5.133  -3.782  -6.917  1.00  0.00     0.014 A 
ATOM     31  C   UNL     1       5.797  -1.770  -5.748  1.00  0.00     0.014 A 
ATOM     32  C   UNL     1       5.465  -3.178  -8.134  1.00  0.00     0.010 A 
ATOM     33  C   UNL     1       6.098  -1.156  -6.962  1.00  0.00     0.010 A 
ATOM     34  C   UNL     1       5.905  -1.844  -8.168  1.00  0.00    -0.014 A 
BRANCH  34  35
ATOM     35  C   UNL     1       6.072  -1.108  -9.447  1.00  0.00     0.031 A 
ATOM     36  C   UNL     1       7.421  -0.619  -9.890  1.00  0.00     0.074 A 
ATOM     37  C   UNL     1       4.972  -0.769 -10.149  1.00  0.00     0.049 A 
ATOM     38  N   UNL     1       7.728   0.148 -10.905  1.00  0.00    -0.248 NA
ATOM     39  C   UNL     1       8.572  -1.024  -9.070  1.00  0.00     0.031 C 
ATOM     40  C   UNL     1       3.598  -1.131  -9.793  1.00  0.00     0.029 A 
ATOM     41  N   UNL     1       4.833  -0.022 -11.291  1.00  0.00    -0.354 N 
ATOM     42  C   UNL     1       9.102   0.330 -10.841  1.00  0.00     0.074 A 
ATOM     43  C   UNL     1       9.566  -0.378  -9.665  1.00  0.00     0.031 C 
ATOM     44  C   UNL     1       2.758  -0.612 -10.702  1.00  0.00     0.029 A 
ATOM     45  C   UNL     1       3.527   0.147 -11.683  1.00  0.00     0.049 A 
ATOM     46  H   UNL     1       5.596   0.358 -11.784  1.00  0.00     0.167 HD
ATOM     47  C   UNL     1       9.905   1.014 -11.692  1.00  0.00     0.037 A 
ATOM     48  C   UNL     1       3.003   0.845 -12.707  1.00  0.00     0.037 A 
ATOM     49  C   UNL     1       9.448   1.698 -12.874  1.00  0.00     0.049 A 
ATOM     50  C   UNL     1       3.916   1.590 -13.639  1.00  0.00     0.074 A 
ATOM     51  C   UNL     1      10.198   2.361 -13.831  1.00  0.00     0.029 A 
ATOM     52  N   UNL     1       8.121   1.812 -13.258  1.00  0.00    -0.354 N 
ATOM     53  N   UNL     1       5.221   1.697 -13.603  1.00  0.00    -0.248 NA
ATOM     54  C   UNL     1       3.283   2.309 -14.755  1.00  0.00     0.031 C 
ATOM     55  C   UNL     1       9.322   2.903 -14.777  1.00  0.00     0.029 A 
ATOM     56  C   UNL     1       8.029   2.546 -14.429  1.00  0.00     0.049 A 
ATOM     57  H   UNL     1       7.356   1.427 -12.771  1.00  0.00     0.167 HD
ATOM     58  C   UNL     1       5.569   2.465 -14.706  1.00  0.00     0.074 A 
ATOM     59  C   UNL     1       4.338   2.797 -15.392  1.00  0.00     0.031 C 
ATOM     60  C   UNL     1       6.800   2.857 -15.113  1.00  0.00     0.037 A 
BRANCH  47  61
ATOM     61  C   UNL     1      11.373   1.050 -11.382  1.00  0.00     0.057 A 
ATOM     62  C   UNL     1      12.188  -0.076 -11.555  1.00  0.00     0.134 A 
ATOM     63  C   UNL     1      11.987   2.235 -10.958  1.00  0.00     0.134 A 
ATOM     64  F   UNL     1      11.659  -1.243 -11.953  1.00  0.00    -0.206 F 
ATOM     65  C   UNL     1      13.559  -0.030 -11.296  1.00  0.00     0.040 A 
ATOM     66  C   UNL     1      13.360   2.299 -10.717  1.00  0.00     0.040 A 
ATOM     67  F   UNL     1      11.264   3.351 -10.781  1.00  0.00    -0.206 F 
ATOM     68  C   UNL     1      14.149   1.162 -10.882  1.00  0.00     0.006 A 
ENDBRANCH  47  61
BRANCH  48  69
ATOM     69  C   UNL     1       1.536   0.852 -12.921  1.00  0.00     0.057 A 
ATOM     70  C   UNL     1       0.963   0.141 -13.981  1.00  0.00     0.134 A 
ATOM     71  C   UNL     1       0.675   1.559 -12.074  1.00  0.00     0.134 A 
ATOM     72  F   UNL     1       1.742  -0.542 -14.834  1.00  0.00    -0.206 F 
ATOM     73  C   UNL     1      -0.414   0.144 -14.202  1.00  0.00     0.040 A 
ATOM     74  C   UNL     1      -0.707   1.554 -12.271  1.00  0.00     0.040 A 
ATOM     75  F   UNL     1       1.164   2.251 -11.035  1.00  0.00    -0.206 F 
ATOM     76  C   UNL     1      -1.254   0.850 -13.342  1.00  0.00     0.006 A 
ENDBRANCH  48  69
BRANCH  60  77
ATOM     77  C   UNL     1       6.886   3.651 -16.381  1.00  0.00     0.057 A 
ATOM     78  C   UNL     1       6.529   5.003 -16.431  1.00  0.00     0.134 A 
ATOM     79  C   UNL     1       7.382   3.065 -17.553  1.00  0.00     0.134 A 
ATOM     80  F   UNL     1       6.035   5.616 -15.346  1.00  0.00    -0.206 F 
ATOM     81  C   UNL     1       6.652   5.744 -17.608  1.00  0.00     0.040 A 
ATOM     82  C   UNL     1       7.528   3.801 -18.730  1.00  0.00     0.040 A 
ATOM     83  F   UNL     1       7.746   1.774 -17.568  1.00  0.00    -0.206 F 
ATOM     84  C   UNL     1       7.160   5.144 -18.759  1.00  0.00     0.006 A 
ENDBRANCH  60  77
ENDBRANCH  34  35
ENDBRANCH  26  29
ENDBRANCH  24  25
ENDBRANCH  23  24
ENDBRANCH   1  23
TORSDOF 14
