REMARK SMILES Cc1cccc(-c2ncc(C[NH+]3CCC4(CC3)NC(=O)C[C@H]4C(=O)NCCCNC(=O)c3ccc(-c4c5nc(c(-c6c(F)cccc6F)c6ccc([nH]6)c(-c6c(F)cccc6F)c6nc(c(-c7c(F)cccc7F)c7ccc4[nH]7)C=C6)C=C5)cc3)cn2)c1
REMARK SMILES IDX 26 1 25 2 23 3 24 4 22 6 12 7 13 8 17 9 14 11 16 12 15 13
REMARK SMILES IDX 18 14 19 15 21 17 20 18 11 19 10 20 7 21 8 22 87 23 9 24
REMARK SMILES IDX 86 25 6 26 1 27 2 28 3 29 88 30 4 31 5 32 27 33 28 34 29 35
REMARK SMILES IDX 30 36 31 38 32 39 33 40 85 41 34 42 84 43 35 44 36 45 37 46
REMARK SMILES IDX 78 47 38 48 83 49 77 50 79 51 39 52 82 53 76 54 75 55 40 57
REMARK SMILES IDX 66 58 49 59 65 60 50 61 53 62 64 63 80 64 51 65 52 66 63 68
REMARK SMILES IDX 81 69 54 70 41 71 42 72 47 73 43 74 44 75 46 76 48 77 45 78
REMARK SMILES IDX 67 79 68 80 73 81 69 82 70 83 72 84 74 85 71 86 55 87 56 88
REMARK SMILES IDX 61 89 57 90 58 91 60 92 62 93 59 94
REMARK H PARENT 25 5 12 10 18 16 29 37 79 56 53 67
REMARK Flexibility Score: inf
ROOT
ATOM      1  C   UNL     1       1.255   3.962  -2.826  1.00  0.00     0.117 C 
ENDROOT
BRANCH   1   2
ATOM      2  N   UNL     1       1.038   5.377  -3.134  1.00  0.00    -0.356 N 
ATOM      3  C   UNL     1       0.953   6.521  -2.392  1.00  0.00     0.226 C 
ATOM      4  O   UNL     1       0.830   7.572  -3.035  1.00  0.00    -0.275 OA
ATOM      5  H   UNL     1       0.928   5.542  -4.098  1.00  0.00     0.163 HD
BRANCH   3   6
ATOM      6  C   UNL     1       0.905   6.602  -0.853  1.00  0.00     0.114 C 
ATOM      7  N   UNL     1      -3.123   6.933   0.160  1.00  0.00    -0.331 N 
ATOM      8  C   UNL     1      -2.109   7.368   1.111  1.00  0.00     0.264 C 
ATOM      9  C   UNL     1      -2.543   6.760  -1.155  1.00  0.00     0.264 C 
ATOM     10  H   UNL     1      -3.775   7.717   0.129  1.00  0.00     0.348 HD
ATOM     11  C   UNL     1      -0.809   6.552   1.159  1.00  0.00     0.091 C 
ATOM     12  C   UNL     1      -1.461   5.699  -1.155  1.00  0.00     0.091 C 
ATOM     13  C   UNL     1      -0.305   5.918  -0.174  1.00  0.00     0.063 C 
ATOM     14  N   UNL     1       0.306   4.662   0.244  1.00  0.00    -0.349 N 
ATOM     15  C   UNL     1       1.679   4.708   0.365  1.00  0.00     0.221 C 
ATOM     16  H   UNL     1      -0.218   3.849   0.426  1.00  0.00     0.164 HD
ATOM     17  C   UNL     1       2.164   6.004  -0.223  1.00  0.00     0.116 C 
ATOM     18  O   UNL     1       2.369   3.835   0.841  1.00  0.00    -0.275 OA
BRANCH   7  19
ATOM     19  C   UNL     1      -4.145   5.946   0.565  1.00  0.00     0.302 C 
BRANCH  19  20
ATOM     20  C   UNL     1      -3.754   4.492   0.572  1.00  0.00     0.043 A 
ATOM     21  C   UNL     1      -2.537   2.059   0.396  1.00  0.00     0.159 A 
ATOM     22  N   UNL     1      -2.409   2.752   1.544  1.00  0.00    -0.236 NA
ATOM     23  N   UNL     1      -3.306   2.445  -0.643  1.00  0.00    -0.236 NA
ATOM     24  C   UNL     1      -3.063   3.929   1.620  1.00  0.00     0.124 A 
ATOM     25  C   UNL     1      -3.908   3.654  -0.523  1.00  0.00     0.124 A 
BRANCH  21  26
ATOM     26  C   UNL     1      -1.674   0.881   0.229  1.00  0.00     0.019 A 
ATOM     27  C   UNL     1       2.072   0.050   0.062  1.00  0.00     0.044 C 
ATOM     28  C   UNL     1       0.579  -0.112   0.082  1.00  0.00    -0.050 A 
ATOM     29  C   UNL     1       0.005  -1.375  -0.058  1.00  0.00     0.003 A 
ATOM     30  C   UNL     1      -0.267   0.994   0.252  1.00  0.00     0.015 A 
ATOM     31  C   UNL     1      -1.383  -1.518  -0.070  1.00  0.00     0.001 A 
ATOM     32  C   UNL     1      -2.214  -0.398   0.052  1.00  0.00     0.012 A 
ENDBRANCH  21  26
ENDBRANCH  19  20
ENDBRANCH   7  19
ENDBRANCH   3   6
ENDBRANCH   1   2
BRANCH   1  33
ATOM     33  C   UNL     1       0.001   3.093  -2.786  1.00  0.00     0.042 C 
BRANCH  33  34
ATOM     34  C   UNL     1      -0.444   2.525  -4.124  1.00  0.00     0.118 C 
BRANCH  34  35
ATOM     35  N   UNL     1       0.119   1.189  -4.352  1.00  0.00    -0.352 N 
ATOM     36  C   UNL     1      -0.303   0.124  -5.128  1.00  0.00     0.251 C 
ATOM     37  H   UNL     1       0.954   1.018  -3.859  1.00  0.00     0.163 HD
ATOM     38  O   UNL     1       0.364  -0.904  -5.178  1.00  0.00    -0.269 OA
BRANCH  36  39
ATOM     39  C   UNL     1      -1.440   0.302  -6.056  1.00  0.00     0.039 A 
ATOM     40  C   UNL     1      -1.104   0.176  -7.410  1.00  0.00     0.014 A 
ATOM     41  C   UNL     1      -2.514   1.078  -5.649  1.00  0.00     0.014 A 
ATOM     42  C   UNL     1      -1.553   1.143  -8.289  1.00  0.00     0.010 A 
ATOM     43  C   UNL     1      -2.852   2.120  -6.475  1.00  0.00     0.010 A 
ATOM     44  C   UNL     1      -2.293   2.189  -7.756  1.00  0.00    -0.014 A 
BRANCH  44  45
ATOM     45  C   UNL     1      -2.603   3.396  -8.486  1.00  0.00     0.031 A 
ATOM     46  C   UNL     1      -3.904   3.418  -9.160  1.00  0.00     0.074 A 
ATOM     47  C   UNL     1      -1.763   4.452  -8.414  1.00  0.00     0.049 A 
ATOM     48  N   UNL     1      -4.192   4.169 -10.156  1.00  0.00    -0.248 NA
ATOM     49  C   UNL     1      -4.991   2.514  -8.787  1.00  0.00     0.031 C 
ATOM     50  C   UNL     1      -2.002   5.829  -8.830  1.00  0.00     0.029 A 
ATOM     51  N   UNL     1      -0.398   4.423  -8.098  1.00  0.00    -0.354 N 
ATOM     52  C   UNL     1      -5.555   4.091 -10.343  1.00  0.00     0.074 A 
ATOM     53  C   UNL     1      -5.988   2.976  -9.543  1.00  0.00     0.031 C 
ATOM     54  C   UNL     1      -0.818   6.432  -9.039  1.00  0.00     0.029 A 
ATOM     55  C   UNL     1       0.209   5.413  -8.904  1.00  0.00     0.049 A 
ATOM     56  H   UNL     1       0.048   3.834  -7.446  1.00  0.00     0.167 HD
ATOM     57  C   UNL     1      -6.162   5.100 -11.025  1.00  0.00     0.037 A 
ATOM     58  C   UNL     1       1.089   5.058  -9.887  1.00  0.00     0.037 A 
ATOM     59  C   UNL     1      -5.151   6.035 -11.515  1.00  0.00     0.049 A 
ATOM     60  C   UNL     1       0.572   5.410 -11.264  1.00  0.00     0.074 A 
ATOM     61  C   UNL     1      -4.638   7.207 -10.982  1.00  0.00     0.029 A 
ATOM     62  N   UNL     1      -4.231   5.596 -12.461  1.00  0.00    -0.354 N 
ATOM     63  N   UNL     1      -0.696   5.515 -11.565  1.00  0.00    -0.248 NA
ATOM     64  C   UNL     1       1.442   5.740 -12.388  1.00  0.00     0.031 C 
ATOM     65  C   UNL     1      -3.374   7.443 -11.582  1.00  0.00     0.029 A 
ATOM     66  C   UNL     1      -3.130   6.428 -12.492  1.00  0.00     0.049 A 
ATOM     67  H   UNL     1      -4.349   4.802 -13.031  1.00  0.00     0.167 HD
ATOM     68  C   UNL     1      -0.827   5.948 -12.862  1.00  0.00     0.074 A 
ATOM     69  C   UNL     1       0.542   6.075 -13.329  1.00  0.00     0.031 C 
ATOM     70  C   UNL     1      -2.046   6.193 -13.436  1.00  0.00     0.037 A 
BRANCH  57  71
ATOM     71  C   UNL     1      -7.639   5.404 -10.964  1.00  0.00     0.057 A 
ATOM     72  C   UNL     1      -8.096   6.729 -11.118  1.00  0.00     0.134 A 
ATOM     73  C   UNL     1      -8.658   4.468 -10.715  1.00  0.00     0.134 A 
ATOM     74  F   UNL     1      -7.264   7.731 -11.431  1.00  0.00    -0.206 F 
ATOM     75  C   UNL     1      -9.436   7.101 -10.954  1.00  0.00     0.040 A 
ATOM     76  C   UNL     1      -9.997   4.832 -10.505  1.00  0.00     0.040 A 
ATOM     77  F   UNL     1      -8.422   3.151 -10.716  1.00  0.00    -0.206 F 
ATOM     78  C   UNL     1     -10.391   6.155 -10.619  1.00  0.00     0.006 A 
ENDBRANCH  57  71
BRANCH  58  79
ATOM     79  C   UNL     1       1.886   3.853  -9.511  1.00  0.00     0.057 A 
ATOM     80  C   UNL     1       2.719   3.957  -8.377  1.00  0.00     0.134 A 
ATOM     81  C   UNL     1       1.492   2.566  -9.887  1.00  0.00     0.134 A 
ATOM     82  F   UNL     1       3.158   5.161  -7.975  1.00  0.00    -0.206 F 
ATOM     83  C   UNL     1       2.980   2.864  -7.546  1.00  0.00     0.040 A 
ATOM     84  C   UNL     1       1.778   1.458  -9.076  1.00  0.00     0.040 A 
ATOM     85  F   UNL     1       0.711   2.375 -10.959  1.00  0.00    -0.206 F 
ATOM     86  C   UNL     1       2.463   1.616  -7.871  1.00  0.00     0.006 A 
ENDBRANCH  58  79
BRANCH  70  87
ATOM     87  C   UNL     1      -2.345   6.343 -14.918  1.00  0.00     0.057 A 
ATOM     88  C   UNL     1      -1.490   5.938 -15.952  1.00  0.00     0.134 A 
ATOM     89  C   UNL     1      -3.622   6.782 -15.359  1.00  0.00     0.134 A 
ATOM     90  F   UNL     1      -0.300   5.377 -15.710  1.00  0.00    -0.206 F 
ATOM     91  C   UNL     1      -1.843   6.028 -17.307  1.00  0.00     0.040 A 
ATOM     92  C   UNL     1      -4.011   6.801 -16.700  1.00  0.00     0.040 A 
ATOM     93  F   UNL     1      -4.575   7.189 -14.508  1.00  0.00    -0.206 F 
ATOM     94  C   UNL     1      -3.111   6.445 -17.686  1.00  0.00     0.006 A 
ENDBRANCH  70  87
ENDBRANCH  44  45
ENDBRANCH  36  39
ENDBRANCH  34  35
ENDBRANCH  33  34
ENDBRANCH   1  33
TORSDOF 13
