REMARK SMILES [NH3+]CCOCC(=O)Nc1ccc(C(=O)NCCCNC(=O)c2ccc(-c3c4nc(c(-c5c(F)cccc5F)c5ccc([nH]5)c(-c5c(F)cccc5F)c5nc(c(-c6c(F)cccc6F)c6ccc3[nH]6)C=C5)C=C4)cc2)c(Cl)c1
REMARK SMILES IDX 13 1 14 2 15 3 12 5 9 6 10 7 78 8 11 9 76 10 77 11 8 12 6 13
REMARK SMILES IDX 7 14 5 16 4 17 3 18 2 19 1 20 16 24 17 25 18 26 19 27 20 28
REMARK SMILES IDX 21 30 22 31 23 32 75 33 24 34 74 35 25 36 26 37 27 38 68 39
REMARK SMILES IDX 28 40 73 41 67 42 69 43 29 44 72 45 66 46 65 47 30 49 56 50
REMARK SMILES IDX 39 51 55 52 40 53 43 54 54 55 70 56 41 57 42 58 53 60 71 61
REMARK SMILES IDX 44 62 31 63 32 64 37 65 33 66 34 67 36 68 38 69 35 70 57 71
REMARK SMILES IDX 58 72 63 73 59 74 60 75 62 76 64 77 61 78 45 79 46 80 51 81
REMARK SMILES IDX 47 82 48 83 50 84 52 85 49 86
REMARK H PARENT 15 4 8 15 1 21 1 22 1 23 19 29 69 48 43 59
REMARK Flexibility Score: inf
ROOT
ATOM      1  C   UNL     1       0.660   3.240  -7.569  1.00  0.00     0.252 C 
ATOM      2  O   UNL     1      -0.507   3.512  -7.273  1.00  0.00    -0.269 OA
ATOM      3  N   UNL     1       1.083   3.663  -8.796  1.00  0.00    -0.352 N 
ATOM      4  H   UNL     1       0.461   4.284  -9.238  1.00  0.00     0.163 HD
ENDROOT
BRANCH   1   5
ATOM      5  C   UNL     1       1.523   2.616  -6.529  1.00  0.00     0.058 A 
ATOM      6  C   UNL     1       2.766   1.529  -4.237  1.00  0.00     0.042 A 
ATOM      7  C   UNL     1       1.833   2.546  -4.102  1.00  0.00     0.027 A 
ATOM      8  C   UNL     1       3.148   1.115  -5.503  1.00  0.00     0.047 A 
ATOM      9  C   UNL     1       1.239   3.099  -5.235  1.00  0.00     0.017 A 
ATOM     10  C   UNL     1       2.467   1.584  -6.637  1.00  0.00     0.055 A 
ATOM     11  Cl  UNL     1       2.755   0.606  -8.022  1.00  0.00    -0.083 Cl
BRANCH   6  12
ATOM     12  N   UNL     1       3.292   0.834  -3.147  1.00  0.00    -0.324 N 
ATOM     13  C   UNL     1       2.585   0.214  -2.149  1.00  0.00     0.250 C 
ATOM     14  O   UNL     1       3.200  -0.349  -1.240  1.00  0.00    -0.272 OA
ATOM     15  H   UNL     1       4.274   0.784  -3.088  1.00  0.00     0.170 HD
BRANCH  13  16
ATOM     16  C   UNL     1       1.044   0.160  -2.216  1.00  0.00     0.260 C 
BRANCH  16  17
ATOM     17  O   UNL     1       0.276   1.270  -1.796  1.00  0.00    -0.366 OA
BRANCH  17  18
ATOM     18  C   UNL     1       0.785   1.984  -0.671  1.00  0.00     0.222 C 
BRANCH  18  19
ATOM     19  C   UNL     1       0.425   1.362   0.683  1.00  0.00     0.287 C 
BRANCH  19  20
ATOM     20  N   UNL     1       1.060   0.076   0.968  1.00  0.00    -0.356 N 
ATOM     21  H   UNL     1       0.760  -0.255   1.885  1.00  0.00     0.344 HD
ATOM     22  H   UNL     1       2.073   0.188   0.961  1.00  0.00     0.344 HD
ATOM     23  H   UNL     1       0.788  -0.602   0.257  1.00  0.00     0.344 HD
ENDBRANCH  19  20
ENDBRANCH  18  19
ENDBRANCH  17  18
ENDBRANCH  16  17
ENDBRANCH  13  16
ENDBRANCH   6  12
ENDBRANCH   1   5
BRANCH   3  24
ATOM     24  C   UNL     1       2.268   3.373  -9.569  1.00  0.00     0.118 C 
BRANCH  24  25
ATOM     25  C   UNL     1       1.966   2.221 -10.524  1.00  0.00     0.042 C 
BRANCH  25  26
ATOM     26  C   UNL     1       1.227   2.657 -11.773  1.00  0.00     0.118 C 
BRANCH  26  27
ATOM     27  N   UNL     1       2.116   3.346 -12.695  1.00  0.00    -0.352 N 
ATOM     28  C   UNL     1       2.564   2.929 -13.922  1.00  0.00     0.251 C 
ATOM     29  H   UNL     1       2.439   4.228 -12.399  1.00  0.00     0.163 HD
ATOM     30  O   UNL     1       3.538   3.473 -14.441  1.00  0.00    -0.269 OA
BRANCH  28  31
ATOM     31  C   UNL     1       1.873   1.822 -14.614  1.00  0.00     0.039 A 
ATOM     32  C   UNL     1       2.621   0.858 -15.293  1.00  0.00     0.014 A 
ATOM     33  C   UNL     1       0.478   1.745 -14.593  1.00  0.00     0.014 A 
ATOM     34  C   UNL     1       1.969  -0.212 -15.910  1.00  0.00     0.010 A 
ATOM     35  C   UNL     1      -0.160   0.630 -15.116  1.00  0.00     0.010 A 
ATOM     36  C   UNL     1       0.576  -0.348 -15.801  1.00  0.00    -0.014 A 
BRANCH  36  37
ATOM     37  C   UNL     1      -0.164  -1.462 -16.442  1.00  0.00     0.031 A 
ATOM     38  C   UNL     1      -1.198  -1.143 -17.489  1.00  0.00     0.074 A 
ATOM     39  C   UNL     1       0.027  -2.730 -16.031  1.00  0.00     0.049 A 
ATOM     40  N   UNL     1      -2.080  -1.929 -18.050  1.00  0.00    -0.248 NA
ATOM     41  C   UNL     1      -1.273   0.259 -17.937  1.00  0.00     0.031 C 
ATOM     42  C   UNL     1       0.984  -3.159 -15.010  1.00  0.00     0.029 A 
ATOM     43  N   UNL     1      -0.594  -3.892 -16.413  1.00  0.00    -0.354 N 
ATOM     44  C   UNL     1      -2.820  -1.115 -18.899  1.00  0.00     0.074 A 
ATOM     45  C   UNL     1      -2.333   0.235 -18.729  1.00  0.00     0.031 C 
ATOM     46  C   UNL     1       0.898  -4.491 -14.859  1.00  0.00     0.029 A 
ATOM     47  C   UNL     1      -0.153  -5.002 -15.732  1.00  0.00     0.049 A 
ATOM     48  H   UNL     1      -1.289  -3.928 -17.109  1.00  0.00     0.167 HD
ATOM     49  C   UNL     1      -3.797  -1.467 -19.767  1.00  0.00     0.037 A 
ATOM     50  C   UNL     1      -0.570  -6.281 -15.795  1.00  0.00     0.037 A 
ATOM     51  C   UNL     1      -4.258  -2.816 -19.949  1.00  0.00     0.049 A 
ATOM     52  C   UNL     1      -1.690  -6.636 -16.738  1.00  0.00     0.074 A 
ATOM     53  C   UNL     1      -5.230  -3.286 -20.814  1.00  0.00     0.029 A 
ATOM     54  N   UNL     1      -3.768  -3.913 -19.258  1.00  0.00    -0.354 N 
ATOM     55  N   UNL     1      -2.359  -5.864 -17.559  1.00  0.00    -0.248 NA
ATOM     56  C   UNL     1      -2.111  -8.044 -16.765  1.00  0.00     0.031 C 
ATOM     57  C   UNL     1      -5.353  -4.664 -20.621  1.00  0.00     0.029 A 
ATOM     58  C   UNL     1      -4.420  -5.060 -19.676  1.00  0.00     0.049 A 
ATOM     59  H   UNL     1      -3.061  -3.882 -18.573  1.00  0.00     0.167 HD
ATOM     60  C   UNL     1      -3.240  -6.699 -18.235  1.00  0.00     0.074 A 
ATOM     61  C   UNL     1      -3.019  -8.037 -17.729  1.00  0.00     0.031 C 
ATOM     62  C   UNL     1      -4.149  -6.388 -19.190  1.00  0.00     0.037 A 
BRANCH  49  63
ATOM     63  C   UNL     1      -4.412  -0.380 -20.599  1.00  0.00     0.057 A 
ATOM     64  C   UNL     1      -3.692   0.262 -21.616  1.00  0.00     0.134 A 
ATOM     65  C   UNL     1      -5.746   0.002 -20.414  1.00  0.00     0.134 A 
ATOM     66  F   UNL     1      -2.405  -0.046 -21.837  1.00  0.00    -0.206 F 
ATOM     67  C   UNL     1      -4.269   1.259 -22.404  1.00  0.00     0.040 A 
ATOM     68  C   UNL     1      -6.344   0.976 -21.216  1.00  0.00     0.040 A 
ATOM     69  F   UNL     1      -6.495  -0.574 -19.462  1.00  0.00    -0.206 F 
ATOM     70  C   UNL     1      -5.603   1.611 -22.210  1.00  0.00     0.006 A 
ENDBRANCH  49  63
BRANCH  50  71
ATOM     71  C   UNL     1       0.069  -7.330 -14.958  1.00  0.00     0.057 A 
ATOM     72  C   UNL     1       0.805  -8.368 -15.544  1.00  0.00     0.134 A 
ATOM     73  C   UNL     1      -0.082  -7.356 -13.566  1.00  0.00     0.134 A 
ATOM     74  F   UNL     1       0.972  -8.409 -16.874  1.00  0.00    -0.206 F 
ATOM     75  C   UNL     1       1.331  -9.414 -14.784  1.00  0.00     0.040 A 
ATOM     76  C   UNL     1       0.467  -8.380 -12.790  1.00  0.00     0.040 A 
ATOM     77  F   UNL     1      -0.765  -6.388 -12.939  1.00  0.00    -0.206 F 
ATOM     78  C   UNL     1       1.163  -9.421 -13.401  1.00  0.00     0.006 A 
ENDBRANCH  50  71
BRANCH  62  79
ATOM     79  C   UNL     1      -4.912  -7.518 -19.816  1.00  0.00     0.057 A 
ATOM     80  C   UNL     1      -5.923  -8.204 -19.133  1.00  0.00     0.134 A 
ATOM     81  C   UNL     1      -4.670  -7.876 -21.149  1.00  0.00     0.134 A 
ATOM     82  F   UNL     1      -6.195  -7.917 -17.851  1.00  0.00    -0.206 F 
ATOM     83  C   UNL     1      -6.655  -9.220 -19.750  1.00  0.00     0.040 A 
ATOM     84  C   UNL     1      -5.416  -8.868 -21.785  1.00  0.00     0.040 A 
ATOM     85  F   UNL     1      -3.722  -7.249 -21.862  1.00  0.00    -0.206 F 
ATOM     86  C   UNL     1      -6.409  -9.547 -21.082  1.00  0.00     0.006 A 
ENDBRANCH  62  79
ENDBRANCH  36  37
ENDBRANCH  28  31
ENDBRANCH  26  27
ENDBRANCH  25  26
ENDBRANCH  24  25
ENDBRANCH   3  24
TORSDOF 16
