REMARK SMILES CC(C)[NH2+][C@]1(C(=O)NCCCNC(=O)c2ccc(-c3c4nc(c(-c5c(F)cccc5F)c5ccc([nH]5)c(-c5c(F)cccc5F)c5nc(c(-c6c(F)cccc6F)c6ccc3[nH]6)C=C5)C=C4)cc2)CC[C@H]([N@H+](C)C2CCCC2)C1
REMARK SMILES IDX 10 1 9 2 8 3 6 4 7 5 5 7 69 8 79 9 70 10 71 11 4 12 2 15
REMARK SMILES IDX 1 16 3 17 72 18 73 19 74 21 75 22 78 23 76 24 77 25 11 26
REMARK SMILES IDX 12 27 13 28 14 30 15 31 16 32 68 33 17 34 67 35 18 36 19 37
REMARK SMILES IDX 20 38 61 39 21 40 66 41 60 42 62 43 22 44 65 45 59 46 58 47
REMARK SMILES IDX 23 49 49 50 32 51 48 52 33 53 36 54 47 55 63 56 34 57 35 58
REMARK SMILES IDX 46 60 64 61 37 62 24 63 25 64 30 65 26 66 27 67 29 68 31 69
REMARK SMILES IDX 28 70 50 71 51 72 56 73 52 74 53 75 55 76 57 77 54 78 38 79
REMARK SMILES IDX 39 80 44 81 40 82 41 83 43 84 45 85 42 86
REMARK H PARENT 8 6 4 13 4 14 72 20 12 29 62 48 36 59
REMARK Flexibility Score: inf
ROOT
ATOM      1  C   UNL     1       2.235  -1.469   1.882  1.00  0.00     0.042 C 
ENDROOT
BRANCH   1   2
ATOM      2  C   UNL     1       1.359  -0.259   2.146  1.00  0.00     0.118 C 
BRANCH   2   3
ATOM      3  N   UNL     1       0.269  -0.058   1.194  1.00  0.00    -0.351 N 
ATOM      4  C   UNL     1      -1.020   0.383   1.437  1.00  0.00     0.281 C 
ATOM      5  O   UNL     1      -1.713   0.700   0.468  1.00  0.00    -0.268 OA
ATOM      6  H   UNL     1       0.480  -0.262   0.254  1.00  0.00     0.163 HD
BRANCH   4   7
ATOM      7  C   UNL     1      -1.579   0.370   2.905  1.00  0.00     0.181 C 
ATOM      8  C   UNL     1      -2.978   0.974   3.097  1.00  0.00     0.085 C 
ATOM      9  C   UNL     1      -1.982  -1.111   3.089  1.00  0.00     0.144 C 
ATOM     10  C   UNL     1      -3.571   0.202   4.303  1.00  0.00     0.072 C 
ATOM     11  C   UNL     1      -2.918  -1.223   4.285  1.00  0.00     0.191 C 
BRANCH   7  12
ATOM     12  N   UNL     1      -0.572   1.086   3.721  1.00  0.00    -0.331 N 
ATOM     13  H   UNL     1       0.305   0.586   3.574  1.00  0.00     0.347 HD
ATOM     14  H   UNL     1      -0.704   2.040   3.385  1.00  0.00     0.347 HD
BRANCH  12  15
ATOM     15  C   UNL     1      -0.665   1.294   5.154  1.00  0.00     0.176 C 
ATOM     16  C   UNL     1       0.727   1.046   5.754  1.00  0.00     0.075 C 
ATOM     17  C   UNL     1      -1.097   2.718   5.501  1.00  0.00     0.075 C 
ENDBRANCH  12  15
ENDBRANCH   7  12
BRANCH  11  18
ATOM     18  N   UNL     1      -2.486  -1.894   5.538  1.00  0.00    -0.332 N 
ATOM     19  C   UNL     1      -3.242  -1.428   6.703  1.00  0.00     0.333 C 
ATOM     20  H   UNL     1      -2.737  -2.851   5.290  1.00  0.00     0.348 HD
BRANCH  18  21
ATOM     21  C   UNL     1      -1.062  -2.138   5.839  1.00  0.00     0.184 C 
ATOM     22  C   UNL     1      -0.789  -3.001   7.090  1.00  0.00     0.065 C 
ATOM     23  C   UNL     1      -0.196  -2.896   4.818  1.00  0.00     0.065 C 
ATOM     24  C   UNL     1       0.715  -3.248   7.033  1.00  0.00     0.006 C 
ATOM     25  C   UNL     1       1.033  -3.406   5.560  1.00  0.00     0.006 C 
ENDBRANCH  18  21
ENDBRANCH  11  18
ENDBRANCH   4   7
ENDBRANCH   2   3
ENDBRANCH   1   2
BRANCH   1  26
ATOM     26  C   UNL     1       3.029  -1.415   0.593  1.00  0.00     0.118 C 
BRANCH  26  27
ATOM     27  N   UNL     1       4.036  -0.362   0.574  1.00  0.00    -0.352 N 
ATOM     28  C   UNL     1       5.404  -0.436   0.458  1.00  0.00     0.251 C 
ATOM     29  H   UNL     1       3.679   0.552   0.659  1.00  0.00     0.163 HD
ATOM     30  O   UNL     1       6.082   0.580   0.606  1.00  0.00    -0.269 OA
BRANCH  28  31
ATOM     31  C   UNL     1       6.073  -1.730   0.194  1.00  0.00     0.039 A 
ATOM     32  C   UNL     1       7.276  -2.017   0.845  1.00  0.00     0.014 A 
ATOM     33  C   UNL     1       5.526  -2.663  -0.689  1.00  0.00     0.014 A 
ATOM     34  C   UNL     1       7.878  -3.267   0.674  1.00  0.00     0.010 A 
ATOM     35  C   UNL     1       6.059  -3.945  -0.764  1.00  0.00     0.010 A 
ATOM     36  C   UNL     1       7.249  -4.260  -0.095  1.00  0.00    -0.014 A 
BRANCH  36  37
ATOM     37  C   UNL     1       7.825  -5.624  -0.220  1.00  0.00     0.031 A 
ATOM     38  C   UNL     1       8.207  -6.167  -1.572  1.00  0.00     0.074 A 
ATOM     39  C   UNL     1       7.950  -6.399   0.876  1.00  0.00     0.049 A 
ATOM     40  N   UNL     1       8.686  -7.345  -1.885  1.00  0.00    -0.248 NA
ATOM     41  C   UNL     1       7.993  -5.283  -2.729  1.00  0.00     0.031 C 
ATOM     42  C   UNL     1       7.557  -6.017   2.234  1.00  0.00     0.029 A 
ATOM     43  N   UNL     1       8.441  -7.673   1.021  1.00  0.00    -0.354 N 
ATOM     44  C   UNL     1       8.814  -7.344  -3.269  1.00  0.00     0.074 A 
ATOM     45  C   UNL     1       8.299  -6.079  -3.742  1.00  0.00     0.031 C 
ATOM     46  C   UNL     1       7.857  -7.018   3.078  1.00  0.00     0.029 A 
ATOM     47  C   UNL     1       8.423  -8.127   2.318  1.00  0.00     0.049 A 
ATOM     48  H   UNL     1       8.773  -8.212   0.267  1.00  0.00     0.167 HD
ATOM     49  C   UNL     1       9.342  -8.298  -4.073  1.00  0.00     0.037 A 
ATOM     50  C   UNL     1       8.818  -9.305   2.837  1.00  0.00     0.037 A 
ATOM     51  C   UNL     1       9.877  -9.546  -3.598  1.00  0.00     0.049 A 
ATOM     52  C   UNL     1       9.401 -10.349   1.925  1.00  0.00     0.074 A 
ATOM     53  C   UNL     1      10.489 -10.553  -4.322  1.00  0.00     0.029 A 
ATOM     54  N   UNL     1       9.858  -9.960  -2.274  1.00  0.00    -0.354 N 
ATOM     55  N   UNL     1       9.590 -10.302   0.628  1.00  0.00    -0.248 NA
ATOM     56  C   UNL     1       9.837 -11.606   2.549  1.00  0.00     0.031 C 
ATOM     57  C   UNL     1      10.793 -11.599  -3.446  1.00  0.00     0.029 A 
ATOM     58  C   UNL     1      10.428 -11.217  -2.164  1.00  0.00     0.049 A 
ATOM     59  H   UNL     1       9.495  -9.437  -1.523  1.00  0.00     0.167 HD
ATOM     60  C   UNL     1      10.197 -11.505   0.288  1.00  0.00     0.074 A 
ATOM     61  C   UNL     1      10.355 -12.254   1.516  1.00  0.00     0.031 C 
ATOM     62  C   UNL     1      10.590 -11.947  -0.932  1.00  0.00     0.037 A 
BRANCH  49  63
ATOM     63  C   UNL     1       9.372  -8.022  -5.550  1.00  0.00     0.057 A 
ATOM     64  C   UNL     1      10.196  -7.032  -6.103  1.00  0.00     0.134 A 
ATOM     65  C   UNL     1       8.590  -8.776  -6.435  1.00  0.00     0.134 A 
ATOM     66  F   UNL     1      10.962  -6.265  -5.312  1.00  0.00    -0.206 F 
ATOM     67  C   UNL     1      10.217  -6.780  -7.476  1.00  0.00     0.040 A 
ATOM     68  C   UNL     1       8.627  -8.555  -7.813  1.00  0.00     0.040 A 
ATOM     69  F   UNL     1       7.783  -9.745  -5.977  1.00  0.00    -0.206 F 
ATOM     70  C   UNL     1       9.437  -7.549  -8.336  1.00  0.00     0.006 A 
ENDBRANCH  49  63
BRANCH  50  71
ATOM     71  C   UNL     1       8.706  -9.551   4.299  1.00  0.00     0.057 A 
ATOM     72  C   UNL     1       9.846  -9.655   5.104  1.00  0.00     0.134 A 
ATOM     73  C   UNL     1       7.462  -9.697   4.924  1.00  0.00     0.134 A 
ATOM     74  F   UNL     1      11.068  -9.541   4.563  1.00  0.00    -0.206 F 
ATOM     75  C   UNL     1       9.755  -9.919   6.472  1.00  0.00     0.040 A 
ATOM     76  C   UNL     1       7.355  -9.933   6.295  1.00  0.00     0.040 A 
ATOM     77  F   UNL     1       6.330  -9.599   4.211  1.00  0.00    -0.206 F 
ATOM     78  C   UNL     1       8.505 -10.053   7.072  1.00  0.00     0.006 A 
ENDBRANCH  50  71
BRANCH  62  79
ATOM     79  C   UNL     1      11.276 -13.281  -0.994  1.00  0.00     0.057 A 
ATOM     80  C   UNL     1      10.590 -14.483  -0.781  1.00  0.00     0.134 A 
ATOM     81  C   UNL     1      12.639 -13.362  -1.312  1.00  0.00     0.134 A 
ATOM     82  F   UNL     1       9.287 -14.475  -0.462  1.00  0.00    -0.206 F 
ATOM     83  C   UNL     1      11.240 -15.716  -0.856  1.00  0.00     0.040 A 
ATOM     84  C   UNL     1      13.291 -14.590  -1.421  1.00  0.00     0.040 A 
ATOM     85  F   UNL     1      13.354 -12.250  -1.539  1.00  0.00    -0.206 F 
ATOM     86  C   UNL     1      12.593 -15.772  -1.185  1.00  0.00     0.006 A 
ENDBRANCH  62  79
ENDBRANCH  36  37
ENDBRANCH  28  31
ENDBRANCH  26  27
ENDBRANCH   1  26
TORSDOF 14
