REMARK SMILES O=C(NCCCNC(=O)[C@H]1O[C@@H](Oc2c(-c3cc(O)c(O)c(O)c3)oc3cc(O)cc(O)c3c2=O)[C@H](O)[C@@H](O)[C@@H]1O)c1ccc(-c2c3nc(c(-c4c(F)cccc4F)c4ccc([nH]4)c(-c4c(F)cccc4F)c4nc(c(-c5c(F)cccc5F)c5ccc2[nH]5)C=C4)C=C3)cc1
REMARK SMILES IDX 6 1 5 2 4 3 3 4 1 5 2 6 42 8 43 9 95 10 44 11 94 12 45 13
REMARK SMILES IDX 46 14 47 15 88 16 48 17 93 18 87 19 89 20 49 21 92 22 86 23
REMARK SMILES IDX 85 24 50 26 76 27 59 28 75 29 60 30 63 31 74 32 90 33 61 34
REMARK SMILES IDX 62 35 73 37 91 38 64 39 51 40 52 41 57 42 53 43 54 44 56 45
REMARK SMILES IDX 58 46 55 47 77 48 78 49 83 50 79 51 80 52 82 53 84 54 81 55
REMARK SMILES IDX 65 56 66 57 71 58 67 59 68 60 70 61 72 62 69 63 7 64 8 65
REMARK SMILES IDX 9 67 10 68 11 69 40 70 12 71 38 72 36 73 41 74 13 76 14 77
REMARK SMILES IDX 15 78 34 79 25 80 33 81 35 82 26 83 31 84 27 85 30 86 28 87
REMARK SMILES IDX 16 88 17 89 24 90 18 91 22 92 20 93 19 94 23 96 21 98 32 100
REMARK SMILES IDX 29 102 39 104 37 106
REMARK H PARENT 3 7 89 25 63 36 7 66 41 75 19 95 23 97 21 99 32 101 29 103
REMARK H PARENT 39 105 37 107
REMARK Flexibility Score: inf
ROOT
ATOM      1  C   UNL     1       8.204  -0.188   5.533  1.00  0.00     0.117 C 
ENDROOT
BRANCH   1   2
ATOM      2  C   UNL     1       9.511   0.273   4.882  1.00  0.00     0.042 C 
BRANCH   2   3
ATOM      3  C   UNL     1      10.736  -0.006   5.744  1.00  0.00     0.118 C 
BRANCH   3   4
ATOM      4  N   UNL     1      10.960  -1.433   5.926  1.00  0.00    -0.352 N 
ATOM      5  O   UNL     1      11.980  -3.414   5.595  1.00  0.00    -0.269 OA
ATOM      6  C   UNL     1      12.053  -2.185   5.595  1.00  0.00     0.251 C 
ATOM      7  H   UNL     1      10.219  -1.926   6.347  1.00  0.00     0.163 HD
BRANCH   6   8
ATOM      8  C   UNL     1      13.321  -1.521   5.240  1.00  0.00     0.039 A 
ATOM      9  C   UNL     1      13.775  -0.427   5.982  1.00  0.00     0.014 A 
ATOM     10  C   UNL     1      14.083  -2.022   4.182  1.00  0.00     0.014 A 
ATOM     11  C   UNL     1      14.930   0.238   5.593  1.00  0.00     0.010 A 
ATOM     12  C   UNL     1      15.291  -1.407   3.849  1.00  0.00     0.010 A 
ATOM     13  C   UNL     1      15.716  -0.264   4.544  1.00  0.00    -0.014 A 
BRANCH  13  14
ATOM     14  C   UNL     1      17.021   0.374   4.250  1.00  0.00     0.031 A 
ATOM     15  C   UNL     1      17.275   1.055   2.939  1.00  0.00     0.074 A 
ATOM     16  C   UNL     1      17.975   0.343   5.201  1.00  0.00     0.049 A 
ATOM     17  N   UNL     1      18.360   1.660   2.523  1.00  0.00    -0.248 NA
ATOM     18  C   UNL     1      16.176   1.055   1.962  1.00  0.00     0.031 C 
ATOM     19  C   UNL     1      17.836  -0.299   6.512  1.00  0.00     0.029 A 
ATOM     20  N   UNL     1      19.238   0.871   5.224  1.00  0.00    -0.354 N 
ATOM     21  C   UNL     1      18.080   2.102   1.237  1.00  0.00     0.074 A 
ATOM     22  C   UNL     1      16.734   1.668   0.926  1.00  0.00     0.031 C 
ATOM     23  C   UNL     1      18.949  -0.086   7.226  1.00  0.00     0.029 A 
ATOM     24  C   UNL     1      19.906   0.642   6.402  1.00  0.00     0.049 A 
ATOM     25  H   UNL     1      19.630   1.367   4.469  1.00  0.00     0.167 HD
ATOM     26  C   UNL     1      18.872   2.814   0.401  1.00  0.00     0.037 A 
ATOM     27  C   UNL     1      21.158   0.961   6.772  1.00  0.00     0.037 A 
ATOM     28  C   UNL     1      20.212   3.239   0.723  1.00  0.00     0.049 A 
ATOM     29  C   UNL     1      22.032   1.702   5.802  1.00  0.00     0.074 A 
ATOM     30  C   UNL     1      21.090   3.982  -0.048  1.00  0.00     0.029 A 
ATOM     31  N   UNL     1      20.870   2.952   1.911  1.00  0.00    -0.354 N 
ATOM     32  N   UNL     1      21.745   2.140   4.600  1.00  0.00    -0.248 NA
ATOM     33  C   UNL     1      23.404   1.988   6.238  1.00  0.00     0.031 C 
ATOM     34  C   UNL     1      22.296   4.097   0.651  1.00  0.00     0.029 A 
ATOM     35  C   UNL     1      22.151   3.480   1.883  1.00  0.00     0.049 A 
ATOM     36  H   UNL     1      20.483   2.448   2.663  1.00  0.00     0.167 HD
ATOM     37  C   UNL     1      22.891   2.774   4.144  1.00  0.00     0.074 A 
ATOM     38  C   UNL     1      23.871   2.680   5.208  1.00  0.00     0.031 C 
ATOM     39  C   UNL     1      23.113   3.379   2.952  1.00  0.00     0.037 A 
BRANCH  26  40
ATOM     40  C   UNL     1      18.322   3.162  -0.953  1.00  0.00     0.057 A 
ATOM     41  C   UNL     1      17.295   4.102  -1.117  1.00  0.00     0.134 A 
ATOM     42  C   UNL     1      18.857   2.585  -2.112  1.00  0.00     0.134 A 
ATOM     43  F   UNL     1      16.730   4.686  -0.050  1.00  0.00    -0.206 F 
ATOM     44  C   UNL     1      16.806   4.437  -2.382  1.00  0.00     0.040 A 
ATOM     45  C   UNL     1      18.395   2.932  -3.383  1.00  0.00     0.040 A 
ATOM     46  F   UNL     1      19.847   1.683  -2.030  1.00  0.00    -0.206 F 
ATOM     47  C   UNL     1      17.362   3.856  -3.520  1.00  0.00     0.006 A 
ENDBRANCH  26  40
BRANCH  27  48
ATOM     48  C   UNL     1      21.656   0.574   8.115  1.00  0.00     0.057 A 
ATOM     49  C   UNL     1      21.935   1.539   9.089  1.00  0.00     0.134 A 
ATOM     50  C   UNL     1      21.857  -0.768   8.460  1.00  0.00     0.134 A 
ATOM     51  F   UNL     1      21.776   2.842   8.814  1.00  0.00    -0.206 F 
ATOM     52  C   UNL     1      22.414   1.185  10.352  1.00  0.00     0.040 A 
ATOM     53  C   UNL     1      22.305  -1.139   9.728  1.00  0.00     0.040 A 
ATOM     54  F   UNL     1      21.598  -1.742   7.575  1.00  0.00    -0.206 F 
ATOM     55  C   UNL     1      22.593  -0.159  10.676  1.00  0.00     0.006 A 
ENDBRANCH  27  48
BRANCH  39  56
ATOM     56  C   UNL     1      24.456   4.019   2.753  1.00  0.00     0.057 A 
ATOM     57  C   UNL     1      25.622   3.261   2.588  1.00  0.00     0.134 A 
ATOM     58  C   UNL     1      24.578   5.414   2.700  1.00  0.00     0.134 A 
ATOM     59  F   UNL     1      25.577   1.921   2.644  1.00  0.00    -0.206 F 
ATOM     60  C   UNL     1      26.866   3.868   2.404  1.00  0.00     0.040 A 
ATOM     61  C   UNL     1      25.811   6.031   2.486  1.00  0.00     0.040 A 
ATOM     62  F   UNL     1      23.500   6.198   2.843  1.00  0.00    -0.206 F 
ATOM     63  C   UNL     1      26.961   5.257   2.345  1.00  0.00     0.006 A 
ENDBRANCH  39  56
ENDBRANCH  13  14
ENDBRANCH   6   8
ENDBRANCH   3   4
ENDBRANCH   2   3
ENDBRANCH   1   2
BRANCH   1  64
ATOM     64  N   UNL     1       7.953   0.584   6.731  1.00  0.00    -0.354 N 
ATOM     65  C   UNL     1       7.350   1.797   6.875  1.00  0.00     0.252 C 
ATOM     66  H   UNL     1       8.264   0.171   7.569  1.00  0.00     0.163 HD
ATOM     67  O   UNL     1       7.648   2.418   7.900  1.00  0.00    -0.272 OA
BRANCH  65  68
ATOM     68  C   UNL     1       6.252   2.280   5.905  1.00  0.00     0.242 C 
ATOM     69  O   UNL     1       5.663   3.444   6.537  1.00  0.00    -0.324 OA
ATOM     70  C   UNL     1       6.660   2.732   4.500  1.00  0.00     0.184 C 
ATOM     71  C   UNL     1       4.401   3.807   6.004  1.00  0.00     0.340 C 
ATOM     72  C   UNL     1       5.372   3.041   3.732  1.00  0.00     0.181 C 
ATOM     73  C   UNL     1       4.447   3.997   4.470  1.00  0.00     0.214 C 
BRANCH  70  74
ATOM     74  O   UNL     1       7.347   1.785   3.689  1.00  0.00    -0.387 OA
ATOM     75  H   UNL     1       6.768   1.027   3.516  1.00  0.00     0.211 HD
ENDBRANCH  70  74
BRANCH  71  76
ATOM     76  O   UNL     1       3.825   5.010   6.585  1.00  0.00    -0.454 OA
BRANCH  76  77
ATOM     77  C   UNL     1       4.710   5.950   7.112  1.00  0.00     0.214 A 
ATOM     78  C   UNL     1       5.126   7.046   6.439  1.00  0.00     0.181 A 
ATOM     79  C   UNL     1       5.045   5.873   8.573  1.00  0.00     0.239 A 
ATOM     80  O   UNL     1       5.971   8.013   6.933  1.00  0.00    -0.452 OA
ATOM     81  C   UNL     1       5.862   6.989   9.136  1.00  0.00     0.111 A 
ATOM     82  O   UNL     1       4.604   4.956   9.256  1.00  0.00    -0.285 OA
ATOM     83  C   UNL     1       6.286   7.990   8.262  1.00  0.00     0.146 A 
ATOM     84  C   UNL     1       6.203   7.108  10.493  1.00  0.00     0.134 A 
ATOM     85  C   UNL     1       7.050   9.072   8.711  1.00  0.00     0.094 A 
ATOM     86  C   UNL     1       6.959   8.198  10.954  1.00  0.00     0.093 A 
ATOM     87  C   UNL     1       7.376   9.171  10.054  1.00  0.00     0.123 A 
BRANCH  78  88
ATOM     88  C   UNL     1       4.774   7.295   5.033  1.00  0.00     0.029 A 
ATOM     89  C   UNL     1       5.795   7.261   4.064  1.00  0.00     0.062 A 
ATOM     90  C   UNL     1       3.431   7.396   4.633  1.00  0.00     0.062 A 
ATOM     91  C   UNL     1       5.454   7.175   2.720  1.00  0.00     0.162 A 
ATOM     92  C   UNL     1       3.115   7.331   3.282  1.00  0.00     0.162 A 
ATOM     93  C   UNL     1       4.120   7.179   2.333  1.00  0.00     0.200 A 
BRANCH  91  94
ATOM     94  O   UNL     1       6.446   6.972   1.806  1.00  0.00    -0.504 OA
ATOM     95  H   UNL     1       7.342   6.971   2.079  1.00  0.00     0.293 HD
ENDBRANCH  91  94
BRANCH  92  96
ATOM     96  O   UNL     1       1.802   7.303   2.912  1.00  0.00    -0.504 OA
ATOM     97  H   UNL     1       1.572   7.259   2.005  1.00  0.00     0.293 HD
ENDBRANCH  92  96
BRANCH  93  98
ATOM     98  O   UNL     1       3.776   6.915   1.036  1.00  0.00    -0.502 OA
ATOM     99  H   UNL     1       4.443   6.811   0.386  1.00  0.00     0.293 HD
ENDBRANCH  93  98
ENDBRANCH  78  88
BRANCH  84 100
ATOM    100  O   UNL     1       5.789   6.178  11.404  1.00  0.00    -0.507 OA
ATOM    101  H   UNL     1       6.024   6.269  12.306  1.00  0.00     0.293 HD
ENDBRANCH  84 100
BRANCH  87 102
ATOM    102  O   UNL     1       8.101  10.256  10.447  1.00  0.00    -0.508 OA
ATOM    103  H   UNL     1       8.368  10.895   9.816  1.00  0.00     0.293 HD
ENDBRANCH  87 102
ENDBRANCH  76  77
ENDBRANCH  71  76
BRANCH  72 104
ATOM    104  O   UNL     1       5.752   3.563   2.433  1.00  0.00    -0.387 OA
ATOM    105  H   UNL     1       6.264   4.378   2.549  1.00  0.00     0.211 HD
ENDBRANCH  72 104
BRANCH  73 106
ATOM    106  O   UNL     1       3.147   3.929   3.868  1.00  0.00    -0.384 OA
ATOM    107  H   UNL     1       2.789   3.033   3.970  1.00  0.00     0.211 HD
ENDBRANCH  73 106
ENDBRANCH  65  68
ENDBRANCH   1  64
TORSDOF 21
