REMARK SMILES CC[NH2+]C(C)(C)C(=O)N[C@@](C)(C(=O)NCCCNC(=O)c1ccc(-c2c3nc(c(-c4c(F)cccc4F)c4ccc([nH]4)c(-c4c(F)cccc4F)c4nc(c(-c5c(F)cccc5F)c5ccc2[nH]5)C=C4)C=C3)cc1)C(F)(F)F
REMARK SMILES IDX 15 1 14 2 12 3 13 4 10 6 11 7 9 8 7 9 8 10 4 12 5 13 6 14
REMARK SMILES IDX 3 15 2 18 1 19 75 20 76 21 77 22 78 23 16 24 17 25 18 26
REMARK SMILES IDX 19 27 20 29 21 30 22 31 74 32 23 33 73 34 24 35 25 36 26 37
REMARK SMILES IDX 67 38 27 39 72 40 66 41 68 42 28 43 71 44 65 45 64 46 29 48
REMARK SMILES IDX 55 49 38 50 54 51 39 52 42 53 53 54 69 55 40 56 41 57 52 59
REMARK SMILES IDX 70 60 43 61 30 62 31 63 36 64 32 65 33 66 35 67 37 68 34 69
REMARK SMILES IDX 56 70 57 71 62 72 58 73 59 74 61 75 63 76 60 77 44 78 45 79
REMARK SMILES IDX 50 80 46 81 47 82 49 83 51 84 48 85
REMARK H PARENT 14 5 9 11 3 16 3 17 18 28 68 47 42 58
REMARK Flexibility Score: inf
ROOT
ATOM      1  C   UNL     1      -4.005  -6.354  -2.781  1.00  0.00     0.117 C 
ENDROOT
BRANCH   1   2
ATOM      2  N   UNL     1      -2.847  -6.255  -3.654  1.00  0.00    -0.354 N 
ATOM      3  C   UNL     1      -1.500  -6.217  -3.449  1.00  0.00     0.254 C 
ATOM      4  O   UNL     1      -0.834  -6.099  -4.481  1.00  0.00    -0.272 OA
ATOM      5  H   UNL     1      -3.090  -6.206  -4.607  1.00  0.00     0.163 HD
BRANCH   3   6
ATOM      6  C   UNL     1      -0.850  -6.248  -2.046  1.00  0.00     0.212 C 
ATOM      7  C   UNL     1      -1.337  -7.448  -1.202  1.00  0.00     0.056 C 
BRANCH   6   8
ATOM      8  N   UNL     1      -1.339  -4.977  -1.361  1.00  0.00    -0.329 N 
ATOM      9  C   UNL     1      -0.936  -3.751  -0.925  1.00  0.00     0.281 C 
ATOM     10  O   UNL     1      -1.880  -3.008  -0.628  1.00  0.00    -0.268 OA
ATOM     11  H   UNL     1      -2.297  -5.080  -1.161  1.00  0.00     0.165 HD
BRANCH   9  12
ATOM     12  C   UNL     1       0.546  -3.315  -0.779  1.00  0.00     0.169 C 
ATOM     13  C   UNL     1       1.185  -3.222  -2.169  1.00  0.00     0.090 C 
ATOM     14  C   UNL     1       1.218  -4.343   0.158  1.00  0.00     0.090 C 
BRANCH  12  15
ATOM     15  N   UNL     1       0.745  -2.042  -0.023  1.00  0.00    -0.334 N 
ATOM     16  H   UNL     1       0.303  -2.164   0.888  1.00  0.00     0.347 HD
ATOM     17  H   UNL     1       1.757  -1.913  -0.026  1.00  0.00     0.347 HD
BRANCH  15  18
ATOM     18  C   UNL     1       0.231  -0.797  -0.585  1.00  0.00     0.257 C 
ATOM     19  C   UNL     1       0.751   0.364   0.261  1.00  0.00     0.071 C 
ENDBRANCH  15  18
ENDBRANCH  12  15
ENDBRANCH   9  12
ENDBRANCH   6   8
BRANCH   6  20
ATOM     20  C   UNL     1       0.652  -6.584  -2.321  1.00  0.00     0.420 C 
ATOM     21  F   UNL     1       1.335  -5.681  -3.039  1.00  0.00    -0.168 F 
ATOM     22  F   UNL     1       1.341  -6.770  -1.169  1.00  0.00    -0.168 F 
ATOM     23  F   UNL     1       0.762  -7.770  -2.983  1.00  0.00    -0.168 F 
ENDBRANCH   6  20
ENDBRANCH   3   6
ENDBRANCH   1   2
BRANCH   1  24
ATOM     24  C   UNL     1      -5.010  -5.240  -3.026  1.00  0.00     0.042 C 
BRANCH  24  25
ATOM     25  C   UNL     1      -5.609  -5.227  -4.425  1.00  0.00     0.118 C 
BRANCH  25  26
ATOM     26  N   UNL     1      -6.339  -6.448  -4.740  1.00  0.00    -0.352 N 
ATOM     27  C   UNL     1      -7.670  -6.632  -5.023  1.00  0.00     0.251 C 
ATOM     28  H   UNL     1      -5.794  -7.267  -4.752  1.00  0.00     0.163 HD
ATOM     29  O   UNL     1      -8.127  -7.773  -5.078  1.00  0.00    -0.269 OA
BRANCH  27  30
ATOM     30  C   UNL     1      -8.558  -5.471  -5.235  1.00  0.00     0.039 A 
ATOM     31  C   UNL     1      -9.838  -5.486  -4.676  1.00  0.00     0.014 A 
ATOM     32  C   UNL     1      -8.136  -4.371  -5.985  1.00  0.00     0.014 A 
ATOM     33  C   UNL     1     -10.662  -4.366  -4.805  1.00  0.00     0.010 A 
ATOM     34  C   UNL     1      -8.917  -3.221  -6.029  1.00  0.00     0.010 A 
ATOM     35  C   UNL     1     -10.191  -3.207  -5.443  1.00  0.00    -0.014 A 
BRANCH  35  36
ATOM     36  C   UNL     1     -11.012  -1.971  -5.508  1.00  0.00     0.031 A 
ATOM     37  C   UNL     1     -11.431  -1.409  -6.838  1.00  0.00     0.074 A 
ATOM     38  C   UNL     1     -11.321  -1.317  -4.371  1.00  0.00     0.049 A 
ATOM     39  N   UNL     1     -12.085  -0.306  -7.101  1.00  0.00    -0.248 NA
ATOM     40  C   UNL     1     -11.041  -2.173  -8.035  1.00  0.00     0.031 C 
ATOM     41  C   UNL     1     -10.930  -1.731  -3.021  1.00  0.00     0.029 A 
ATOM     42  N   UNL     1     -12.026  -0.157  -4.169  1.00  0.00    -0.354 N 
ATOM     43  C   UNL     1     -12.169  -0.237  -8.486  1.00  0.00     0.074 A 
ATOM     44  C   UNL     1     -11.451  -1.378  -9.011  1.00  0.00     0.031 C 
ATOM     45  C   UNL     1     -11.424  -0.856  -2.132  1.00  0.00     0.029 A 
ATOM     46  C   UNL     1     -12.126   0.205  -2.847  1.00  0.00     0.049 A 
ATOM     47  H   UNL     1     -12.423   0.366  -4.902  1.00  0.00     0.167 HD
ATOM     48  C   UNL     1     -12.808   0.680  -9.251  1.00  0.00     0.037 A 
ATOM     49  C   UNL     1     -12.709   1.276  -2.276  1.00  0.00     0.037 A 
ATOM     50  C   UNL     1     -13.540   1.802  -8.724  1.00  0.00     0.049 A 
ATOM     51  C   UNL     1     -13.399   2.288  -3.150  1.00  0.00     0.074 A 
ATOM     52  C   UNL     1     -14.271   2.753  -9.414  1.00  0.00     0.029 A 
ATOM     53  N   UNL     1     -13.628   2.127  -7.379  1.00  0.00    -0.354 N 
ATOM     54  N   UNL     1     -13.533   2.301  -4.454  1.00  0.00    -0.248 NA
ATOM     55  C   UNL     1     -14.023   3.432  -2.470  1.00  0.00     0.031 C 
ATOM     56  C   UNL     1     -14.758   3.683  -8.491  1.00  0.00     0.029 A 
ATOM     57  C   UNL     1     -14.381   3.279  -7.220  1.00  0.00     0.049 A 
ATOM     58  H   UNL     1     -13.217   1.615  -6.646  1.00  0.00     0.167 HD
ATOM     59  C   UNL     1     -14.283   3.432  -4.748  1.00  0.00     0.074 A 
ATOM     60  C   UNL     1     -14.586   4.072  -3.485  1.00  0.00     0.031 C 
ATOM     61  C   UNL     1     -14.684   3.899  -5.955  1.00  0.00     0.037 A 
BRANCH  48  62
ATOM     62  C   UNL     1     -12.746   0.506 -10.742  1.00  0.00     0.057 A 
ATOM     63  C   UNL     1     -13.409  -0.542 -11.393  1.00  0.00     0.134 A 
ATOM     64  C   UNL     1     -12.048   1.422 -11.540  1.00  0.00     0.134 A 
ATOM     65  F   UNL     1     -14.087  -1.461 -10.688  1.00  0.00    -0.206 F 
ATOM     66  C   UNL     1     -13.360  -0.688 -12.781  1.00  0.00     0.040 A 
ATOM     67  C   UNL     1     -12.016   1.303 -12.931  1.00  0.00     0.040 A 
ATOM     68  F   UNL     1     -11.396   2.453 -10.983  1.00  0.00    -0.206 F 
ATOM     69  C   UNL     1     -12.668   0.242 -13.554  1.00  0.00     0.006 A 
ENDBRANCH  48  62
BRANCH  49  70
ATOM     70  C   UNL     1     -12.685   1.441  -0.800  1.00  0.00     0.057 A 
ATOM     71  C   UNL     1     -13.856   1.332  -0.041  1.00  0.00     0.134 A 
ATOM     72  C   UNL     1     -11.498   1.726  -0.114  1.00  0.00     0.134 A 
ATOM     73  F   UNL     1     -15.028   1.078  -0.642  1.00  0.00    -0.206 F 
ATOM     74  C   UNL     1     -13.854   1.524   1.341  1.00  0.00     0.040 A 
ATOM     75  C   UNL     1     -11.476   1.893   1.272  1.00  0.00     0.040 A 
ATOM     76  F   UNL     1     -10.339   1.835  -0.781  1.00  0.00    -0.206 F 
ATOM     77  C   UNL     1     -12.659   1.801   2.002  1.00  0.00     0.006 A 
ENDBRANCH  49  70
BRANCH  61  78
ATOM     78  C   UNL     1     -15.534   5.137  -5.968  1.00  0.00     0.057 A 
ATOM     79  C   UNL     1     -15.012   6.400  -5.660  1.00  0.00     0.134 A 
ATOM     80  C   UNL     1     -16.885   5.067  -6.333  1.00  0.00     0.134 A 
ATOM     81  F   UNL     1     -13.729   6.534  -5.290  1.00  0.00    -0.206 F 
ATOM     82  C   UNL     1     -15.810   7.545  -5.689  1.00  0.00     0.040 A 
ATOM     83  C   UNL     1     -17.684   6.209  -6.396  1.00  0.00     0.040 A 
ATOM     84  F   UNL     1     -17.445   3.890  -6.650  1.00  0.00    -0.206 F 
ATOM     85  C   UNL     1     -17.148   7.452  -6.066  1.00  0.00     0.006 A 
ENDBRANCH  61  78
ENDBRANCH  35  36
ENDBRANCH  27  30
ENDBRANCH  25  26
ENDBRANCH  24  25
ENDBRANCH   1  24
TORSDOF 15
