REMARK SMILES CCOC(=O)C1=NN(c2ccc(C)cc2Cl)[C@@](C)(C(=O)NCCCNC(=O)c2ccc(-c3c4nc(c(-c5c(F)cccc5F)c5ccc([nH]5)c(-c5c(F)cccc5F)c5nc(c(-c6c(F)cccc6F)c6ccc3[nH]6)C=C5)C=C4)cc2)C1
REMARK SMILES IDX 22 1 21 2 19 3 20 4 17 6 6 7 7 8 82 9 8 10 18 11 4 12 5 13
REMARK SMILES IDX 3 14 2 15 1 16 9 17 10 18 15 19 11 20 14 21 16 22 12 23
REMARK SMILES IDX 13 24 23 25 24 26 25 27 26 28 27 30 28 31 29 32 81 33 30 34
REMARK SMILES IDX 80 35 31 36 32 37 33 38 74 39 34 40 79 41 73 42 75 43 35 44
REMARK SMILES IDX 78 45 72 46 71 47 36 49 62 50 45 51 61 52 46 53 49 54 60 55
REMARK SMILES IDX 76 56 47 57 48 58 59 60 77 61 50 62 37 63 38 64 43 65 39 66
REMARK SMILES IDX 40 67 42 68 44 69 41 70 63 71 64 72 69 73 65 74 66 75 68 76
REMARK SMILES IDX 70 77 67 78 51 79 52 80 57 81 53 82 54 83 56 84 58 85 55 86
REMARK H PARENT 21 5 25 29 75 48 49 59
REMARK Flexibility Score: inf
ROOT
ATOM      1  C   UNL     1       6.348   7.375  -3.558  1.00  0.00     0.117 C 
ENDROOT
BRANCH   1   2
ATOM      2  N   UNL     1       6.327   6.439  -2.451  1.00  0.00    -0.354 N 
ATOM      3  C   UNL     1       5.644   5.298  -2.177  1.00  0.00     0.248 C 
ATOM      4  O   UNL     1       5.879   4.841  -1.048  1.00  0.00    -0.272 OA
ATOM      5  H   UNL     1       6.953   6.687  -1.733  1.00  0.00     0.163 HD
BRANCH   3   6
ATOM      6  C   UNL     1       4.668   4.565  -3.150  1.00  0.00     0.144 C 
ATOM      7  C   UNL     1       3.063   3.488  -1.862  1.00  0.00     0.149 C 
ATOM      8  N   UNL     1       2.461   4.562  -2.266  1.00  0.00    -0.169 NA
ATOM      9  C   UNL     1       4.355   3.172  -2.527  1.00  0.00     0.106 C 
ATOM     10  N   UNL     1       3.313   5.178  -3.146  1.00  0.00    -0.248 N 
ATOM     11  C   UNL     1       5.258   4.294  -4.531  1.00  0.00     0.048 C 
BRANCH   7  12
ATOM     12  C   UNL     1       2.504   2.545  -0.832  1.00  0.00     0.354 C 
ATOM     13  O   UNL     1       3.217   2.016   0.002  1.00  0.00    -0.245 OA
BRANCH  12  14
ATOM     14  O   UNL     1       1.187   2.356  -1.034  1.00  0.00    -0.461 OA
BRANCH  14  15
ATOM     15  C   UNL     1       0.532   1.522  -0.069  1.00  0.00     0.230 C 
ATOM     16  C   UNL     1       0.711   0.055  -0.415  1.00  0.00     0.049 C 
ENDBRANCH  14  15
ENDBRANCH  12  14
ENDBRANCH   7  12
BRANCH  10  17
ATOM     17  C   UNL     1       2.933   6.410  -3.669  1.00  0.00     0.079 A 
ATOM     18  C   UNL     1       3.025   6.637  -5.053  1.00  0.00     0.030 A 
ATOM     19  C   UNL     1       2.384   7.456  -2.893  1.00  0.00     0.066 A 
ATOM     20  C   UNL     1       2.639   7.850  -5.638  1.00  0.00     0.006 A 
ATOM     21  C   UNL     1       1.984   8.669  -3.479  1.00  0.00     0.026 A 
ATOM     22  Cl  UNL     1       2.297   7.387  -1.160  1.00  0.00    -0.082 Cl
ATOM     23  C   UNL     1       2.111   8.876  -4.855  1.00  0.00    -0.049 A 
ATOM     24  C   UNL     1       1.743  10.198  -5.459  1.00  0.00     0.044 C 
ENDBRANCH  10  17
ENDBRANCH   3   6
ENDBRANCH   1   2
BRANCH   1  25
ATOM     25  C   UNL     1       5.806   8.751  -3.179  1.00  0.00     0.042 C 
BRANCH  25  26
ATOM     26  C   UNL     1       6.515   9.454  -2.028  1.00  0.00     0.118 C 
BRANCH  26  27
ATOM     27  N   UNL     1       7.839   9.930  -2.389  1.00  0.00    -0.352 N 
ATOM     28  C   UNL     1       8.327  11.210  -2.473  1.00  0.00     0.251 C 
ATOM     29  H   UNL     1       8.489   9.223  -2.608  1.00  0.00     0.163 HD
ATOM     30  O   UNL     1       9.436  11.397  -2.968  1.00  0.00    -0.269 OA
BRANCH  28  31
ATOM     31  C   UNL     1       7.539  12.374  -2.000  1.00  0.00     0.039 A 
ATOM     32  C   UNL     1       7.548  13.539  -2.776  1.00  0.00     0.014 A 
ATOM     33  C   UNL     1       6.858  12.364  -0.778  1.00  0.00     0.014 A 
ATOM     34  C   UNL     1       6.840  14.669  -2.357  1.00  0.00     0.010 A 
ATOM     35  C   UNL     1       6.113  13.477  -0.381  1.00  0.00     0.010 A 
ATOM     36  C   UNL     1       6.102  14.641  -1.164  1.00  0.00    -0.014 A 
BRANCH  36  37
ATOM     37  C   UNL     1       5.340  15.834  -0.717  1.00  0.00     0.031 A 
ATOM     38  C   UNL     1       5.797  16.625   0.477  1.00  0.00     0.074 A 
ATOM     39  C   UNL     1       4.215  16.193  -1.362  1.00  0.00     0.049 A 
ATOM     40  N   UNL     1       5.225  17.652   1.054  1.00  0.00    -0.248 NA
ATOM     41  C   UNL     1       7.050  16.195   1.116  1.00  0.00     0.031 C 
ATOM     42  C   UNL     1       3.636  15.499  -2.513  1.00  0.00     0.029 A 
ATOM     43  N   UNL     1       3.355  17.239  -1.134  1.00  0.00    -0.354 N 
ATOM     44  C   UNL     1       6.018  17.959   2.150  1.00  0.00     0.074 A 
ATOM     45  C   UNL     1       7.122  17.021   2.151  1.00  0.00     0.031 C 
ATOM     46  C   UNL     1       2.530  16.152  -2.906  1.00  0.00     0.029 A 
ATOM     47  C   UNL     1       2.314  17.298  -2.026  1.00  0.00     0.049 A 
ATOM     48  H   UNL     1       3.474  17.885  -0.401  1.00  0.00     0.167 HD
ATOM     49  C   UNL     1       5.844  18.931   3.076  1.00  0.00     0.037 A 
ATOM     50  C   UNL     1       1.302  18.178  -2.127  1.00  0.00     0.037 A 
ATOM     51  C   UNL     1       4.793  19.910   3.056  1.00  0.00     0.049 A 
ATOM     52  C   UNL     1       1.191  19.311  -1.151  1.00  0.00     0.074 A 
ATOM     53  C   UNL     1       4.568  20.957   3.934  1.00  0.00     0.029 A 
ATOM     54  N   UNL     1       3.799  19.974   2.094  1.00  0.00    -0.354 N 
ATOM     55  N   UNL     1       1.952  19.589  -0.123  1.00  0.00    -0.248 NA
ATOM     56  C   UNL     1       0.078  20.252  -1.352  1.00  0.00     0.031 C 
ATOM     57  C   UNL     1       3.437  21.659   3.499  1.00  0.00     0.029 A 
ATOM     58  C   UNL     1       2.963  21.048   2.351  1.00  0.00     0.049 A 
ATOM     59  H   UNL     1       3.700  19.349   1.340  1.00  0.00     0.167 HD
ATOM     60  C   UNL     1       1.414  20.734   0.446  1.00  0.00     0.074 A 
ATOM     61  C   UNL     1       0.266  21.106  -0.355  1.00  0.00     0.031 C 
ATOM     62  C   UNL     1       1.834  21.412   1.540  1.00  0.00     0.037 A 
BRANCH  49  63
ATOM     63  C   UNL     1       6.820  18.969   4.207  1.00  0.00     0.057 A 
ATOM     64  C   UNL     1       8.041  19.643   4.098  1.00  0.00     0.134 A 
ATOM     65  C   UNL     1       6.524  18.340   5.422  1.00  0.00     0.134 A 
ATOM     66  F   UNL     1       8.381  20.252   2.953  1.00  0.00    -0.206 F 
ATOM     67  C   UNL     1       8.942  19.685   5.163  1.00  0.00     0.040 A 
ATOM     68  C   UNL     1       7.415  18.379   6.495  1.00  0.00     0.040 A 
ATOM     69  F   UNL     1       5.371  17.674   5.580  1.00  0.00    -0.206 F 
ATOM     70  C   UNL     1       8.628  19.053   6.366  1.00  0.00     0.006 A 
ENDBRANCH  49  63
BRANCH  50  71
ATOM     71  C   UNL     1       0.316  18.036  -3.219  1.00  0.00     0.057 A 
ATOM     72  C   UNL     1       0.472  18.738  -4.419  1.00  0.00     0.134 A 
ATOM     73  C   UNL     1      -0.796  17.201  -3.088  1.00  0.00     0.134 A 
ATOM     74  F   UNL     1       1.516  19.562  -4.588  1.00  0.00    -0.206 F 
ATOM     75  C   UNL     1      -0.452  18.616  -5.456  1.00  0.00     0.040 A 
ATOM     76  C   UNL     1      -1.726  17.066  -4.119  1.00  0.00     0.040 A 
ATOM     77  F   UNL     1      -0.994  16.510  -1.956  1.00  0.00    -0.206 F 
ATOM     78  C   UNL     1      -1.555  17.776  -5.308  1.00  0.00     0.006 A 
ENDBRANCH  50  71
BRANCH  62  79
ATOM     79  C   UNL     1       1.056  22.628   1.923  1.00  0.00     0.057 A 
ATOM     80  C   UNL     1      -0.065  22.538   2.755  1.00  0.00     0.134 A 
ATOM     81  C   UNL     1       1.442  23.898   1.478  1.00  0.00     0.134 A 
ATOM     82  F   UNL     1      -0.485  21.345   3.202  1.00  0.00    -0.206 F 
ATOM     83  C   UNL     1      -0.781  23.674   3.132  1.00  0.00     0.040 A 
ATOM     84  C   UNL     1       0.735  25.041   1.851  1.00  0.00     0.040 A 
ATOM     85  F   UNL     1       2.504  24.042   0.672  1.00  0.00    -0.206 F 
ATOM     86  C   UNL     1      -0.380  24.931   2.681  1.00  0.00     0.006 A 
ENDBRANCH  62  79
ENDBRANCH  36  37
ENDBRANCH  28  31
ENDBRANCH  26  27
ENDBRANCH  25  26
ENDBRANCH   1  25
TORSDOF 14
