REMARK SMILES CO[C@H]1C[C@H](C(=O)NCCCNC(=O)c2ccc(-c3c4nc(c(-c5c(F)cccc5F)c5ccc([nH]5)c(-c5c(F)cccc5F)c5nc(c(-c6c(F)cccc6F)c6ccc3[nH]6)C=C5)C=C4)cc2)N(C(=O)[C@H]2C=C[C@@H]([NH3+])C2)C1
REMARK SMILES IDX 9 1 8 2 6 3 7 4 5 6 3 7 4 8 78 9 69 10 2 11 1 12 70 13 71 14
REMARK SMILES IDX 72 15 73 16 77 17 74 18 75 19 76 20 10 24 11 25 12 26 13 27
REMARK SMILES IDX 14 29 15 30 16 31 68 32 17 33 67 34 18 35 19 36 20 37 61 38
REMARK SMILES IDX 21 39 66 40 60 41 62 42 22 43 65 44 59 45 58 46 23 48 49 49
REMARK SMILES IDX 32 50 48 51 33 52 36 53 47 54 63 55 34 56 35 57 46 59 64 60
REMARK SMILES IDX 37 61 24 62 25 63 30 64 26 65 27 66 29 67 31 68 28 69 50 70
REMARK SMILES IDX 51 71 56 72 52 73 53 74 55 75 57 76 54 77 38 78 39 79 44 80
REMARK SMILES IDX 40 81 41 82 43 83 45 84 42 85
REMARK H PARENT 8 5 76 21 76 22 76 23 12 28 62 47 36 58
REMARK Flexibility Score: inf
ROOT
ATOM      1  C   UNL     1       1.584   2.101  -1.550  1.00  0.00     0.117 C 
ENDROOT
BRANCH   1   2
ATOM      2  N   UNL     1       0.832   3.338  -1.629  1.00  0.00    -0.354 N 
ATOM      3  C   UNL     1       0.494   4.268  -0.699  1.00  0.00     0.242 C 
ATOM      4  O   UNL     1      -0.347   5.102  -1.062  1.00  0.00    -0.273 OA
ATOM      5  H   UNL     1       0.501   3.543  -2.533  1.00  0.00     0.163 HD
BRANCH   3   6
ATOM      6  C   UNL     1       0.939   4.251   0.785  1.00  0.00     0.177 C 
ATOM      7  C   UNL     1       0.986   2.100   1.910  1.00  0.00     0.139 C 
ATOM      8  C   UNL     1       0.076   3.292   1.619  1.00  0.00     0.069 C 
ATOM      9  C   UNL     1       2.389   2.692   1.933  1.00  0.00     0.152 C 
ATOM     10  N   UNL     1       2.322   3.924   1.153  1.00  0.00    -0.327 N 
BRANCH   7  11
ATOM     11  O   UNL     1       0.639   1.291   3.024  1.00  0.00    -0.380 OA
ATOM     12  C   UNL     1       0.455   1.944   4.268  1.00  0.00     0.195 C 
ENDBRANCH   7  11
BRANCH  10  13
ATOM     13  C   UNL     1       3.458   4.703   1.096  1.00  0.00     0.230 C 
ATOM     14  O   UNL     1       4.532   4.238   1.501  1.00  0.00    -0.274 OA
BRANCH  13  15
ATOM     15  C   UNL     1       3.453   6.153   0.594  1.00  0.00     0.107 C 
ATOM     16  C   UNL     1       2.894   6.381  -0.773  1.00  0.00    -0.012 C 
ATOM     17  C   UNL     1       2.687   7.149   1.472  1.00  0.00     0.087 C 
ATOM     18  C   UNL     1       2.181   7.512  -0.821  1.00  0.00     0.033 C 
ATOM     19  C   UNL     1       2.141   8.207   0.500  1.00  0.00     0.205 C 
BRANCH  19  20
ATOM     20  N   UNL     1       0.798   8.628   0.852  1.00  0.00    -0.352 N 
ATOM     21  H   UNL     1       0.181   7.816   0.866  1.00  0.00     0.345 HD
ATOM     22  H   UNL     1       0.461   9.300   0.163  1.00  0.00     0.345 HD
ATOM     23  H   UNL     1       0.809   9.063   1.774  1.00  0.00     0.345 HD
ENDBRANCH  19  20
ENDBRANCH  13  15
ENDBRANCH  10  13
ENDBRANCH   3   6
ENDBRANCH   1   2
BRANCH   1  24
ATOM     24  C   UNL     1       0.657   0.891  -1.413  1.00  0.00     0.042 C 
BRANCH  24  25
ATOM     25  C   UNL     1       0.029   0.420  -2.720  1.00  0.00     0.118 C 
BRANCH  25  26
ATOM     26  N   UNL     1       0.988  -0.252  -3.583  1.00  0.00    -0.352 N 
ATOM     27  C   UNL     1       1.010  -1.538  -4.065  1.00  0.00     0.251 C 
ATOM     28  H   UNL     1       1.746   0.308  -3.868  1.00  0.00     0.163 HD
ATOM     29  O   UNL     1       2.028  -1.948  -4.615  1.00  0.00    -0.269 OA
BRANCH  27  30
ATOM     30  C   UNL     1      -0.160  -2.441  -3.932  1.00  0.00     0.039 A 
ATOM     31  C   UNL     1       0.071  -3.802  -3.703  1.00  0.00     0.014 A 
ATOM     32  C   UNL     1      -1.469  -1.985  -4.104  1.00  0.00     0.014 A 
ATOM     33  C   UNL     1      -1.004  -4.691  -3.600  1.00  0.00     0.010 A 
ATOM     34  C   UNL     1      -2.544  -2.858  -3.930  1.00  0.00     0.010 A 
ATOM     35  C   UNL     1      -2.323  -4.223  -3.688  1.00  0.00    -0.014 A 
BRANCH  35  36
ATOM     36  C   UNL     1      -3.482  -5.144  -3.554  1.00  0.00     0.031 A 
ATOM     37  C   UNL     1      -4.413  -5.364  -4.716  1.00  0.00     0.074 A 
ATOM     38  C   UNL     1      -3.733  -5.739  -2.371  1.00  0.00     0.049 A 
ATOM     39  N   UNL     1      -5.525  -6.053  -4.768  1.00  0.00    -0.248 NA
ATOM     40  C   UNL     1      -4.059  -4.701  -5.981  1.00  0.00     0.031 C 
ATOM     41  C   UNL     1      -2.931  -5.580  -1.156  1.00  0.00     0.029 A 
ATOM     42  N   UNL     1      -4.744  -6.587  -1.992  1.00  0.00    -0.354 N 
ATOM     43  C   UNL     1      -6.013  -5.888  -6.059  1.00  0.00     0.074 A 
ATOM     44  C   UNL     1      -5.100  -5.000  -6.745  1.00  0.00     0.031 C 
ATOM     45  C   UNL     1      -3.471  -6.319  -0.173  1.00  0.00     0.029 A 
ATOM     46  C   UNL     1      -4.675  -6.974  -0.676  1.00  0.00     0.049 A 
ATOM     47  H   UNL     1      -5.452  -6.889  -2.607  1.00  0.00     0.167 HD
ATOM     48  C   UNL     1      -7.111  -6.441  -6.628  1.00  0.00     0.037 A 
ATOM     49  C   UNL     1      -5.494  -7.761   0.047  1.00  0.00     0.037 A 
ATOM     50  C   UNL     1      -7.999  -7.354  -5.958  1.00  0.00     0.049 A 
ATOM     51  C   UNL     1      -6.701  -8.371  -0.611  1.00  0.00     0.074 A 
ATOM     52  C   UNL     1      -9.107  -8.010  -6.466  1.00  0.00     0.029 A 
ATOM     53  N   UNL     1      -7.877  -7.743  -4.633  1.00  0.00    -0.354 N 
ATOM     54  N   UNL     1      -7.121  -8.244  -1.846  1.00  0.00    -0.248 NA
ATOM     55  C   UNL     1      -7.545  -9.237   0.225  1.00  0.00     0.031 C 
ATOM     56  C   UNL     1      -9.673  -8.774  -5.440  1.00  0.00     0.029 A 
ATOM     57  C   UNL     1      -8.895  -8.622  -4.304  1.00  0.00     0.049 A 
ATOM     58  H   UNL     1      -7.170  -7.441  -4.018  1.00  0.00     0.167 HD
ATOM     59  C   UNL     1      -8.259  -9.033  -1.944  1.00  0.00     0.074 A 
ATOM     60  C   UNL     1      -8.457  -9.646  -0.646  1.00  0.00     0.031 C 
ATOM     61  C   UNL     1      -9.069  -9.232  -3.011  1.00  0.00     0.037 A 
BRANCH  48  62
ATOM     62  C   UNL     1      -7.408  -6.083  -8.055  1.00  0.00     0.057 A 
ATOM     63  C   UNL     1      -6.629  -6.567  -9.114  1.00  0.00     0.134 A 
ATOM     64  C   UNL     1      -8.509  -5.279  -8.378  1.00  0.00     0.134 A 
ATOM     65  F   UNL     1      -5.554  -7.333  -8.872  1.00  0.00    -0.206 F 
ATOM     66  C   UNL     1      -6.920  -6.246 -10.441  1.00  0.00     0.040 A 
ATOM     67  C   UNL     1      -8.825  -4.972  -9.702  1.00  0.00     0.040 A 
ATOM     68  F   UNL     1      -9.300  -4.787  -7.412  1.00  0.00    -0.206 F 
ATOM     69  C   UNL     1      -8.026  -5.452 -10.738  1.00  0.00     0.006 A 
ENDBRANCH  48  62
BRANCH  49  70
ATOM     70  C   UNL     1      -5.194  -8.037   1.474  1.00  0.00     0.057 A 
ATOM     71  C   UNL     1      -4.768  -9.305   1.889  1.00  0.00     0.134 A 
ATOM     72  C   UNL     1      -5.339  -7.051   2.457  1.00  0.00     0.134 A 
ATOM     73  F   UNL     1      -4.630 -10.295   0.995  1.00  0.00    -0.206 F 
ATOM     74  C   UNL     1      -4.516  -9.589   3.232  1.00  0.00     0.040 A 
ATOM     75  C   UNL     1      -5.068  -7.315   3.801  1.00  0.00     0.040 A 
ATOM     76  F   UNL     1      -5.738  -5.816   2.123  1.00  0.00    -0.206 F 
ATOM     77  C   UNL     1      -4.662  -8.589   4.192  1.00  0.00     0.006 A 
ENDBRANCH  49  70
BRANCH  61  78
ATOM     78  C   UNL     1     -10.220 -10.177  -2.831  1.00  0.00     0.057 A 
ATOM     79  C   UNL     1     -11.357  -9.822  -2.096  1.00  0.00     0.134 A 
ATOM     80  C   UNL     1     -10.203 -11.441  -3.432  1.00  0.00     0.134 A 
ATOM     81  F   UNL     1     -11.428  -8.630  -1.485  1.00  0.00    -0.206 F 
ATOM     82  C   UNL     1     -12.431 -10.701  -1.948  1.00  0.00     0.040 A 
ATOM     83  C   UNL     1     -11.280 -12.320  -3.311  1.00  0.00     0.040 A 
ATOM     84  F   UNL     1      -9.145 -11.838  -4.156  1.00  0.00    -0.206 F 
ATOM     85  C   UNL     1     -12.396 -11.952  -2.562  1.00  0.00     0.006 A 
ENDBRANCH  61  78
ENDBRANCH  35  36
ENDBRANCH  27  30
ENDBRANCH  25  26
ENDBRANCH  24  25
ENDBRANCH   1  24
TORSDOF 14
