REMARK SMILES C[C@@H](C(=O)NCCCNC(=O)c1ccc(-c2c3nc(c(-c4c(F)cccc4F)c4ccc([nH]4)c(-c4c(F)cccc4F)c4nc(c(-c5c(F)cccc5F)c5ccc2[nH]5)C=C4)C=C3)cc1)S(=O)(=O)N[C@@]12C[C@@H]3C[C@@](C)(C[C@@](C)(C3)C1)C2
REMARK SMILES IDX 6 1 5 2 3 3 4 4 2 6 1 7 66 8 67 9 68 10 69 11 70 13 71 14
REMARK SMILES IDX 80 15 81 16 72 17 77 18 74 19 79 20 73 21 76 22 78 23 75 24
REMARK SMILES IDX 7 25 8 26 9 27 10 28 11 30 12 31 13 32 65 33 14 34 64 35
REMARK SMILES IDX 15 36 16 37 17 38 58 39 18 40 63 41 57 42 59 43 19 44 62 45
REMARK SMILES IDX 56 46 55 47 20 49 46 50 29 51 45 52 30 53 33 54 44 55 60 56
REMARK SMILES IDX 31 57 32 58 43 60 61 61 34 62 21 63 22 64 27 65 23 66 24 67
REMARK SMILES IDX 26 68 28 69 25 70 47 71 48 72 53 73 49 74 50 75 52 76 54 77
REMARK SMILES IDX 51 78 35 79 36 80 41 81 37 82 38 83 40 84 42 85 39 86
REMARK H PARENT 5 5 69 12 9 29 59 48 33 59
REMARK Flexibility Score: inf
ROOT
ATOM      1  C   UNL     1       3.509   1.689  -1.542  1.00  0.00     0.117 C 
ENDROOT
BRANCH   1   2
ATOM      2  N   UNL     1       2.368   1.335  -2.366  1.00  0.00    -0.355 N 
ATOM      3  C   UNL     1       1.038   1.184  -2.095  1.00  0.00     0.239 C 
ATOM      4  O   UNL     1       0.386   0.695  -3.019  1.00  0.00    -0.274 OA
ATOM      5  H   UNL     1       2.598   1.172  -3.309  1.00  0.00     0.163 HD
BRANCH   3   6
ATOM      6  C   UNL     1       0.421   1.689  -0.801  1.00  0.00     0.209 C 
ATOM      7  C   UNL     1       1.111   1.351   0.523  1.00  0.00     0.037 C 
BRANCH   6   8
ATOM      8  S   UNL     1      -1.365   1.324  -0.770  1.00  0.00     0.223 S 
ATOM      9  O   UNL     1      -1.839   1.494   0.594  1.00  0.00    -0.212 OA
ATOM     10  O   UNL     1      -1.990   2.115  -1.806  1.00  0.00    -0.212 OA
BRANCH   8  11
ATOM     11  N   UNL     1      -1.630  -0.261  -1.216  1.00  0.00    -0.208 NA
ATOM     12  H   UNL     1      -1.159  -0.351  -2.116  1.00  0.00     0.141 HD
BRANCH  11  13
ATOM     13  C   UNL     1      -1.287  -1.501  -0.497  1.00  0.00     0.034 C 
ATOM     14  C   UNL     1       0.232  -1.725  -0.505  1.00  0.00     0.027 C 
ATOM     15  C   UNL     1      -1.854  -1.491   0.932  1.00  0.00     0.030 C 
ATOM     16  C   UNL     1      -1.904  -2.726  -1.232  1.00  0.00     0.030 C 
ATOM     17  C   UNL     1       0.616  -2.982   0.273  1.00  0.00    -0.008 C 
ATOM     18  C   UNL     1      -1.478  -2.779   1.694  1.00  0.00    -0.030 C 
ATOM     19  C   UNL     1      -1.522  -4.053  -0.510  1.00  0.00    -0.030 C 
ATOM     20  C   UNL     1       0.066  -2.883   1.706  1.00  0.00     0.010 C 
ATOM     21  C   UNL     1       0.016  -4.189  -0.445  1.00  0.00     0.010 C 
ATOM     22  C   UNL     1      -2.056  -3.998   0.939  1.00  0.00     0.013 C 
ATOM     23  C   UNL     1      -2.031  -2.718   3.127  1.00  0.00     0.011 C 
ATOM     24  C   UNL     1      -2.099  -5.265  -1.246  1.00  0.00     0.011 C 
ENDBRANCH  11  13
ENDBRANCH   8  11
ENDBRANCH   6   8
ENDBRANCH   3   6
ENDBRANCH   1   2
BRANCH   1  25
ATOM     25  C   UNL     1       4.375   0.456  -1.270  1.00  0.00     0.042 C 
BRANCH  25  26
ATOM     26  C   UNL     1       5.129  -0.044  -2.504  1.00  0.00     0.118 C 
BRANCH  26  27
ATOM     27  N   UNL     1       6.113   0.921  -2.973  1.00  0.00    -0.352 N 
ATOM     28  C   UNL     1       7.469   0.794  -3.134  1.00  0.00     0.251 C 
ATOM     29  H   UNL     1       5.748   1.804  -3.211  1.00  0.00     0.163 HD
ATOM     30  O   UNL     1       8.153   1.797  -3.315  1.00  0.00    -0.269 OA
BRANCH  28  31
ATOM     31  C   UNL     1       8.112  -0.535  -3.088  1.00  0.00     0.039 A 
ATOM     32  C   UNL     1       9.343  -0.665  -2.437  1.00  0.00     0.014 A 
ATOM     33  C   UNL     1       7.537  -1.639  -3.724  1.00  0.00     0.014 A 
ATOM     34  C   UNL     1       9.968  -1.912  -2.378  1.00  0.00     0.010 A 
ATOM     35  C   UNL     1       8.125  -2.895  -3.603  1.00  0.00     0.010 A 
ATOM     36  C   UNL     1       9.349  -3.043  -2.933  1.00  0.00    -0.014 A 
BRANCH  36  37
ATOM     37  C   UNL     1       9.965  -4.389  -2.819  1.00  0.00     0.031 A 
ATOM     38  C   UNL     1      10.409  -5.129  -4.050  1.00  0.00     0.074 A 
ATOM     39  C   UNL     1      10.067  -4.970  -1.607  1.00  0.00     0.049 A 
ATOM     40  N   UNL     1      10.903  -6.337  -4.156  1.00  0.00    -0.248 NA
ATOM     41  C   UNL     1      10.253  -4.430  -5.336  1.00  0.00     0.031 C 
ATOM     42  C   UNL     1       9.633  -4.371  -0.344  1.00  0.00     0.029 A 
ATOM     43  N   UNL     1      10.557  -6.198  -1.242  1.00  0.00    -0.354 N 
ATOM     44  C   UNL     1      11.104  -6.546  -5.515  1.00  0.00     0.074 A 
ATOM     45  C   UNL     1      10.629  -5.363  -6.199  1.00  0.00     0.031 C 
ATOM     46  C   UNL     1       9.897  -5.223   0.660  1.00  0.00     0.029 A 
ATOM     47  C   UNL     1      10.478  -6.443   0.108  1.00  0.00     0.049 A 
ATOM     48  H   UNL     1      10.931  -6.843  -1.885  1.00  0.00     0.167 HD
ATOM     49  C   UNL     1      11.655  -7.617  -6.134  1.00  0.00     0.037 A 
ATOM     50  C   UNL     1      10.824  -7.532   0.820  1.00  0.00     0.037 A 
ATOM     51  C   UNL     1      12.143  -8.785  -5.447  1.00  0.00     0.049 A 
ATOM     52  C   UNL     1      11.419  -8.714   0.106  1.00  0.00     0.074 A 
ATOM     53  C   UNL     1      12.767  -9.900  -5.978  1.00  0.00     0.029 A 
ATOM     54  N   UNL     1      12.056  -8.990  -4.078  1.00  0.00    -0.354 N 
ATOM     55  N   UNL     1      11.664  -8.871  -1.172  1.00  0.00    -0.248 NA
ATOM     56  C   UNL     1      11.791  -9.869   0.936  1.00  0.00     0.031 C 
ATOM     57  C   UNL     1      13.013 -10.801  -4.937  1.00  0.00     0.029 A 
ATOM     58  C   UNL     1      12.594 -10.224  -3.750  1.00  0.00     0.049 A 
ATOM     59  H   UNL     1      11.669  -8.353  -3.434  1.00  0.00     0.167 HD
ATOM     60  C   UNL     1      12.247 -10.126  -1.296  1.00  0.00     0.074 A 
ATOM     61  C   UNL     1      12.330 -10.682   0.039  1.00  0.00     0.031 C 
ATOM     62  C   UNL     1      12.677 -10.760  -2.415  1.00  0.00     0.037 A 
BRANCH  49  63
ATOM     63  C   UNL     1      11.759  -7.577  -7.632  1.00  0.00     0.057 A 
ATOM     64  C   UNL     1      12.642  -6.710  -8.289  1.00  0.00     0.134 A 
ATOM     65  C   UNL     1      10.994  -8.440  -8.427  1.00  0.00     0.134 A 
ATOM     66  F   UNL     1      13.397  -5.849  -7.589  1.00  0.00    -0.206 F 
ATOM     67  C   UNL     1      12.741  -6.683  -9.682  1.00  0.00     0.040 A 
ATOM     68  C   UNL     1      11.105  -8.444  -9.818  1.00  0.00     0.040 A 
ATOM     69  F   UNL     1      10.133  -9.301  -7.864  1.00  0.00    -0.206 F 
ATOM     70  C   UNL     1      11.976  -7.558 -10.450  1.00  0.00     0.006 A 
ENDBRANCH  49  63
BRANCH  50  71
ATOM     71  C   UNL     1      10.636  -7.549   2.292  1.00  0.00     0.057 A 
ATOM     72  C   UNL     1      11.734  -7.535   3.161  1.00  0.00     0.134 A 
ATOM     73  C   UNL     1       9.360  -7.587   2.868  1.00  0.00     0.134 A 
ATOM     74  F   UNL     1      12.982  -7.516   2.670  1.00  0.00    -0.206 F 
ATOM     75  C   UNL     1      11.572  -7.581   4.546  1.00  0.00     0.040 A 
ATOM     76  C   UNL     1       9.182  -7.605   4.252  1.00  0.00     0.040 A 
ATOM     77  F   UNL     1       8.266  -7.591   2.091  1.00  0.00    -0.206 F 
ATOM     78  C   UNL     1      10.291  -7.612   5.095  1.00  0.00     0.006 A 
ENDBRANCH  50  71
BRANCH  62  79
ATOM     79  C   UNL     1      13.313 -12.108  -2.240  1.00  0.00     0.057 A 
ATOM     80  C   UNL     1      12.566 -13.243  -1.898  1.00  0.00     0.134 A 
ATOM     81  C   UNL     1      14.687 -12.279  -2.456  1.00  0.00     0.134 A 
ATOM     82  F   UNL     1      11.249 -13.145  -1.665  1.00  0.00    -0.206 F 
ATOM     83  C   UNL     1      13.167 -14.495  -1.755  1.00  0.00     0.040 A 
ATOM     84  C   UNL     1      15.294 -13.530  -2.344  1.00  0.00     0.040 A 
ATOM     85  F   UNL     1      15.458 -11.235  -2.794  1.00  0.00    -0.206 F 
ATOM     86  C   UNL     1      14.534 -14.642  -1.986  1.00  0.00     0.006 A 
ENDBRANCH  62  79
ENDBRANCH  36  37
ENDBRANCH  28  31
ENDBRANCH  26  27
ENDBRANCH  25  26
ENDBRANCH   1  25
TORSDOF 13
