REMARK SMILES O=C(Cc1ccc(S(=O)(=O)CC(=O)NCC2CC2)cc1)NCCCNC(=O)c1ccc(-c2c3nc(c(-c4c(F)cccc4F)c4ccc([nH]4)c(-c4c(F)cccc4F)c4nc(c(-c5c(F)cccc5F)c5ccc2[nH]5)C=C4)C=C3)cc1
REMARK SMILES IDX 1 1 2 2 21 3 3 5 4 6 5 7 20 8 6 9 19 10 7 11 8 12 9 13 10 14
REMARK SMILES IDX 11 15 12 16 13 17 14 18 15 20 16 21 17 22 18 23 22 24 23 25
REMARK SMILES IDX 24 26 25 27 26 28 27 30 28 31 29 32 81 33 30 34 80 35 31 36
REMARK SMILES IDX 32 37 33 38 74 39 34 40 79 41 73 42 75 43 35 44 78 45 72 46
REMARK SMILES IDX 71 47 36 49 62 50 45 51 61 52 46 53 49 54 60 55 76 56 47 57
REMARK SMILES IDX 48 58 59 60 77 61 50 62 37 63 38 64 43 65 39 66 40 67 42 68
REMARK SMILES IDX 44 69 41 70 63 71 64 72 69 73 65 74 66 75 68 76 70 77 67 78
REMARK SMILES IDX 51 79 52 80 57 81 53 82 54 83 56 84 58 85 55 86
REMARK H PARENT 21 4 14 19 25 29 75 48 49 59
REMARK Flexibility Score: inf
ROOT
ATOM      1  O   UNL     1       1.072  -0.327  -0.622  1.00  0.00    -0.275 OA
ATOM      2  C   UNL     1       2.178  -0.067  -0.160  1.00  0.00     0.224 C 
ATOM      3  N   UNL     1       2.708   1.207  -0.113  1.00  0.00    -0.356 N 
ATOM      4  H   UNL     1       3.553   1.354   0.370  1.00  0.00     0.163 HD
ENDROOT
BRANCH   2   5
ATOM      5  C   UNL     1       3.109  -1.133   0.396  1.00  0.00     0.135 C 
BRANCH   5   6
ATOM      6  C   UNL     1       4.066  -1.662  -0.648  1.00  0.00    -0.039 A 
ATOM      7  C   UNL     1       3.896  -2.951  -1.170  1.00  0.00     0.005 A 
ATOM      8  C   UNL     1       5.130  -0.876  -1.119  1.00  0.00     0.005 A 
ATOM      9  C   UNL     1       4.760  -3.434  -2.154  1.00  0.00     0.020 A 
ATOM     10  C   UNL     1       6.005  -1.359  -2.095  1.00  0.00     0.020 A 
ATOM     11  C   UNL     1       5.805  -2.631  -2.623  1.00  0.00     0.067 A 
BRANCH  11  12
ATOM     12  S   UNL     1       6.885  -3.290  -3.865  1.00  0.00     0.187 S 
ATOM     13  O   UNL     1       8.066  -3.740  -3.154  1.00  0.00    -0.223 OA
ATOM     14  O   UNL     1       6.103  -4.251  -4.629  1.00  0.00    -0.223 OA
BRANCH  12  15
ATOM     15  C   UNL     1       7.395  -2.029  -4.976  1.00  0.00     0.241 C 
BRANCH  15  16
ATOM     16  C   UNL     1       6.317  -1.070  -5.362  1.00  0.00     0.235 C 
ATOM     17  O   UNL     1       6.218   0.021  -4.793  1.00  0.00    -0.274 OA
ATOM     18  N   UNL     1       5.484  -1.318  -6.404  1.00  0.00    -0.355 N 
ATOM     19  H   UNL     1       4.930  -0.554  -6.688  1.00  0.00     0.163 HD
BRANCH  18  20
ATOM     20  C   UNL     1       5.286  -2.534  -7.163  1.00  0.00     0.119 C 
BRANCH  20  21
ATOM     21  C   UNL     1       3.940  -3.081  -6.810  1.00  0.00     0.008 C 
ATOM     22  C   UNL     1       2.740  -2.779  -7.672  1.00  0.00     0.006 C 
ATOM     23  C   UNL     1       3.312  -4.170  -7.639  1.00  0.00     0.006 C 
ENDBRANCH  20  21
ENDBRANCH  18  20
ENDBRANCH  15  16
ENDBRANCH  12  15
ENDBRANCH  11  12
ENDBRANCH   5   6
ENDBRANCH   2   5
BRANCH   3  24
ATOM     24  C   UNL     1       2.062   2.335  -0.751  1.00  0.00     0.117 C 
BRANCH  24  25
ATOM     25  C   UNL     1       2.333   3.651  -0.033  1.00  0.00     0.042 C 
BRANCH  25  26
ATOM     26  C   UNL     1       3.800   4.066   0.036  1.00  0.00     0.118 C 
BRANCH  26  27
ATOM     27  N   UNL     1       4.387   4.359  -1.260  1.00  0.00    -0.352 N 
ATOM     28  C   UNL     1       5.155   5.428  -1.655  1.00  0.00     0.251 C 
ATOM     29  H   UNL     1       4.207   3.692  -1.961  1.00  0.00     0.163 HD
ATOM     30  O   UNL     1       5.454   5.551  -2.841  1.00  0.00    -0.269 OA
BRANCH  28  31
ATOM     31  C   UNL     1       5.606   6.452  -0.682  1.00  0.00     0.039 A 
ATOM     32  C   UNL     1       5.601   7.793  -1.080  1.00  0.00     0.014 A 
ATOM     33  C   UNL     1       6.076   6.112   0.590  1.00  0.00     0.014 A 
ATOM     34  C   UNL     1       6.022   8.789  -0.195  1.00  0.00     0.010 A 
ATOM     35  C   UNL     1       6.425   7.112   1.499  1.00  0.00     0.010 A 
ATOM     36  C   UNL     1       6.418   8.461   1.112  1.00  0.00    -0.014 A 
BRANCH  36  37
ATOM     37  C   UNL     1       6.852   9.520   2.062  1.00  0.00     0.031 A 
ATOM     38  C   UNL     1       8.272   9.563   2.560  1.00  0.00     0.074 A 
ATOM     39  C   UNL     1       5.963  10.434   2.498  1.00  0.00     0.049 A 
ATOM     40  N   UNL     1       8.835  10.412   3.383  1.00  0.00    -0.248 NA
ATOM     41  C   UNL     1       9.172   8.497   2.092  1.00  0.00     0.031 C 
ATOM     42  C   UNL     1       4.545  10.476   2.138  1.00  0.00     0.029 A 
ATOM     43  N   UNL     1       6.124  11.505   3.341  1.00  0.00    -0.354 N 
ATOM     44  C   UNL     1      10.146   9.978   3.539  1.00  0.00     0.074 A 
ATOM     45  C   UNL     1      10.279   8.759   2.771  1.00  0.00     0.031 C 
ATOM     46  C   UNL     1       3.973  11.537   2.730  1.00  0.00     0.029 A 
ATOM     47  C   UNL     1       4.975  12.235   3.530  1.00  0.00     0.049 A 
ATOM     48  H   UNL     1       6.981  11.729   3.770  1.00  0.00     0.167 HD
ATOM     49  C   UNL     1      11.156  10.553   4.235  1.00  0.00     0.037 A 
ATOM     50  C   UNL     1       4.756  13.348   4.256  1.00  0.00     0.037 A 
ATOM     51  C   UNL     1      11.035  11.781   4.977  1.00  0.00     0.049 A 
ATOM     52  C   UNL     1       5.900  13.984   4.997  1.00  0.00     0.074 A 
ATOM     53  C   UNL     1      12.014  12.468   5.675  1.00  0.00     0.029 A 
ATOM     54  N   UNL     1       9.863  12.508   5.114  1.00  0.00    -0.354 N 
ATOM     55  N   UNL     1       7.150  13.598   5.079  1.00  0.00    -0.248 NA
ATOM     56  C   UNL     1       5.604  15.222   5.732  1.00  0.00     0.031 C 
ATOM     57  C   UNL     1      11.425  13.594   6.262  1.00  0.00     0.029 A 
ATOM     58  C   UNL     1      10.091  13.632   5.892  1.00  0.00     0.049 A 
ATOM     59  H   UNL     1       8.996  12.262   4.718  1.00  0.00     0.167 HD
ATOM     60  C   UNL     1       7.796  14.563   5.841  1.00  0.00     0.074 A 
ATOM     61  C   UNL     1       6.802  15.557   6.189  1.00  0.00     0.031 C 
ATOM     62  C   UNL     1       9.097  14.621   6.218  1.00  0.00     0.037 A 
BRANCH  49  63
ATOM     63  C   UNL     1      12.488   9.861   4.215  1.00  0.00     0.057 A 
ATOM     64  C   UNL     1      13.283   9.823   3.062  1.00  0.00     0.134 A 
ATOM     65  C   UNL     1      12.994   9.247   5.368  1.00  0.00     0.134 A 
ATOM     66  F   UNL     1      12.851  10.380   1.920  1.00  0.00    -0.206 F 
ATOM     67  C   UNL     1      14.520   9.176   3.047  1.00  0.00     0.040 A 
ATOM     68  C   UNL     1      14.242   8.621   5.373  1.00  0.00     0.040 A 
ATOM     69  F   UNL     1      12.289   9.252   6.509  1.00  0.00    -0.206 F 
ATOM     70  C   UNL     1      15.005   8.577   4.208  1.00  0.00     0.006 A 
ENDBRANCH  49  63
BRANCH  50  71
ATOM     71  C   UNL     1       3.406  13.964   4.282  1.00  0.00     0.057 A 
ATOM     72  C   UNL     1       3.156  15.180   3.634  1.00  0.00     0.134 A 
ATOM     73  C   UNL     1       2.342  13.365   4.965  1.00  0.00     0.134 A 
ATOM     74  F   UNL     1       4.142  15.810   2.979  1.00  0.00    -0.206 F 
ATOM     75  C   UNL     1       1.902  15.790   3.682  1.00  0.00     0.040 A 
ATOM     76  C   UNL     1       1.076  13.952   5.001  1.00  0.00     0.040 A 
ATOM     77  F   UNL     1       2.515  12.197   5.599  1.00  0.00    -0.206 F 
ATOM     78  C   UNL     1       0.856  15.173   4.365  1.00  0.00     0.006 A 
ENDBRANCH  50  71
BRANCH  62  79
ATOM     79  C   UNL     1       9.529  15.825   7.003  1.00  0.00     0.057 A 
ATOM     80  C   UNL     1       9.147  16.020   8.337  1.00  0.00     0.134 A 
ATOM     81  C   UNL     1      10.354  16.795   6.419  1.00  0.00     0.134 A 
ATOM     82  F   UNL     1       8.348  15.135   8.952  1.00  0.00    -0.206 F 
ATOM     83  C   UNL     1       9.544  17.152   9.051  1.00  0.00     0.040 A 
ATOM     84  C   UNL     1      10.780  17.917   7.130  1.00  0.00     0.040 A 
ATOM     85  F   UNL     1      10.764  16.664   5.148  1.00  0.00    -0.206 F 
ATOM     86  C   UNL     1      10.367  18.102   8.448  1.00  0.00     0.006 A 
ENDBRANCH  62  79
ENDBRANCH  36  37
ENDBRANCH  28  31
ENDBRANCH  26  27
ENDBRANCH  25  26
ENDBRANCH  24  25
ENDBRANCH   3  24
TORSDOF 16
