REMARK SMILES Cc1ccc(C)c([C@@H](O)[C@@H](C)[C@@H](C)C(=O)NCCCNC(=O)c2ccc(-c3c4nc(c(-c5c(F)cccc5F)c5ccc([nH]5)c(-c5c(F)cccc5F)c5nc(c(-c6c(F)cccc6F)c6ccc3[nH]6)C=C5)C=C4)cc2)c1
REMARK SMILES IDX 17 1 16 2 14 3 15 4 12 6 13 7 10 8 11 9 8 10 7 11 1 12 2 13
REMARK SMILES IDX 3 14 77 15 4 16 5 17 6 18 9 19 18 21 19 22 20 23 21 24 22 26
REMARK SMILES IDX 23 27 24 28 76 29 25 30 75 31 26 32 27 33 28 34 69 35 29 36
REMARK SMILES IDX 74 37 68 38 70 39 30 40 73 41 67 42 66 43 31 45 57 46 40 47
REMARK SMILES IDX 56 48 41 49 44 50 55 51 71 52 42 53 43 54 54 56 72 57 45 58
REMARK SMILES IDX 32 59 33 60 38 61 34 62 35 63 37 64 39 65 36 66 58 67 59 68
REMARK SMILES IDX 64 69 60 70 61 71 63 72 65 73 62 74 46 75 47 76 52 77 48 78
REMARK SMILES IDX 49 79 51 80 53 81 50 82
REMARK H PARENT 16 5 9 20 20 25 70 44 44 55
REMARK Flexibility Score: inf
ROOT
ATOM      1  C   UNL     1      -5.543   2.012   1.155  1.00  0.00     0.117 C 
ENDROOT
BRANCH   1   2
ATOM      2  N   UNL     1      -5.087   2.910   2.208  1.00  0.00    -0.356 N 
ATOM      3  C   UNL     1      -4.099   3.850   2.243  1.00  0.00     0.223 C 
ATOM      4  O   UNL     1      -4.078   4.601   3.224  1.00  0.00    -0.275 OA
ATOM      5  H   UNL     1      -5.584   2.821   3.053  1.00  0.00     0.163 HD
BRANCH   3   6
ATOM      6  C   UNL     1      -3.023   3.985   1.156  1.00  0.00     0.081 C 
ATOM      7  C   UNL     1      -3.627   4.544  -0.130  1.00  0.00     0.018 C 
BRANCH   6   8
ATOM      8  C   UNL     1      -2.146   2.699   1.096  1.00  0.00     0.031 C 
ATOM      9  C   UNL     1      -1.264   2.652   2.365  1.00  0.00     0.011 C 
BRANCH   8  10
ATOM     10  C   UNL     1      -1.281   2.489  -0.175  1.00  0.00     0.148 C 
BRANCH  10  11
ATOM     11  C   UNL     1      -0.543   1.147  -0.198  1.00  0.00    -0.016 A 
ATOM     12  C   UNL     1       3.116   0.030   0.069  1.00  0.00     0.044 C 
ATOM     13  C   UNL     1       1.621  -0.007  -0.036  1.00  0.00    -0.051 A 
ATOM     14  C   UNL     1       0.971  -1.237  -0.103  1.00  0.00     0.004 A 
ATOM     15  C   UNL     1       0.862   1.172  -0.070  1.00  0.00     0.010 A 
ATOM     16  C   UNL     1      -0.410  -1.286  -0.248  1.00  0.00     0.004 A 
ATOM     17  C   UNL     1      -1.178  -0.111  -0.324  1.00  0.00    -0.045 A 
ATOM     18  C   UNL     1      -2.647  -0.318  -0.555  1.00  0.00     0.045 C 
ENDBRANCH  10  11
BRANCH  10  19
ATOM     19  O   UNL     1      -2.059   2.582  -1.365  1.00  0.00    -0.388 OA
ATOM     20  H   UNL     1      -2.709   1.862  -1.384  1.00  0.00     0.211 HD
ENDBRANCH  10  19
ENDBRANCH   8  10
ENDBRANCH   6   8
ENDBRANCH   3   6
ENDBRANCH   1   2
BRANCH   1  21
ATOM     21  C   UNL     1      -5.223   0.529   1.361  1.00  0.00     0.042 C 
BRANCH  21  22
ATOM     22  C   UNL     1      -5.961  -0.199   2.464  1.00  0.00     0.118 C 
BRANCH  22  23
ATOM     23  N   UNL     1      -7.418  -0.219   2.292  1.00  0.00    -0.352 N 
ATOM     24  C   UNL     1      -8.461  -0.212   3.202  1.00  0.00     0.251 C 
ATOM     25  H   UNL     1      -7.708  -0.242   1.352  1.00  0.00     0.163 HD
ATOM     26  O   UNL     1      -9.598  -0.500   2.824  1.00  0.00    -0.269 OA
BRANCH  24  27
ATOM     27  C   UNL     1      -8.234   0.136   4.617  1.00  0.00     0.039 A 
ATOM     28  C   UNL     1      -9.200   0.087   5.625  1.00  0.00     0.014 A 
ATOM     29  C   UNL     1      -7.024   0.705   4.933  1.00  0.00     0.014 A 
ATOM     30  C   UNL     1      -8.897   0.673   6.865  1.00  0.00     0.010 A 
ATOM     31  C   UNL     1      -6.599   0.739   6.215  1.00  0.00     0.010 A 
ATOM     32  C   UNL     1      -7.582   1.072   7.112  1.00  0.00    -0.014 A 
BRANCH  32  33
ATOM     33  C   UNL     1      -7.081   1.760   8.282  1.00  0.00     0.031 A 
ATOM     34  C   UNL     1      -6.794   0.888   9.438  1.00  0.00     0.074 A 
ATOM     35  C   UNL     1      -6.477   2.967   8.203  1.00  0.00     0.049 A 
ATOM     36  N   UNL     1      -7.479   0.766  10.523  1.00  0.00    -0.248 NA
ATOM     37  C   UNL     1      -5.694  -0.082   9.307  1.00  0.00     0.031 C 
ATOM     38  C   UNL     1      -6.162   3.770   7.014  1.00  0.00     0.029 A 
ATOM     39  N   UNL     1      -5.907   3.683   9.209  1.00  0.00    -0.354 N 
ATOM     40  C   UNL     1      -6.769  -0.145  11.295  1.00  0.00     0.074 A 
ATOM     41  C   UNL     1      -5.871  -0.822  10.400  1.00  0.00     0.031 C 
ATOM     42  C   UNL     1      -5.313   4.768   7.356  1.00  0.00     0.029 A 
ATOM     43  C   UNL     1      -5.130   4.757   8.798  1.00  0.00     0.049 A 
ATOM     44  H   UNL     1      -6.035   3.456  10.159  1.00  0.00     0.167 HD
ATOM     45  C   UNL     1      -6.755  -0.073  12.654  1.00  0.00     0.037 A 
ATOM     46  C   UNL     1      -4.365   5.539   9.598  1.00  0.00     0.037 A 
ATOM     47  C   UNL     1      -7.743   0.860  13.139  1.00  0.00     0.049 A 
ATOM     48  C   UNL     1      -4.792   5.293  11.002  1.00  0.00     0.074 A 
ATOM     49  C   UNL     1      -9.108   1.005  12.976  1.00  0.00     0.029 A 
ATOM     50  N   UNL     1      -7.296   2.077  13.598  1.00  0.00    -0.354 N 
ATOM     51  N   UNL     1      -5.937   5.661  11.504  1.00  0.00    -0.248 NA
ATOM     52  C   UNL     1      -4.092   4.258  11.750  1.00  0.00     0.031 C 
ATOM     53  C   UNL     1      -9.322   2.413  12.872  1.00  0.00     0.029 A 
ATOM     54  C   UNL     1      -8.087   3.043  13.029  1.00  0.00     0.049 A 
ATOM     55  H   UNL     1      -6.548   2.227  14.220  1.00  0.00     0.167 HD
ATOM     56  C   UNL     1      -6.295   4.635  12.369  1.00  0.00     0.074 A 
ATOM     57  C   UNL     1      -5.074   3.861  12.564  1.00  0.00     0.031 C 
ATOM     58  C   UNL     1      -7.607   4.342  12.612  1.00  0.00     0.037 A 
BRANCH  45  59
ATOM     59  C   UNL     1      -5.623  -0.565  13.520  1.00  0.00     0.057 A 
ATOM     60  C   UNL     1      -5.833  -0.684  14.904  1.00  0.00     0.134 A 
ATOM     61  C   UNL     1      -4.281  -0.697  13.105  1.00  0.00     0.134 A 
ATOM     62  F   UNL     1      -7.061  -0.548  15.426  1.00  0.00    -0.206 F 
ATOM     63  C   UNL     1      -4.782  -0.872  15.809  1.00  0.00     0.040 A 
ATOM     64  C   UNL     1      -3.233  -0.952  13.993  1.00  0.00     0.040 A 
ATOM     65  F   UNL     1      -3.891  -0.490  11.842  1.00  0.00    -0.206 F 
ATOM     66  C   UNL     1      -3.477  -1.010  15.354  1.00  0.00     0.006 A 
ENDBRANCH  45  59
BRANCH  46  67
ATOM     67  C   UNL     1      -3.148   6.318   9.282  1.00  0.00     0.057 A 
ATOM     68  C   UNL     1      -2.702   7.341  10.133  1.00  0.00     0.134 A 
ATOM     69  C   UNL     1      -2.248   5.915   8.281  1.00  0.00     0.134 A 
ATOM     70  F   UNL     1      -3.471   7.769  11.144  1.00  0.00    -0.206 F 
ATOM     71  C   UNL     1      -1.428   7.912  10.011  1.00  0.00     0.040 A 
ATOM     72  C   UNL     1      -0.979   6.486   8.140  1.00  0.00     0.040 A 
ATOM     73  F   UNL     1      -2.535   4.890   7.465  1.00  0.00    -0.206 F 
ATOM     74  C   UNL     1      -0.558   7.478   9.017  1.00  0.00     0.006 A 
ENDBRANCH  46  67
BRANCH  58  75
ATOM     75  C   UNL     1      -8.642   5.337  12.164  1.00  0.00     0.057 A 
ATOM     76  C   UNL     1      -8.865   5.690  10.824  1.00  0.00     0.134 A 
ATOM     77  C   UNL     1      -9.538   5.851  13.108  1.00  0.00     0.134 A 
ATOM     78  F   UNL     1      -8.130   5.166   9.837  1.00  0.00    -0.206 F 
ATOM     79  C   UNL     1      -9.897   6.555  10.449  1.00  0.00     0.040 A 
ATOM     80  C   UNL     1     -10.595   6.688  12.743  1.00  0.00     0.040 A 
ATOM     81  F   UNL     1      -9.425   5.512  14.402  1.00  0.00    -0.206 F 
ATOM     82  C   UNL     1     -10.771   7.053  11.411  1.00  0.00     0.006 A 
ENDBRANCH  58  75
ENDBRANCH  32  33
ENDBRANCH  24  27
ENDBRANCH  22  23
ENDBRANCH  21  22
ENDBRANCH   1  21
TORSDOF 14
