REMARK SMILES O=C(NCCCNC(=O)c1ccccc1NS(=O)(=O)c1cccc([N+](=O)[O-])c1)c1ccc(-c2c3nc(c(-c4c(F)cccc4F)c4ccc([nH]4)c(-c4c(F)cccc4F)c4nc(c(-c5c(F)cccc5F)c5ccc2[nH]5)C=C4)C=C3)cc1
REMARK SMILES IDX 6 1 5 2 4 3 3 4 1 5 2 6 29 8 30 9 82 10 31 11 81 12 32 13
REMARK SMILES IDX 33 14 34 15 75 16 35 17 80 18 74 19 76 20 36 21 79 22 73 23
REMARK SMILES IDX 72 24 37 26 63 27 46 28 62 29 47 30 50 31 61 32 77 33 48 34
REMARK SMILES IDX 49 35 60 37 78 38 51 39 38 40 39 41 44 42 40 43 41 44 43 45
REMARK SMILES IDX 45 46 42 47 64 48 65 49 70 50 66 51 67 52 69 53 71 54 68 55
REMARK SMILES IDX 52 56 53 57 58 58 54 59 55 60 57 61 59 62 56 63 7 64 8 65
REMARK SMILES IDX 9 67 10 68 11 69 15 70 12 71 14 72 13 73 16 74 17 76 18 77
REMARK SMILES IDX 19 78 20 79 21 80 28 81 22 82 24 83 23 84 25 85 26 86 27 87
REMARK H PARENT 3 7 76 25 50 36 7 66 16 75
REMARK Flexibility Score: inf
ROOT
ATOM      1  C   UNL     1       4.685   2.851   2.284  1.00  0.00     0.118 C 
ENDROOT
BRANCH   1   2
ATOM      2  C   UNL     1       5.187   1.997   1.141  1.00  0.00     0.042 C 
BRANCH   2   3
ATOM      3  C   UNL     1       4.684   0.568   1.176  1.00  0.00     0.118 C 
BRANCH   3   4
ATOM      4  N   UNL     1       3.236   0.462   1.052  1.00  0.00    -0.352 N 
ATOM      5  O   UNL     1       1.260   0.044   0.046  1.00  0.00    -0.269 OA
ATOM      6  C   UNL     1       2.479  -0.087   0.046  1.00  0.00     0.251 C 
ATOM      7  H   UNL     1       2.724   0.841   1.802  1.00  0.00     0.163 HD
BRANCH   6   8
ATOM      8  C   UNL     1       3.143  -0.821  -1.050  1.00  0.00     0.039 A 
ATOM      9  C   UNL     1       4.174  -1.721  -0.774  1.00  0.00     0.014 A 
ATOM     10  C   UNL     1       2.722  -0.615  -2.367  1.00  0.00     0.014 A 
ATOM     11  C   UNL     1       4.891  -2.289  -1.814  1.00  0.00     0.010 A 
ATOM     12  C   UNL     1       3.369  -1.282  -3.409  1.00  0.00     0.010 A 
ATOM     13  C   UNL     1       4.470  -2.110  -3.140  1.00  0.00    -0.014 A 
BRANCH  13  14
ATOM     14  C   UNL     1       5.112  -2.910  -4.207  1.00  0.00     0.031 A 
ATOM     15  C   UNL     1       5.873  -2.262  -5.324  1.00  0.00     0.074 A 
ATOM     16  C   UNL     1       4.987  -4.251  -4.145  1.00  0.00     0.049 A 
ATOM     17  N   UNL     1       6.457  -2.825  -6.351  1.00  0.00    -0.248 NA
ATOM     18  C   UNL     1       5.990  -0.795  -5.298  1.00  0.00     0.031 C 
ATOM     19  C   UNL     1       4.251  -4.981  -3.106  1.00  0.00     0.029 A 
ATOM     20  N   UNL     1       5.472  -5.239  -4.960  1.00  0.00    -0.354 N 
ATOM     21  C   UNL     1       6.985  -1.788  -7.106  1.00  0.00     0.074 A 
ATOM     22  C   UNL     1       6.648  -0.555  -6.426  1.00  0.00     0.031 C 
ATOM     23  C   UNL     1       4.357  -6.296  -3.330  1.00  0.00     0.029 A 
ATOM     24  C   UNL     1       5.098  -6.502  -4.567  1.00  0.00     0.049 A 
ATOM     25  H   UNL     1       6.032  -5.063  -5.750  1.00  0.00     0.167 HD
ATOM     26  C   UNL     1       7.686  -1.867  -8.262  1.00  0.00     0.037 A 
ATOM     27  C   UNL     1       5.290  -7.693  -5.158  1.00  0.00     0.037 A 
ATOM     28  C   UNL     1       8.036  -3.106  -8.910  1.00  0.00     0.049 A 
ATOM     29  C   UNL     1       6.041  -7.740  -6.454  1.00  0.00     0.074 A 
ATOM     30  C   UNL     1       8.817  -3.296 -10.037  1.00  0.00     0.029 A 
ATOM     31  N   UNL     1       7.615  -4.362  -8.498  1.00  0.00    -0.354 N 
ATOM     32  N   UNL     1       6.593  -6.756  -7.121  1.00  0.00    -0.248 NA
ATOM     33  C   UNL     1       6.184  -9.057  -7.087  1.00  0.00     0.031 C 
ATOM     34  C   UNL     1       8.822  -4.661 -10.340  1.00  0.00     0.029 A 
ATOM     35  C   UNL     1       8.083  -5.327  -9.375  1.00  0.00     0.049 A 
ATOM     36  H   UNL     1       7.066  -4.540  -7.701  1.00  0.00     0.167 HD
ATOM     37  C   UNL     1       7.152  -7.333  -8.251  1.00  0.00     0.074 A 
ATOM     38  C   UNL     1       6.898  -8.757  -8.164  1.00  0.00     0.031 C 
ATOM     39  C   UNL     1       7.810  -6.737  -9.274  1.00  0.00     0.037 A 
BRANCH  26  40
ATOM     40  C   UNL     1       8.109  -0.590  -8.925  1.00  0.00     0.057 A 
ATOM     41  C   UNL     1       9.164   0.188  -8.436  1.00  0.00     0.134 A 
ATOM     42  C   UNL     1       7.508  -0.186 -10.126  1.00  0.00     0.134 A 
ATOM     43  F   UNL     1       9.777  -0.141  -7.289  1.00  0.00    -0.206 F 
ATOM     44  C   UNL     1       9.605   1.326  -9.115  1.00  0.00     0.040 A 
ATOM     45  C   UNL     1       7.953   0.939 -10.823  1.00  0.00     0.040 A 
ATOM     46  F   UNL     1       6.496  -0.892 -10.652  1.00  0.00    -0.206 F 
ATOM     47  C   UNL     1       9.006   1.698 -10.318  1.00  0.00     0.006 A 
ENDBRANCH  26  40
BRANCH  27  48
ATOM     48  C   UNL     1       4.714  -8.920  -4.555  1.00  0.00     0.057 A 
ATOM     49  C   UNL     1       5.530  -9.918  -4.015  1.00  0.00     0.134 A 
ATOM     50  C   UNL     1       3.328  -9.118  -4.500  1.00  0.00     0.134 A 
ATOM     51  F   UNL     1       6.865  -9.792  -4.051  1.00  0.00    -0.206 F 
ATOM     52  C   UNL     1       4.991 -11.079  -3.458  1.00  0.00     0.040 A 
ATOM     53  C   UNL     1       2.774 -10.258  -3.920  1.00  0.00     0.040 A 
ATOM     54  F   UNL     1       2.490  -8.192  -4.992  1.00  0.00    -0.206 F 
ATOM     55  C   UNL     1       3.608 -11.248  -3.404  1.00  0.00     0.006 A 
ENDBRANCH  27  48
BRANCH  39  56
ATOM     56  C   UNL     1       8.298  -7.627 -10.374  1.00  0.00     0.057 A 
ATOM     57  C   UNL     1       7.417  -8.181 -11.311  1.00  0.00     0.134 A 
ATOM     58  C   UNL     1       9.662  -7.905 -10.520  1.00  0.00     0.134 A 
ATOM     59  F   UNL     1       6.096  -7.966 -11.213  1.00  0.00    -0.206 F 
ATOM     60  C   UNL     1       7.875  -8.994 -12.348  1.00  0.00     0.040 A 
ATOM     61  C   UNL     1      10.135  -8.696 -11.567  1.00  0.00     0.040 A 
ATOM     62  F   UNL     1      10.556  -7.400  -9.657  1.00  0.00    -0.206 F 
ATOM     63  C   UNL     1       9.239  -9.247 -12.482  1.00  0.00     0.006 A 
ENDBRANCH  39  56
ENDBRANCH  13  14
ENDBRANCH   6   8
ENDBRANCH   3   4
ENDBRANCH   2   3
ENDBRANCH   1   2
BRANCH   1  64
ATOM     64  N   UNL     1       4.996   2.327   3.592  1.00  0.00    -0.352 N 
ATOM     65  C   UNL     1       5.627   2.958   4.622  1.00  0.00     0.253 C 
ATOM     66  H   UNL     1       4.718   1.398   3.761  1.00  0.00     0.163 HD
ATOM     67  O   UNL     1       5.884   2.337   5.650  1.00  0.00    -0.269 OA
BRANCH  65  68
ATOM     68  C   UNL     1       6.048   4.367   4.518  1.00  0.00     0.063 A 
ATOM     69  C   UNL     1       7.438   4.579   4.580  1.00  0.00     0.016 A 
ATOM     70  C   UNL     1       5.160   5.454   4.604  1.00  0.00     0.062 A 
ATOM     71  C   UNL     1       7.950   5.862   4.761  1.00  0.00     0.001 A 
ATOM     72  C   UNL     1       5.697   6.713   4.897  1.00  0.00     0.027 A 
ATOM     73  C   UNL     1       7.077   6.925   4.954  1.00  0.00     0.002 A 
BRANCH  70  74
ATOM     74  N   UNL     1       3.735   5.371   4.454  1.00  0.00    -0.279 N 
ATOM     75  H   UNL     1       3.201   4.975   5.180  1.00  0.00     0.180 HD
BRANCH  74  76
ATOM     76  S   UNL     1       2.939   5.938   3.059  1.00  0.00     0.262 S 
ATOM     77  O   UNL     1       3.511   5.335   1.869  1.00  0.00    -0.201 OA
ATOM     78  O   UNL     1       1.530   5.794   3.334  1.00  0.00    -0.201 OA
BRANCH  76  79
ATOM     79  C   UNL     1       3.291   7.669   2.904  1.00  0.00     0.094 A 
ATOM     80  C   UNL     1       4.548   8.054   2.409  1.00  0.00     0.023 A 
ATOM     81  C   UNL     1       2.293   8.619   3.115  1.00  0.00     0.107 A 
ATOM     82  C   UNL     1       4.867   9.401   2.264  1.00  0.00     0.008 A 
ATOM     83  C   UNL     1       2.604   9.968   2.900  1.00  0.00     0.270 A 
ATOM     84  C   UNL     1       3.896  10.366   2.516  1.00  0.00     0.086 A 
BRANCH  83  85
ATOM     85  N   UNL     1       1.557  10.983   3.033  1.00  0.00     0.062 N 
ATOM     86  O   UNL     1       1.916  12.160   3.174  1.00  0.00    -0.258 OA
ATOM     87  O   UNL     1       0.380  10.601   2.984  1.00  0.00    -0.258 OA
ENDBRANCH  83  85
ENDBRANCH  76  79
ENDBRANCH  74  76
ENDBRANCH  70  74
ENDBRANCH  65  68
ENDBRANCH   1  64
TORSDOF 14
