REMARK SMILES Cc1cccc(NS(=O)(=O)c2ccc(Br)c(C(=O)NCCCNC(=O)c3ccc(-c4c5nc(c(-c6c(F)cccc6F)c6ccc([nH]6)c(-c6c(F)cccc6F)c6nc(c(-c7c(F)cccc7F)c7ccc4[nH]7)C=C6)C=C5)cc3)c2)c1
REMARK SMILES IDX 20 1 19 2 17 3 18 4 16 6 11 7 12 8 80 9 13 10 14 11 15 12
REMARK SMILES IDX 8 13 9 14 10 15 7 16 6 18 1 19 2 20 3 21 81 22 4 23 5 24
REMARK SMILES IDX 21 25 22 26 23 27 24 28 25 30 26 31 27 32 79 33 28 34 78 35
REMARK SMILES IDX 29 36 30 37 31 38 72 39 32 40 77 41 71 42 73 43 33 44 76 45
REMARK SMILES IDX 70 46 69 47 34 49 60 50 43 51 59 52 44 53 47 54 58 55 74 56
REMARK SMILES IDX 45 57 46 58 57 60 75 61 48 62 35 63 36 64 41 65 37 66 38 67
REMARK SMILES IDX 40 68 42 69 39 70 61 71 62 72 67 73 63 74 64 75 66 76 68 77
REMARK SMILES IDX 65 78 49 79 50 80 55 81 51 82 52 83 54 84 56 85 53 86
REMARK H PARENT 19 5 7 17 23 29 73 48 47 59
REMARK Flexibility Score: inf
ROOT
ATOM      1  C   UNL     1      -7.059  -3.563  -0.163  1.00  0.00     0.118 C 
ENDROOT
BRANCH   1   2
ATOM      2  N   UNL     1      -7.625  -2.265  -0.487  1.00  0.00    -0.352 N 
ATOM      3  C   UNL     1      -7.048  -1.042  -0.762  1.00  0.00     0.252 C 
ATOM      4  O   UNL     1      -7.788  -0.133  -1.139  1.00  0.00    -0.269 OA
ATOM      5  H   UNL     1      -8.609  -2.256  -0.516  1.00  0.00     0.163 HD
BRANCH   3   6
ATOM      6  C   UNL     1      -5.619  -0.735  -0.473  1.00  0.00     0.055 A 
ATOM      7  C   UNL     1      -4.030   0.841   0.439  1.00  0.00     0.088 A 
ATOM      8  C   UNL     1      -3.261  -0.211   0.927  1.00  0.00     0.023 A 
ATOM      9  C   UNL     1      -5.280   0.580  -0.135  1.00  0.00     0.037 A 
ATOM     10  C   UNL     1      -3.503  -1.480   0.411  1.00  0.00     0.018 A 
ATOM     11  C   UNL     1      -4.591  -1.671  -0.441  1.00  0.00     0.030 A 
ATOM     12  Br  UNL     1      -4.292  -2.836  -1.941  1.00  0.00    -0.050 Br
BRANCH   7  13
ATOM     13  S   UNL     1      -3.368   2.487   0.416  1.00  0.00     0.261 S 
ATOM     14  O   UNL     1      -3.212   2.896   1.778  1.00  0.00    -0.201 OA
ATOM     15  O   UNL     1      -4.199   3.266  -0.503  1.00  0.00    -0.201 OA
BRANCH  13  16
ATOM     16  N   UNL     1      -1.805   2.519  -0.279  1.00  0.00    -0.280 N 
ATOM     17  H   UNL     1      -1.458   3.388  -0.584  1.00  0.00     0.180 HD
BRANCH  16  18
ATOM     18  C   UNL     1      -0.961   1.368  -0.451  1.00  0.00     0.049 A 
ATOM     19  C   UNL     1       2.628   0.356   0.399  1.00  0.00     0.044 C 
ATOM     20  C   UNL     1       1.211   0.304  -0.097  1.00  0.00    -0.049 A 
ATOM     21  C   UNL     1       0.748  -0.842  -0.749  1.00  0.00     0.003 A 
ATOM     22  C   UNL     1       0.338   1.391   0.079  1.00  0.00     0.030 A 
ATOM     23  C   UNL     1      -0.512  -0.841  -1.343  1.00  0.00     0.002 A 
ATOM     24  C   UNL     1      -1.332   0.290  -1.252  1.00  0.00     0.027 A 
ENDBRANCH  16  18
ENDBRANCH  13  16
ENDBRANCH   7  13
ENDBRANCH   3   6
ENDBRANCH   1   2
BRANCH   1  25
ATOM     25  C   UNL     1      -7.354  -4.071   1.230  1.00  0.00     0.042 C 
BRANCH  25  26
ATOM     26  C   UNL     1      -8.402  -5.167   1.227  1.00  0.00     0.118 C 
BRANCH  26  27
ATOM     27  N   UNL     1      -7.933  -6.442   0.659  1.00  0.00    -0.352 N 
ATOM     28  C   UNL     1      -8.531  -7.695   0.646  1.00  0.00     0.251 C 
ATOM     29  H   UNL     1      -7.055  -6.399   0.216  1.00  0.00     0.163 HD
ATOM     30  O   UNL     1      -8.027  -8.611   0.004  1.00  0.00    -0.269 OA
BRANCH  28  31
ATOM     31  C   UNL     1      -9.864  -7.875   1.270  1.00  0.00     0.039 A 
ATOM     32  C   UNL     1     -10.874  -8.433   0.479  1.00  0.00     0.014 A 
ATOM     33  C   UNL     1     -10.184  -7.122   2.384  1.00  0.00     0.014 A 
ATOM     34  C   UNL     1     -12.161  -7.921   0.585  1.00  0.00     0.010 A 
ATOM     35  C   UNL     1     -11.387  -6.461   2.349  1.00  0.00     0.010 A 
ATOM     36  C   UNL     1     -12.358  -6.816   1.403  1.00  0.00    -0.014 A 
BRANCH  36  37
ATOM     37  C   UNL     1     -13.499  -5.915   1.315  1.00  0.00     0.031 A 
ATOM     38  C   UNL     1     -14.388  -5.783   2.486  1.00  0.00     0.074 A 
ATOM     39  C   UNL     1     -13.616  -5.073   0.263  1.00  0.00     0.049 A 
ATOM     40  N   UNL     1     -15.484  -5.112   2.505  1.00  0.00    -0.248 NA
ATOM     41  C   UNL     1     -14.107  -6.447   3.753  1.00  0.00     0.031 C 
ATOM     42  C   UNL     1     -14.425  -3.858   0.180  1.00  0.00     0.029 A 
ATOM     43  N   UNL     1     -13.180  -5.281  -1.054  1.00  0.00    -0.354 N 
ATOM     44  C   UNL     1     -15.909  -5.023   3.810  1.00  0.00     0.074 A 
ATOM     45  C   UNL     1     -15.037  -5.909   4.540  1.00  0.00     0.031 C 
ATOM     46  C   UNL     1     -14.688  -3.598  -1.109  1.00  0.00     0.029 A 
ATOM     47  C   UNL     1     -14.196  -4.726  -1.876  1.00  0.00     0.049 A 
ATOM     48  H   UNL     1     -12.348  -5.718  -1.346  1.00  0.00     0.167 HD
ATOM     49  C   UNL     1     -16.887  -4.123   4.111  1.00  0.00     0.037 A 
ATOM     50  C   UNL     1     -14.969  -5.532  -2.663  1.00  0.00     0.037 A 
ATOM     51  C   UNL     1     -17.487  -3.585   2.886  1.00  0.00     0.049 A 
ATOM     52  C   UNL     1     -16.447  -5.529  -2.316  1.00  0.00     0.074 A 
ATOM     53  C   UNL     1     -17.358  -2.418   2.151  1.00  0.00     0.029 A 
ATOM     54  N   UNL     1     -18.165  -4.469   2.067  1.00  0.00    -0.354 N 
ATOM     55  N   UNL     1     -16.969  -4.890  -1.305  1.00  0.00    -0.248 NA
ATOM     56  C   UNL     1     -17.443  -6.324  -3.038  1.00  0.00     0.031 C 
ATOM     57  C   UNL     1     -17.947  -2.634   0.867  1.00  0.00     0.029 A 
ATOM     58  C   UNL     1     -18.442  -3.925   0.831  1.00  0.00     0.049 A 
ATOM     59  H   UNL     1     -18.419  -5.382   2.334  1.00  0.00     0.167 HD
ATOM     60  C   UNL     1     -18.295  -5.215  -1.190  1.00  0.00     0.074 A 
ATOM     61  C   UNL     1     -18.549  -6.111  -2.304  1.00  0.00     0.031 C 
ATOM     62  C   UNL     1     -19.081  -4.769  -0.167  1.00  0.00     0.037 A 
BRANCH  49  63
ATOM     63  C   UNL     1     -17.187  -3.591   5.497  1.00  0.00     0.057 A 
ATOM     64  C   UNL     1     -17.849  -2.357   5.651  1.00  0.00     0.134 A 
ATOM     65  C   UNL     1     -16.805  -4.185   6.714  1.00  0.00     0.134 A 
ATOM     66  F   UNL     1     -18.357  -1.694   4.604  1.00  0.00    -0.206 F 
ATOM     67  C   UNL     1     -18.024  -1.730   6.893  1.00  0.00     0.040 A 
ATOM     68  C   UNL     1     -16.931  -3.550   7.958  1.00  0.00     0.040 A 
ATOM     69  F   UNL     1     -16.349  -5.436   6.788  1.00  0.00    -0.206 F 
ATOM     70  C   UNL     1     -17.534  -2.310   8.051  1.00  0.00     0.006 A 
ENDBRANCH  49  63
BRANCH  50  71
ATOM     71  C   UNL     1     -14.207  -6.699  -3.188  1.00  0.00     0.057 A 
ATOM     72  C   UNL     1     -13.095  -6.452  -4.014  1.00  0.00     0.134 A 
ATOM     73  C   UNL     1     -14.281  -7.954  -2.579  1.00  0.00     0.134 A 
ATOM     74  F   UNL     1     -12.965  -5.268  -4.635  1.00  0.00    -0.206 F 
ATOM     75  C   UNL     1     -12.034  -7.354  -4.111  1.00  0.00     0.040 A 
ATOM     76  C   UNL     1     -13.235  -8.877  -2.692  1.00  0.00     0.040 A 
ATOM     77  F   UNL     1     -15.298  -8.256  -1.758  1.00  0.00    -0.206 F 
ATOM     78  C   UNL     1     -12.086  -8.557  -3.416  1.00  0.00     0.006 A 
ENDBRANCH  50  71
BRANCH  62  79
ATOM     79  C   UNL     1     -20.534  -5.128  -0.015  1.00  0.00     0.057 A 
ATOM     80  C   UNL     1     -21.443  -5.046  -1.077  1.00  0.00     0.134 A 
ATOM     81  C   UNL     1     -21.090  -5.446   1.240  1.00  0.00     0.134 A 
ATOM     82  F   UNL     1     -21.038  -4.699  -2.308  1.00  0.00    -0.206 F 
ATOM     83  C   UNL     1     -22.811  -5.298  -0.908  1.00  0.00     0.040 A 
ATOM     84  C   UNL     1     -22.459  -5.646   1.433  1.00  0.00     0.040 A 
ATOM     85  F   UNL     1     -20.327  -5.604   2.332  1.00  0.00    -0.206 F 
ATOM     86  C   UNL     1     -23.325  -5.584   0.353  1.00  0.00     0.006 A 
ENDBRANCH  62  79
ENDBRANCH  36  37
ENDBRANCH  28  31
ENDBRANCH  26  27
ENDBRANCH  25  26
ENDBRANCH   1  25
TORSDOF 13
