REMARK SMILES CCN1C(=O)/C(=C/c2ccccc2O[C@H](C)C(=O)NCCCNC(=O)c2ccc(-c3c4nc(c(-c5c(F)cccc5F)c5ccc([nH]5)c(-c5c(F)cccc5F)c5nc(c(-c6c(F)cccc6F)c6ccc3[nH]6)C=C5)C=C4)cc2)S/C1=[NH+]\c1ccc(C)cc1O
REMARK SMILES IDX 17 1 18 2 19 3 15 5 16 6 14 7 13 8 8 9 9 10 10 11 12 12
REMARK SMILES IDX 11 13 7 14 3 15 4 16 81 17 5 18 6 19 80 20 82 21 2 23 1 24
REMARK SMILES IDX 83 25 84 26 89 27 85 28 88 29 86 30 87 31 90 32 20 34 21 35
REMARK SMILES IDX 22 36 23 37 24 38 25 40 26 41 27 42 79 43 28 44 78 45 29 46
REMARK SMILES IDX 30 47 31 48 72 49 32 50 77 51 71 52 73 53 33 54 76 55 70 56
REMARK SMILES IDX 69 57 34 59 60 60 43 61 59 62 44 63 47 64 58 65 74 66 45 67
REMARK SMILES IDX 46 68 57 70 75 71 48 72 35 73 36 74 41 75 37 76 38 77 40 78
REMARK SMILES IDX 42 79 39 80 61 81 62 82 67 83 63 84 64 85 66 86 68 87 65 88
REMARK SMILES IDX 49 89 50 90 55 91 51 92 52 93 54 94 56 95 53 96
REMARK H PARENT 19 4 82 22 90 33 23 39 73 58 47 69
REMARK Flexibility Score: inf
ROOT
ATOM      1  C   UNL     1       2.479  -3.359  -3.250  1.00  0.00     0.260 C 
ATOM      2  O   UNL     1       2.890  -3.779  -2.163  1.00  0.00    -0.271 OA
ATOM      3  N   UNL     1       1.371  -3.964  -3.765  1.00  0.00    -0.353 N 
ATOM      4  H   UNL     1       1.026  -4.718  -3.234  1.00  0.00     0.163 HD
ENDROOT
BRANCH   1   5
ATOM      5  C   UNL     1       3.249  -2.261  -4.013  1.00  0.00     0.258 C 
ATOM      6  C   UNL     1       4.293  -2.903  -4.910  1.00  0.00     0.064 C 
BRANCH   5   7
ATOM      7  O   UNL     1       2.401  -1.224  -4.476  1.00  0.00    -0.480 OA
BRANCH   7   8
ATOM      8  C   UNL     1       2.168  -0.731  -5.720  1.00  0.00     0.127 A 
ATOM      9  C   UNL     1       1.256   0.350  -5.760  1.00  0.00     0.018 A 
ATOM     10  C   UNL     1       0.830   0.867  -6.994  1.00  0.00     0.012 A 
ATOM     11  C   UNL     1       1.308   0.333  -8.186  1.00  0.00     0.001 A 
ATOM     12  C   UNL     1       2.638  -1.249  -6.926  1.00  0.00     0.047 A 
ATOM     13  C   UNL     1       2.212  -0.721  -8.150  1.00  0.00     0.004 A 
BRANCH   9  14
ATOM     14  C   UNL     1       0.651   0.938  -4.549  1.00  0.00     0.036 C 
ATOM     15  N   UNL     1       1.519   2.748  -1.548  1.00  0.00    -0.186 N 
ATOM     16  C   UNL     1       0.607   2.134  -2.383  1.00  0.00     0.348 C 
ATOM     17  C   UNL     1       2.825   2.738  -1.973  1.00  0.00     0.324 C 
ATOM     18  O   UNL     1      -0.615   2.171  -2.279  1.00  0.00    -0.240 OA
ATOM     19  C   UNL     1       1.312   1.480  -3.517  1.00  0.00     0.110 C 
ATOM     20  S   UNL     1       3.007   1.649  -3.322  1.00  0.00     0.007 SA
ATOM     21  N   UNL     1       3.735   3.503  -1.464  1.00  0.00    -0.231 N 
ATOM     22  H   UNL     1       3.498   4.096  -0.715  1.00  0.00     0.313 HD
BRANCH  15  23
ATOM     23  C   UNL     1       1.065   3.511  -0.391  1.00  0.00     0.244 C 
ATOM     24  C   UNL     1       0.360   2.649   0.650  1.00  0.00     0.055 C 
ENDBRANCH  15  23
BRANCH  21  25
ATOM     25  C   UNL     1       5.058   3.510  -1.954  1.00  0.00     0.167 A 
ATOM     26  C   UNL     1       6.091   3.109  -1.103  1.00  0.00     0.056 A 
ATOM     27  C   UNL     1       5.407   3.996  -3.226  1.00  0.00     0.162 A 
ATOM     28  C   UNL     1       7.428   3.164  -1.522  1.00  0.00     0.008 A 
ATOM     29  C   UNL     1       6.729   4.026  -3.662  1.00  0.00     0.054 A 
ATOM     30  C   UNL     1       7.755   3.614  -2.807  1.00  0.00    -0.047 A 
ATOM     31  C   UNL     1       9.190   3.706  -3.236  1.00  0.00     0.044 C 
BRANCH  27  32
ATOM     32  O   UNL     1       4.465   4.481  -4.095  1.00  0.00    -0.504 OA
ATOM     33  H   UNL     1       3.560   4.484  -3.852  1.00  0.00     0.293 HD
ENDBRANCH  27  32
ENDBRANCH  21  25
ENDBRANCH   9  14
ENDBRANCH   7   8
ENDBRANCH   5   7
ENDBRANCH   1   5
BRANCH   3  34
ATOM     34  C   UNL     1       0.621  -3.675  -4.970  1.00  0.00     0.118 C 
BRANCH  34  35
ATOM     35  C   UNL     1       0.751  -4.764  -6.020  1.00  0.00     0.042 C 
BRANCH  35  36
ATOM     36  C   UNL     1      -0.028  -6.021  -5.664  1.00  0.00     0.118 C 
BRANCH  36  37
ATOM     37  N   UNL     1      -1.466  -5.778  -5.596  1.00  0.00    -0.352 N 
ATOM     38  C   UNL     1      -2.484  -6.220  -6.404  1.00  0.00     0.251 C 
ATOM     39  H   UNL     1      -1.752  -5.205  -4.849  1.00  0.00     0.163 HD
ATOM     40  O   UNL     1      -3.600  -5.717  -6.313  1.00  0.00    -0.269 OA
BRANCH  38  41
ATOM     41  C   UNL     1      -2.234  -7.282  -7.397  1.00  0.00     0.039 A 
ATOM     42  C   UNL     1      -2.787  -7.161  -8.675  1.00  0.00     0.014 A 
ATOM     43  C   UNL     1      -1.454  -8.393  -7.071  1.00  0.00     0.014 A 
ATOM     44  C   UNL     1      -2.474  -8.105  -9.654  1.00  0.00     0.010 A 
ATOM     45  C   UNL     1      -1.071  -9.282  -8.068  1.00  0.00     0.010 A 
ATOM     46  C   UNL     1      -1.568  -9.139  -9.372  1.00  0.00    -0.014 A 
BRANCH  46  47
ATOM     47  C   UNL     1      -1.080 -10.053 -10.432  1.00  0.00     0.031 A 
ATOM     48  C   UNL     1      -1.334 -11.529 -10.336  1.00  0.00     0.074 A 
ATOM     49  C   UNL     1      -0.308  -9.560 -11.420  1.00  0.00     0.049 A 
ATOM     50  N   UNL     1      -0.881 -12.496 -11.093  1.00  0.00    -0.248 NA
ATOM     51  C   UNL     1      -2.184 -11.982  -9.224  1.00  0.00     0.031 C 
ATOM     52  C   UNL     1       0.055  -8.151 -11.585  1.00  0.00     0.029 A 
ATOM     53  N   UNL     1       0.335 -10.192 -12.454  1.00  0.00    -0.354 N 
ATOM     54  C   UNL     1      -1.373 -13.670 -10.539  1.00  0.00     0.074 A 
ATOM     55  C   UNL     1      -2.120 -13.298  -9.356  1.00  0.00     0.031 C 
ATOM     56  C   UNL     1       0.850  -8.024 -12.658  1.00  0.00     0.029 A 
ATOM     57  C   UNL     1       1.095  -9.346 -13.225  1.00  0.00     0.049 A 
ATOM     58  H   UNL     1       0.258 -11.158 -12.628  1.00  0.00     0.167 HD
ATOM     59  C   UNL     1      -1.224 -14.940 -10.985  1.00  0.00     0.037 A 
ATOM     60  C   UNL     1       1.924  -9.606 -14.254  1.00  0.00     0.037 A 
ATOM     61  C   UNL     1      -0.490 -15.295 -12.171  1.00  0.00     0.049 A 
ATOM     62  C   UNL     1       2.090 -11.024 -14.720  1.00  0.00     0.074 A 
ATOM     63  C   UNL     1      -0.359 -16.540 -12.762  1.00  0.00     0.029 A 
ATOM     64  N   UNL     1       0.255 -14.409 -12.936  1.00  0.00    -0.354 N 
ATOM     65  N   UNL     1       1.540 -12.117 -14.248  1.00  0.00    -0.248 NA
ATOM     66  C   UNL     1       2.992 -11.248 -15.858  1.00  0.00     0.031 C 
ATOM     67  C   UNL     1       0.520 -16.419 -13.843  1.00  0.00     0.029 A 
ATOM     68  C   UNL     1       0.891 -15.089 -13.963  1.00  0.00     0.049 A 
ATOM     69  H   UNL     1       0.322 -13.441 -12.773  1.00  0.00     0.167 HD
ATOM     70  C   UNL     1       2.021 -13.156 -15.032  1.00  0.00     0.074 A 
ATOM     71  C   UNL     1       2.889 -12.560 -16.027  1.00  0.00     0.031 C 
ATOM     72  C   UNL     1       1.768 -14.484 -14.934  1.00  0.00     0.037 A 
BRANCH  59  73
ATOM     73  C   UNL     1      -1.852 -16.037 -10.175  1.00  0.00     0.057 A 
ATOM     74  C   UNL     1      -3.241 -16.191 -10.075  1.00  0.00     0.134 A 
ATOM     75  C   UNL     1      -1.052 -16.968  -9.499  1.00  0.00     0.134 A 
ATOM     76  F   UNL     1      -4.067 -15.329 -10.689  1.00  0.00    -0.206 F 
ATOM     77  C   UNL     1      -3.811 -17.206  -9.305  1.00  0.00     0.040 A 
ATOM     78  C   UNL     1      -1.610 -18.007  -8.752  1.00  0.00     0.040 A 
ATOM     79  F   UNL     1       0.286 -16.887  -9.557  1.00  0.00    -0.206 F 
ATOM     80  C   UNL     1      -2.994 -18.122  -8.645  1.00  0.00     0.006 A 
ENDBRANCH  59  73
BRANCH  60  81
ATOM     81  C   UNL     1       2.666  -8.492 -14.896  1.00  0.00     0.057 A 
ATOM     82  C   UNL     1       2.346  -8.056 -16.186  1.00  0.00     0.134 A 
ATOM     83  C   UNL     1       3.691  -7.816 -14.221  1.00  0.00     0.134 A 
ATOM     84  F   UNL     1       1.386  -8.674 -16.888  1.00  0.00    -0.206 F 
ATOM     85  C   UNL     1       3.023  -6.993 -16.786  1.00  0.00     0.040 A 
ATOM     86  C   UNL     1       4.358  -6.735 -14.798  1.00  0.00     0.040 A 
ATOM     87  F   UNL     1       4.038  -8.179 -12.977  1.00  0.00    -0.206 F 
ATOM     88  C   UNL     1       4.027  -6.324 -16.087  1.00  0.00     0.006 A 
ENDBRANCH  60  81
BRANCH  72  89
ATOM     89  C   UNL     1       2.445 -15.389 -15.924  1.00  0.00     0.057 A 
ATOM     90  C   UNL     1       3.816 -15.662 -15.850  1.00  0.00     0.134 A 
ATOM     91  C   UNL     1       1.708 -16.039 -16.922  1.00  0.00     0.134 A 
ATOM     92  F   UNL     1       4.581 -15.060 -14.927  1.00  0.00    -0.206 F 
ATOM     93  C   UNL     1       4.434 -16.541 -16.742  1.00  0.00     0.040 A 
ATOM     94  C   UNL     1       2.308 -16.941 -17.801  1.00  0.00     0.040 A 
ATOM     95  F   UNL     1       0.389 -15.827 -17.043  1.00  0.00    -0.206 F 
ATOM     96  C   UNL     1       3.676 -17.191 -17.715  1.00  0.00     0.006 A 
ENDBRANCH  72  89
ENDBRANCH  46  47
ENDBRANCH  38  41
ENDBRANCH  36  37
ENDBRANCH  35  36
ENDBRANCH  34  35
ENDBRANCH   3  34
TORSDOF 16
