REMARK SMILES CCn1ncc(NC(=O)[C@@H]2CCCC[C@@H]2C(=O)NCCCNC(=O)c2ccc(-c3c4nc(c(-c5c(F)cccc5F)c5ccc([nH]5)c(-c5c(F)cccc5F)c5nc(c(-c6c(F)cccc6F)c6ccc3[nH]6)C=C5)C=C4)cc2)c1C(=O)Nc1cnn(C)c1C
REMARK SMILES IDX 19 1 18 2 16 3 17 4 15 6 10 7 11 8 12 9 14 10 13 11 8 12
REMARK SMILES IDX 7 13 9 15 6 16 3 17 4 18 79 19 5 20 2 21 1 22 80 23 81 24
REMARK SMILES IDX 82 25 83 27 84 28 88 29 85 30 86 31 89 32 87 33 20 34 21 35
REMARK SMILES IDX 22 36 23 37 24 39 25 40 26 41 78 42 27 43 77 44 28 45 29 46
REMARK SMILES IDX 30 47 71 48 31 49 76 50 70 51 72 52 32 53 75 54 69 55 68 56
REMARK SMILES IDX 33 58 59 59 42 60 58 61 43 62 46 63 57 64 73 65 44 66 45 67
REMARK SMILES IDX 56 69 74 70 47 71 34 72 35 73 40 74 36 75 37 76 39 77 41 78
REMARK SMILES IDX 38 79 60 80 61 81 66 82 62 83 63 84 65 85 67 86 64 87 48 88
REMARK SMILES IDX 49 89 54 90 50 91 51 92 53 93 55 94 52 95
REMARK H PARENT 18 5 7 14 82 26 22 38 72 57 46 68
REMARK Flexibility Score: inf
ROOT
ATOM      1  C   UNL     1       2.244  -8.099  -0.486  1.00  0.00     0.117 C 
ENDROOT
BRANCH   1   2
ATOM      2  N   UNL     1       2.948  -6.885  -0.844  1.00  0.00    -0.356 N 
ATOM      3  C   UNL     1       2.458  -5.756  -1.419  1.00  0.00     0.223 C 
ATOM      4  O   UNL     1       3.259  -5.067  -2.053  1.00  0.00    -0.275 OA
ATOM      5  H   UNL     1       3.912  -6.877  -0.642  1.00  0.00     0.163 HD
BRANCH   3   6
ATOM      6  C   UNL     1       0.978  -5.383  -1.220  1.00  0.00     0.091 C 
ATOM      7  C   UNL     1       0.672  -3.949  -1.769  1.00  0.00     0.091 C 
ATOM      8  C   UNL     1       1.543  -2.953  -0.994  1.00  0.00     0.014 C 
ATOM      9  C   UNL     1       1.202  -2.992   0.488  1.00  0.00     0.001 C 
ATOM     10  C   UNL     1       0.592  -5.396   0.281  1.00  0.00     0.014 C 
ATOM     11  C   UNL     1       1.377  -4.368   1.087  1.00  0.00     0.001 C 
BRANCH   7  12
ATOM     12  C   UNL     1       0.703  -3.897  -3.297  1.00  0.00     0.228 C 
ATOM     13  N   UNL     1       0.668  -2.752  -4.037  1.00  0.00    -0.322 N 
ATOM     14  H   UNL     1       0.636  -2.925  -5.005  1.00  0.00     0.170 HD
ATOM     15  O   UNL     1       0.721  -4.954  -3.947  1.00  0.00    -0.274 OA
BRANCH  13  16
ATOM     16  C   UNL     1       0.667  -1.397  -3.736  1.00  0.00     0.092 A 
ATOM     17  N   UNL     1       0.875   0.531  -2.775  1.00  0.00    -0.258 N 
ATOM     18  N   UNL     1       1.407   0.731  -4.003  1.00  0.00    -0.178 NA
ATOM     19  C   UNL     1       0.096  -0.618  -2.714  1.00  0.00     0.150 A 
ATOM     20  C   UNL     1       1.329  -0.467  -4.566  1.00  0.00     0.162 A 
BRANCH  17  21
ATOM     21  C   UNL     1       1.369   1.425  -1.747  1.00  0.00     0.142 C 
ATOM     22  C   UNL     1       2.264   0.755  -0.717  1.00  0.00     0.029 C 
ENDBRANCH  17  21
BRANCH  19  23
ATOM     23  C   UNL     1      -1.008  -1.017  -1.839  1.00  0.00     0.276 C 
ATOM     24  O   UNL     1      -1.853  -1.829  -2.230  1.00  0.00    -0.267 OA
ATOM     25  N   UNL     1      -1.023  -0.761  -0.484  1.00  0.00    -0.318 N 
ATOM     26  H   UNL     1      -1.080  -1.562   0.085  1.00  0.00     0.170 HD
BRANCH  25  27
ATOM     27  C   UNL     1      -0.971   0.428   0.202  1.00  0.00     0.082 A 
ATOM     28  C   UNL     1      -1.496   1.690  -0.135  1.00  0.00     0.161 A 
ATOM     29  C   UNL     1      -0.432   0.593   1.468  1.00  0.00     0.059 A 
ATOM     30  N   UNL     1      -1.149   2.626   0.750  1.00  0.00    -0.179 NA
ATOM     31  N   UNL     1      -0.427   1.953   1.668  1.00  0.00    -0.271 N 
ATOM     32  C   UNL     1       0.202  -0.348   2.428  1.00  0.00     0.068 C 
ATOM     33  C   UNL     1       0.377   2.705   2.606  1.00  0.00     0.174 C 
ENDBRANCH  25  27
ENDBRANCH  19  23
ENDBRANCH  13  16
ENDBRANCH   7  12
ENDBRANCH   3   6
ENDBRANCH   1   2
BRANCH   1  34
ATOM     34  C   UNL     1       2.305  -9.128  -1.608  1.00  0.00     0.042 C 
BRANCH  34  35
ATOM     35  C   UNL     1       3.726  -9.543  -1.940  1.00  0.00     0.118 C 
BRANCH  35  36
ATOM     36  N   UNL     1       4.411 -10.144  -0.801  1.00  0.00    -0.352 N 
ATOM     37  C   UNL     1       5.699 -10.632  -0.743  1.00  0.00     0.251 C 
ATOM     38  H   UNL     1       3.888 -10.210   0.031  1.00  0.00     0.163 HD
ATOM     39  O   UNL     1       6.050 -11.375   0.154  1.00  0.00    -0.269 OA
BRANCH  37  40
ATOM     40  C   UNL     1       6.639 -10.245  -1.809  1.00  0.00     0.039 A 
ATOM     41  C   UNL     1       7.433 -11.216  -2.418  1.00  0.00     0.014 A 
ATOM     42  C   UNL     1       6.684  -8.913  -2.223  1.00  0.00     0.014 A 
ATOM     43  C   UNL     1       8.215 -10.848  -3.505  1.00  0.00     0.010 A 
ATOM     44  C   UNL     1       7.363  -8.575  -3.370  1.00  0.00     0.010 A 
ATOM     45  C   UNL     1       8.153  -9.531  -3.997  1.00  0.00    -0.014 A 
BRANCH  45  46
ATOM     46  C   UNL     1       8.801  -9.210  -5.263  1.00  0.00     0.031 A 
ATOM     47  C   UNL     1       8.412 -10.114  -6.380  1.00  0.00     0.074 A 
ATOM     48  C   UNL     1       9.552  -8.111  -5.481  1.00  0.00     0.049 A 
ATOM     49  N   UNL     1       9.141 -11.022  -6.938  1.00  0.00    -0.248 NA
ATOM     50  C   UNL     1       7.006 -10.130  -6.816  1.00  0.00     0.031 C 
ATOM     51  C   UNL     1       9.766  -6.961  -4.598  1.00  0.00     0.029 A 
ATOM     52  N   UNL     1      10.231  -7.752  -6.607  1.00  0.00    -0.354 N 
ATOM     53  C   UNL     1       8.360 -11.575  -7.949  1.00  0.00     0.074 A 
ATOM     54  C   UNL     1       7.015 -11.129  -7.701  1.00  0.00     0.031 C 
ATOM     55  C   UNL     1      10.328  -5.950  -5.298  1.00  0.00     0.029 A 
ATOM     56  C   UNL     1      10.671  -6.434  -6.623  1.00  0.00     0.049 A 
ATOM     57  H   UNL     1      10.396  -8.377  -7.349  1.00  0.00     0.167 HD
ATOM     58  C   UNL     1       8.945 -12.138  -9.043  1.00  0.00     0.037 A 
ATOM     59  C   UNL     1      11.260  -5.786  -7.659  1.00  0.00     0.037 A 
ATOM     60  C   UNL     1      10.339 -12.416  -8.788  1.00  0.00     0.049 A 
ATOM     61  C   UNL     1      11.784  -6.817  -8.585  1.00  0.00     0.074 A 
ATOM     62  C   UNL     1      11.032 -13.174  -7.862  1.00  0.00     0.029 A 
ATOM     63  N   UNL     1      11.261 -11.550  -9.323  1.00  0.00    -0.354 N 
ATOM     64  N   UNL     1      12.789  -7.599  -8.311  1.00  0.00    -0.248 NA
ATOM     65  C   UNL     1      10.907  -7.277  -9.650  1.00  0.00     0.031 C 
ATOM     66  C   UNL     1      12.190 -12.402  -7.547  1.00  0.00     0.029 A 
ATOM     67  C   UNL     1      12.181 -11.262  -8.352  1.00  0.00     0.049 A 
ATOM     68  H   UNL     1      11.260 -11.199 -10.243  1.00  0.00     0.167 HD
ATOM     69  C   UNL     1      12.418  -8.833  -8.822  1.00  0.00     0.074 A 
ATOM     70  C   UNL     1      11.305  -8.550  -9.726  1.00  0.00     0.031 C 
ATOM     71  C   UNL     1      12.855  -9.989  -8.242  1.00  0.00     0.037 A 
BRANCH  58  72
ATOM     72  C   UNL     1       8.403 -12.035 -10.455  1.00  0.00     0.057 A 
ATOM     73  C   UNL     1       9.113 -12.665 -11.497  1.00  0.00     0.134 A 
ATOM     74  C   UNL     1       7.431 -11.107 -10.879  1.00  0.00     0.134 A 
ATOM     75  F   UNL     1      10.060 -13.577 -11.235  1.00  0.00    -0.206 F 
ATOM     76  C   UNL     1       8.951 -12.309 -12.842  1.00  0.00     0.040 A 
ATOM     77  C   UNL     1       7.228 -10.781 -12.223  1.00  0.00     0.040 A 
ATOM     78  F   UNL     1       6.691 -10.390 -10.027  1.00  0.00    -0.206 F 
ATOM     79  C   UNL     1       8.016 -11.351 -13.207  1.00  0.00     0.006 A 
ENDBRANCH  58  72
BRANCH  59  80
ATOM     80  C   UNL     1      11.189  -4.360  -8.050  1.00  0.00     0.057 A 
ATOM     81  C   UNL     1      12.093  -3.819  -8.977  1.00  0.00     0.134 A 
ATOM     82  C   UNL     1      10.058  -3.578  -7.763  1.00  0.00     0.134 A 
ATOM     83  F   UNL     1      13.187  -4.504  -9.341  1.00  0.00    -0.206 F 
ATOM     84  C   UNL     1      11.864  -2.593  -9.616  1.00  0.00     0.040 A 
ATOM     85  C   UNL     1       9.820  -2.349  -8.389  1.00  0.00     0.040 A 
ATOM     86  F   UNL     1       9.099  -4.024  -6.939  1.00  0.00    -0.206 F 
ATOM     87  C   UNL     1      10.715  -1.861  -9.334  1.00  0.00     0.006 A 
ENDBRANCH  59  80
BRANCH  71  88
ATOM     88  C   UNL     1      13.981  -9.901  -7.249  1.00  0.00     0.057 A 
ATOM     89  C   UNL     1      13.927  -9.196  -6.037  1.00  0.00     0.134 A 
ATOM     90  C   UNL     1      15.123 -10.678  -7.476  1.00  0.00     0.134 A 
ATOM     91  F   UNL     1      12.839  -8.499  -5.682  1.00  0.00    -0.206 F 
ATOM     92  C   UNL     1      14.981  -9.230  -5.117  1.00  0.00     0.040 A 
ATOM     93  C   UNL     1      16.165 -10.750  -6.550  1.00  0.00     0.040 A 
ATOM     94  F   UNL     1      15.225 -11.420  -8.590  1.00  0.00    -0.206 F 
ATOM     95  C   UNL     1      16.102 -10.015  -5.370  1.00  0.00     0.006 A 
ENDBRANCH  71  88
ENDBRANCH  45  46
ENDBRANCH  37  40
ENDBRANCH  35  36
ENDBRANCH  34  35
ENDBRANCH   1  34
TORSDOF 15
