REMARK SMILES CCc1c(Cl)ccc2c1C=C(C(=O)NCCCNC(=O)c1ccc(-c3c4nc(c(-c5c(F)cccc5F)c5ccc([nH]5)c(-c5c(F)cccc5F)c5nc(c(-c6c(F)cccc6F)c6ccc3[nH]6)C=C5)C=C4)cc1)[C@@H](C(F)(F)F)O2
REMARK SMILES IDX 16 1 15 2 14 3 12 4 13 5 11 7 3 8 4 9 9 10 5 11 6 12 8 13
REMARK SMILES IDX 10 14 7 15 80 16 75 17 2 18 1 19 76 20 77 21 78 22 79 23
REMARK SMILES IDX 17 24 18 25 19 26 20 28 21 29 22 30 74 31 23 32 73 33 24 34
REMARK SMILES IDX 25 35 26 36 67 37 27 38 72 39 66 40 68 41 28 42 71 43 65 44
REMARK SMILES IDX 64 45 29 47 55 48 38 49 54 50 39 51 42 52 53 53 69 54 40 55
REMARK SMILES IDX 41 56 52 58 70 59 43 60 30 61 31 62 36 63 32 64 33 65 35 66
REMARK SMILES IDX 37 67 34 68 56 69 57 70 62 71 58 72 59 73 61 74 63 75 60 76
REMARK SMILES IDX 44 77 45 78 50 79 46 80 47 81 49 82 51 83 48 84
REMARK H PARENT 14 6 18 27 68 46 42 57
REMARK Flexibility Score: inf
ROOT
ATOM      1  C   UNL     1       3.001  -5.154   7.793  1.00  0.00     0.042 C 
ENDROOT
BRANCH   1   2
ATOM      2  C   UNL     1       3.855  -4.651   6.639  1.00  0.00     0.118 C 
BRANCH   2   3
ATOM      3  N   UNL     1       3.207  -4.856   5.351  1.00  0.00    -0.352 N 
ATOM      4  C   UNL     1       2.603  -4.100   4.404  1.00  0.00     0.251 C 
ATOM      5  O   UNL     1       2.182  -4.731   3.429  1.00  0.00    -0.270 OA
ATOM      6  H   UNL     1       3.210  -5.808   5.098  1.00  0.00     0.163 HD
BRANCH   4   7
ATOM      7  C   UNL     1       2.417  -2.619   4.464  1.00  0.00     0.067 C 
ATOM      8  C   UNL     1       0.804   0.051   2.357  1.00  0.00    -0.019 A 
ATOM      9  C   UNL     1       0.548   1.438   2.503  1.00  0.00     0.045 A 
ATOM     10  C   UNL     1       1.431  -0.628   3.437  1.00  0.00     0.022 A 
ATOM     11  Cl  UNL     1      -0.285   2.364   1.298  1.00  0.00    -0.084 Cl
ATOM     12  C   UNL     1       0.923   2.132   3.655  1.00  0.00     0.024 A 
ATOM     13  C   UNL     1       1.783   0.095   4.591  1.00  0.00     0.128 A 
ATOM     14  C   UNL     1       1.687  -2.075   3.470  1.00  0.00     0.026 C 
ATOM     15  C   UNL     1       1.538   1.460   4.700  1.00  0.00     0.048 A 
ATOM     16  O   UNL     1       2.328  -0.475   5.707  1.00  0.00    -0.475 OA
ATOM     17  C   UNL     1       2.992  -1.750   5.537  1.00  0.00     0.314 C 
BRANCH   8  18
ATOM     18  C   UNL     1       0.399  -0.653   1.073  1.00  0.00     0.034 C 
ATOM     19  C   UNL     1       1.308  -0.328  -0.109  1.00  0.00     0.009 C 
ENDBRANCH   8  18
BRANCH  17  20
ATOM     20  C   UNL     1       4.505  -1.515   5.376  1.00  0.00     0.429 C 
ATOM     21  F   UNL     1       5.038  -1.074   6.544  1.00  0.00    -0.167 F 
ATOM     22  F   UNL     1       5.177  -2.646   5.054  1.00  0.00    -0.167 F 
ATOM     23  F   UNL     1       4.796  -0.601   4.425  1.00  0.00    -0.167 F 
ENDBRANCH  17  20
ENDBRANCH   4   7
ENDBRANCH   2   3
ENDBRANCH   1   2
BRANCH   1  24
ATOM     24  C   UNL     1       3.063  -6.668   7.952  1.00  0.00     0.118 C 
BRANCH  24  25
ATOM     25  N   UNL     1       4.383  -7.128   8.383  1.00  0.00    -0.352 N 
ATOM     26  C   UNL     1       4.787  -7.710   9.561  1.00  0.00     0.251 C 
ATOM     27  H   UNL     1       5.100  -6.999   7.721  1.00  0.00     0.163 HD
ATOM     28  O   UNL     1       5.985  -7.825   9.806  1.00  0.00    -0.269 OA
BRANCH  26  29
ATOM     29  C   UNL     1       3.786  -8.176  10.542  1.00  0.00     0.039 A 
ATOM     30  C   UNL     1       2.626  -8.818  10.112  1.00  0.00     0.014 A 
ATOM     31  C   UNL     1       4.005  -7.967  11.907  1.00  0.00     0.014 A 
ATOM     32  C   UNL     1       1.599  -9.056  11.014  1.00  0.00     0.010 A 
ATOM     33  C   UNL     1       3.015  -8.316  12.830  1.00  0.00     0.010 A 
ATOM     34  C   UNL     1       1.779  -8.810  12.385  1.00  0.00    -0.014 A 
BRANCH  34  35
ATOM     35  C   UNL     1       0.651  -9.072  13.315  1.00  0.00     0.031 A 
ATOM     36  C   UNL     1       0.024  -7.953  14.103  1.00  0.00     0.074 A 
ATOM     37  C   UNL     1       0.138 -10.316  13.384  1.00  0.00     0.049 A 
ATOM     38  N   UNL     1      -0.989  -7.995  14.932  1.00  0.00    -0.248 NA
ATOM     39  C   UNL     1       0.611  -6.613  13.947  1.00  0.00     0.031 C 
ATOM     40  C   UNL     1       0.652 -11.482  12.659  1.00  0.00     0.029 A 
ATOM     41  N   UNL     1      -0.949 -10.802  14.063  1.00  0.00    -0.354 N 
ATOM     42  C   UNL     1      -1.143  -6.700  15.413  1.00  0.00     0.074 A 
ATOM     43  C   UNL     1      -0.103  -5.899  14.805  1.00  0.00     0.031 C 
ATOM     44  C   UNL     1      -0.160 -12.527  12.875  1.00  0.00     0.029 A 
ATOM     45  C   UNL     1      -1.204 -12.128  13.810  1.00  0.00     0.049 A 
ATOM     46  H   UNL     1      -1.495 -10.254  14.672  1.00  0.00     0.167 HD
ATOM     47  C   UNL     1      -2.073  -6.220  16.274  1.00  0.00     0.037 A 
ATOM     48  C   UNL     1      -2.163 -12.940  14.291  1.00  0.00     0.037 A 
ATOM     49  C   UNL     1      -3.122  -7.014  16.859  1.00  0.00     0.049 A 
ATOM     50  C   UNL     1      -3.156 -12.389  15.272  1.00  0.00     0.074 A 
ATOM     51  C   UNL     1      -4.123  -6.619  17.730  1.00  0.00     0.029 A 
ATOM     52  N   UNL     1      -3.308  -8.369  16.628  1.00  0.00    -0.354 N 
ATOM     53  N   UNL     1      -3.285 -11.164  15.717  1.00  0.00    -0.248 NA
ATOM     54  C   UNL     1      -4.126 -13.341  15.828  1.00  0.00     0.031 C 
ATOM     55  C   UNL     1      -4.891  -7.743  18.055  1.00  0.00     0.029 A 
ATOM     56  C   UNL     1      -4.394  -8.830  17.354  1.00  0.00     0.049 A 
ATOM     57  H   UNL     1      -2.750  -8.922  16.035  1.00  0.00     0.167 HD
ATOM     58  C   UNL     1      -4.355 -11.193  16.600  1.00  0.00     0.074 A 
ATOM     59  C   UNL     1      -4.856 -12.553  16.604  1.00  0.00     0.031 C 
ATOM     60  C   UNL     1      -4.872 -10.188  17.348  1.00  0.00     0.037 A 
BRANCH  47  61
ATOM     61  C   UNL     1      -1.981  -4.769  16.652  1.00  0.00     0.057 A 
ATOM     62  C   UNL     1      -1.573  -4.392  17.938  1.00  0.00     0.134 A 
ATOM     63  C   UNL     1      -2.315  -3.745  15.755  1.00  0.00     0.134 A 
ATOM     64  F   UNL     1      -1.243  -5.321  18.847  1.00  0.00    -0.206 F 
ATOM     65  C   UNL     1      -1.499  -3.050  18.318  1.00  0.00     0.040 A 
ATOM     66  C   UNL     1      -2.222  -2.399  16.116  1.00  0.00     0.040 A 
ATOM     67  F   UNL     1      -2.699  -4.037  14.503  1.00  0.00    -0.206 F 
ATOM     68  C   UNL     1      -1.818  -2.049  17.403  1.00  0.00     0.006 A 
ENDBRANCH  47  61
BRANCH  48  69
ATOM     69  C   UNL     1      -2.217 -14.360  13.866  1.00  0.00     0.057 A 
ATOM     70  C   UNL     1      -1.224 -15.272  14.245  1.00  0.00     0.134 A 
ATOM     71  C   UNL     1      -3.268 -14.841  13.078  1.00  0.00     0.134 A 
ATOM     72  F   UNL     1      -0.188 -14.871  14.996  1.00  0.00    -0.206 F 
ATOM     73  C   UNL     1      -1.267 -16.608  13.846  1.00  0.00     0.040 A 
ATOM     74  C   UNL     1      -3.339 -16.181  12.695  1.00  0.00     0.040 A 
ATOM     75  F   UNL     1      -4.259 -14.021  12.700  1.00  0.00    -0.206 F 
ATOM     76  C   UNL     1      -2.332 -17.067  13.074  1.00  0.00     0.006 A 
ENDBRANCH  48  69
BRANCH  60  77
ATOM     77  C   UNL     1      -6.049 -10.531  18.211  1.00  0.00     0.057 A 
ATOM     78  C   UNL     1      -7.334 -10.087  17.877  1.00  0.00     0.134 A 
ATOM     79  C   UNL     1      -5.910 -11.302  19.373  1.00  0.00     0.134 A 
ATOM     80  F   UNL     1      -7.533  -9.341  16.779  1.00  0.00    -0.206 F 
ATOM     81  C   UNL     1      -8.441 -10.402  18.665  1.00  0.00     0.040 A 
ATOM     82  C   UNL     1      -7.013 -11.644  20.155  1.00  0.00     0.040 A 
ATOM     83  F   UNL     1      -4.707 -11.772  19.736  1.00  0.00    -0.206 F 
ATOM     84  C   UNL     1      -8.283 -11.190  19.804  1.00  0.00     0.006 A 
ENDBRANCH  60  77
ENDBRANCH  34  35
ENDBRANCH  26  29
ENDBRANCH  24  25
ENDBRANCH   1  24
TORSDOF 12
