REMARK SMILES O=C(NCCCNC(=O)c1cccc(-c2c(F)cc(F)cc2F)c1)c1ccc(-c2c3nc(c(-c4c(F)cccc4F)c4ccc([nH]4)c(-c4c(F)cccc4F)c4nc(c(-c5c(F)cccc5F)c5ccc2[nH]5)C=C4)C=C3)cc1
REMARK SMILES IDX 4 1 3 2 1 3 2 4 25 6 26 7 78 8 27 9 77 10 28 11 29 12 30 13
REMARK SMILES IDX 71 14 31 15 76 16 70 17 72 18 32 19 75 20 69 21 68 22 33 24
REMARK SMILES IDX 59 25 42 26 58 27 43 28 46 29 57 30 73 31 44 32 45 33 56 35
REMARK SMILES IDX 74 36 47 37 34 38 35 39 40 40 36 41 37 42 39 43 41 44 38 45
REMARK SMILES IDX 60 46 61 47 66 48 62 49 63 50 65 51 67 52 64 53 48 54 49 55
REMARK SMILES IDX 54 56 50 57 51 58 53 59 55 60 52 61 5 62 6 63 7 64 8 65 9 67
REMARK SMILES IDX 10 68 11 69 24 70 12 71 14 72 13 73 15 74 16 75 22 76 17 77
REMARK SMILES IDX 18 78 21 79 23 80 19 81 20 82
REMARK H PARENT 3 5 72 23 46 34 7 66
REMARK Flexibility Score: inf
ROOT
ATOM      1  C   UNL     1       4.602   0.079  -1.398  1.00  0.00     0.118 C 
ENDROOT
BRANCH   1   2
ATOM      2  N   UNL     1       3.168   0.176  -1.151  1.00  0.00    -0.352 N 
ATOM      3  O   UNL     1       1.224  -0.046  -0.036  1.00  0.00    -0.269 OA
ATOM      4  C   UNL     1       2.451   0.004   0.008  1.00  0.00     0.251 C 
ATOM      5  H   UNL     1       2.627   0.402  -1.942  1.00  0.00     0.163 HD
BRANCH   4   6
ATOM      6  C   UNL     1       3.147  -0.144   1.304  1.00  0.00     0.039 A 
ATOM      7  C   UNL     1       4.256   0.644   1.612  1.00  0.00     0.014 A 
ATOM      8  C   UNL     1       2.669  -1.070   2.237  1.00  0.00     0.014 A 
ATOM      9  C   UNL     1       4.989   0.388   2.763  1.00  0.00     0.010 A 
ATOM     10  C   UNL     1       3.343  -1.246   3.450  1.00  0.00     0.010 A 
ATOM     11  C   UNL     1       4.528  -0.542   3.708  1.00  0.00    -0.014 A 
BRANCH  11  12
ATOM     12  C   UNL     1       5.269  -0.696   4.985  1.00  0.00     0.031 A 
ATOM     13  C   UNL     1       5.917  -1.999   5.362  1.00  0.00     0.074 A 
ATOM     14  C   UNL     1       5.384   0.376   5.793  1.00  0.00     0.049 A 
ATOM     15  N   UNL     1       6.614  -2.291   6.432  1.00  0.00    -0.248 NA
ATOM     16  C   UNL     1       5.758  -3.122   4.426  1.00  0.00     0.031 C 
ATOM     17  C   UNL     1       4.791   1.692   5.536  1.00  0.00     0.029 A 
ATOM     18  N   UNL     1       6.050   0.542   6.979  1.00  0.00    -0.354 N 
ATOM     19  C   UNL     1       6.968  -3.628   6.304  1.00  0.00     0.074 A 
ATOM     20  C   UNL     1       6.379  -4.102   5.069  1.00  0.00     0.031 C 
ATOM     21  C   UNL     1       5.161   2.540   6.504  1.00  0.00     0.029 A 
ATOM     22  C   UNL     1       5.954   1.814   7.488  1.00  0.00     0.049 A 
ATOM     23  H   UNL     1       6.550  -0.181   7.424  1.00  0.00     0.167 HD
ATOM     24  C   UNL     1       7.723  -4.386   7.136  1.00  0.00     0.037 A 
ATOM     25  C   UNL     1       6.429   2.337   8.632  1.00  0.00     0.037 A 
ATOM     26  C   UNL     1       8.308  -3.906   8.363  1.00  0.00     0.049 A 
ATOM     27  C   UNL     1       7.222   1.460   9.556  1.00  0.00     0.074 A 
ATOM     28  C   UNL     1       9.104  -4.591   9.266  1.00  0.00     0.029 A 
ATOM     29  N   UNL     1       8.155  -2.621   8.864  1.00  0.00    -0.354 N 
ATOM     30  N   UNL     1       7.572   0.206   9.406  1.00  0.00    -0.248 NA
ATOM     31  C   UNL     1       7.682   2.070  10.810  1.00  0.00     0.031 C 
ATOM     32  C   UNL     1       9.392  -3.736  10.335  1.00  0.00     0.029 A 
ATOM     33  C   UNL     1       8.823  -2.501  10.073  1.00  0.00     0.049 A 
ATOM     34  H   UNL     1       7.648  -1.900   8.425  1.00  0.00     0.167 HD
ATOM     35  C   UNL     1       8.312  -0.118  10.535  1.00  0.00     0.074 A 
ATOM     36  C   UNL     1       8.377   1.079  11.349  1.00  0.00     0.031 C 
ATOM     37  C   UNL     1       8.882  -1.301  10.869  1.00  0.00     0.037 A 
BRANCH  24  38
ATOM     38  C   UNL     1       7.950  -5.823   6.758  1.00  0.00     0.057 A 
ATOM     39  C   UNL     1       8.775  -6.185   5.685  1.00  0.00     0.134 A 
ATOM     40  C   UNL     1       7.376  -6.859   7.506  1.00  0.00     0.134 A 
ATOM     41  F   UNL     1       9.349  -5.244   4.920  1.00  0.00    -0.206 F 
ATOM     42  C   UNL     1       9.004  -7.524   5.357  1.00  0.00     0.040 A 
ATOM     43  C   UNL     1       7.618  -8.201   7.204  1.00  0.00     0.040 A 
ATOM     44  F   UNL     1       6.582  -6.585   8.552  1.00  0.00    -0.206 F 
ATOM     45  C   UNL     1       8.430  -8.536   6.123  1.00  0.00     0.006 A 
ENDBRANCH  24  38
BRANCH  25  46
ATOM     46  C   UNL     1       6.152   3.755   8.971  1.00  0.00     0.057 A 
ATOM     47  C   UNL     1       7.178   4.706   9.013  1.00  0.00     0.134 A 
ATOM     48  C   UNL     1       4.854   4.194   9.264  1.00  0.00     0.134 A 
ATOM     49  F   UNL     1       8.444   4.345   8.757  1.00  0.00    -0.206 F 
ATOM     50  C   UNL     1       6.928   6.036   9.354  1.00  0.00     0.040 A 
ATOM     51  C   UNL     1       4.585   5.526   9.575  1.00  0.00     0.040 A 
ATOM     52  F   UNL     1       3.825   3.334   9.231  1.00  0.00    -0.206 F 
ATOM     53  C   UNL     1       5.626   6.450   9.630  1.00  0.00     0.006 A 
ENDBRANCH  25  46
BRANCH  37  54
ATOM     54  C   UNL     1       9.657  -1.342  12.154  1.00  0.00     0.057 A 
ATOM     55  C   UNL     1       9.025  -1.293  13.403  1.00  0.00     0.134 A 
ATOM     56  C   UNL     1      11.054  -1.450  12.139  1.00  0.00     0.134 A 
ATOM     57  F   UNL     1       7.691  -1.173  13.486  1.00  0.00    -0.206 F 
ATOM     58  C   UNL     1       9.757  -1.321  14.591  1.00  0.00     0.040 A 
ATOM     59  C   UNL     1      11.793  -1.508  13.320  1.00  0.00     0.040 A 
ATOM     60  F   UNL     1      11.721  -1.508  10.976  1.00  0.00    -0.206 F 
ATOM     61  C   UNL     1      11.145  -1.436  14.551  1.00  0.00     0.006 A 
ENDBRANCH  37  54
ENDBRANCH  11  12
ENDBRANCH   4   6
ENDBRANCH   1   2
BRANCH   1  62
ATOM     62  C   UNL     1       4.971  -1.105  -2.279  1.00  0.00     0.042 C 
BRANCH  62  63
ATOM     63  C   UNL     1       4.416  -1.012  -3.692  1.00  0.00     0.118 C 
BRANCH  63  64
ATOM     64  N   UNL     1       4.933   0.143  -4.412  1.00  0.00    -0.352 N 
ATOM     65  C   UNL     1       5.867   0.214  -5.416  1.00  0.00     0.251 C 
ATOM     66  H   UNL     1       4.554   1.009  -4.136  1.00  0.00     0.163 HD
ATOM     67  O   UNL     1       6.343   1.301  -5.731  1.00  0.00    -0.269 OA
BRANCH  65  68
ATOM     68  C   UNL     1       6.311  -1.012  -6.108  1.00  0.00     0.040 A 
ATOM     69  C   UNL     1       7.673  -1.204  -6.343  1.00  0.00     0.014 A 
ATOM     70  C   UNL     1       5.381  -1.960  -6.549  1.00  0.00     0.022 A 
ATOM     71  C   UNL     1       8.104  -2.379  -6.954  1.00  0.00     0.001 A 
ATOM     72  C   UNL     1       5.797  -3.171  -7.120  1.00  0.00    -0.012 A 
ATOM     73  C   UNL     1       7.175  -3.361  -7.319  1.00  0.00     0.009 A 
BRANCH  72  74
ATOM     74  C   UNL     1       4.813  -4.213  -7.457  1.00  0.00     0.053 A 
ATOM     75  C   UNL     1       4.946  -5.528  -6.981  1.00  0.00     0.136 A 
ATOM     76  C   UNL     1       3.674  -3.933  -8.229  1.00  0.00     0.136 A 
ATOM     77  F   UNL     1       5.990  -5.862  -6.205  1.00  0.00    -0.206 F 
ATOM     78  C   UNL     1       4.006  -6.515  -7.264  1.00  0.00     0.079 A 
ATOM     79  C   UNL     1       2.723  -4.907  -8.524  1.00  0.00     0.079 A 
ATOM     80  F   UNL     1       3.471  -2.695  -8.704  1.00  0.00    -0.206 F 
ATOM     81  C   UNL     1       2.902  -6.193  -8.038  1.00  0.00     0.129 A 
ATOM     82  F   UNL     1       1.992  -7.135  -8.314  1.00  0.00    -0.207 F 
ENDBRANCH  72  74
ENDBRANCH  65  68
ENDBRANCH  63  64
ENDBRANCH  62  63
ENDBRANCH   1  62
TORSDOF 11
