REMARK SMILES CCCc1cc(S(F)(F)(F)(F)F)cc2c1O[C@@H](C(F)(F)F)C(C(=O)NCCCNC(=O)c1ccc(-c3c4nc(c(-c5c(F)cccc5F)c5ccc([nH]5)c(-c5c(F)cccc5F)c5nc(c(-c6c(F)cccc6F)c6ccc3[nH]6)C=C5)C=C4)cc1)=C2
REMARK SMILES IDX 27 1 26 2 25 3 23 4 24 5 22 7 4 8 5 9 15 10 6 11 14 12 16 13
REMARK SMILES IDX 13 14 86 15 17 16 3 17 2 18 1 19 7 20 8 21 9 22 10 23 11 24
REMARK SMILES IDX 12 25 18 26 19 27 20 28 21 29 28 30 29 31 30 32 31 34 32 35
REMARK SMILES IDX 33 36 85 37 34 38 84 39 35 40 36 41 37 42 78 43 38 44 83 45
REMARK SMILES IDX 77 46 79 47 39 48 82 49 76 50 75 51 40 53 66 54 49 55 65 56
REMARK SMILES IDX 50 57 53 58 64 59 80 60 51 61 52 62 63 64 81 65 54 66 41 67
REMARK SMILES IDX 42 68 47 69 43 70 44 71 46 72 48 73 45 74 67 75 68 76 73 77
REMARK SMILES IDX 69 78 70 79 72 80 74 81 71 82 55 83 56 84 61 85 57 86 58 87
REMARK SMILES IDX 60 88 62 89 59 90
REMARK H PARENT 25 6 29 33 79 52 53 63
REMARK Flexibility Score: inf
ROOT
ATOM      1  C   UNL     1      -2.327  -0.062   9.215  1.00  0.00     0.042 C 
ENDROOT
BRANCH   1   2
ATOM      2  C   UNL     1      -1.181  -0.949   8.758  1.00  0.00     0.118 C 
BRANCH   2   3
ATOM      3  N   UNL     1      -1.611  -2.355   8.779  1.00  0.00    -0.352 N 
ATOM      4  C   UNL     1      -1.597  -3.147   7.540  1.00  0.00     0.251 C 
ATOM      5  O   UNL     1      -1.968  -4.362   7.559  1.00  0.00    -0.270 OA
ATOM      6  H   UNL     1      -1.908  -2.766   9.623  1.00  0.00     0.163 HD
BRANCH   4   7
ATOM      7  C   UNL     1      -1.138  -2.512   6.238  1.00  0.00     0.067 C 
ATOM      8  C   UNL     1       0.573  -0.995   2.742  1.00  0.00    -0.004 A 
ATOM      9  C   UNL     1       0.805   0.363   2.620  1.00  0.00     0.032 A 
ATOM     10  C   UNL     1       0.059  -1.474   3.923  1.00  0.00     0.131 A 
ATOM     11  C   UNL     1       0.534   1.219   3.655  1.00  0.00     0.108 A 
ATOM     12  C   UNL     1      -0.244  -0.637   4.982  1.00  0.00     0.019 A 
ATOM     13  O   UNL     1      -0.060  -2.834   4.070  1.00  0.00    -0.475 OA
ATOM     14  C   UNL     1       0.006   0.722   4.828  1.00  0.00     0.036 A 
ATOM     15  C   UNL     1      -0.747  -1.244   6.202  1.00  0.00     0.025 C 
ATOM     16  C   UNL     1      -1.117  -3.317   4.945  1.00  0.00     0.314 C 
BRANCH   8  17
ATOM     17  C   UNL     1       1.080  -1.905   1.635  1.00  0.00     0.039 C 
BRANCH  17  18
ATOM     18  C   UNL     1       0.573  -1.401   0.293  1.00  0.00     0.001 C 
ATOM     19  C   UNL     1       1.080   0.013   0.059  1.00  0.00     0.004 C 
ENDBRANCH  17  18
ENDBRANCH   8  17
BRANCH  11  20
ATOM     20  S   UNL     1       0.868   2.990   3.483  1.00  0.00     0.310 S 
ATOM     21  F   UNL     1       1.813   3.016   4.757  1.00  0.00    -0.094 F 
ATOM     22  F   UNL     1      -0.339   3.261   4.459  1.00  0.00    -0.094 F 
ATOM     23  F   UNL     1       1.127   4.516   3.336  1.00  0.00    -0.094 F 
ATOM     24  F   UNL     1       2.159   2.696   2.622  1.00  0.00    -0.094 F 
ATOM     25  F   UNL     1       0.686   1.437   3.715  1.00  0.00    -0.094 F 
ENDBRANCH  11  20
BRANCH  16  26
ATOM     26  C   UNL     1      -0.860  -4.778   5.275  1.00  0.00     0.429 C 
ATOM     27  F   UNL     1      -1.824  -5.230   6.072  1.00  0.00    -0.167 F 
ATOM     28  F   UNL     1      -0.844  -5.490   4.152  1.00  0.00    -0.167 F 
ATOM     29  F   UNL     1       0.314  -4.894   5.890  1.00  0.00    -0.167 F 
ENDBRANCH  16  26
ENDBRANCH   4   7
ENDBRANCH   2   3
ENDBRANCH   1   2
BRANCH   1  30
ATOM     30  C   UNL     1      -2.733  -0.446  10.628  1.00  0.00     0.118 C 
BRANCH  30  31
ATOM     31  N   UNL     1      -1.587  -0.271  11.532  1.00  0.00    -0.352 N 
ATOM     32  C   UNL     1      -1.681   0.659  12.666  1.00  0.00     0.251 C 
ATOM     33  H   UNL     1      -0.756  -0.776  11.377  1.00  0.00     0.163 HD
ATOM     34  O   UNL     1      -0.690   0.811  13.448  1.00  0.00    -0.269 OA
BRANCH  32  35
ATOM     35  C   UNL     1      -2.964   1.439  12.905  1.00  0.00     0.039 A 
ATOM     36  C   UNL     1      -2.888   2.790  13.204  1.00  0.00     0.014 A 
ATOM     37  C   UNL     1      -4.134   0.816  12.827  1.00  0.00     0.014 A 
ATOM     38  C   UNL     1      -4.097   3.338  13.691  1.00  0.00     0.010 A 
ATOM     39  C   UNL     1      -5.293   1.457  13.190  1.00  0.00     0.010 A 
ATOM     40  C   UNL     1      -5.284   2.775  13.553  1.00  0.00    -0.014 A 
BRANCH  40  41
ATOM     41  C   UNL     1      -6.570   3.551  13.785  1.00  0.00     0.031 A 
ATOM     42  C   UNL     1      -7.444   3.105  14.779  1.00  0.00     0.074 A 
ATOM     43  C   UNL     1      -6.801   4.664  12.995  1.00  0.00     0.049 A 
ATOM     44  N   UNL     1      -8.595   3.661  15.159  1.00  0.00    -0.248 NA
ATOM     45  C   UNL     1      -7.218   1.904  15.596  1.00  0.00     0.031 C 
ATOM     46  C   UNL     1      -5.921   5.125  11.996  1.00  0.00     0.029 A 
ATOM     47  N   UNL     1      -7.889   5.508  13.020  1.00  0.00    -0.354 N 
ATOM     48  C   UNL     1      -9.140   2.957  16.154  1.00  0.00     0.074 A 
ATOM     49  C   UNL     1      -8.265   1.814  16.445  1.00  0.00     0.031 C 
ATOM     50  C   UNL     1      -6.475   6.224  11.421  1.00  0.00     0.029 A 
ATOM     51  C   UNL     1      -7.710   6.470  12.050  1.00  0.00     0.049 A 
ATOM     52  H   UNL     1      -8.660   5.437  13.627  1.00  0.00     0.167 HD
ATOM     53  C   UNL     1     -10.331   3.226  16.831  1.00  0.00     0.037 A 
ATOM     54  C   UNL     1      -8.566   7.508  11.716  1.00  0.00     0.037 A 
ATOM     55  C   UNL     1     -11.165   4.290  16.526  1.00  0.00     0.049 A 
ATOM     56  C   UNL     1      -9.786   7.742  12.354  1.00  0.00     0.074 A 
ATOM     57  C   UNL     1     -12.365   4.579  17.203  1.00  0.00     0.029 A 
ATOM     58  N   UNL     1     -10.999   5.236  15.539  1.00  0.00    -0.354 N 
ATOM     59  N   UNL     1     -10.311   7.062  13.375  1.00  0.00    -0.248 NA
ATOM     60  C   UNL     1     -10.715   8.819  11.988  1.00  0.00     0.031 C 
ATOM     61  C   UNL     1     -12.920   5.679  16.627  1.00  0.00     0.029 A 
ATOM     62  C   UNL     1     -12.075   6.094  15.580  1.00  0.00     0.049 A 
ATOM     63  H   UNL     1     -10.241   5.290  14.913  1.00  0.00     0.167 HD
ATOM     64  C   UNL     1     -11.482   7.594  13.727  1.00  0.00     0.074 A 
ATOM     65  C   UNL     1     -11.763   8.728  12.835  1.00  0.00     0.031 C 
ATOM     66  C   UNL     1     -12.328   7.183  14.759  1.00  0.00     0.037 A 
BRANCH  53  67
ATOM     67  C   UNL     1     -10.735   2.300  17.966  1.00  0.00     0.057 A 
ATOM     68  C   UNL     1      -9.834   2.017  18.979  1.00  0.00     0.134 A 
ATOM     69  C   UNL     1     -11.889   1.650  17.870  1.00  0.00     0.134 A 
ATOM     70  F   UNL     1      -8.797   2.799  19.266  1.00  0.00    -0.206 F 
ATOM     71  C   UNL     1     -10.116   0.821  19.680  1.00  0.00     0.040 A 
ATOM     72  C   UNL     1     -12.155   0.573  18.680  1.00  0.00     0.040 A 
ATOM     73  F   UNL     1     -12.796   2.045  16.980  1.00  0.00    -0.206 F 
ATOM     74  C   UNL     1     -11.282   0.201  19.664  1.00  0.00     0.006 A 
ENDBRANCH  53  67
BRANCH  54  75
ATOM     75  C   UNL     1      -8.152   8.444  10.592  1.00  0.00     0.057 A 
ATOM     76  C   UNL     1      -7.834   9.776  10.798  1.00  0.00     0.134 A 
ATOM     77  C   UNL     1      -7.969   7.866   9.411  1.00  0.00     0.134 A 
ATOM     78  F   UNL     1      -7.760  10.325  12.007  1.00  0.00    -0.206 F 
ATOM     79  C   UNL     1      -7.594  10.499   9.606  1.00  0.00     0.040 A 
ATOM     80  C   UNL     1      -7.602   8.613   8.317  1.00  0.00     0.040 A 
ATOM     81  F   UNL     1      -8.142   6.554   9.284  1.00  0.00    -0.206 F 
ATOM     82  C   UNL     1      -7.329   9.947   8.436  1.00  0.00     0.006 A 
ENDBRANCH  54  75
BRANCH  66  83
ATOM     83  C   UNL     1     -13.602   7.976  14.998  1.00  0.00     0.057 A 
ATOM     84  C   UNL     1     -14.535   8.078  13.979  1.00  0.00     0.134 A 
ATOM     85  C   UNL     1     -13.800   8.560  16.174  1.00  0.00     0.134 A 
ATOM     86  F   UNL     1     -14.505   7.316  12.890  1.00  0.00    -0.206 F 
ATOM     87  C   UNL     1     -15.522   9.066  14.203  1.00  0.00     0.040 A 
ATOM     88  C   UNL     1     -14.864   9.409  16.364  1.00  0.00     0.040 A 
ATOM     89  F   UNL     1     -12.961   8.320  17.178  1.00  0.00    -0.206 F 
ATOM     90  C   UNL     1     -15.793   9.602  15.380  1.00  0.00     0.006 A 
ENDBRANCH  66  83
ENDBRANCH  40  41
ENDBRANCH  32  35
ENDBRANCH  30  31
ENDBRANCH   1  30
TORSDOF 14
