REMARK SMILES Cc1c(CC(=O)NCCCNC(=O)c2ccc(-c3c4nc(c(-c5c(F)cccc5F)c5ccc([nH]5)c(-c5c(F)cccc5F)c5nc(c(-c6c(F)cccc6F)c6ccc3[nH]6)C=C5)C=C4)cc2)cc(-c2ccccc2)cc1-c1ccccc1
REMARK SMILES IDX 9 1 8 2 7 3 5 4 6 5 4 7 3 8 1 9 2 10 77 11 68 12 76 13 69 14
REMARK SMILES IDX 78 15 79 16 83 17 80 18 82 19 81 20 70 21 71 22 75 23 72 24
REMARK SMILES IDX 74 25 73 26 10 27 11 28 12 29 13 31 14 32 15 33 67 34 16 35
REMARK SMILES IDX 66 36 17 37 18 38 19 39 60 40 20 41 65 42 59 43 61 44 21 45
REMARK SMILES IDX 64 46 58 47 57 48 22 50 48 51 31 52 47 53 32 54 35 55 46 56
REMARK SMILES IDX 62 57 33 58 34 59 45 61 63 62 36 63 23 64 24 65 29 66 25 67
REMARK SMILES IDX 26 68 28 69 30 70 27 71 49 72 50 73 55 74 51 75 52 76 54 77
REMARK SMILES IDX 56 78 53 79 37 80 38 81 43 82 39 83 40 84 42 85 44 86 41 87
REMARK H PARENT 7 6 11 30 61 49 35 60
REMARK Flexibility Score: inf
ROOT
ATOM      1  C   UNL     1       1.346  -0.540   2.926  1.00  0.00     0.042 C 
ENDROOT
BRANCH   1   2
ATOM      2  C   UNL     1       2.057  -1.876   2.723  1.00  0.00     0.117 C 
BRANCH   2   3
ATOM      3  N   UNL     1       1.143  -2.953   2.375  1.00  0.00    -0.356 N 
ATOM      4  C   UNL     1       0.652  -3.311   1.149  1.00  0.00     0.224 C 
ATOM      5  O   UNL     1      -0.118  -4.273   1.092  1.00  0.00    -0.275 OA
ATOM      6  H   UNL     1       0.833  -3.502   3.131  1.00  0.00     0.163 HD
BRANCH   4   7
ATOM      7  C   UNL     1       1.051  -2.546  -0.111  1.00  0.00     0.135 C 
BRANCH   7   8
ATOM      8  C   UNL     1       0.368  -1.195  -0.239  1.00  0.00    -0.035 A 
ATOM      9  C   UNL     1       2.568   0.071  -0.490  1.00  0.00     0.045 C 
ATOM     10  C   UNL     1       1.065   0.038  -0.335  1.00  0.00    -0.040 A 
ATOM     11  C   UNL     1       0.326   1.254  -0.315  1.00  0.00    -0.015 A 
ATOM     12  C   UNL     1      -1.044  -1.191  -0.209  1.00  0.00     0.013 A 
ATOM     13  C   UNL     1      -1.082   1.202  -0.256  1.00  0.00     0.017 A 
ATOM     14  C   UNL     1      -1.787  -0.006  -0.221  1.00  0.00    -0.017 A 
BRANCH  11  15
ATOM     15  C   UNL     1       0.967   2.584  -0.293  1.00  0.00    -0.018 A 
ATOM     16  C   UNL     1       0.840   3.414   0.836  1.00  0.00     0.009 A 
ATOM     17  C   UNL     1       1.717   3.056  -1.380  1.00  0.00     0.009 A 
ATOM     18  C   UNL     1       1.454   4.668   0.881  1.00  0.00     0.001 A 
ATOM     19  C   UNL     1       2.343   4.304  -1.331  1.00  0.00     0.001 A 
ATOM     20  C   UNL     1       2.212   5.109  -0.201  1.00  0.00     0.000 A 
ENDBRANCH  11  15
BRANCH  14  21
ATOM     21  C   UNL     1      -3.259  -0.030  -0.196  1.00  0.00    -0.018 A 
ATOM     22  C   UNL     1      -3.962  -0.714   0.810  1.00  0.00     0.009 A 
ATOM     23  C   UNL     1      -4.002   0.618  -1.196  1.00  0.00     0.009 A 
ATOM     24  C   UNL     1      -5.360  -0.750   0.812  1.00  0.00     0.001 A 
ATOM     25  C   UNL     1      -5.398   0.579  -1.198  1.00  0.00     0.001 A 
ATOM     26  C   UNL     1      -6.077  -0.106  -0.193  1.00  0.00     0.000 A 
ENDBRANCH  14  21
ENDBRANCH   7   8
ENDBRANCH   4   7
ENDBRANCH   2   3
ENDBRANCH   1   2
BRANCH   1  27
ATOM     27  C   UNL     1       0.860  -0.308   4.346  1.00  0.00     0.118 C 
BRANCH  27  28
ATOM     28  N   UNL     1       1.752   0.508   5.162  1.00  0.00    -0.352 N 
ATOM     29  C   UNL     1       1.671   0.803   6.514  1.00  0.00     0.251 C 
ATOM     30  H   UNL     1       2.517   0.904   4.687  1.00  0.00     0.163 HD
ATOM     31  O   UNL     1       2.502   1.528   7.037  1.00  0.00    -0.269 OA
BRANCH  29  32
ATOM     32  C   UNL     1       0.650   0.117   7.344  1.00  0.00     0.039 A 
ATOM     33  C   UNL     1       1.077  -0.489   8.531  1.00  0.00     0.014 A 
ATOM     34  C   UNL     1      -0.630  -0.125   6.854  1.00  0.00     0.014 A 
ATOM     35  C   UNL     1       0.330  -1.534   9.067  1.00  0.00     0.010 A 
ATOM     36  C   UNL     1      -1.317  -1.229   7.316  1.00  0.00     0.010 A 
ATOM     37  C   UNL     1      -0.798  -1.977   8.377  1.00  0.00    -0.014 A 
BRANCH  37  38
ATOM     38  C   UNL     1      -1.393  -3.290   8.593  1.00  0.00     0.031 A 
ATOM     39  C   UNL     1      -2.715  -3.432   9.236  1.00  0.00     0.074 A 
ATOM     40  C   UNL     1      -0.760  -4.383   8.110  1.00  0.00     0.049 A 
ATOM     41  N   UNL     1      -3.112  -4.498   9.845  1.00  0.00    -0.248 NA
ATOM     42  C   UNL     1      -3.694  -2.352   9.268  1.00  0.00     0.031 C 
ATOM     43  C   UNL     1      -1.306  -5.729   7.959  1.00  0.00     0.029 A 
ATOM     44  N   UNL     1       0.607  -4.528   7.831  1.00  0.00    -0.354 N 
ATOM     45  C   UNL     1      -4.457  -4.357  10.103  1.00  0.00     0.074 A 
ATOM     46  C   UNL     1      -4.758  -2.982   9.776  1.00  0.00     0.031 C 
ATOM     47  C   UNL     1      -0.290  -6.603   7.899  1.00  0.00     0.029 A 
ATOM     48  C   UNL     1       0.933  -5.862   8.155  1.00  0.00     0.049 A 
ATOM     49  H   UNL     1       1.216  -3.838   7.481  1.00  0.00     0.167 HD
ATOM     50  C   UNL     1      -5.198  -5.453  10.438  1.00  0.00     0.037 A 
ATOM     51  C   UNL     1       1.833  -6.158   9.136  1.00  0.00     0.037 A 
ATOM     52  C   UNL     1      -4.370  -6.653  10.511  1.00  0.00     0.049 A 
ATOM     53  C   UNL     1       1.266  -6.986  10.264  1.00  0.00     0.074 A 
ATOM     54  C   UNL     1      -4.112  -7.664   9.600  1.00  0.00     0.029 A 
ATOM     55  N   UNL     1      -3.420  -6.778  11.517  1.00  0.00    -0.354 N 
ATOM     56  N   UNL     1      -0.011  -7.121  10.494  1.00  0.00    -0.248 NA
ATOM     57  C   UNL     1       2.085  -7.699  11.242  1.00  0.00     0.031 C 
ATOM     58  C   UNL     1      -2.967  -8.371  10.037  1.00  0.00     0.029 A 
ATOM     59  C   UNL     1      -2.540  -7.802  11.223  1.00  0.00     0.049 A 
ATOM     60  H   UNL     1      -3.379  -6.217  12.325  1.00  0.00     0.167 HD
ATOM     61  C   UNL     1      -0.197  -7.876  11.622  1.00  0.00     0.074 A 
ATOM     62  C   UNL     1       1.145  -8.235  12.040  1.00  0.00     0.031 C 
ATOM     63  C   UNL     1      -1.443  -8.124  12.121  1.00  0.00     0.037 A 
BRANCH  50  64
ATOM     64  C   UNL     1      -6.708  -5.478  10.386  1.00  0.00     0.057 A 
ATOM     65  C   UNL     1      -7.406  -6.641  10.004  1.00  0.00     0.134 A 
ATOM     66  C   UNL     1      -7.532  -4.371  10.650  1.00  0.00     0.134 A 
ATOM     67  F   UNL     1      -6.785  -7.815   9.835  1.00  0.00    -0.206 F 
ATOM     68  C   UNL     1      -8.787  -6.661   9.769  1.00  0.00     0.040 A 
ATOM     69  C   UNL     1      -8.906  -4.359  10.367  1.00  0.00     0.040 A 
ATOM     70  F   UNL     1      -7.049  -3.268  11.237  1.00  0.00    -0.206 F 
ATOM     71  C   UNL     1      -9.537  -5.504   9.906  1.00  0.00     0.006 A 
ENDBRANCH  50  64
BRANCH  51  72
ATOM     72  C   UNL     1       2.907  -5.143   9.278  1.00  0.00     0.057 A 
ATOM     73  C   UNL     1       3.828  -4.987   8.227  1.00  0.00     0.134 A 
ATOM     74  C   UNL     1       2.819  -4.104  10.208  1.00  0.00     0.134 A 
ATOM     75  F   UNL     1       3.959  -5.948   7.299  1.00  0.00    -0.206 F 
ATOM     76  C   UNL     1       4.548  -3.804   8.046  1.00  0.00     0.040 A 
ATOM     77  C   UNL     1       3.542  -2.916  10.040  1.00  0.00     0.040 A 
ATOM     78  F   UNL     1       1.946  -4.169  11.223  1.00  0.00    -0.206 F 
ATOM     79  C   UNL     1       4.380  -2.750   8.937  1.00  0.00     0.006 A 
ENDBRANCH  51  72
BRANCH  63  80
ATOM     80  C   UNL     1      -1.761  -8.757  13.453  1.00  0.00     0.057 A 
ATOM     81  C   UNL     1      -0.956  -8.642  14.593  1.00  0.00     0.134 A 
ATOM     82  C   UNL     1      -3.009  -9.389  13.660  1.00  0.00     0.134 A 
ATOM     83  F   UNL     1       0.207  -7.977  14.566  1.00  0.00    -0.206 F 
ATOM     84  C   UNL     1      -1.340  -9.158  15.839  1.00  0.00     0.040 A 
ATOM     85  C   UNL     1      -3.425  -9.861  14.908  1.00  0.00     0.040 A 
ATOM     86  F   UNL     1      -3.890  -9.555  12.662  1.00  0.00    -0.206 F 
ATOM     87  C   UNL     1      -2.583  -9.757  16.003  1.00  0.00     0.006 A 
ENDBRANCH  63  80
ENDBRANCH  37  38
ENDBRANCH  29  32
ENDBRANCH  27  28
ENDBRANCH   1  27
TORSDOF 13
