REMARK SMILES [NH3+][C@@H](CC(=O)NCCCNC(=O)c1ccc(-c2c3nc(c(-c4c(F)cccc4F)c4ccc([nH]4)c(-c4c(F)cccc4F)c4nc(c(-c5c(F)cccc5F)c5ccc2[nH]5)C=C4)C=C3)cc1)c1cc([N+](=O)[O-])ccc1Cl
REMARK SMILES IDX 7 1 6 2 4 3 5 4 3 6 2 7 1 8 67 12 68 13 75 14 69 15 74 16
REMARK SMILES IDX 76 17 73 18 70 19 71 20 72 21 8 22 9 23 10 24 11 25 12 27
REMARK SMILES IDX 13 28 14 29 66 30 15 31 65 32 16 33 17 34 18 35 59 36 19 37
REMARK SMILES IDX 64 38 58 39 60 40 20 41 63 42 57 43 56 44 21 46 47 47 30 48
REMARK SMILES IDX 46 49 31 50 34 51 45 52 61 53 32 54 33 55 44 57 62 58 35 59
REMARK SMILES IDX 22 60 23 61 28 62 24 63 25 64 27 65 29 66 26 67 48 68 49 69
REMARK SMILES IDX 54 70 50 71 51 72 53 73 55 74 52 75 36 76 37 77 42 78 38 79
REMARK SMILES IDX 39 80 41 81 43 82 40 83
REMARK H PARENT 6 5 1 9 1 10 1 11 10 26 60 45 34 56
REMARK Flexibility Score: inf
ROOT
ATOM      1  C   UNL     1       2.090  -0.340  -2.439  1.00  0.00     0.117 C 
ENDROOT
BRANCH   1   2
ATOM      2  N   UNL     1       0.963   0.505  -2.796  1.00  0.00    -0.356 N 
ATOM      3  C   UNL     1       0.350   1.498  -2.099  1.00  0.00     0.226 C 
ATOM      4  O   UNL     1      -0.683   1.981  -2.567  1.00  0.00    -0.275 OA
ATOM      5  H   UNL     1       0.582   0.329  -3.687  1.00  0.00     0.163 HD
BRANCH   3   6
ATOM      6  C   UNL     1       0.953   2.036  -0.821  1.00  0.00     0.170 C 
BRANCH   6   7
ATOM      7  C   UNL     1       0.342   1.531   0.501  1.00  0.00     0.223 C 
BRANCH   7   8
ATOM      8  N   UNL     1       1.077   0.418   1.098  1.00  0.00    -0.351 N 
ATOM      9  H   UNL     1       2.079   0.599   1.034  1.00  0.00     0.345 HD
ATOM     10  H   UNL     1       0.855  -0.443   0.598  1.00  0.00     0.345 HD
ATOM     11  H   UNL     1       0.811   0.321   2.078  1.00  0.00     0.345 HD
ENDBRANCH   7   8
BRANCH   7  12
ATOM     12  C   UNL     1      -1.180   1.409   0.518  1.00  0.00     0.035 A 
ATOM     13  C   UNL     1      -1.898   2.631   0.488  1.00  0.00     0.097 A 
ATOM     14  C   UNL     1      -1.938   0.220   0.537  1.00  0.00     0.050 A 
ATOM     15  C   UNL     1      -3.301   2.658   0.484  1.00  0.00     0.270 A 
ATOM     16  C   UNL     1      -3.344   0.258   0.540  1.00  0.00     0.028 A 
ATOM     17  Cl  UNL     1      -1.259  -1.368   0.551  1.00  0.00    -0.084 Cl
ATOM     18  C   UNL     1      -4.030   1.470   0.513  1.00  0.00     0.087 A 
BRANCH  15  19
ATOM     19  N   UNL     1      -4.007   3.945   0.459  1.00  0.00     0.062 N 
ATOM     20  O   UNL     1      -3.322   4.978   0.440  1.00  0.00    -0.258 OA
ATOM     21  O   UNL     1      -5.246   3.923   0.470  1.00  0.00    -0.258 OA
ENDBRANCH  15  19
ENDBRANCH   7  12
ENDBRANCH   6   7
ENDBRANCH   3   6
ENDBRANCH   1   2
BRANCH   1  22
ATOM     22  C   UNL     1       1.622  -1.689  -1.909  1.00  0.00     0.042 C 
BRANCH  22  23
ATOM     23  C   UNL     1       0.929  -2.566  -2.946  1.00  0.00     0.118 C 
BRANCH  23  24
ATOM     24  N   UNL     1       1.881  -3.219  -3.826  1.00  0.00    -0.352 N 
ATOM     25  C   UNL     1       2.091  -4.558  -4.055  1.00  0.00     0.251 C 
ATOM     26  H   UNL     1       2.465  -2.612  -4.336  1.00  0.00     0.163 HD
ATOM     27  O   UNL     1       3.091  -4.909  -4.673  1.00  0.00    -0.269 OA
BRANCH  25  28
ATOM     28  C   UNL     1       1.138  -5.581  -3.560  1.00  0.00     0.039 A 
ATOM     29  C   UNL     1       1.650  -6.794  -3.085  1.00  0.00     0.014 A 
ATOM     30  C   UNL     1      -0.246  -5.395  -3.626  1.00  0.00     0.014 A 
ATOM     31  C   UNL     1       0.782  -7.800  -2.650  1.00  0.00     0.010 A 
ATOM     32  C   UNL     1      -1.109  -6.373  -3.129  1.00  0.00     0.010 A 
ATOM     33  C   UNL     1      -0.605  -7.593  -2.654  1.00  0.00    -0.014 A 
BRANCH  33  34
ATOM     34  C   UNL     1      -1.543  -8.659  -2.212  1.00  0.00     0.031 A 
ATOM     35  C   UNL     1      -2.482  -9.295  -3.201  1.00  0.00     0.074 A 
ATOM     36  C   UNL     1      -1.585  -9.027  -0.917  1.00  0.00     0.049 A 
ATOM     37  N   UNL     1      -3.420 -10.187  -2.999  1.00  0.00    -0.248 NA
ATOM     38  C   UNL     1      -2.369  -8.851  -4.600  1.00  0.00     0.031 C 
ATOM     39  C   UNL     1      -0.755  -8.468   0.150  1.00  0.00     0.029 A 
ATOM     40  N   UNL     1      -2.367  -9.958  -0.279  1.00  0.00    -0.354 N 
ATOM     41  C   UNL     1      -4.021 -10.391  -4.234  1.00  0.00     0.074 A 
ATOM     42  C   UNL     1      -3.371  -9.502  -5.173  1.00  0.00     0.031 C 
ATOM     43  C   UNL     1      -1.059  -9.078   1.308  1.00  0.00     0.029 A 
ATOM     44  C   UNL     1      -2.124 -10.049   1.070  1.00  0.00     0.049 A 
ATOM     45  H   UNL     1      -3.038 -10.507  -0.744  1.00  0.00     0.167 HD
ATOM     46  C   UNL     1      -5.012 -11.253  -4.564  1.00  0.00     0.037 A 
ATOM     47  C   UNL     1      -2.697 -10.824   2.010  1.00  0.00     0.037 A 
ATOM     48  C   UNL     1      -5.633 -12.169  -3.644  1.00  0.00     0.049 A 
ATOM     49  C   UNL     1      -3.780 -11.790   1.615  1.00  0.00     0.074 A 
ATOM     50  C   UNL     1      -6.606 -13.120  -3.898  1.00  0.00     0.029 A 
ATOM     51  N   UNL     1      -5.335 -12.252  -2.293  1.00  0.00    -0.354 N 
ATOM     52  N   UNL     1      -4.305 -12.005   0.434  1.00  0.00    -0.248 NA
ATOM     53  C   UNL     1      -4.345 -12.626   2.684  1.00  0.00     0.031 C 
ATOM     54  C   UNL     1      -6.916 -13.762  -2.694  1.00  0.00     0.029 A 
ATOM     55  C   UNL     1      -6.111 -13.233  -1.698  1.00  0.00     0.049 A 
ATOM     56  H   UNL     1      -4.670 -11.697  -1.826  1.00  0.00     0.167 HD
ATOM     57  C   UNL     1      -5.239 -13.016   0.611  1.00  0.00     0.074 A 
ATOM     58  C   UNL     1      -5.203 -13.380   2.012  1.00  0.00     0.031 C 
ATOM     59  C   UNL     1      -6.053 -13.593  -0.306  1.00  0.00     0.037 A 
BRANCH  46  60
ATOM     60  C   UNL     1      -5.483 -11.251  -5.989  1.00  0.00     0.057 A 
ATOM     61  C   UNL     1      -4.703 -11.783  -7.024  1.00  0.00     0.134 A 
ATOM     62  C   UNL     1      -6.741 -10.736  -6.325  1.00  0.00     0.134 A 
ATOM     63  F   UNL     1      -3.483 -12.279  -6.769  1.00  0.00    -0.206 F 
ATOM     64  C   UNL     1      -5.148 -11.782  -8.347  1.00  0.00     0.040 A 
ATOM     65  C   UNL     1      -7.207 -10.752  -7.641  1.00  0.00     0.040 A 
ATOM     66  F   UNL     1      -7.540 -10.217  -5.381  1.00  0.00    -0.206 F 
ATOM     67  C   UNL     1      -6.407 -11.270  -8.657  1.00  0.00     0.006 A 
ENDBRANCH  46  60
BRANCH  47  68
ATOM     68  C   UNL     1      -2.239 -10.742   3.418  1.00  0.00     0.057 A 
ATOM     69  C   UNL     1      -1.483 -11.771   3.990  1.00  0.00     0.134 A 
ATOM     70  C   UNL     1      -2.549  -9.641   4.225  1.00  0.00     0.134 A 
ATOM     71  F   UNL     1      -1.173 -12.860   3.270  1.00  0.00    -0.206 F 
ATOM     72  C   UNL     1      -1.064 -11.718   5.320  1.00  0.00     0.040 A 
ATOM     73  C   UNL     1      -2.119  -9.565   5.551  1.00  0.00     0.040 A 
ATOM     74  F   UNL     1      -3.267  -8.621   3.732  1.00  0.00    -0.206 F 
ATOM     75  C   UNL     1      -1.379 -10.609   6.103  1.00  0.00     0.006 A 
ENDBRANCH  47  68
BRANCH  59  76
ATOM     76  C   UNL     1      -6.943 -14.702   0.168  1.00  0.00     0.057 A 
ATOM     77  C   UNL     1      -8.090 -14.454   0.930  1.00  0.00     0.134 A 
ATOM     78  C   UNL     1      -6.667 -16.032  -0.177  1.00  0.00     0.134 A 
ATOM     79  F   UNL     1      -8.401 -13.203   1.303  1.00  0.00    -0.206 F 
ATOM     80  C   UNL     1      -8.925 -15.491   1.348  1.00  0.00     0.040 A 
ATOM     81  C   UNL     1      -7.505 -17.075   0.218  1.00  0.00     0.040 A 
ATOM     82  F   UNL     1      -5.586 -16.335  -0.911  1.00  0.00    -0.206 F 
ATOM     83  C   UNL     1      -8.636 -16.806   0.986  1.00  0.00     0.006 A 
ENDBRANCH  59  76
ENDBRANCH  33  34
ENDBRANCH  25  28
ENDBRANCH  23  24
ENDBRANCH  22  23
ENDBRANCH   1  22
TORSDOF 14
