REMARK SMILES CC(C)(C(=O)NCCCNC(=O)c1ccc(-c2c3nc(c(-c4c(F)cccc4F)c4ccc([nH]4)c(-c4c(F)cccc4F)c4nc(c(-c5c(F)cccc5F)c5ccc2[nH]5)C=C4)C=C3)cc1)c1ccc(C(=O)CCCCl)cc1
REMARK SMILES IDX 4 1 5 2 6 3 2 5 1 6 3 7 67 8 68 9 78 10 69 11 77 12 70 13
REMARK SMILES IDX 71 14 72 15 73 16 74 17 75 18 76 19 7 20 8 21 9 22 10 23
REMARK SMILES IDX 11 24 12 26 13 27 14 28 66 29 15 30 65 31 16 32 17 33 18 34
REMARK SMILES IDX 59 35 19 36 64 37 58 38 60 39 20 40 63 41 57 42 56 43 21 45
REMARK SMILES IDX 47 46 30 47 46 48 31 49 34 50 45 51 61 52 32 53 33 54 44 56
REMARK SMILES IDX 62 57 35 58 22 59 23 60 28 61 24 62 25 63 27 64 29 65 26 66
REMARK SMILES IDX 48 67 49 68 54 69 50 70 51 71 53 72 55 73 52 74 36 75 37 76
REMARK SMILES IDX 42 77 38 78 39 79 41 80 43 81 40 82
REMARK H PARENT 6 4 10 25 60 44 34 55
REMARK Flexibility Score: inf
ROOT
ATOM      1  C   UNL     1      -0.798  -1.521  -0.154  1.00  0.00     0.230 C 
ATOM      2  O   UNL     1      -1.514  -1.733  -1.140  1.00  0.00    -0.274 OA
ATOM      3  N   UNL     1      -1.485  -1.249   0.990  1.00  0.00    -0.355 N 
ATOM      4  H   UNL     1      -2.456  -1.389   0.906  1.00  0.00     0.163 HD
ENDROOT
BRANCH   1   5
ATOM      5  C   UNL     1       0.762  -1.544  -0.226  1.00  0.00     0.068 C 
ATOM      6  C   UNL     1       1.263  -0.109   0.052  1.00  0.00     0.026 C 
ATOM      7  C   UNL     1       1.358  -2.536   0.793  1.00  0.00     0.026 C 
BRANCH   5   8
ATOM      8  C   UNL     1       1.258  -2.050  -1.612  1.00  0.00    -0.033 A 
ATOM      9  C   UNL     1       0.748  -3.243  -2.164  1.00  0.00     0.005 A 
ATOM     10  C   UNL     1       2.265  -1.388  -2.333  1.00  0.00     0.005 A 
ATOM     11  C   UNL     1       1.150  -3.691  -3.426  1.00  0.00     0.012 A 
ATOM     12  C   UNL     1       2.695  -1.853  -3.576  1.00  0.00     0.012 A 
ATOM     13  C   UNL     1       2.095  -2.968  -4.157  1.00  0.00     0.018 A 
BRANCH  13  14
ATOM     14  C   UNL     1       2.380  -3.369  -5.561  1.00  0.00     0.162 C 
ATOM     15  O   UNL     1       2.117  -4.514  -5.926  1.00  0.00    -0.294 OA
BRANCH  14  16
ATOM     16  C   UNL     1       2.915  -2.337  -6.542  1.00  0.00     0.082 C 
BRANCH  16  17
ATOM     17  C   UNL     1       1.827  -1.417  -7.104  1.00  0.00     0.024 C 
BRANCH  17  18
ATOM     18  C   UNL     1       1.411  -0.231  -6.235  1.00  0.00     0.110 C 
ATOM     19  Cl  UNL     1       2.763   0.888  -5.934  1.00  0.00    -0.127 Cl
ENDBRANCH  17  18
ENDBRANCH  16  17
ENDBRANCH  14  16
ENDBRANCH  13  14
ENDBRANCH   5   8
ENDBRANCH   1   5
BRANCH   3  20
ATOM     20  C   UNL     1      -1.078  -0.795   2.307  1.00  0.00     0.117 C 
BRANCH  20  21
ATOM     21  C   UNL     1      -1.449   0.665   2.542  1.00  0.00     0.042 C 
BRANCH  21  22
ATOM     22  C   UNL     1      -2.949   0.904   2.651  1.00  0.00     0.118 C 
BRANCH  22  23
ATOM     23  N   UNL     1      -3.535   0.221   3.797  1.00  0.00    -0.352 N 
ATOM     24  C   UNL     1      -4.088   0.728   4.946  1.00  0.00     0.251 C 
ATOM     25  H   UNL     1      -3.535  -0.762   3.736  1.00  0.00     0.163 HD
ATOM     26  O   UNL     1      -4.314  -0.019   5.893  1.00  0.00    -0.269 OA
BRANCH  24  27
ATOM     27  C   UNL     1      -4.398   2.169   5.053  1.00  0.00     0.039 A 
ATOM     28  C   UNL     1      -4.145   2.830   6.258  1.00  0.00     0.014 A 
ATOM     29  C   UNL     1      -4.959   2.864   3.979  1.00  0.00     0.014 A 
ATOM     30  C   UNL     1      -4.391   4.201   6.361  1.00  0.00     0.010 A 
ATOM     31  C   UNL     1      -5.115   4.243   4.051  1.00  0.00     0.010 A 
ATOM     32  C   UNL     1      -4.840   4.925   5.245  1.00  0.00    -0.014 A 
BRANCH  32  33
ATOM     33  C   UNL     1      -5.038   6.395   5.304  1.00  0.00     0.031 A 
ATOM     34  C   UNL     1      -6.404   6.982   5.078  1.00  0.00     0.074 A 
ATOM     35  C   UNL     1      -3.976   7.203   5.486  1.00  0.00     0.049 A 
ATOM     36  N   UNL     1      -6.763   8.239   5.003  1.00  0.00    -0.248 NA
ATOM     37  C   UNL     1      -7.510   6.031   4.877  1.00  0.00     0.031 C 
ATOM     38  C   UNL     1      -2.592   6.757   5.666  1.00  0.00     0.029 A 
ATOM     39  N   UNL     1      -3.891   8.572   5.536  1.00  0.00    -0.354 N 
ATOM     40  C   UNL     1      -8.125   8.227   4.730  1.00  0.00     0.074 A 
ATOM     41  C   UNL     1      -8.518   6.842   4.595  1.00  0.00     0.031 C 
ATOM     42  C   UNL     1      -1.803   7.830   5.832  1.00  0.00     0.029 A 
ATOM     43  C   UNL     1      -2.613   9.039   5.728  1.00  0.00     0.049 A 
ATOM     44  H   UNL     1      -4.673   9.164   5.444  1.00  0.00     0.167 HD
ATOM     45  C   UNL     1      -8.977   9.274   4.627  1.00  0.00     0.037 A 
ATOM     46  C   UNL     1      -2.147  10.299   5.801  1.00  0.00     0.037 A 
ATOM     47  C   UNL     1      -8.586  10.650   4.789  1.00  0.00     0.049 A 
ATOM     48  C   UNL     1      -3.112  11.446   5.678  1.00  0.00     0.074 A 
ATOM     49  C   UNL     1      -9.383  11.781   4.765  1.00  0.00     0.029 A 
ATOM     50  N   UNL     1      -7.285  11.080   5.005  1.00  0.00    -0.354 N 
ATOM     51  N   UNL     1      -4.409  11.418   5.490  1.00  0.00    -0.248 NA
ATOM     52  C   UNL     1      -2.549  12.800   5.785  1.00  0.00     0.031 C 
ATOM     53  C   UNL     1      -8.557  12.899   4.919  1.00  0.00     0.029 A 
ATOM     54  C   UNL     1      -7.254  12.462   5.094  1.00  0.00     0.049 A 
ATOM     55  H   UNL     1      -6.500  10.491   5.084  1.00  0.00     0.167 HD
ATOM     56  C   UNL     1      -4.822  12.744   5.488  1.00  0.00     0.074 A 
ATOM     57  C   UNL     1      -3.639  13.550   5.704  1.00  0.00     0.031 C 
ATOM     58  C   UNL     1      -6.069  13.248   5.324  1.00  0.00     0.037 A 
BRANCH  45  59
ATOM     59  C   UNL     1     -10.417   8.971   4.329  1.00  0.00     0.057 A 
ATOM     60  C   UNL     1     -11.252   8.349   5.267  1.00  0.00     0.134 A 
ATOM     61  C   UNL     1     -10.986   9.335   3.102  1.00  0.00     0.134 A 
ATOM     62  F   UNL     1     -10.767   7.963   6.458  1.00  0.00    -0.206 F 
ATOM     63  C   UNL     1     -12.591   8.074   4.986  1.00  0.00     0.040 A 
ATOM     64  C   UNL     1     -12.332   9.093   2.820  1.00  0.00     0.040 A 
ATOM     65  F   UNL     1     -10.247   9.941   2.160  1.00  0.00    -0.206 F 
ATOM     66  C   UNL     1     -13.136   8.454   3.761  1.00  0.00     0.006 A 
ENDBRANCH  45  59
BRANCH  46  67
ATOM     67  C   UNL     1      -0.700  10.545   6.026  1.00  0.00     0.057 A 
ATOM     68  C   UNL     1      -0.237  11.073   7.237  1.00  0.00     0.134 A 
ATOM     69  C   UNL     1       0.254  10.265   5.040  1.00  0.00     0.134 A 
ATOM     70  F   UNL     1      -1.104  11.377   8.215  1.00  0.00    -0.206 F 
ATOM     71  C   UNL     1       1.117  11.335   7.453  1.00  0.00     0.040 A 
ATOM     72  C   UNL     1       1.614  10.497   5.251  1.00  0.00     0.040 A 
ATOM     73  F   UNL     1      -0.123   9.748   3.861  1.00  0.00    -0.206 F 
ATOM     74  C   UNL     1       2.047  11.041   6.458  1.00  0.00     0.006 A 
ENDBRANCH  46  67
BRANCH  58  75
ATOM     75  C   UNL     1      -6.228  14.738   5.417  1.00  0.00     0.057 A 
ATOM     76  C   UNL     1      -5.777  15.597   4.407  1.00  0.00     0.134 A 
ATOM     77  C   UNL     1      -6.887  15.313   6.511  1.00  0.00     0.134 A 
ATOM     78  F   UNL     1      -5.127  15.110   3.340  1.00  0.00    -0.206 F 
ATOM     79  C   UNL     1      -5.959  16.978   4.492  1.00  0.00     0.040 A 
ATOM     80  C   UNL     1      -7.100  16.689   6.594  1.00  0.00     0.040 A 
ATOM     81  F   UNL     1      -7.352  14.545   7.508  1.00  0.00    -0.206 F 
ATOM     82  C   UNL     1      -6.630  17.527   5.584  1.00  0.00     0.006 A 
ENDBRANCH  58  75
ENDBRANCH  32  33
ENDBRANCH  24  27
ENDBRANCH  22  23
ENDBRANCH  21  22
ENDBRANCH  20  21
ENDBRANCH   3  20
TORSDOF 15
