REMARK SMILES COc1cc(NC(=O)[C@@H]2[C@@H](C(=O)NCCCNC(=O)c3ccc(-c4c5nc(c(-c6c(F)cccc6F)c6ccc([nH]6)c(-c6c(F)cccc6F)c6nc(c(-c7c(F)cccc7F)c7ccc4[nH]7)C=C6)C=C5)cc3)[C@H]3C=C[C@@H]2C3)ccc1NC(=O)c1ccccc1
REMARK SMILES IDX 14 1 13 2 11 3 12 4 10 6 9 7 77 8 74 9 76 10 78 11 75 12
REMARK SMILES IDX 7 13 6 14 8 16 5 17 3 18 4 19 81 20 80 21 79 22 2 23 1 24
REMARK SMILES IDX 82 25 83 26 84 28 85 29 86 30 90 31 87 32 89 33 88 34 15 35
REMARK SMILES IDX 16 36 17 37 18 38 19 40 20 41 21 42 73 43 22 44 72 45 23 46
REMARK SMILES IDX 24 47 25 48 66 49 26 50 71 51 65 52 67 53 27 54 70 55 64 56
REMARK SMILES IDX 63 57 28 59 54 60 37 61 53 62 38 63 41 64 52 65 68 66 39 67
REMARK SMILES IDX 40 68 51 70 69 71 42 72 29 73 30 74 35 75 31 76 32 77 34 78
REMARK SMILES IDX 36 79 33 80 55 81 56 82 61 83 57 84 58 85 60 86 62 87 59 88
REMARK SMILES IDX 43 89 44 90 49 91 45 92 46 93 48 94 50 95 47 96
REMARK H PARENT 13 5 6 15 82 27 17 39 67 58 41 69
REMARK Flexibility Score: inf
ROOT
ATOM      1  C   UNL     1      -6.285   6.162   0.500  1.00  0.00     0.117 C 
ENDROOT
BRANCH   1   2
ATOM      2  N   UNL     1      -6.245   5.040  -0.417  1.00  0.00    -0.356 N 
ATOM      3  C   UNL     1      -5.123   4.430  -0.898  1.00  0.00     0.224 C 
ATOM      4  O   UNL     1      -5.149   3.995  -2.048  1.00  0.00    -0.275 OA
ATOM      5  H   UNL     1      -7.111   4.684  -0.722  1.00  0.00     0.163 HD
BRANCH   3   6
ATOM      6  C   UNL     1      -3.966   4.215   0.060  1.00  0.00     0.098 C 
ATOM      7  C   UNL     1      -2.577   3.988  -0.658  1.00  0.00     0.099 C 
ATOM      8  C   UNL     1      -2.264   2.550  -0.225  1.00  0.00     0.025 C 
ATOM      9  C   UNL     1      -4.177   2.901   0.871  1.00  0.00     0.025 C 
ATOM     10  C   UNL     1      -3.293   1.583  -0.773  1.00  0.00    -0.027 C 
ATOM     11  C   UNL     1      -2.735   2.568   1.239  1.00  0.00     0.017 C 
ATOM     12  C   UNL     1      -4.423   1.756  -0.077  1.00  0.00    -0.027 C 
BRANCH   7  13
ATOM     13  C   UNL     1      -1.673   5.186  -0.289  1.00  0.00     0.228 C 
ATOM     14  N   UNL     1      -0.319   5.222  -0.176  1.00  0.00    -0.326 N 
ATOM     15  H   UNL     1       0.023   6.140  -0.269  1.00  0.00     0.169 HD
ATOM     16  O   UNL     1      -2.202   6.312  -0.249  1.00  0.00    -0.274 OA
BRANCH  14  17
ATOM     17  C   UNL     1       0.723   4.309   0.036  1.00  0.00     0.045 A 
ATOM     18  C   UNL     1       1.623   2.166   0.723  1.00  0.00     0.144 A 
ATOM     19  C   UNL     1       0.583   3.091   0.675  1.00  0.00     0.074 A 
ATOM     20  C   UNL     1       2.912   2.544   0.356  1.00  0.00     0.084 A 
ATOM     21  C   UNL     1       3.106   3.825  -0.166  1.00  0.00     0.032 A 
ATOM     22  C   UNL     1       2.016   4.695  -0.337  1.00  0.00     0.028 A 
BRANCH  18  23
ATOM     23  O   UNL     1       1.361   0.951   1.301  1.00  0.00    -0.494 OA
ATOM     24  C   UNL     1       1.302  -0.095   0.326  1.00  0.00     0.278 C 
ENDBRANCH  18  23
BRANCH  20  25
ATOM     25  N   UNL     1       3.950   1.622   0.563  1.00  0.00    -0.319 N 
ATOM     26  C   UNL     1       5.261   1.833   0.913  1.00  0.00     0.255 C 
ATOM     27  H   UNL     1       3.700   0.679   0.437  1.00  0.00     0.170 HD
ATOM     28  O   UNL     1       6.091   0.942   0.804  1.00  0.00    -0.269 OA
BRANCH  26  29
ATOM     29  C   UNL     1       5.638   3.112   1.551  1.00  0.00     0.040 A 
ATOM     30  C   UNL     1       6.791   3.763   1.114  1.00  0.00     0.014 A 
ATOM     31  C   UNL     1       4.869   3.647   2.595  1.00  0.00     0.014 A 
ATOM     32  C   UNL     1       7.141   4.987   1.682  1.00  0.00     0.001 A 
ATOM     33  C   UNL     1       5.220   4.872   3.154  1.00  0.00     0.001 A 
ATOM     34  C   UNL     1       6.351   5.544   2.691  1.00  0.00     0.000 A 
ENDBRANCH  26  29
ENDBRANCH  20  25
ENDBRANCH  14  17
ENDBRANCH   7  13
ENDBRANCH   3   6
ENDBRANCH   1   2
BRANCH   1  35
ATOM     35  C   UNL     1      -6.106   7.473  -0.264  1.00  0.00     0.042 C 
BRANCH  35  36
ATOM     36  C   UNL     1      -7.150   7.683  -1.360  1.00  0.00     0.118 C 
BRANCH  36  37
ATOM     37  N   UNL     1      -8.511   7.655  -0.841  1.00  0.00    -0.352 N 
ATOM     38  C   UNL     1      -9.507   8.589  -0.958  1.00  0.00     0.251 C 
ATOM     39  H   UNL     1      -8.750   6.848  -0.331  1.00  0.00     0.163 HD
ATOM     40  O   UNL     1     -10.528   8.492  -0.286  1.00  0.00    -0.269 OA
BRANCH  38  41
ATOM     41  C   UNL     1      -9.341   9.717  -1.892  1.00  0.00     0.039 A 
ATOM     42  C   UNL     1      -9.666  11.006  -1.463  1.00  0.00     0.014 A 
ATOM     43  C   UNL     1      -8.878   9.496  -3.192  1.00  0.00     0.014 A 
ATOM     44  C   UNL     1      -9.477  12.086  -2.326  1.00  0.00     0.010 A 
ATOM     45  C   UNL     1      -8.628  10.578  -4.026  1.00  0.00     0.010 A 
ATOM     46  C   UNL     1      -8.933  11.881  -3.603  1.00  0.00    -0.014 A 
BRANCH  46  47
ATOM     47  C   UNL     1      -8.697  13.009  -4.534  1.00  0.00     0.031 A 
ATOM     48  C   UNL     1      -9.478  13.092  -5.814  1.00  0.00     0.074 A 
ATOM     49  C   UNL     1      -7.733  13.908  -4.264  1.00  0.00     0.049 A 
ATOM     50  N   UNL     1      -9.345  13.926  -6.812  1.00  0.00    -0.248 NA
ATOM     51  C   UNL     1     -10.531  12.082  -6.007  1.00  0.00     0.031 C 
ATOM     52  C   UNL     1      -6.891  13.915  -3.067  1.00  0.00     0.029 A 
ATOM     53  N   UNL     1      -7.292  14.985  -4.989  1.00  0.00    -0.354 N 
ATOM     54  C   UNL     1     -10.277  13.527  -7.761  1.00  0.00     0.074 A 
ATOM     55  C   UNL     1     -10.937  12.351  -7.239  1.00  0.00     0.031 C 
ATOM     56  C   UNL     1      -6.051  14.961  -3.128  1.00  0.00     0.029 A 
ATOM     57  C   UNL     1      -6.268  15.671  -4.385  1.00  0.00     0.049 A 
ATOM     58  H   UNL     1      -7.673  15.241  -5.859  1.00  0.00     0.167 HD
ATOM     59  C   UNL     1     -10.572  14.103  -8.950  1.00  0.00     0.037 A 
ATOM     60  C   UNL     1      -5.579  16.748  -4.804  1.00  0.00     0.037 A 
ATOM     61  C   UNL     1      -9.932  15.289  -9.452  1.00  0.00     0.049 A 
ATOM     62  C   UNL     1      -5.912  17.361  -6.135  1.00  0.00     0.074 A 
ATOM     63  C   UNL     1     -10.189  15.981 -10.623  1.00  0.00     0.029 A 
ATOM     64  N   UNL     1      -8.906  15.962  -8.805  1.00  0.00    -0.354 N 
ATOM     65  N   UNL     1      -6.824  17.001  -7.005  1.00  0.00    -0.248 NA
ATOM     66  C   UNL     1      -5.119  18.529  -6.542  1.00  0.00     0.031 C 
ATOM     67  C   UNL     1      -9.297  17.056 -10.699  1.00  0.00     0.029 A 
ATOM     68  C   UNL     1      -8.510  17.055  -9.558  1.00  0.00     0.049 A 
ATOM     69  H   UNL     1      -8.517  15.702  -7.939  1.00  0.00     0.167 HD
ATOM     70  C   UNL     1      -6.740  17.916  -8.045  1.00  0.00     0.074 A 
ATOM     71  C   UNL     1      -5.687  18.848  -7.697  1.00  0.00     0.031 C 
ATOM     72  C   UNL     1      -7.471  17.981  -9.184  1.00  0.00     0.037 A 
BRANCH  59  73
ATOM     73  C   UNL     1     -11.633  13.446  -9.783  1.00  0.00     0.057 A 
ATOM     74  C   UNL     1     -12.984  13.477  -9.413  1.00  0.00     0.134 A 
ATOM     75  C   UNL     1     -11.302  12.774 -10.966  1.00  0.00     0.134 A 
ATOM     76  F   UNL     1     -13.366  14.091  -8.283  1.00  0.00    -0.206 F 
ATOM     77  C   UNL     1     -13.964  12.832 -10.171  1.00  0.00     0.040 A 
ATOM     78  C   UNL     1     -12.276  12.148 -11.746  1.00  0.00     0.040 A 
ATOM     79  F   UNL     1     -10.028  12.710 -11.380  1.00  0.00    -0.206 F 
ATOM     80  C   UNL     1     -13.610  12.168 -11.343  1.00  0.00     0.006 A 
ENDBRANCH  59  73
BRANCH  60  81
ATOM     81  C   UNL     1      -4.532  17.341  -3.936  1.00  0.00     0.057 A 
ATOM     82  C   UNL     1      -4.751  18.561  -3.287  1.00  0.00     0.134 A 
ATOM     83  C   UNL     1      -3.301  16.708  -3.728  1.00  0.00     0.134 A 
ATOM     84  F   UNL     1      -5.906  19.220  -3.463  1.00  0.00    -0.206 F 
ATOM     85  C   UNL     1      -3.780  19.138  -2.469  1.00  0.00     0.040 A 
ATOM     86  C   UNL     1      -2.328  17.265  -2.897  1.00  0.00     0.040 A 
ATOM     87  F   UNL     1      -3.035  15.534  -4.318  1.00  0.00    -0.206 F 
ATOM     88  C   UNL     1      -2.564  18.486  -2.268  1.00  0.00     0.006 A 
ENDBRANCH  60  81
BRANCH  72  89
ATOM     89  C   UNL     1      -7.192  19.124 -10.112  1.00  0.00     0.057 A 
ATOM     90  C   UNL     1      -6.056  19.153 -10.929  1.00  0.00     0.134 A 
ATOM     91  C   UNL     1      -8.100  20.185 -10.222  1.00  0.00     0.134 A 
ATOM     92  F   UNL     1      -5.143  18.172 -10.859  1.00  0.00    -0.206 F 
ATOM     93  C   UNL     1      -5.824  20.207 -11.813  1.00  0.00     0.040 A 
ATOM     94  C   UNL     1      -7.889  21.234 -11.117  1.00  0.00     0.040 A 
ATOM     95  F   UNL     1      -9.210  20.212  -9.470  1.00  0.00    -0.206 F 
ATOM     96  C   UNL     1      -6.746  21.248 -11.914  1.00  0.00     0.006 A 
ENDBRANCH  72  89
ENDBRANCH  46  47
ENDBRANCH  38  41
ENDBRANCH  36  37
ENDBRANCH  35  36
ENDBRANCH   1  35
TORSDOF 15
