REMARK SMILES O=C(NCCCNC(=O)c1cc(Cl)c2c(c1)[C@H]1C=CC[C@H]1[C@H](c1ccc(S(=O)(=O)N3CCOCC3)cc1)N2)c1ccc(-c2c3nc(c(-c4c(F)cccc4F)c4ccc([nH]4)c(-c4c(F)cccc4F)c4nc(c(-c5c(F)cccc5F)c5ccc2[nH]5)C=C4)C=C3)cc1
REMARK SMILES IDX 5 1 4 2 3 3 1 4 2 5 39 7 40 8 92 9 41 10 91 11 42 12 43 13
REMARK SMILES IDX 44 14 85 15 45 16 90 17 84 18 86 19 46 20 89 21 83 22 82 23
REMARK SMILES IDX 47 25 73 26 56 27 72 28 57 29 60 30 71 31 87 32 58 33 59 34
REMARK SMILES IDX 70 36 88 37 61 38 48 39 49 40 54 41 50 42 51 43 53 44 55 45
REMARK SMILES IDX 52 46 74 47 75 48 80 49 76 50 77 51 79 52 81 53 78 54 62 55
REMARK SMILES IDX 63 56 68 57 64 58 65 59 67 60 69 61 66 62 6 63 7 64 8 65
REMARK SMILES IDX 9 67 10 68 11 69 16 70 12 71 15 72 13 73 14 74 17 75 38 76
REMARK SMILES IDX 18 77 21 78 22 79 19 81 20 82 23 83 24 84 37 85 25 86 36 87
REMARK SMILES IDX 26 88 27 89 28 90 29 91 30 92 31 93 35 94 32 95 34 96 33 97
REMARK H PARENT 3 6 86 24 60 35 7 66 38 80
REMARK Flexibility Score: inf
ROOT
ATOM      1  C   UNL     1       4.901   1.600  -1.777  1.00  0.00     0.042 C 
ENDROOT
BRANCH   1   2
ATOM      2  C   UNL     1       4.483   1.255  -0.355  1.00  0.00     0.118 C 
BRANCH   2   3
ATOM      3  N   UNL     1       3.039   1.129  -0.220  1.00  0.00    -0.352 N 
ATOM      4  O   UNL     1       1.056   0.069  -0.110  1.00  0.00    -0.269 OA
ATOM      5  C   UNL     1       2.273   0.021   0.038  1.00  0.00     0.251 C 
ATOM      6  H   UNL     1       2.535   1.967  -0.331  1.00  0.00     0.163 HD
BRANCH   5   7
ATOM      7  C   UNL     1       2.911  -1.232   0.487  1.00  0.00     0.039 A 
ATOM      8  C   UNL     1       3.895  -1.214   1.479  1.00  0.00     0.014 A 
ATOM      9  C   UNL     1       2.484  -2.446  -0.060  1.00  0.00     0.014 A 
ATOM     10  C   UNL     1       4.535  -2.395   1.839  1.00  0.00     0.010 A 
ATOM     11  C   UNL     1       3.082  -3.639   0.349  1.00  0.00     0.010 A 
ATOM     12  C   UNL     1       4.129  -3.617   1.283  1.00  0.00    -0.014 A 
BRANCH  12  13
ATOM     13  C   UNL     1       4.779  -4.868   1.736  1.00  0.00     0.031 A 
ATOM     14  C   UNL     1       5.701  -5.630   0.832  1.00  0.00     0.074 A 
ATOM     15  C   UNL     1       4.555  -5.290   2.994  1.00  0.00     0.049 A 
ATOM     16  N   UNL     1       6.407  -6.702   1.089  1.00  0.00    -0.248 NA
ATOM     17  C   UNL     1       5.852  -5.125  -0.541  1.00  0.00     0.031 C 
ATOM     18  C   UNL     1       3.670  -4.633   3.959  1.00  0.00     0.029 A 
ATOM     19  N   UNL     1       5.062  -6.361   3.681  1.00  0.00    -0.354 N 
ATOM     20  C   UNL     1       7.092  -6.995  -0.082  1.00  0.00     0.074 A 
ATOM     21  C   UNL     1       6.685  -6.013  -1.066  1.00  0.00     0.031 C 
ATOM     22  C   UNL     1       3.720  -5.299   5.123  1.00  0.00     0.029 A 
ATOM     23  C   UNL     1       4.609  -6.445   4.974  1.00  0.00     0.049 A 
ATOM     24  H   UNL     1       5.691  -7.008   3.286  1.00  0.00     0.167 HD
ATOM     25  C   UNL     1       7.989  -7.985  -0.310  1.00  0.00     0.037 A 
ATOM     26  C   UNL     1       4.878  -7.351   5.931  1.00  0.00     0.037 A 
ATOM     27  C   UNL     1       8.380  -8.968   0.668  1.00  0.00     0.049 A 
ATOM     28  C   UNL     1       5.830  -8.471   5.630  1.00  0.00     0.074 A 
ATOM     29  C   UNL     1       9.300  -9.995   0.542  1.00  0.00     0.029 A 
ATOM     30  N   UNL     1       7.861  -9.054   1.951  1.00  0.00    -0.354 N 
ATOM     31  N   UNL     1       6.511  -8.707   4.535  1.00  0.00    -0.248 NA
ATOM     32  C   UNL     1       6.051  -9.451   6.701  1.00  0.00     0.031 C 
ATOM     33  C   UNL     1       9.306 -10.728   1.735  1.00  0.00     0.029 A 
ATOM     34  C   UNL     1       8.421 -10.132   2.619  1.00  0.00     0.049 A 
ATOM     35  H   UNL     1       7.193  -8.439   2.332  1.00  0.00     0.167 HD
ATOM     36  C   UNL     1       7.253  -9.851   4.789  1.00  0.00     0.074 A 
ATOM     37  C   UNL     1       6.956 -10.248   6.151  1.00  0.00     0.031 C 
ATOM     38  C   UNL     1       8.102 -10.518   3.970  1.00  0.00     0.037 A 
BRANCH  25  39
ATOM     39  C   UNL     1       8.603  -8.055  -1.677  1.00  0.00     0.057 A 
ATOM     40  C   UNL     1       8.261  -9.081  -2.566  1.00  0.00     0.134 A 
ATOM     41  C   UNL     1       9.556  -7.120  -2.105  1.00  0.00     0.134 A 
ATOM     42  F   UNL     1       7.359 -10.011  -2.219  1.00  0.00    -0.206 F 
ATOM     43  C   UNL     1       8.845  -9.176  -3.831  1.00  0.00     0.040 A 
ATOM     44  C   UNL     1      10.131  -7.192  -3.375  1.00  0.00     0.040 A 
ATOM     45  F   UNL     1       9.917  -6.104  -1.306  1.00  0.00    -0.206 F 
ATOM     46  C   UNL     1       9.779  -8.226  -4.240  1.00  0.00     0.006 A 
ENDBRANCH  25  39
BRANCH  26  47
ATOM     47  C   UNL     1       4.241  -7.235   7.264  1.00  0.00     0.057 A 
ATOM     48  C   UNL     1       2.874  -7.480   7.441  1.00  0.00     0.134 A 
ATOM     49  C   UNL     1       4.990  -6.893   8.396  1.00  0.00     0.134 A 
ATOM     50  F   UNL     1       2.103  -7.806   6.394  1.00  0.00    -0.206 F 
ATOM     51  C   UNL     1       2.273  -7.386   8.697  1.00  0.00     0.040 A 
ATOM     52  C   UNL     1       4.406  -6.819   9.661  1.00  0.00     0.040 A 
ATOM     53  F   UNL     1       6.307  -6.664   8.289  1.00  0.00    -0.206 F 
ATOM     54  C   UNL     1       3.042  -7.062   9.812  1.00  0.00     0.006 A 
ENDBRANCH  26  47
BRANCH  38  55
ATOM     55  C   UNL     1       8.772 -11.732   4.541  1.00  0.00     0.057 A 
ATOM     56  C   UNL     1      10.130 -11.709   4.878  1.00  0.00     0.134 A 
ATOM     57  C   UNL     1       8.068 -12.922   4.768  1.00  0.00     0.134 A 
ATOM     58  F   UNL     1      10.863 -10.602   4.682  1.00  0.00    -0.206 F 
ATOM     59  C   UNL     1      10.764 -12.824   5.428  1.00  0.00     0.040 A 
ATOM     60  C   UNL     1       8.684 -14.036   5.340  1.00  0.00     0.040 A 
ATOM     61  F   UNL     1       6.759 -13.002   4.484  1.00  0.00    -0.206 F 
ATOM     62  C   UNL     1      10.038 -13.989   5.669  1.00  0.00     0.006 A 
ENDBRANCH  38  55
ENDBRANCH  12  13
ENDBRANCH   5   7
ENDBRANCH   2   3
ENDBRANCH   1   2
BRANCH   1  63
ATOM     63  C   UNL     1       4.320   2.910  -2.289  1.00  0.00     0.118 C 
BRANCH  63  64
ATOM     64  N   UNL     1       4.739   4.055  -1.491  1.00  0.00    -0.352 N 
ATOM     65  C   UNL     1       5.510   5.128  -1.854  1.00  0.00     0.251 C 
ATOM     66  H   UNL     1       4.423   4.058  -0.559  1.00  0.00     0.163 HD
ATOM     67  O   UNL     1       5.926   5.915  -1.011  1.00  0.00    -0.269 OA
BRANCH  65  68
ATOM     68  C   UNL     1       5.864   5.309  -3.271  1.00  0.00     0.041 A 
ATOM     69  C   UNL     1       4.878   5.300  -4.255  1.00  0.00     0.036 A 
ATOM     70  C   UNL     1       7.204   5.481  -3.611  1.00  0.00     0.020 A 
ATOM     71  C   UNL     1       5.257   5.320  -5.591  1.00  0.00     0.065 A 
ATOM     72  C   UNL     1       7.581   5.552  -4.960  1.00  0.00    -0.015 A 
ATOM     73  Cl  UNL     1       4.015   5.196  -6.791  1.00  0.00    -0.082 Cl
ATOM     74  C   UNL     1       6.613   5.399  -5.964  1.00  0.00     0.057 A 
ATOM     75  C   UNL     1       9.013   5.838  -5.307  1.00  0.00     0.049 C 
ATOM     76  N   UNL     1       6.978   5.410  -7.301  1.00  0.00    -0.376 N 
ATOM     77  C   UNL     1       9.977   4.709  -5.048  1.00  0.00    -0.023 C 
ATOM     78  C   UNL     1       9.277   6.151  -6.798  1.00  0.00     0.031 C 
ATOM     79  C   UNL     1       8.370   5.267  -7.696  1.00  0.00     0.114 C 
ATOM     80  H   UNL     1       6.286   5.515  -7.992  1.00  0.00     0.161 HD
ATOM     81  C   UNL     1      10.973   4.725  -5.943  1.00  0.00    -0.030 C 
ATOM     82  C   UNL     1      10.787   5.850  -6.913  1.00  0.00     0.034 C 
BRANCH  79  83
ATOM     83  C   UNL     1       8.494   5.587  -9.182  1.00  0.00    -0.025 A 
ATOM     84  C   UNL     1       7.585   6.403  -9.886  1.00  0.00     0.007 A 
ATOM     85  C   UNL     1       9.560   5.031  -9.892  1.00  0.00     0.007 A 
ATOM     86  C   UNL     1       7.747   6.655 -11.255  1.00  0.00     0.022 A 
ATOM     87  C   UNL     1       9.751   5.325 -11.235  1.00  0.00     0.022 A 
ATOM     88  C   UNL     1       8.847   6.121 -11.925  1.00  0.00     0.082 A 
BRANCH  88  89
ATOM     89  S   UNL     1       9.073   6.471 -13.655  1.00  0.00     0.243 S 
ATOM     90  O   UNL     1       8.181   5.575 -14.366  1.00  0.00    -0.207 OA
ATOM     91  O   UNL     1       8.988   7.905 -13.797  1.00  0.00    -0.207 OA
BRANCH  89  92
ATOM     92  N   UNL     1      10.650   6.011 -13.993  1.00  0.00    -0.193 NA
ATOM     93  C   UNL     1      11.007   4.640 -14.414  1.00  0.00     0.131 C 
ATOM     94  C   UNL     1      11.782   6.942 -13.838  1.00  0.00     0.131 C 
ATOM     95  C   UNL     1      12.228   4.104 -13.645  1.00  0.00     0.177 C 
ATOM     96  C   UNL     1      12.887   6.293 -13.003  1.00  0.00     0.177 C 
ATOM     97  O   UNL     1      13.306   5.046 -13.576  1.00  0.00    -0.379 OA
ENDBRANCH  89  92
ENDBRANCH  88  89
ENDBRANCH  79  83
ENDBRANCH  65  68
ENDBRANCH  63  64
ENDBRANCH   1  63
TORSDOF 13
