REMARK SMILES COc1ccc(CCC(=O)Nc2ccc(N3CCCC3)cc2C(=O)NCCCNC(=O)c2ccc(-c3c4nc(c(-c5c(F)cccc5F)c5ccc([nH]5)c(-c5c(F)cccc5F)c5nc(c(-c6c(F)cccc6F)c6ccc3[nH]6)C=C5)C=C4)cc2)cc1
REMARK SMILES IDX 23 1 24 2 25 3 22 5 12 6 13 7 14 8 21 9 15 10 11 11 9 12
REMARK SMILES IDX 10 13 8 15 7 16 6 17 3 18 4 19 87 20 5 21 86 22 2 23 1 24
REMARK SMILES IDX 16 25 17 26 20 27 18 28 19 29 26 30 27 31 28 32 29 33 30 34
REMARK SMILES IDX 31 36 32 37 33 38 85 39 34 40 84 41 35 42 36 43 37 44 78 45
REMARK SMILES IDX 38 46 83 47 77 48 79 49 39 50 82 51 76 52 75 53 40 55 66 56
REMARK SMILES IDX 49 57 65 58 50 59 53 60 64 61 80 62 51 63 52 64 63 66 81 67
REMARK SMILES IDX 54 68 41 69 42 70 47 71 43 72 44 73 46 74 48 75 45 76 67 77
REMARK SMILES IDX 68 78 73 79 69 80 70 81 72 82 74 83 71 84 55 85 56 86 61 87
REMARK SMILES IDX 57 88 58 89 60 90 62 91 59 92
REMARK H PARENT 25 4 11 14 29 35 79 54 53 65
REMARK Flexibility Score: inf
ROOT
ATOM      1  C   UNL     1      -0.124   0.618   5.607  1.00  0.00     0.253 C 
ATOM      2  O   UNL     1      -0.673  -0.436   5.330  1.00  0.00    -0.269 OA
ATOM      3  N   UNL     1      -0.240   1.094   6.914  1.00  0.00    -0.352 N 
ATOM      4  H   UNL     1       0.570   1.144   7.472  1.00  0.00     0.163 HD
ENDROOT
BRANCH   1   5
ATOM      5  C   UNL     1       0.586   1.524   4.599  1.00  0.00     0.065 A 
ATOM      6  C   UNL     1       0.910   2.764   5.065  1.00  0.00     0.054 A 
ATOM      7  C   UNL     1       0.824   3.846   4.206  1.00  0.00     0.029 A 
ATOM      8  C   UNL     1       1.198   3.606   2.893  1.00  0.00     0.028 A 
ATOM      9  C   UNL     1       1.101   1.284   3.318  1.00  0.00     0.042 A 
ATOM     10  C   UNL     1       1.613   2.331   2.520  1.00  0.00     0.038 A 
BRANCH   6  11
ATOM     11  N   UNL     1       1.742   2.836   6.196  1.00  0.00    -0.325 N 
ATOM     12  C   UNL     1       2.496   1.801   6.744  1.00  0.00     0.224 C 
ATOM     13  O   UNL     1       2.741   1.899   7.954  1.00  0.00    -0.275 OA
ATOM     14  H   UNL     1       1.796   3.709   6.649  1.00  0.00     0.169 HD
BRANCH  12  15
ATOM     15  C   UNL     1       3.201   0.639   5.885  1.00  0.00     0.105 C 
BRANCH  15  16
ATOM     16  C   UNL     1       2.852  -0.918   5.745  1.00  0.00     0.045 C 
BRANCH  16  17
ATOM     17  C   UNL     1       2.383  -1.575   4.421  1.00  0.00    -0.047 A 
ATOM     18  C   UNL     1       1.111  -1.945   1.923  1.00  0.00     0.118 A 
ATOM     19  C   UNL     1       0.441  -2.245   3.099  1.00  0.00     0.046 A 
ATOM     20  C   UNL     1       2.502  -1.820   1.980  1.00  0.00     0.046 A 
ATOM     21  C   UNL     1       1.113  -2.165   4.333  1.00  0.00     0.007 A 
ATOM     22  C   UNL     1       3.131  -1.586   3.233  1.00  0.00     0.007 A 
BRANCH  18  23
ATOM     23  O   UNL     1       0.360  -1.203   1.030  1.00  0.00    -0.497 OA
ATOM     24  C   UNL     1       0.244  -1.642  -0.308  1.00  0.00     0.278 C 
ENDBRANCH  18  23
ENDBRANCH  16  17
ENDBRANCH  15  16
ENDBRANCH  12  15
ENDBRANCH   6  11
BRANCH  10  25
ATOM     25  N   UNL     1       2.549   2.199   1.522  1.00  0.00    -0.372 N 
ATOM     26  C   UNL     1       2.560   1.247   0.432  1.00  0.00     0.116 C 
ATOM     27  C   UNL     1       3.699   3.109   1.421  1.00  0.00     0.116 C 
ATOM     28  C   UNL     1       4.025   1.196  -0.000  1.00  0.00     0.023 C 
ATOM     29  C   UNL     1       4.485   2.629   0.196  1.00  0.00     0.023 C 
ENDBRANCH  10  25
ENDBRANCH   1   5
BRANCH   3  30
ATOM     30  C   UNL     1      -1.502   1.517   7.483  1.00  0.00     0.118 C 
BRANCH  30  31
ATOM     31  C   UNL     1      -2.378   0.355   7.926  1.00  0.00     0.042 C 
BRANCH  31  32
ATOM     32  C   UNL     1      -1.679  -0.649   8.840  1.00  0.00     0.118 C 
BRANCH  32  33
ATOM     33  N   UNL     1      -1.153  -0.073  10.077  1.00  0.00    -0.352 N 
ATOM     34  C   UNL     1      -1.739   0.093  11.308  1.00  0.00     0.251 C 
ATOM     35  H   UNL     1      -0.225   0.249  10.018  1.00  0.00     0.163 HD
ATOM     36  O   UNL     1      -1.169   0.735  12.191  1.00  0.00    -0.269 OA
BRANCH  34  37
ATOM     37  C   UNL     1      -3.077  -0.465  11.562  1.00  0.00     0.039 A 
ATOM     38  C   UNL     1      -4.065   0.345  12.126  1.00  0.00     0.014 A 
ATOM     39  C   UNL     1      -3.361  -1.783  11.211  1.00  0.00     0.014 A 
ATOM     40  C   UNL     1      -5.369  -0.141  12.239  1.00  0.00     0.010 A 
ATOM     41  C   UNL     1      -4.676  -2.221  11.210  1.00  0.00     0.010 A 
ATOM     42  C   UNL     1      -5.695  -1.409  11.730  1.00  0.00    -0.014 A 
BRANCH  42  43
ATOM     43  C   UNL     1      -7.088  -1.920  11.739  1.00  0.00     0.031 A 
ATOM     44  C   UNL     1      -7.411  -3.196  12.466  1.00  0.00     0.074 A 
ATOM     45  C   UNL     1      -8.037  -1.287  11.022  1.00  0.00     0.049 A 
ATOM     46  N   UNL     1      -8.540  -3.856  12.523  1.00  0.00    -0.248 NA
ATOM     47  C   UNL     1      -6.303  -3.842  13.188  1.00  0.00     0.031 C 
ATOM     48  C   UNL     1      -7.833  -0.075  10.226  1.00  0.00     0.029 A 
ATOM     49  N   UNL     1      -9.366  -1.577  10.847  1.00  0.00    -0.354 N 
ATOM     50  C   UNL     1      -8.265  -5.003  13.258  1.00  0.00     0.074 A 
ATOM     51  C   UNL     1      -6.851  -4.989  13.553  1.00  0.00     0.031 C 
ATOM     52  C   UNL     1      -9.005   0.304   9.692  1.00  0.00     0.029 A 
ATOM     53  C   UNL     1     -10.032  -0.661  10.069  1.00  0.00     0.049 A 
ATOM     54  H   UNL     1      -9.802  -2.368  11.241  1.00  0.00     0.167 HD
ATOM     55  C   UNL     1      -9.120  -5.964  13.683  1.00  0.00     0.037 A 
ATOM     56  C   UNL     1     -11.328  -0.606   9.710  1.00  0.00     0.037 A 
ATOM     57  C   UNL     1     -10.532  -5.951  13.410  1.00  0.00     0.049 A 
ATOM     58  C   UNL     1     -12.261  -1.685  10.185  1.00  0.00     0.074 A 
ATOM     59  C   UNL     1     -11.505  -6.832  13.845  1.00  0.00     0.029 A 
ATOM     60  N   UNL     1     -11.171  -5.003  12.623  1.00  0.00    -0.354 N 
ATOM     61  N   UNL     1     -12.007  -2.723  10.945  1.00  0.00    -0.248 NA
ATOM     62  C   UNL     1     -13.661  -1.582   9.754  1.00  0.00     0.031 C 
ATOM     63  C   UNL     1     -12.726  -6.445  13.280  1.00  0.00     0.029 A 
ATOM     64  C   UNL     1     -12.523  -5.291  12.538  1.00  0.00     0.049 A 
ATOM     65  H   UNL     1     -10.729  -4.237  12.190  1.00  0.00     0.167 HD
ATOM     66  C   UNL     1     -13.220  -3.380  11.111  1.00  0.00     0.074 A 
ATOM     67  C   UNL     1     -14.210  -2.614  10.379  1.00  0.00     0.031 C 
ATOM     68  C   UNL     1     -13.491  -4.511  11.807  1.00  0.00     0.037 A 
BRANCH  55  69
ATOM     69  C   UNL     1      -8.534  -7.096  14.480  1.00  0.00     0.057 A 
ATOM     70  C   UNL     1      -7.971  -6.897  15.750  1.00  0.00     0.134 A 
ATOM     71  C   UNL     1      -8.500  -8.396  13.961  1.00  0.00     0.134 A 
ATOM     72  F   UNL     1      -7.957  -5.675  16.304  1.00  0.00    -0.206 F 
ATOM     73  C   UNL     1      -7.346  -7.934  16.445  1.00  0.00     0.040 A 
ATOM     74  C   UNL     1      -7.910  -9.449  14.664  1.00  0.00     0.040 A 
ATOM     75  F   UNL     1      -9.027  -8.664  12.757  1.00  0.00    -0.206 F 
ATOM     76  C   UNL     1      -7.316  -9.216  15.902  1.00  0.00     0.006 A 
ENDBRANCH  55  69
BRANCH  56  77
ATOM     77  C   UNL     1     -11.830   0.543   8.914  1.00  0.00     0.057 A 
ATOM     78  C   UNL     1     -12.665   1.504   9.498  1.00  0.00     0.134 A 
ATOM     79  C   UNL     1     -11.483   0.724   7.570  1.00  0.00     0.134 A 
ATOM     80  F   UNL     1     -13.045   1.378  10.778  1.00  0.00    -0.206 F 
ATOM     81  C   UNL     1     -13.147   2.595   8.773  1.00  0.00     0.040 A 
ATOM     82  C   UNL     1     -11.938   1.823   6.839  1.00  0.00     0.040 A 
ATOM     83  F   UNL     1     -10.679  -0.155   6.953  1.00  0.00    -0.206 F 
ATOM     84  C   UNL     1     -12.778   2.760   7.440  1.00  0.00     0.006 A 
ENDBRANCH  56  77
BRANCH  68  85
ATOM     85  C   UNL     1     -14.921  -4.968  11.841  1.00  0.00     0.057 A 
ATOM     86  C   UNL     1     -15.551  -5.518  10.719  1.00  0.00     0.134 A 
ATOM     87  C   UNL     1     -15.661  -4.893  13.028  1.00  0.00     0.134 A 
ATOM     88  F   UNL     1     -14.901  -5.606   9.548  1.00  0.00    -0.206 F 
ATOM     89  C   UNL     1     -16.875  -5.957  10.769  1.00  0.00     0.040 A 
ATOM     90  C   UNL     1     -16.975  -5.356  13.099  1.00  0.00     0.040 A 
ATOM     91  F   UNL     1     -15.114  -4.384  14.143  1.00  0.00    -0.206 F 
ATOM     92  C   UNL     1     -17.588  -5.884  11.964  1.00  0.00     0.006 A 
ENDBRANCH  68  85
ENDBRANCH  42  43
ENDBRANCH  34  37
ENDBRANCH  32  33
ENDBRANCH  31  32
ENDBRANCH  30  31
ENDBRANCH   3  30
TORSDOF 16
