REMARK SMILES Cc1ccc(S(=O)(=O)/C=C/C(=O)NCCCNC(=O)c2ccc(-c3c4nc(c(-c5c(F)cccc5F)c5ccc([nH]5)c(-c5c(F)cccc5F)c5nc(c(-c6c(F)cccc6F)c6ccc3[nH]6)C=C5)C=C4)cc2)cc1
REMARK SMILES IDX 15 1 14 2 13 3 11 4 12 5 10 7 9 8 6 9 7 10 8 11 5 12 1 13
REMARK SMILES IDX 2 14 3 15 75 16 4 17 74 18 16 19 17 20 18 21 19 23 20 24
REMARK SMILES IDX 21 25 73 26 22 27 72 28 23 29 24 30 25 31 66 32 26 33 71 34
REMARK SMILES IDX 65 35 67 36 27 37 70 38 64 39 63 40 28 42 54 43 37 44 53 45
REMARK SMILES IDX 38 46 41 47 52 48 68 49 39 50 40 51 51 53 69 54 42 55 29 56
REMARK SMILES IDX 30 57 35 58 31 59 32 60 34 61 36 62 33 63 55 64 56 65 61 66
REMARK SMILES IDX 57 67 58 68 60 69 62 70 59 71 43 72 44 73 49 74 45 75 46 76
REMARK SMILES IDX 48 77 50 78 47 79
REMARK H PARENT 13 6 17 22 67 41 41 52
REMARK Flexibility Score: inf
ROOT
ATOM      1  C   UNL     1      -7.115   2.752   0.343  1.00  0.00     0.042 C 
ENDROOT
BRANCH   1   2
ATOM      2  C   UNL     1      -6.361   3.301  -0.866  1.00  0.00     0.118 C 
BRANCH   2   3
ATOM      3  N   UNL     1      -5.301   4.220  -0.468  1.00  0.00    -0.352 N 
ATOM      4  C   UNL     1      -3.972   3.956  -0.322  1.00  0.00     0.244 C 
ATOM      5  O   UNL     1      -3.163   4.819  -0.006  1.00  0.00    -0.270 OA
ATOM      6  H   UNL     1      -5.580   5.146  -0.281  1.00  0.00     0.163 HD
BRANCH   4   7
ATOM      7  C   UNL     1      -3.528   2.582  -0.579  1.00  0.00     0.083 C 
ATOM      8  C   UNL     1      -3.688   1.669   0.388  1.00  0.00     0.117 C 
BRANCH   8   9
ATOM      9  S   UNL     1      -3.226   0.036   0.082  1.00  0.00     0.200 S 
ATOM     10  O   UNL     1      -3.604  -0.305  -1.272  1.00  0.00    -0.219 OA
ATOM     11  O   UNL     1      -3.692  -0.766   1.204  1.00  0.00    -0.219 OA
BRANCH   9  12
ATOM     12  C   UNL     1      -1.449  -0.016   0.140  1.00  0.00     0.071 A 
ATOM     13  C   UNL     1       2.835  -0.314   0.008  1.00  0.00     0.044 C 
ATOM     14  C   UNL     1       1.340  -0.208   0.064  1.00  0.00    -0.051 A 
ATOM     15  C   UNL     1       0.549  -1.348  -0.125  1.00  0.00     0.005 A 
ATOM     16  C   UNL     1       0.722   1.020   0.327  1.00  0.00     0.005 A 
ATOM     17  C   UNL     1      -0.843  -1.254  -0.095  1.00  0.00     0.021 A 
ATOM     18  C   UNL     1      -0.670   1.120   0.371  1.00  0.00     0.021 A 
ENDBRANCH   9  12
ENDBRANCH   8   9
ENDBRANCH   4   7
ENDBRANCH   2   3
ENDBRANCH   1   2
BRANCH   1  19
ATOM     19  C   UNL     1      -8.216   3.691   0.808  1.00  0.00     0.118 C 
BRANCH  19  20
ATOM     20  N   UNL     1      -9.488   3.515   0.115  1.00  0.00    -0.352 N 
ATOM     21  C   UNL     1     -10.646   4.272   0.167  1.00  0.00     0.251 C 
ATOM     22  H   UNL     1      -9.530   2.735  -0.484  1.00  0.00     0.163 HD
ATOM     23  O   UNL     1     -11.639   3.901  -0.452  1.00  0.00    -0.269 OA
BRANCH  21  24
ATOM     24  C   UNL     1     -10.648   5.597   0.835  1.00  0.00     0.039 A 
ATOM     25  C   UNL     1     -11.345   6.649   0.220  1.00  0.00     0.014 A 
ATOM     26  C   UNL     1      -9.806   5.861   1.906  1.00  0.00     0.014 A 
ATOM     27  C   UNL     1     -10.982   7.966   0.493  1.00  0.00     0.010 A 
ATOM     28  C   UNL     1      -9.347   7.146   2.076  1.00  0.00     0.010 A 
ATOM     29  C   UNL     1      -9.894   8.192   1.327  1.00  0.00    -0.014 A 
BRANCH  29  30
ATOM     30  C   UNL     1      -9.207   9.464   1.490  1.00  0.00     0.031 A 
ATOM     31  C   UNL     1      -9.324  10.186   2.773  1.00  0.00     0.074 A 
ATOM     32  C   UNL     1      -8.284   9.830   0.574  1.00  0.00     0.049 A 
ATOM     33  N   UNL     1      -8.851  11.361   3.000  1.00  0.00    -0.248 NA
ATOM     34  C   UNL     1     -10.040   9.628   3.913  1.00  0.00     0.031 C 
ATOM     35  C   UNL     1      -7.182  10.771   0.751  1.00  0.00     0.029 A 
ATOM     36  N   UNL     1      -8.287   9.555  -0.800  1.00  0.00    -0.354 N 
ATOM     37  C   UNL     1      -8.960  11.614   4.349  1.00  0.00     0.074 A 
ATOM     38  C   UNL     1      -9.770  10.533   4.856  1.00  0.00     0.031 C 
ATOM     39  C   UNL     1      -6.797  11.219  -0.453  1.00  0.00     0.029 A 
ATOM     40  C   UNL     1      -7.758  10.717  -1.418  1.00  0.00     0.049 A 
ATOM     41  H   UNL     1      -8.591   8.731  -1.243  1.00  0.00     0.167 HD
ATOM     42  C   UNL     1      -8.259  12.660   4.874  1.00  0.00     0.037 A 
ATOM     43  C   UNL     1      -8.545  11.503  -2.212  1.00  0.00     0.037 A 
ATOM     44  C   UNL     1      -7.657  13.463   3.805  1.00  0.00     0.049 A 
ATOM     45  C   UNL     1      -8.739  12.922  -1.717  1.00  0.00     0.074 A 
ATOM     46  C   UNL     1      -6.400  13.540   3.227  1.00  0.00     0.029 A 
ATOM     47  N   UNL     1      -8.504  14.163   2.968  1.00  0.00    -0.354 N 
ATOM     48  N   UNL     1      -8.305  13.368  -0.570  1.00  0.00    -0.248 NA
ATOM     49  C   UNL     1      -9.524  13.926  -2.439  1.00  0.00     0.031 C 
ATOM     50  C   UNL     1      -6.523  14.262   2.002  1.00  0.00     0.029 A 
ATOM     51  C   UNL     1      -7.847  14.633   1.851  1.00  0.00     0.049 A 
ATOM     52  H   UNL     1      -9.461  14.309   3.148  1.00  0.00     0.167 HD
ATOM     53  C   UNL     1      -8.799  14.626  -0.356  1.00  0.00     0.074 A 
ATOM     54  C   UNL     1      -9.539  14.945  -1.562  1.00  0.00     0.031 C 
ATOM     55  C   UNL     1      -8.621  15.297   0.816  1.00  0.00     0.037 A 
BRANCH  42  56
ATOM     56  C   UNL     1      -7.956  12.894   6.341  1.00  0.00     0.057 A 
ATOM     57  C   UNL     1      -6.921  13.778   6.713  1.00  0.00     0.134 A 
ATOM     58  C   UNL     1      -8.577  12.261   7.433  1.00  0.00     0.134 A 
ATOM     59  F   UNL     1      -6.274  14.528   5.811  1.00  0.00    -0.206 F 
ATOM     60  C   UNL     1      -6.490  13.945   8.037  1.00  0.00     0.040 A 
ATOM     61  C   UNL     1      -8.137  12.394   8.758  1.00  0.00     0.040 A 
ATOM     62  F   UNL     1      -9.677  11.520   7.305  1.00  0.00    -0.206 F 
ATOM     63  C   UNL     1      -7.080  13.230   9.065  1.00  0.00     0.006 A 
ENDBRANCH  42  56
BRANCH  43  64
ATOM     64  C   UNL     1      -9.578  10.714  -2.934  1.00  0.00     0.057 A 
ATOM     65  C   UNL     1      -9.156   9.759  -3.877  1.00  0.00     0.134 A 
ATOM     66  C   UNL     1     -10.871  10.580  -2.421  1.00  0.00     0.134 A 
ATOM     67  F   UNL     1      -7.924   9.833  -4.406  1.00  0.00    -0.206 F 
ATOM     68  C   UNL     1      -9.934   8.644  -4.190  1.00  0.00     0.040 A 
ATOM     69  C   UNL     1     -11.666   9.475  -2.742  1.00  0.00     0.040 A 
ATOM     70  F   UNL     1     -11.335  11.441  -1.504  1.00  0.00    -0.206 F 
ATOM     71  C   UNL     1     -11.180   8.481  -3.590  1.00  0.00     0.006 A 
ENDBRANCH  43  64
BRANCH  55  72
ATOM     72  C   UNL     1      -9.198  16.652   1.076  1.00  0.00     0.057 A 
ATOM     73  C   UNL     1      -8.969  17.734   0.218  1.00  0.00     0.134 A 
ATOM     74  C   UNL     1      -9.888  16.940   2.268  1.00  0.00     0.134 A 
ATOM     75  F   UNL     1      -8.305  17.567  -0.935  1.00  0.00    -0.206 F 
ATOM     76  C   UNL     1      -9.400  19.029   0.530  1.00  0.00     0.040 A 
ATOM     77  C   UNL     1     -10.282  18.234   2.613  1.00  0.00     0.040 A 
ATOM     78  F   UNL     1     -10.222  15.971   3.134  1.00  0.00    -0.206 F 
ATOM     79  C   UNL     1     -10.040  19.285   1.739  1.00  0.00     0.006 A 
ENDBRANCH  55  72
ENDBRANCH  29  30
ENDBRANCH  21  24
ENDBRANCH  19  20
ENDBRANCH   1  19
TORSDOF 12
