REMARK SMILES Cc1oc2cc3c(cc2c1C)[C@H](C)[C@@H](CC(=O)N[C@H](CC1=c2ccccc2=NC1)C(=O)NCCCNC(=O)c1ccc(-c2c4nc(c(-c5c(F)cccc5F)c5ccc([nH]5)c(-c5c(F)cccc5F)c5nc(c(-c6c(F)cccc6F)c6ccc2[nH]6)C=C5)C=C4)cc1)C(=O)O3
REMARK SMILES IDX 33 1 32 2 30 3 31 4 19 6 18 7 16 8 17 9 15 11 14 12 1 13
REMARK SMILES IDX 2 14 3 15 10 16 4 17 9 18 11 19 5 20 8 21 6 22 7 23 95 24
REMARK SMILES IDX 12 25 93 26 13 27 94 28 20 29 21 30 22 31 29 32 23 33 27 34
REMARK SMILES IDX 28 35 24 36 26 37 25 38 34 39 35 40 36 41 37 42 38 44 39 45
REMARK SMILES IDX 40 46 92 47 41 48 91 49 42 50 43 51 44 52 85 53 45 54 90 55
REMARK SMILES IDX 84 56 86 57 46 58 89 59 83 60 82 61 47 63 73 64 56 65 72 66
REMARK SMILES IDX 57 67 60 68 71 69 87 70 58 71 59 72 70 74 88 75 61 76 48 77
REMARK SMILES IDX 49 78 54 79 50 80 51 81 53 82 55 83 52 84 74 85 75 86 80 87
REMARK SMILES IDX 76 88 77 89 79 90 81 91 78 92 62 93 63 94 68 95 64 96 65 97
REMARK SMILES IDX 67 98 69 99 66 100
REMARK H PARENT 32 5 18 10 36 43 86 62 60 73
REMARK Flexibility Score: inf
ROOT
ATOM      1  C   UNL     1      -0.394   8.693   9.380  1.00  0.00     0.117 C 
ENDROOT
BRANCH   1   2
ATOM      2  N   UNL     1       0.094   7.460  10.002  1.00  0.00    -0.354 N 
ATOM      3  C   UNL     1       0.276   6.225   9.430  1.00  0.00     0.242 C 
ATOM      4  O   UNL     1       0.846   5.299   9.995  1.00  0.00    -0.273 OA
ATOM      5  H   UNL     1       0.321   7.525  10.958  1.00  0.00     0.163 HD
BRANCH   3   6
ATOM      6  C   UNL     1      -0.306   5.938   8.115  1.00  0.00     0.175 C 
BRANCH   6   7
ATOM      7  N   UNL     1       0.306   6.961   7.233  1.00  0.00    -0.344 N 
ATOM      8  C   UNL     1       1.619   7.377   7.062  1.00  0.00     0.221 C 
ATOM      9  O   UNL     1       1.772   8.271   6.218  1.00  0.00    -0.275 OA
ATOM     10  H   UNL     1      -0.341   7.434   6.662  1.00  0.00     0.164 HD
BRANCH   8  11
ATOM     11  C   UNL     1       2.903   6.859   7.820  1.00  0.00     0.116 C 
BRANCH  11  12
ATOM     12  C   UNL     1       3.150   7.239   9.314  1.00  0.00     0.116 C 
ATOM     13  C   UNL     1       3.460   9.580  17.378  1.00  0.00     0.088 C 
ATOM     14  C   UNL     1       3.659   9.322  15.933  1.00  0.00     0.105 A 
ATOM     15  O   UNL     1       2.639   8.654  15.337  1.00  0.00    -0.461 OA
ATOM     16  C   UNL     1       4.693   9.524  15.027  1.00  0.00    -0.002 A 
ATOM     17  C   UNL     1       3.026   8.398  14.066  1.00  0.00     0.138 A 
ATOM     18  C   UNL     1       4.225   9.028  13.759  1.00  0.00     0.024 A 
ATOM     19  C   UNL     1       6.054  10.025  15.334  1.00  0.00     0.049 C 
ATOM     20  C   UNL     1       2.372   7.527  13.223  1.00  0.00     0.095 A 
ATOM     21  C   UNL     1       4.709   8.951  12.415  1.00  0.00     0.020 A 
ATOM     22  C   UNL     1       3.013   7.323  12.004  1.00  0.00     0.138 A 
ATOM     23  C   UNL     1       4.044   8.126  11.486  1.00  0.00    -0.001 A 
ATOM     24  O   UNL     1       2.687   6.116  11.380  1.00  0.00    -0.426 OA
ATOM     25  C   UNL     1       4.378   7.973   9.964  1.00  0.00     0.035 C 
ATOM     26  C   UNL     1       3.227   5.957  10.119  1.00  0.00     0.315 C 
ATOM     27  C   UNL     1       4.687   9.315   9.311  1.00  0.00     0.014 C 
ATOM     28  O   UNL     1       3.748   4.915   9.739  1.00  0.00    -0.251 OA
ENDBRANCH  11  12
ENDBRANCH   8  11
ENDBRANCH   6   7
BRANCH   6  29
ATOM     29  C   UNL     1      -1.861   5.906   8.444  1.00  0.00     0.068 C 
BRANCH  29  30
ATOM     30  C   UNL     1      -2.381   5.255   9.769  1.00  0.00    -0.037 C 
ATOM     31  C   UNL     1      -1.898   4.949  10.989  1.00  0.00     0.001 A 
ATOM     32  C   UNL     1      -3.733   4.580   9.743  1.00  0.00     0.174 C 
ATOM     33  C   UNL     1      -0.918   5.332  11.968  1.00  0.00     0.010 A 
ATOM     34  C   UNL     1      -2.397   3.546  11.037  1.00  0.00     0.065 A 
ATOM     35  N   UNL     1      -3.473   3.269  10.363  1.00  0.00    -0.280 NA
ATOM     36  C   UNL     1      -0.266   4.404  12.689  1.00  0.00     0.001 A 
ATOM     37  C   UNL     1      -1.510   2.557  11.702  1.00  0.00     0.028 A 
ATOM     38  C   UNL     1      -0.473   2.995  12.435  1.00  0.00     0.002 A 
ENDBRANCH  29  30
ENDBRANCH   6  29
ENDBRANCH   3   6
ENDBRANCH   1   2
BRANCH   1  39
ATOM     39  C   UNL     1      -0.609   9.800  10.393  1.00  0.00     0.042 C 
BRANCH  39  40
ATOM     40  C   UNL     1       0.708  10.116  11.101  1.00  0.00     0.118 C 
BRANCH  40  41
ATOM     41  N   UNL     1       1.142  11.490  11.012  1.00  0.00    -0.352 N 
ATOM     42  C   UNL     1       0.621  12.604  11.630  1.00  0.00     0.251 C 
ATOM     43  H   UNL     1       1.918  11.652  10.428  1.00  0.00     0.163 HD
ATOM     44  O   UNL     1       1.127  13.691  11.511  1.00  0.00    -0.269 OA
BRANCH  42  45
ATOM     45  C   UNL     1      -0.652  12.431  12.354  1.00  0.00     0.039 A 
ATOM     46  C   UNL     1      -0.758  11.545  13.429  1.00  0.00     0.014 A 
ATOM     47  C   UNL     1      -1.767  13.089  11.835  1.00  0.00     0.014 A 
ATOM     48  C   UNL     1      -2.016  11.224  13.915  1.00  0.00     0.010 A 
ATOM     49  C   UNL     1      -3.020  12.801  12.353  1.00  0.00     0.010 A 
ATOM     50  C   UNL     1      -3.147  11.843  13.367  1.00  0.00    -0.014 A 
BRANCH  50  51
ATOM     51  C   UNL     1      -4.445  11.495  13.959  1.00  0.00     0.031 A 
ATOM     52  C   UNL     1      -5.121  12.675  14.585  1.00  0.00     0.074 A 
ATOM     53  C   UNL     1      -5.231  10.580  13.359  1.00  0.00     0.049 A 
ATOM     54  N   UNL     1      -5.819  13.554  13.927  1.00  0.00    -0.248 NA
ATOM     55  C   UNL     1      -4.779  13.082  15.949  1.00  0.00     0.031 C 
ATOM     56  C   UNL     1      -5.436  10.475  11.910  1.00  0.00     0.029 A 
ATOM     57  N   UNL     1      -6.197   9.769  13.907  1.00  0.00    -0.354 N 
ATOM     58  C   UNL     1      -5.941  14.661  14.748  1.00  0.00     0.074 A 
ATOM     59  C   UNL     1      -5.298  14.316  15.997  1.00  0.00     0.031 C 
ATOM     60  C   UNL     1      -6.574   9.790  11.687  1.00  0.00     0.029 A 
ATOM     61  C   UNL     1      -7.106   9.311  12.959  1.00  0.00     0.049 A 
ATOM     62  H   UNL     1      -6.240   9.538  14.863  1.00  0.00     0.167 HD
ATOM     63  C   UNL     1      -6.531  15.822  14.363  1.00  0.00     0.037 A 
ATOM     64  C   UNL     1      -8.412   9.048  13.232  1.00  0.00     0.037 A 
ATOM     65  C   UNL     1      -7.096  15.839  13.050  1.00  0.00     0.049 A 
ATOM     66  C   UNL     1      -8.999  10.435  13.127  1.00  0.00     0.074 A 
ATOM     67  C   UNL     1      -6.727  16.277  11.797  1.00  0.00     0.029 A 
ATOM     68  N   UNL     1      -8.322  15.244  12.874  1.00  0.00    -0.354 N 
ATOM     69  N   UNL     1      -9.309  11.067  12.025  1.00  0.00    -0.248 NA
ATOM     70  C   UNL     1      -8.885  11.299  14.306  1.00  0.00     0.031 C 
ATOM     71  C   UNL     1      -7.536  15.537  10.881  1.00  0.00     0.029 A 
ATOM     72  C   UNL     1      -8.310  14.656  11.635  1.00  0.00     0.049 A 
ATOM     73  H   UNL     1      -9.069  15.241  13.516  1.00  0.00     0.167 HD
ATOM     74  C   UNL     1      -9.133  12.424  12.317  1.00  0.00     0.074 A 
ATOM     75  C   UNL     1      -8.938  12.500  13.748  1.00  0.00     0.031 C 
ATOM     76  C   UNL     1      -8.936  13.381  11.364  1.00  0.00     0.037 A 
BRANCH  63  77
ATOM     77  C   UNL     1      -6.716  16.981  15.252  1.00  0.00     0.057 A 
ATOM     78  C   UNL     1      -7.978  17.201  15.814  1.00  0.00     0.134 A 
ATOM     79  C   UNL     1      -5.738  17.960  15.426  1.00  0.00     0.134 A 
ATOM     80  F   UNL     1      -8.951  16.287  15.665  1.00  0.00    -0.206 F 
ATOM     81  C   UNL     1      -8.273  18.375  16.503  1.00  0.00     0.040 A 
ATOM     82  C   UNL     1      -6.019  19.140  16.118  1.00  0.00     0.040 A 
ATOM     83  F   UNL     1      -4.514  17.805  14.900  1.00  0.00    -0.206 F 
ATOM     84  C   UNL     1      -7.293  19.355  16.647  1.00  0.00     0.006 A 
ENDBRANCH  63  77
BRANCH  64  85
ATOM     85  C   UNL     1      -8.623   8.107  14.377  1.00  0.00     0.057 A 
ATOM     86  C   UNL     1      -7.936   6.875  14.354  1.00  0.00     0.134 A 
ATOM     87  C   UNL     1      -9.414   8.337  15.507  1.00  0.00     0.134 A 
ATOM     88  F   UNL     1      -7.237   6.508  13.267  1.00  0.00    -0.206 F 
ATOM     89  C   UNL     1      -7.923   5.997  15.440  1.00  0.00     0.040 A 
ATOM     90  C   UNL     1      -9.395   7.477  16.613  1.00  0.00     0.040 A 
ATOM     91  F   UNL     1     -10.216   9.405  15.592  1.00  0.00    -0.206 F 
ATOM     92  C   UNL     1      -8.630   6.316  16.591  1.00  0.00     0.006 A 
ENDBRANCH  64  85
BRANCH  76  93
ATOM     93  C   UNL     1      -9.137  12.947   9.955  1.00  0.00     0.057 A 
ATOM     94  C   UNL     1     -10.427  12.744   9.457  1.00  0.00     0.134 A 
ATOM     95  C   UNL     1      -8.064  12.784   9.070  1.00  0.00     0.134 A 
ATOM     96  F   UNL     1     -11.497  12.893  10.254  1.00  0.00    -0.206 F 
ATOM     97  C   UNL     1     -10.643  12.415   8.118  1.00  0.00     0.040 A 
ATOM     98  C   UNL     1      -8.269  12.481   7.724  1.00  0.00     0.040 A 
ATOM     99  F   UNL     1      -6.796  12.942   9.484  1.00  0.00    -0.206 F 
ATOM    100  C   UNL     1      -9.564  12.297   7.244  1.00  0.00     0.006 A 
ENDBRANCH  76  93
ENDBRANCH  50  51
ENDBRANCH  42  45
ENDBRANCH  40  41
ENDBRANCH  39  40
ENDBRANCH   1  39
TORSDOF 15
