REMARK SMILES COc1cc2c(CC(=O)NCCCNC(=O)c3ccc(-c4c5nc(c(-c6c(F)cccc6F)c6ccc([nH]6)c(-c6c(F)cccc6F)c6nc(c(-c7c(F)cccc7F)c7ccc4[nH]7)C=C6)C=C5)cc3)c(C)n(C(=O)c3ccc(Cl)cc3)c2cc1Cl
REMARK SMILES IDX 11 1 10 2 8 3 9 4 7 6 6 7 3 8 4 9 85 10 5 11 84 12 86 13
REMARK SMILES IDX 83 14 71 15 73 16 72 17 2 18 1 19 74 20 75 21 76 22 77 23
REMARK SMILES IDX 82 24 78 25 81 26 79 27 80 28 12 29 13 30 14 31 15 32 16 34
REMARK SMILES IDX 17 35 18 36 70 37 19 38 69 39 20 40 21 41 22 42 63 43 23 44
REMARK SMILES IDX 68 45 62 46 64 47 24 48 67 49 61 50 60 51 25 53 51 54 34 55
REMARK SMILES IDX 50 56 35 57 38 58 49 59 65 60 36 61 37 62 48 64 66 65 39 66
REMARK SMILES IDX 26 67 27 68 32 69 28 70 29 71 31 72 33 73 30 74 52 75 53 76
REMARK SMILES IDX 58 77 54 78 55 79 57 80 59 81 56 82 40 83 41 84 46 85 42 86
REMARK SMILES IDX 43 87 45 88 47 89 44 90
REMARK H PARENT 10 5 14 33 64 52 38 63
REMARK Flexibility Score: inf
ROOT
ATOM      1  C   UNL     1      -0.350   7.727  -2.805  1.00  0.00     0.117 C 
ENDROOT
BRANCH   1   2
ATOM      2  N   UNL     1      -1.312   6.639  -2.812  1.00  0.00    -0.356 N 
ATOM      3  C   UNL     1      -1.889   5.985  -1.762  1.00  0.00     0.224 C 
ATOM      4  O   UNL     1      -2.715   5.104  -2.012  1.00  0.00    -0.275 OA
ATOM      5  H   UNL     1      -1.587   6.328  -3.705  1.00  0.00     0.163 HD
BRANCH   3   6
ATOM      6  C   UNL     1      -1.560   6.371  -0.329  1.00  0.00     0.138 C 
BRANCH   6   7
ATOM      7  C   UNL     1      -0.143   6.063   0.068  1.00  0.00    -0.009 A 
ATOM      8  C   UNL     1       0.935   2.402  -0.363  1.00  0.00     0.138 A 
ATOM      9  C   UNL     1       0.072   3.507  -0.429  1.00  0.00     0.058 A 
ATOM     10  C   UNL     1       2.211   2.569   0.163  1.00  0.00     0.085 A 
ATOM     11  C   UNL     1       0.493   4.790   0.002  1.00  0.00     0.008 A 
ATOM     12  C   UNL     1       2.614   3.813   0.662  1.00  0.00     0.051 A 
ATOM     13  Cl  UNL     1       3.429   1.341   0.148  1.00  0.00    -0.080 Cl
ATOM     14  C   UNL     1       1.785   4.943   0.510  1.00  0.00     0.058 A 
ATOM     15  C   UNL     1       0.768   6.954   0.627  1.00  0.00     0.028 A 
ATOM     16  N   UNL     1       2.011   6.315   0.726  1.00  0.00    -0.280 N 
ATOM     17  C   UNL     1       0.506   8.375   1.024  1.00  0.00     0.065 C 
BRANCH   8  18
ATOM     18  O   UNL     1       0.439   1.253  -0.921  1.00  0.00    -0.495 OA
ATOM     19  C   UNL     1       0.557   0.089  -0.105  1.00  0.00     0.278 C 
ENDBRANCH   8  18
BRANCH  16  20
ATOM     20  C   UNL     1       3.275   6.935   0.959  1.00  0.00     0.262 C 
ATOM     21  O   UNL     1       3.327   8.158   1.103  1.00  0.00    -0.268 OA
BRANCH  20  22
ATOM     22  C   UNL     1       4.563   6.225   1.026  1.00  0.00     0.040 A 
ATOM     23  C   UNL     1       5.100   5.610  -0.112  1.00  0.00     0.015 A 
ATOM     24  C   UNL     1       5.189   6.104   2.272  1.00  0.00     0.015 A 
ATOM     25  C   UNL     1       6.218   4.784   0.024  1.00  0.00     0.021 A 
ATOM     26  C   UNL     1       6.314   5.287   2.396  1.00  0.00     0.021 A 
ATOM     27  C   UNL     1       6.809   4.613   1.278  1.00  0.00     0.041 A 
ATOM     28  Cl  UNL     1       8.135   3.532   1.456  1.00  0.00    -0.084 Cl
ENDBRANCH  20  22
ENDBRANCH  16  20
ENDBRANCH   6   7
ENDBRANCH   3   6
ENDBRANCH   1   2
BRANCH   1  29
ATOM     29  C   UNL     1       1.050   7.289  -3.241  1.00  0.00     0.042 C 
BRANCH  29  30
ATOM     30  C   UNL     1       1.147   6.902  -4.718  1.00  0.00     0.118 C 
BRANCH  30  31
ATOM     31  N   UNL     1       0.692   7.935  -5.629  1.00  0.00    -0.352 N 
ATOM     32  C   UNL     1       1.257   8.986  -6.292  1.00  0.00     0.251 C 
ATOM     33  H   UNL     1      -0.271   7.859  -5.817  1.00  0.00     0.163 HD
ATOM     34  O   UNL     1       0.518   9.563  -7.095  1.00  0.00    -0.269 OA
BRANCH  32  35
ATOM     35  C   UNL     1       2.631   9.521  -6.088  1.00  0.00     0.039 A 
ATOM     36  C   UNL     1       3.599   9.001  -5.231  1.00  0.00     0.014 A 
ATOM     37  C   UNL     1       2.932  10.701  -6.801  1.00  0.00     0.014 A 
ATOM     38  C   UNL     1       4.795   9.692  -5.027  1.00  0.00     0.010 A 
ATOM     39  C   UNL     1       4.124  11.390  -6.605  1.00  0.00     0.010 A 
ATOM     40  C   UNL     1       5.039  10.908  -5.681  1.00  0.00    -0.014 A 
BRANCH  40  41
ATOM     41  C   UNL     1       6.332  11.564  -5.483  1.00  0.00     0.031 A 
ATOM     42  C   UNL     1       7.495  10.733  -5.899  1.00  0.00     0.074 A 
ATOM     43  C   UNL     1       6.502  12.838  -5.069  1.00  0.00     0.049 A 
ATOM     44  N   UNL     1       8.406  10.225  -5.136  1.00  0.00    -0.248 NA
ATOM     45  C   UNL     1       7.579  10.299  -7.301  1.00  0.00     0.031 C 
ATOM     46  C   UNL     1       5.481  13.867  -4.866  1.00  0.00     0.029 A 
ATOM     47  N   UNL     1       7.663  13.512  -4.808  1.00  0.00    -0.354 N 
ATOM     48  C   UNL     1       9.299   9.575  -5.985  1.00  0.00     0.074 A 
ATOM     49  C   UNL     1       8.656   9.512  -7.271  1.00  0.00     0.031 C 
ATOM     50  C   UNL     1       6.079  15.074  -4.731  1.00  0.00     0.029 A 
ATOM     51  C   UNL     1       7.521  14.893  -4.709  1.00  0.00     0.049 A 
ATOM     52  H   UNL     1       8.529  13.056  -4.699  1.00  0.00     0.167 HD
ATOM     53  C   UNL     1      10.591   9.367  -5.608  1.00  0.00     0.037 A 
ATOM     54  C   UNL     1       8.514  15.821  -4.651  1.00  0.00     0.037 A 
ATOM     55  C   UNL     1      10.735   9.471  -4.175  1.00  0.00     0.049 A 
ATOM     56  C   UNL     1       9.751  15.129  -4.214  1.00  0.00     0.074 A 
ATOM     57  C   UNL     1      10.164   8.839  -3.086  1.00  0.00     0.029 A 
ATOM     58  N   UNL     1      11.328  10.603  -3.670  1.00  0.00    -0.354 N 
ATOM     59  N   UNL     1       9.937  14.675  -3.007  1.00  0.00    -0.248 NA
ATOM     60  C   UNL     1      10.597  14.541  -5.241  1.00  0.00     0.031 C 
ATOM     61  C   UNL     1      10.005   9.864  -2.107  1.00  0.00     0.029 A 
ATOM     62  C   UNL     1      10.553  11.035  -2.628  1.00  0.00     0.049 A 
ATOM     63  H   UNL     1      12.155  11.025  -3.997  1.00  0.00     0.167 HD
ATOM     64  C   UNL     1      10.553  13.448  -3.193  1.00  0.00     0.074 A 
ATOM     65  C   UNL     1      11.019  13.460  -4.579  1.00  0.00     0.031 C 
ATOM     66  C   UNL     1      10.372  12.428  -2.304  1.00  0.00     0.037 A 
BRANCH  53  67
ATOM     67  C   UNL     1      11.777   9.517  -6.538  1.00  0.00     0.057 A 
ATOM     68  C   UNL     1      11.744  10.206  -7.767  1.00  0.00     0.134 A 
ATOM     69  C   UNL     1      13.068   9.281  -6.025  1.00  0.00     0.134 A 
ATOM     70  F   UNL     1      10.604  10.524  -8.389  1.00  0.00    -0.206 F 
ATOM     71  C   UNL     1      12.893  10.704  -8.386  1.00  0.00     0.040 A 
ATOM     72  C   UNL     1      14.220   9.818  -6.612  1.00  0.00     0.040 A 
ATOM     73  F   UNL     1      13.241   8.615  -4.873  1.00  0.00    -0.206 F 
ATOM     74  C   UNL     1      14.131  10.553  -7.786  1.00  0.00     0.006 A 
ENDBRANCH  53  67
BRANCH  54  75
ATOM     75  C   UNL     1       8.544  17.212  -5.173  1.00  0.00     0.057 A 
ATOM     76  C   UNL     1       7.733  17.609  -6.250  1.00  0.00     0.134 A 
ATOM     77  C   UNL     1       9.564  18.110  -4.817  1.00  0.00     0.134 A 
ATOM     78  F   UNL     1       6.776  16.803  -6.731  1.00  0.00    -0.206 F 
ATOM     79  C   UNL     1       7.931  18.810  -6.941  1.00  0.00     0.040 A 
ATOM     80  C   UNL     1       9.779  19.314  -5.506  1.00  0.00     0.040 A 
ATOM     81  F   UNL     1      10.425  17.812  -3.833  1.00  0.00    -0.206 F 
ATOM     82  C   UNL     1       8.967  19.662  -6.580  1.00  0.00     0.006 A 
ENDBRANCH  54  75
BRANCH  66  83
ATOM     83  C   UNL     1       9.716  12.743  -0.990  1.00  0.00     0.057 A 
ATOM     84  C   UNL     1      10.384  12.396   0.189  1.00  0.00     0.134 A 
ATOM     85  C   UNL     1       8.412  13.244  -0.857  1.00  0.00     0.134 A 
ATOM     86  F   UNL     1      11.613  11.857   0.137  1.00  0.00    -0.206 F 
ATOM     87  C   UNL     1       9.795  12.553   1.444  1.00  0.00     0.040 A 
ATOM     88  C   UNL     1       7.823  13.439   0.396  1.00  0.00     0.040 A 
ATOM     89  F   UNL     1       7.654  13.506  -1.929  1.00  0.00    -0.206 F 
ATOM     90  C   UNL     1       8.514  13.088   1.552  1.00  0.00     0.006 A 
ENDBRANCH  66  83
ENDBRANCH  40  41
ENDBRANCH  32  35
ENDBRANCH  30  31
ENDBRANCH  29  30
ENDBRANCH   1  29
TORSDOF 14
