REMARK SMILES CC[NH2+][C@@]1(C(=O)NCCCNC(=O)c2ccc(-c3c4nc(c(-c5c(F)cccc5F)c5ccc([nH]5)c(-c5c(F)cccc5F)c5nc(c(-c6c(F)cccc6F)c6ccc3[nH]6)C=C5)C=C4)cc2)CCC[C@@H]([N@@H+](C)[C@@H](C)C2CC2)C1
REMARK SMILES IDX 8 1 7 2 5 3 6 4 4 6 68 7 79 8 69 9 71 10 70 11 3 12 2 15
REMARK SMILES IDX 1 16 72 17 73 18 74 20 75 21 76 22 77 23 78 24 9 25 10 26
REMARK SMILES IDX 11 27 12 28 13 30 14 31 15 32 67 33 16 34 66 35 17 36 18 37
REMARK SMILES IDX 19 38 60 39 20 40 65 41 59 42 61 43 21 44 64 45 58 46 57 47
REMARK SMILES IDX 22 49 48 50 31 51 47 52 32 53 35 54 46 55 62 56 33 57 34 58
REMARK SMILES IDX 45 60 63 61 36 62 23 63 24 64 29 65 25 66 26 67 28 68 30 69
REMARK SMILES IDX 27 70 49 71 50 72 55 73 51 74 52 75 54 76 56 77 53 78 37 79
REMARK SMILES IDX 38 80 43 81 39 82 40 83 42 84 44 85 41 86
REMARK H PARENT 7 5 3 13 3 14 72 19 11 29 61 48 35 59
REMARK Flexibility Score: inf
ROOT
ATOM      1  C   UNL     1      -0.125   3.167  -6.231  1.00  0.00     0.118 C 
ENDROOT
BRANCH   1   2
ATOM      2  N   UNL     1       0.646   2.006  -5.887  1.00  0.00    -0.351 N 
ATOM      3  C   UNL     1       0.876   1.363  -4.718  1.00  0.00     0.281 C 
ATOM      4  O   UNL     1       1.632   0.384  -4.845  1.00  0.00    -0.268 OA
ATOM      5  H   UNL     1       1.101   1.594  -6.657  1.00  0.00     0.163 HD
BRANCH   3   6
ATOM      6  C   UNL     1       0.353   1.798  -3.260  1.00  0.00     0.181 C 
ATOM      7  C   UNL     1      -1.182   1.857  -3.114  1.00  0.00     0.079 C 
ATOM      8  C   UNL     1       1.089   3.085  -2.822  1.00  0.00     0.144 C 
ATOM      9  C   UNL     1      -1.894   3.184  -3.337  1.00  0.00     0.013 C 
ATOM     10  C   UNL     1       0.378   4.435  -3.032  1.00  0.00     0.190 C 
ATOM     11  C   UNL     1      -1.141   4.404  -2.814  1.00  0.00     0.065 C 
BRANCH   6  12
ATOM     12  N   UNL     1       0.800   0.616  -2.423  1.00  0.00    -0.334 N 
ATOM     13  H   UNL     1       0.252  -0.186  -2.736  1.00  0.00     0.347 HD
ATOM     14  H   UNL     1       1.808   0.596  -2.577  1.00  0.00     0.347 HD
BRANCH  12  15
ATOM     15  C   UNL     1       0.694   0.651  -0.972  1.00  0.00     0.257 C 
ATOM     16  C   UNL     1       1.208  -0.655  -0.379  1.00  0.00     0.071 C 
ENDBRANCH  12  15
ENDBRANCH   6  12
BRANCH  10  17
ATOM     17  N   UNL     1       1.137   5.593  -2.460  1.00  0.00    -0.332 N 
ATOM     18  C   UNL     1       1.092   6.730  -3.406  1.00  0.00     0.333 C 
ATOM     19  H   UNL     1       2.040   5.135  -2.335  1.00  0.00     0.348 HD
BRANCH  17  20
ATOM     20  C   UNL     1       0.934   6.110  -1.079  1.00  0.00     0.184 C 
ATOM     21  C   UNL     1      -0.482   6.534  -0.659  1.00  0.00     0.075 C 
BRANCH  20  22
ATOM     22  C   UNL     1       1.613   5.427   0.090  1.00  0.00     0.047 C 
ATOM     23  C   UNL     1       1.228   4.049   0.545  1.00  0.00     0.010 C 
ATOM     24  C   UNL     1       2.613   4.308  -0.006  1.00  0.00     0.010 C 
ENDBRANCH  20  22
ENDBRANCH  17  20
ENDBRANCH  10  17
ENDBRANCH   3   6
ENDBRANCH   1   2
BRANCH   1  25
ATOM     25  C   UNL     1       0.727   4.372  -6.585  1.00  0.00     0.042 C 
BRANCH  25  26
ATOM     26  C   UNL     1       0.948   4.520  -8.072  1.00  0.00     0.118 C 
BRANCH  26  27
ATOM     27  N   UNL     1      -0.294   4.824  -8.779  1.00  0.00    -0.352 N 
ATOM     28  C   UNL     1      -0.707   5.962  -9.428  1.00  0.00     0.251 C 
ATOM     29  H   UNL     1      -0.947   4.087  -8.793  1.00  0.00     0.163 HD
ATOM     30  O   UNL     1      -1.882   6.081  -9.751  1.00  0.00    -0.269 OA
BRANCH  28  31
ATOM     31  C   UNL     1       0.255   7.047  -9.722  1.00  0.00     0.039 A 
ATOM     32  C   UNL     1      -0.183   8.374  -9.711  1.00  0.00     0.014 A 
ATOM     33  C   UNL     1       1.585   6.760 -10.025  1.00  0.00     0.014 A 
ATOM     34  C   UNL     1       0.731   9.405  -9.941  1.00  0.00     0.010 A 
ATOM     35  C   UNL     1       2.516   7.782 -10.100  1.00  0.00     0.010 A 
ATOM     36  C   UNL     1       2.096   9.118 -10.097  1.00  0.00    -0.014 A 
BRANCH  36  37
ATOM     37  C   UNL     1       3.105  10.180 -10.329  1.00  0.00     0.031 A 
ATOM     38  C   UNL     1       3.947  10.139 -11.580  1.00  0.00     0.074 A 
ATOM     39  C   UNL     1       3.312  11.129  -9.396  1.00  0.00     0.049 A 
ATOM     40  N   UNL     1       4.963  10.890 -11.919  1.00  0.00    -0.248 NA
ATOM     41  C   UNL     1       3.633   9.086 -12.563  1.00  0.00     0.031 C 
ATOM     42  C   UNL     1       2.597  11.241  -8.122  1.00  0.00     0.029 A 
ATOM     43  N   UNL     1       4.196  12.178  -9.370  1.00  0.00    -0.354 N 
ATOM     44  C   UNL     1       5.413  10.388 -13.134  1.00  0.00     0.074 A 
ATOM     45  C   UNL     1       4.618   9.222 -13.436  1.00  0.00     0.031 C 
ATOM     46  C   UNL     1       3.049  12.315  -7.455  1.00  0.00     0.029 A 
ATOM     47  C   UNL     1       4.116  12.939  -8.229  1.00  0.00     0.049 A 
ATOM     48  H   UNL     1       4.827  12.367 -10.101  1.00  0.00     0.167 HD
ATOM     49  C   UNL     1       6.375  10.879 -13.949  1.00  0.00     0.037 A 
ATOM     50  C   UNL     1       4.834  14.012  -7.849  1.00  0.00     0.037 A 
ATOM     51  C   UNL     1       7.134  12.065 -13.664  1.00  0.00     0.049 A 
ATOM     52  C   UNL     1       5.905  14.532  -8.771  1.00  0.00     0.074 A 
ATOM     53  C   UNL     1       8.103  12.675 -14.440  1.00  0.00     0.029 A 
ATOM     54  N   UNL     1       6.999  12.827 -12.513  1.00  0.00    -0.354 N 
ATOM     55  N   UNL     1       6.279  14.079  -9.945  1.00  0.00    -0.248 NA
ATOM     56  C   UNL     1       6.649  15.716  -8.321  1.00  0.00     0.031 C 
ATOM     57  C   UNL     1       8.582  13.786 -13.740  1.00  0.00     0.029 A 
ATOM     58  C   UNL     1       7.874  13.897 -12.554  1.00  0.00     0.049 A 
ATOM     59  H   UNL     1       6.373  12.635 -11.778  1.00  0.00     0.167 HD
ATOM     60  C   UNL     1       7.271  14.945 -10.388  1.00  0.00     0.074 A 
ATOM     61  C   UNL     1       7.428  15.957  -9.365  1.00  0.00     0.031 C 
ATOM     62  C   UNL     1       7.991  14.907 -11.535  1.00  0.00     0.037 A 
BRANCH  49  63
ATOM     63  C   UNL     1       6.637  10.154 -15.237  1.00  0.00     0.057 A 
ATOM     64  C   UNL     1       5.706  10.157 -16.285  1.00  0.00     0.134 A 
ATOM     65  C   UNL     1       7.851   9.490 -15.454  1.00  0.00     0.134 A 
ATOM     66  F   UNL     1       4.517  10.761 -16.137  1.00  0.00    -0.206 F 
ATOM     67  C   UNL     1       5.965   9.510 -17.494  1.00  0.00     0.040 A 
ATOM     68  C   UNL     1       8.133   8.865 -16.670  1.00  0.00     0.040 A 
ATOM     69  F   UNL     1       8.787   9.449 -14.495  1.00  0.00    -0.206 F 
ATOM     70  C   UNL     1       7.186   8.871 -17.693  1.00  0.00     0.006 A 
ENDBRANCH  49  63
BRANCH  50  71
ATOM     71  C   UNL     1       4.569  14.680  -6.547  1.00  0.00     0.057 A 
ATOM     72  C   UNL     1       4.066  15.985  -6.492  1.00  0.00     0.134 A 
ATOM     73  C   UNL     1       4.856  14.051  -5.330  1.00  0.00     0.134 A 
ATOM     74  F   UNL     1       3.783  16.648  -7.623  1.00  0.00    -0.206 F 
ATOM     75  C   UNL     1       3.897  16.656  -5.279  1.00  0.00     0.040 A 
ATOM     76  C   UNL     1       4.662  14.697  -4.107  1.00  0.00     0.040 A 
ATOM     77  F   UNL     1       5.328  12.795  -5.309  1.00  0.00    -0.206 F 
ATOM     78  C   UNL     1       4.196  16.010  -4.081  1.00  0.00     0.006 A 
ENDBRANCH  50  71
BRANCH  62  79
ATOM     79  C   UNL     1       8.966  16.022 -11.772  1.00  0.00     0.057 A 
ATOM     80  C   UNL     1      10.156  16.136 -11.042  1.00  0.00     0.134 A 
ATOM     81  C   UNL     1       8.731  16.965 -12.781  1.00  0.00     0.134 A 
ATOM     82  F   UNL     1      10.434  15.270 -10.056  1.00  0.00    -0.206 F 
ATOM     83  C   UNL     1      11.064  17.166 -11.289  1.00  0.00     0.040 A 
ATOM     84  C   UNL     1       9.646  17.980 -13.057  1.00  0.00     0.040 A 
ATOM     85  F   UNL     1       7.616  16.904 -13.525  1.00  0.00    -0.206 F 
ATOM     86  C   UNL     1      10.814  18.086 -12.305  1.00  0.00     0.006 A 
ENDBRANCH  62  79
ENDBRANCH  36  37
ENDBRANCH  28  31
ENDBRANCH  26  27
ENDBRANCH  25  26
ENDBRANCH   1  25
TORSDOF 15
