REMARK SMILES C[C@H]1CC[C@H]([NH2+]Cc2c(C(=O)NCCCNC(=O)c3ccc(-c4c5nc(c(-c6c(F)cccc6F)c6ccc([nH]6)c(-c6c(F)cccc6F)c6nc(c(-c7c(F)cccc7F)c7ccc4[nH]7)C=C6)C=C5)cc3)n(Cc3ccccc3F)c3ccccc23)CC1
REMARK SMILES IDX 13 1 12 2 10 3 11 4 9 6 8 7 87 8 73 9 82 10 86 11 83 12
REMARK SMILES IDX 85 13 84 14 7 15 6 16 5 19 1 20 2 21 3 22 89 23 4 24 88 25
REMARK SMILES IDX 74 26 75 27 76 28 80 29 77 30 79 31 81 32 78 33 14 34 15 35
REMARK SMILES IDX 16 36 17 37 18 39 19 40 20 41 72 42 21 43 71 44 22 45 23 46
REMARK SMILES IDX 24 47 65 48 25 49 70 50 64 51 66 52 26 53 69 54 63 55 62 56
REMARK SMILES IDX 27 58 53 59 36 60 52 61 37 62 40 63 51 64 67 65 38 66 39 67
REMARK SMILES IDX 50 69 68 70 41 71 28 72 29 73 34 74 30 75 31 76 33 77 35 78
REMARK SMILES IDX 32 79 54 80 55 81 60 82 56 83 57 84 59 85 61 86 58 87 42 88
REMARK SMILES IDX 43 89 48 90 44 91 45 92 47 93 49 94 46 95
REMARK H PARENT 12 5 6 17 6 18 16 38 66 57 40 68
REMARK Flexibility Score: inf
ROOT
ATOM      1  C   UNL     1      -3.894   0.431   1.752  1.00  0.00     0.118 C 
ENDROOT
BRANCH   1   2
ATOM      2  N   UNL     1      -2.831  -0.247   2.451  1.00  0.00    -0.351 N 
ATOM      3  C   UNL     1      -2.258  -1.481   2.266  1.00  0.00     0.268 C 
ATOM      4  O   UNL     1      -1.315  -1.689   3.047  1.00  0.00    -0.268 OA
ATOM      5  H   UNL     1      -2.446   0.268   3.196  1.00  0.00     0.163 HD
BRANCH   3   6
ATOM      6  C   UNL     1      -2.715  -2.500   1.311  1.00  0.00     0.117 A 
ATOM      7  C   UNL     1      -3.350  -2.429   0.055  1.00  0.00     0.045 A 
ATOM      8  C   UNL     1      -3.844  -3.745  -0.231  1.00  0.00     0.009 A 
ATOM      9  N   UNL     1      -2.368  -3.871   1.426  1.00  0.00    -0.331 N 
ATOM     10  C   UNL     1      -3.054  -4.628   0.484  1.00  0.00     0.049 A 
ATOM     11  C   UNL     1      -4.779  -4.256  -1.160  1.00  0.00     0.011 A 
ATOM     12  C   UNL     1      -3.035  -5.999   0.163  1.00  0.00     0.027 A 
ATOM     13  C   UNL     1      -4.874  -5.633  -1.367  1.00  0.00     0.001 A 
ATOM     14  C   UNL     1      -3.980  -6.490  -0.742  1.00  0.00     0.002 A 
BRANCH   7  15
ATOM     15  C   UNL     1      -3.561  -1.344  -0.961  1.00  0.00     0.300 C 
BRANCH  15  16
ATOM     16  N   UNL     1      -2.632  -0.235  -0.914  1.00  0.00    -0.340 N 
ATOM     17  H   UNL     1      -3.045   0.500  -1.488  1.00  0.00     0.346 HD
ATOM     18  H   UNL     1      -2.528  -0.102   0.092  1.00  0.00     0.346 HD
BRANCH  16  19
ATOM     19  C   UNL     1      -1.236  -0.341  -1.339  1.00  0.00     0.182 C 
ATOM     20  C   UNL     1       3.084   0.021  -0.421  1.00  0.00     0.007 C 
ATOM     21  C   UNL     1       1.568  -0.100  -0.351  1.00  0.00    -0.014 C 
ATOM     22  C   UNL     1       1.070  -1.393  -1.004  1.00  0.00     0.009 C 
ATOM     23  C   UNL     1       0.885   1.093  -1.021  1.00  0.00     0.009 C 
ATOM     24  C   UNL     1      -0.437  -1.533  -0.800  1.00  0.00     0.065 C 
ATOM     25  C   UNL     1      -0.626   0.998  -0.867  1.00  0.00     0.065 C 
ENDBRANCH  16  19
ENDBRANCH  15  16
ENDBRANCH   7  15
BRANCH   9  26
ATOM     26  C   UNL     1      -1.307  -4.448   2.271  1.00  0.00     0.161 C 
BRANCH  26  27
ATOM     27  C   UNL     1      -1.777  -5.113   3.545  1.00  0.00     0.008 A 
ATOM     28  C   UNL     1      -2.592  -6.258   3.544  1.00  0.00     0.008 A 
ATOM     29  C   UNL     1      -1.309  -4.670   4.785  1.00  0.00     0.128 A 
ATOM     30  C   UNL     1      -2.931  -6.920   4.728  1.00  0.00     0.001 A 
ATOM     31  C   UNL     1      -1.657  -5.313   5.975  1.00  0.00     0.039 A 
ATOM     32  F   UNL     1      -0.463  -3.634   4.858  1.00  0.00    -0.207 F 
ATOM     33  C   UNL     1      -2.469  -6.443   5.948  1.00  0.00     0.003 A 
ENDBRANCH  26  27
ENDBRANCH   9  26
ENDBRANCH   3   6
ENDBRANCH   1   2
BRANCH   1  34
ATOM     34  C   UNL     1      -4.457   1.660   2.460  1.00  0.00     0.042 C 
BRANCH  34  35
ATOM     35  C   UNL     1      -3.593   2.939   2.425  1.00  0.00     0.118 C 
BRANCH  35  36
ATOM     36  N   UNL     1      -2.841   3.212   1.205  1.00  0.00    -0.352 N 
ATOM     37  C   UNL     1      -2.972   4.109   0.175  1.00  0.00     0.251 C 
ATOM     38  H   UNL     1      -2.063   2.619   1.097  1.00  0.00     0.163 HD
ATOM     39  O   UNL     1      -1.958   4.361  -0.481  1.00  0.00    -0.269 OA
BRANCH  37  40
ATOM     40  C   UNL     1      -4.255   4.726  -0.257  1.00  0.00     0.039 A 
ATOM     41  C   UNL     1      -5.500   4.259   0.147  1.00  0.00     0.014 A 
ATOM     42  C   UNL     1      -4.205   5.719  -1.255  1.00  0.00     0.014 A 
ATOM     43  C   UNL     1      -6.664   4.710  -0.467  1.00  0.00     0.010 A 
ATOM     44  C   UNL     1      -5.372   6.184  -1.870  1.00  0.00     0.010 A 
ATOM     45  C   UNL     1      -6.604   5.644  -1.504  1.00  0.00    -0.014 A 
BRANCH  45  46
ATOM     46  C   UNL     1      -7.868   5.980  -2.163  1.00  0.00     0.031 A 
ATOM     47  C   UNL     1      -8.942   6.594  -1.329  1.00  0.00     0.074 A 
ATOM     48  C   UNL     1      -8.110   5.808  -3.477  1.00  0.00     0.049 A 
ATOM     49  N   UNL     1     -10.130   6.136  -1.086  1.00  0.00    -0.248 NA
ATOM     50  C   UNL     1      -8.648   7.876  -0.677  1.00  0.00     0.031 C 
ATOM     51  C   UNL     1      -7.162   5.491  -4.545  1.00  0.00     0.029 A 
ATOM     52  N   UNL     1      -9.293   5.973  -4.142  1.00  0.00    -0.354 N 
ATOM     53  C   UNL     1     -10.793   7.128  -0.365  1.00  0.00     0.074 A 
ATOM     54  C   UNL     1      -9.812   8.149  -0.085  1.00  0.00     0.031 C 
ATOM     55  C   UNL     1      -7.763   5.694  -5.739  1.00  0.00     0.029 A 
ATOM     56  C   UNL     1      -9.161   6.029  -5.517  1.00  0.00     0.049 A 
ATOM     57  H   UNL     1     -10.161   6.046  -3.683  1.00  0.00     0.167 HD
ATOM     58  C   UNL     1     -12.139   7.117  -0.153  1.00  0.00     0.037 A 
ATOM     59  C   UNL     1     -10.113   6.390  -6.410  1.00  0.00     0.037 A 
ATOM     60  C   UNL     1     -12.728   5.830  -0.397  1.00  0.00     0.049 A 
ATOM     61  C   UNL     1     -11.442   6.215  -5.779  1.00  0.00     0.074 A 
ATOM     62  C   UNL     1     -12.564   4.562   0.127  1.00  0.00     0.029 A 
ATOM     63  N   UNL     1     -13.511   5.661  -1.511  1.00  0.00    -0.354 N 
ATOM     64  N   UNL     1     -11.997   5.063  -5.526  1.00  0.00    -0.248 NA
ATOM     65  C   UNL     1     -12.039   7.355  -5.097  1.00  0.00     0.031 C 
ATOM     66  C   UNL     1     -12.832   3.673  -0.954  1.00  0.00     0.029 A 
ATOM     67  C   UNL     1     -13.133   4.464  -2.062  1.00  0.00     0.049 A 
ATOM     68  H   UNL     1     -14.204   6.275  -1.846  1.00  0.00     0.167 HD
ATOM     69  C   UNL     1     -12.726   5.267  -4.364  1.00  0.00     0.074 A 
ATOM     70  C   UNL     1     -12.816   6.715  -4.221  1.00  0.00     0.031 C 
ATOM     71  C   UNL     1     -12.950   4.253  -3.477  1.00  0.00     0.037 A 
BRANCH  58  72
ATOM     72  C   UNL     1     -12.985   8.345   0.050  1.00  0.00     0.057 A 
ATOM     73  C   UNL     1     -12.671   9.598  -0.507  1.00  0.00     0.134 A 
ATOM     74  C   UNL     1     -14.284   8.228   0.580  1.00  0.00     0.134 A 
ATOM     75  F   UNL     1     -11.510   9.816  -1.140  1.00  0.00    -0.206 F 
ATOM     76  C   UNL     1     -13.576  10.665  -0.525  1.00  0.00     0.040 A 
ATOM     77  C   UNL     1     -15.214   9.273   0.524  1.00  0.00     0.040 A 
ATOM     78  F   UNL     1     -14.711   7.070   1.107  1.00  0.00    -0.206 F 
ATOM     79  C   UNL     1     -14.861  10.497  -0.030  1.00  0.00     0.006 A 
ENDBRANCH  58  72
BRANCH  59  80
ATOM     80  C   UNL     1      -9.923   7.070  -7.709  1.00  0.00     0.057 A 
ATOM     81  C   UNL     1      -8.832   7.930  -7.935  1.00  0.00     0.134 A 
ATOM     82  C   UNL     1     -10.924   7.078  -8.689  1.00  0.00     0.134 A 
ATOM     83  F   UNL     1      -7.867   8.085  -7.016  1.00  0.00    -0.206 F 
ATOM     84  C   UNL     1      -8.728   8.730  -9.075  1.00  0.00     0.040 A 
ATOM     85  C   UNL     1     -10.840   7.888  -9.830  1.00  0.00     0.040 A 
ATOM     86  F   UNL     1     -12.033   6.341  -8.538  1.00  0.00    -0.206 F 
ATOM     87  C   UNL     1      -9.739   8.717 -10.025  1.00  0.00     0.006 A 
ENDBRANCH  59  80
BRANCH  71  88
ATOM     88  C   UNL     1     -12.650   2.852  -3.920  1.00  0.00     0.057 A 
ATOM     89  C   UNL     1     -13.660   1.885  -3.867  1.00  0.00     0.134 A 
ATOM     90  C   UNL     1     -11.361   2.411  -4.250  1.00  0.00     0.134 A 
ATOM     91  F   UNL     1     -14.904   2.223  -3.491  1.00  0.00    -0.206 F 
ATOM     92  C   UNL     1     -13.407   0.541  -4.154  1.00  0.00     0.040 A 
ATOM     93  C   UNL     1     -11.101   1.076  -4.571  1.00  0.00     0.040 A 
ATOM     94  F   UNL     1     -10.313   3.245  -4.212  1.00  0.00    -0.206 F 
ATOM     95  C   UNL     1     -12.126   0.136  -4.521  1.00  0.00     0.006 A 
ENDBRANCH  71  88
ENDBRANCH  45  46
ENDBRANCH  37  40
ENDBRANCH  35  36
ENDBRANCH  34  35
ENDBRANCH   1  34
TORSDOF 15
