REMARK SMILES C[C@H](O)[C@H](NC(=O)N1CC[N@@H+]2CCC[C@@H]2C1)C(=O)NCCCNC(=O)c1ccc(-c2c3nc(c(-c4c(F)cccc4F)c4ccc([nH]4)c(-c4c(F)cccc4F)c4nc(c(-c5c(F)cccc5F)c5ccc2[nH]5)C=C4)C=C3)cc1
REMARK SMILES IDX 21 1 20 2 19 3 17 4 18 5 4 7 2 8 1 9 3 10 5 12 6 13 7 15
REMARK SMILES IDX 8 16 9 17 16 18 10 19 15 20 11 21 14 22 12 23 13 25 22 26
REMARK SMILES IDX 23 27 24 28 25 30 26 31 27 32 79 33 28 34 78 35 29 36 30 37
REMARK SMILES IDX 31 38 72 39 32 40 77 41 71 42 73 43 33 44 76 45 70 46 69 47
REMARK SMILES IDX 34 49 60 50 43 51 59 52 44 53 47 54 58 55 74 56 45 57 46 58
REMARK SMILES IDX 57 60 75 61 48 62 35 63 36 64 41 65 37 66 38 67 40 68 42 69
REMARK SMILES IDX 39 70 61 71 62 72 67 73 63 74 64 75 66 76 68 77 65 78 49 79
REMARK SMILES IDX 50 80 55 81 51 82 52 83 54 84 56 85 53 86
REMARK H PARENT 19 6 3 11 5 14 11 24 23 29 73 48 47 59
REMARK Flexibility Score: inf
ROOT
ATOM      1  C   UNL     1       0.809  -3.715   2.925  1.00  0.00     0.042 C 
ENDROOT
BRANCH   1   2
ATOM      2  C   UNL     1      -0.406  -3.784   2.011  1.00  0.00     0.117 C 
BRANCH   2   3
ATOM      3  N   UNL     1      -1.611  -3.154   2.506  1.00  0.00    -0.354 N 
ATOM      4  C   UNL     1      -2.102  -1.903   2.285  1.00  0.00     0.245 C 
ATOM      5  O   UNL     1      -3.261  -1.680   2.654  1.00  0.00    -0.273 OA
ATOM      6  H   UNL     1      -2.163  -3.718   3.094  1.00  0.00     0.163 HD
BRANCH   4   7
ATOM      7  C   UNL     1      -1.312  -0.820   1.532  1.00  0.00     0.201 C 
BRANCH   7   8
ATOM      8  C   UNL     1      -1.421  -1.076  -0.013  1.00  0.00     0.143 C 
ATOM      9  C   UNL     1      -2.463  -2.106  -0.466  1.00  0.00     0.041 C 
BRANCH   8  10
ATOM     10  O   UNL     1      -0.128  -1.448  -0.533  1.00  0.00    -0.391 OA
ATOM     11  H   UNL     1       0.145  -2.295  -0.145  1.00  0.00     0.211 HD
ENDBRANCH   8  10
ENDBRANCH   7   8
BRANCH   7  12
ATOM     12  N   UNL     1       0.101  -0.605   1.924  1.00  0.00    -0.324 N 
ATOM     13  C   UNL     1       0.760  -0.054   2.972  1.00  0.00     0.318 C 
ATOM     14  H   UNL     1       0.723  -0.955   1.247  1.00  0.00     0.166 HD
ATOM     15  O   UNL     1       1.911   0.329   2.742  1.00  0.00    -0.249 OA
BRANCH  13  16
ATOM     16  N   UNL     1       0.221   0.014   4.229  1.00  0.00    -0.313 N 
ATOM     17  C   UNL     1      -1.037  -0.584   4.633  1.00  0.00     0.183 C 
ATOM     18  C   UNL     1       1.017   0.548   5.348  1.00  0.00     0.186 C 
ATOM     19  C   UNL     1      -1.250  -0.768   6.138  1.00  0.00     0.284 C 
ATOM     20  C   UNL     1       1.126  -0.462   6.530  1.00  0.00     0.204 C 
ATOM     21  N   UNL     1      -0.046  -1.354   6.742  1.00  0.00    -0.330 N 
ATOM     22  C   UNL     1       1.314   0.214   7.885  1.00  0.00     0.073 C 
ATOM     23  C   UNL     1      -0.218  -1.589   8.179  1.00  0.00     0.262 C 
ATOM     24  H   UNL     1       0.114  -2.252   6.285  1.00  0.00     0.348 HD
ATOM     25  C   UNL     1       0.935  -0.880   8.865  1.00  0.00     0.068 C 
ENDBRANCH  13  16
ENDBRANCH   7  12
ENDBRANCH   4   7
ENDBRANCH   2   3
ENDBRANCH   1   2
BRANCH   1  26
ATOM     26  C   UNL     1       0.595  -4.140   4.369  1.00  0.00     0.118 C 
BRANCH  26  27
ATOM     27  N   UNL     1      -0.063  -5.427   4.512  1.00  0.00    -0.352 N 
ATOM     28  C   UNL     1       0.302  -6.522   5.248  1.00  0.00     0.251 C 
ATOM     29  H   UNL     1      -0.899  -5.527   4.002  1.00  0.00     0.163 HD
ATOM     30  O   UNL     1      -0.372  -7.548   5.191  1.00  0.00    -0.269 OA
BRANCH  28  31
ATOM     31  C   UNL     1       1.526  -6.492   6.074  1.00  0.00     0.039 A 
ATOM     32  C   UNL     1       2.412  -7.567   5.971  1.00  0.00     0.014 A 
ATOM     33  C   UNL     1       1.805  -5.429   6.938  1.00  0.00     0.014 A 
ATOM     34  C   UNL     1       3.606  -7.551   6.692  1.00  0.00     0.010 A 
ATOM     35  C   UNL     1       3.028  -5.382   7.604  1.00  0.00     0.010 A 
ATOM     36  C   UNL     1       3.939  -6.444   7.490  1.00  0.00    -0.014 A 
BRANCH  36  37
ATOM     37  C   UNL     1       5.239  -6.395   8.204  1.00  0.00     0.031 A 
ATOM     38  C   UNL     1       5.283  -6.422   9.705  1.00  0.00     0.074 A 
ATOM     39  C   UNL     1       6.382  -6.298   7.497  1.00  0.00     0.049 A 
ATOM     40  N   UNL     1       6.320  -6.377  10.503  1.00  0.00    -0.248 NA
ATOM     41  C   UNL     1       3.990  -6.492  10.404  1.00  0.00     0.031 C 
ATOM     42  C   UNL     1       6.470  -6.225   6.038  1.00  0.00     0.029 A 
ATOM     43  N   UNL     1       7.689  -6.242   7.912  1.00  0.00    -0.354 N 
ATOM     44  C   UNL     1       5.806  -6.406  11.793  1.00  0.00     0.074 A 
ATOM     45  C   UNL     1       4.364  -6.419  11.673  1.00  0.00     0.031 C 
ATOM     46  C   UNL     1       7.761  -6.158   5.678  1.00  0.00     0.029 A 
ATOM     47  C   UNL     1       8.591  -6.146   6.880  1.00  0.00     0.049 A 
ATOM     48  H   UNL     1       7.956  -6.269   8.859  1.00  0.00     0.167 HD
ATOM     49  C   UNL     1       6.476  -6.442  12.970  1.00  0.00     0.037 A 
ATOM     50  C   UNL     1       9.934  -6.051   6.899  1.00  0.00     0.037 A 
ATOM     51  C   UNL     1       7.912  -6.439  13.085  1.00  0.00     0.049 A 
ATOM     52  C   UNL     1      10.652  -6.066   8.220  1.00  0.00     0.074 A 
ATOM     53  C   UNL     1       8.684  -6.524  14.230  1.00  0.00     0.029 A 
ATOM     54  N   UNL     1       8.791  -6.338  12.017  1.00  0.00    -0.354 N 
ATOM     55  N   UNL     1      10.157  -6.167   9.430  1.00  0.00    -0.248 NA
ATOM     56  C   UNL     1      12.117  -5.961   8.179  1.00  0.00     0.031 C 
ATOM     57  C   UNL     1      10.029  -6.421  13.860  1.00  0.00     0.029 A 
ATOM     58  C   UNL     1      10.097  -6.331  12.479  1.00  0.00     0.049 A 
ATOM     59  H   UNL     1       8.526  -6.281  11.070  1.00  0.00     0.167 HD
ATOM     60  C   UNL     1      11.249  -6.168  10.290  1.00  0.00     0.074 A 
ATOM     61  C   UNL     1      12.432  -6.073   9.461  1.00  0.00     0.031 C 
ATOM     62  C   UNL     1      11.268  -6.242  11.643  1.00  0.00     0.037 A 
BRANCH  49  63
ATOM     63  C   UNL     1       5.660  -6.484  14.230  1.00  0.00     0.057 A 
ATOM     64  C   UNL     1       4.913  -7.614  14.591  1.00  0.00     0.134 A 
ATOM     65  C   UNL     1       5.649  -5.395  15.111  1.00  0.00     0.134 A 
ATOM     66  F   UNL     1       4.872  -8.687  13.787  1.00  0.00    -0.206 F 
ATOM     67  C   UNL     1       4.163  -7.648  15.768  1.00  0.00     0.040 A 
ATOM     68  C   UNL     1       4.926  -5.429  16.305  1.00  0.00     0.040 A 
ATOM     69  F   UNL     1       6.347  -4.284  14.832  1.00  0.00    -0.206 F 
ATOM     70  C   UNL     1       4.175  -6.556  16.633  1.00  0.00     0.006 A 
ENDBRANCH  49  63
BRANCH  50  71
ATOM     71  C   UNL     1      10.691  -5.948   5.626  1.00  0.00     0.057 A 
ATOM     72  C   UNL     1      11.514  -6.992   5.187  1.00  0.00     0.134 A 
ATOM     73  C   UNL     1      10.623  -4.802   4.825  1.00  0.00     0.134 A 
ATOM     74  F   UNL     1      11.637  -8.109   5.919  1.00  0.00    -0.206 F 
ATOM     75  C   UNL     1      12.258  -6.892   4.010  1.00  0.00     0.040 A 
ATOM     76  C   UNL     1      11.340  -4.699   3.632  1.00  0.00     0.040 A 
ATOM     77  F   UNL     1       9.849  -3.768   5.187  1.00  0.00    -0.206 F 
ATOM     78  C   UNL     1      12.168  -5.744   3.226  1.00  0.00     0.006 A 
ENDBRANCH  50  71
BRANCH  62  79
ATOM     79  C   UNL     1      12.612  -6.261  12.313  1.00  0.00     0.057 A 
ATOM     80  C   UNL     1      13.431  -5.127  12.368  1.00  0.00     0.134 A 
ATOM     81  C   UNL     1      13.075  -7.424  12.944  1.00  0.00     0.134 A 
ATOM     82  F   UNL     1      13.053  -3.985  11.773  1.00  0.00    -0.206 F 
ATOM     83  C   UNL     1      14.673  -5.154  13.005  1.00  0.00     0.040 A 
ATOM     84  C   UNL     1      14.301  -7.455  13.610  1.00  0.00     0.040 A 
ATOM     85  F   UNL     1      12.337  -8.544  12.937  1.00  0.00    -0.206 F 
ATOM     86  C   UNL     1      15.108  -6.319  13.635  1.00  0.00     0.006 A 
ENDBRANCH  62  79
ENDBRANCH  36  37
ENDBRANCH  28  31
ENDBRANCH  26  27
ENDBRANCH   1  26
TORSDOF 14
