REMARK SMILES CCn1ncc(-c2cc(C(F)(F)F)nc(-n3ccc(C(=O)NCCCNC(=O)c4ccc(-c5c6nc(c(-c7c(F)cccc7F)c7ccc([nH]7)c(-c7c(F)cccc7F)c7nc(c(-c8c(F)cccc8F)c8ccc5[nH]8)C=C7)C=C6)cc4)n3)n2)c1C
REMARK SMILES IDX 23 1 22 2 20 3 21 4 19 6 16 7 17 8 83 9 18 10 15 11 7 12
REMARK SMILES IDX 8 13 84 14 9 15 14 16 6 17 3 18 4 19 85 20 5 21 86 22 2 23
REMARK SMILES IDX 1 24 10 25 11 26 12 27 13 28 24 29 25 30 26 31 27 32 28 34
REMARK SMILES IDX 29 35 30 36 82 37 31 38 81 39 32 40 33 41 34 42 75 43 35 44
REMARK SMILES IDX 80 45 74 46 76 47 36 48 79 49 73 50 72 51 37 53 63 54 46 55
REMARK SMILES IDX 62 56 47 57 50 58 61 59 77 60 48 61 49 62 60 64 78 65 51 66
REMARK SMILES IDX 38 67 39 68 44 69 40 70 41 71 43 72 45 73 42 74 64 75 65 76
REMARK SMILES IDX 70 77 66 78 67 79 69 80 71 81 68 82 52 83 53 84 58 85 54 86
REMARK SMILES IDX 55 87 57 88 59 89 56 90
REMARK H PARENT 22 5 26 33 76 52 50 63
REMARK Flexibility Score: inf
ROOT
ATOM      1  C   UNL     1      -2.693  -0.290  -8.338  1.00  0.00     0.118 C 
ENDROOT
BRANCH   1   2
ATOM      2  N   UNL     1      -2.895  -1.588  -8.973  1.00  0.00    -0.351 N 
ATOM      3  C   UNL     1      -2.087  -2.704  -9.047  1.00  0.00     0.271 C 
ATOM      4  O   UNL     1      -2.521  -3.673  -9.675  1.00  0.00    -0.267 OA
ATOM      5  H   UNL     1      -3.762  -1.685  -9.429  1.00  0.00     0.163 HD
BRANCH   3   6
ATOM      6  C   UNL     1      -0.734  -2.722  -8.462  1.00  0.00     0.150 A 
ATOM      7  N   UNL     1       1.048  -2.059  -7.469  1.00  0.00    -0.205 N 
ATOM      8  C   UNL     1       1.416  -3.201  -8.141  1.00  0.00     0.119 A 
ATOM      9  N   UNL     1      -0.285  -1.832  -7.564  1.00  0.00    -0.160 NA
ATOM     10  C   UNL     1       0.280  -3.678  -8.749  1.00  0.00     0.056 A 
BRANCH   7  11
ATOM     11  C   UNL     1       1.915  -1.121  -6.823  1.00  0.00     0.251 A 
ATOM     12  C   UNL     1       2.226   0.540  -5.277  1.00  0.00     0.080 A 
ATOM     13  C   UNL     1       3.489   0.807  -5.755  1.00  0.00     0.062 A 
ATOM     14  N   UNL     1       1.407  -0.367  -5.832  1.00  0.00    -0.211 NA
ATOM     15  C   UNL     1       3.933   0.009  -6.795  1.00  0.00     0.150 A 
ATOM     16  N   UNL     1       3.173  -1.002  -7.297  1.00  0.00    -0.207 NA
BRANCH  12  17
ATOM     17  C   UNL     1       1.748   1.163  -4.062  1.00  0.00     0.041 A 
ATOM     18  N   UNL     1       1.057   1.421  -1.984  1.00  0.00    -0.269 N 
ATOM     19  N   UNL     1       1.168   2.680  -2.479  1.00  0.00    -0.181 NA
ATOM     20  C   UNL     1       1.412   0.462  -2.908  1.00  0.00     0.045 A 
ATOM     21  C   UNL     1       1.573   2.515  -3.736  1.00  0.00     0.145 A 
ATOM     22  C   UNL     1       1.436  -1.012  -2.708  1.00  0.00     0.067 C 
BRANCH  18  23
ATOM     23  C   UNL     1       0.524   1.324  -0.634  1.00  0.00     0.141 C 
ATOM     24  C   UNL     1       0.985   0.186   0.260  1.00  0.00     0.029 C 
ENDBRANCH  18  23
ENDBRANCH  12  17
BRANCH  15  25
ATOM     25  C   UNL     1       5.280   0.297  -7.439  1.00  0.00     0.433 C 
ATOM     26  F   UNL     1       6.033  -0.820  -7.636  1.00  0.00    -0.165 F 
ATOM     27  F   UNL     1       5.152   0.889  -8.661  1.00  0.00    -0.165 F 
ATOM     28  F   UNL     1       6.057   1.143  -6.703  1.00  0.00    -0.165 F 
ENDBRANCH  15  25
ENDBRANCH   7  11
ENDBRANCH   3   6
ENDBRANCH   1   2
BRANCH   1  29
ATOM     29  C   UNL     1      -2.276   0.807  -9.324  1.00  0.00     0.042 C 
BRANCH  29  30
ATOM     30  C   UNL     1      -3.452   1.334 -10.136  1.00  0.00     0.118 C 
BRANCH  30  31
ATOM     31  N   UNL     1      -4.435   2.054  -9.318  1.00  0.00    -0.352 N 
ATOM     32  C   UNL     1      -5.649   2.599  -9.704  1.00  0.00     0.251 C 
ATOM     33  H   UNL     1      -4.200   2.164  -8.368  1.00  0.00     0.163 HD
ATOM     34  O   UNL     1      -6.224   3.419  -9.015  1.00  0.00    -0.269 OA
BRANCH  32  35
ATOM     35  C   UNL     1      -6.225   2.164 -10.988  1.00  0.00     0.039 A 
ATOM     36  C   UNL     1      -6.742   3.088 -11.898  1.00  0.00     0.014 A 
ATOM     37  C   UNL     1      -6.167   0.810 -11.298  1.00  0.00     0.014 A 
ATOM     38  C   UNL     1      -7.100   2.646 -13.169  1.00  0.00     0.010 A 
ATOM     39  C   UNL     1      -6.360   0.408 -12.594  1.00  0.00     0.010 A 
ATOM     40  C   UNL     1      -6.873   1.306 -13.525  1.00  0.00    -0.014 A 
BRANCH  40  41
ATOM     41  C   UNL     1      -7.075   0.856 -14.899  1.00  0.00     0.031 A 
ATOM     42  C   UNL     1      -6.393   1.668 -15.947  1.00  0.00     0.074 A 
ATOM     43  C   UNL     1      -7.651  -0.325 -15.213  1.00  0.00     0.049 A 
ATOM     44  N   UNL     1      -6.940   2.387 -16.871  1.00  0.00    -0.248 NA
ATOM     45  C   UNL     1      -4.926   1.777 -15.903  1.00  0.00     0.031 C 
ATOM     46  C   UNL     1      -8.091  -1.403 -14.318  1.00  0.00     0.029 A 
ATOM     47  N   UNL     1      -7.873  -0.856 -16.445  1.00  0.00    -0.354 N 
ATOM     48  C   UNL     1      -5.896   2.891 -17.645  1.00  0.00     0.074 A 
ATOM     49  C   UNL     1      -4.686   2.612 -16.916  1.00  0.00     0.031 C 
ATOM     50  C   UNL     1      -8.294  -2.531 -15.032  1.00  0.00     0.029 A 
ATOM     51  C   UNL     1      -8.191  -2.207 -16.441  1.00  0.00     0.049 A 
ATOM     52  H   UNL     1      -7.814  -0.326 -17.272  1.00  0.00     0.167 HD
ATOM     53  C   UNL     1      -6.101   3.304 -18.928  1.00  0.00     0.037 A 
ATOM     54  C   UNL     1      -8.347  -3.008 -17.521  1.00  0.00     0.037 A 
ATOM     55  C   UNL     1      -7.503   3.503 -19.194  1.00  0.00     0.049 A 
ATOM     56  C   UNL     1      -8.603  -2.129 -18.687  1.00  0.00     0.074 A 
ATOM     57  C   UNL     1      -8.492   4.306 -18.659  1.00  0.00     0.029 A 
ATOM     58  N   UNL     1      -8.165   2.530 -19.902  1.00  0.00    -0.354 N 
ATOM     59  N   UNL     1      -9.686  -1.420 -18.838  1.00  0.00    -0.248 NA
ATOM     60  C   UNL     1      -7.456  -1.692 -19.467  1.00  0.00     0.031 C 
ATOM     61  C   UNL     1      -9.659   3.486 -18.642  1.00  0.00     0.029 A 
ATOM     62  C   UNL     1      -9.329   2.264 -19.228  1.00  0.00     0.049 A 
ATOM     63  H   UNL     1      -7.861   2.104 -20.736  1.00  0.00     0.167 HD
ATOM     64  C   UNL     1      -9.247  -0.216 -19.369  1.00  0.00     0.074 A 
ATOM     65  C   UNL     1      -7.883  -0.478 -19.825  1.00  0.00     0.031 C 
ATOM     66  C   UNL     1      -9.920   0.949 -19.133  1.00  0.00     0.037 A 
BRANCH  53  67
ATOM     67  C   UNL     1      -5.092   3.182 -20.045  1.00  0.00     0.057 A 
ATOM     68  C   UNL     1      -5.373   3.769 -21.294  1.00  0.00     0.134 A 
ATOM     69  C   UNL     1      -4.017   2.271 -20.044  1.00  0.00     0.134 A 
ATOM     70  F   UNL     1      -6.379   4.647 -21.433  1.00  0.00    -0.206 F 
ATOM     71  C   UNL     1      -4.691   3.413 -22.465  1.00  0.00     0.040 A 
ATOM     72  C   UNL     1      -3.296   1.947 -21.197  1.00  0.00     0.040 A 
ATOM     73  F   UNL     1      -3.672   1.571 -18.957  1.00  0.00    -0.206 F 
ATOM     74  C   UNL     1      -3.655   2.490 -22.420  1.00  0.00     0.006 A 
ENDBRANCH  53  67
BRANCH  54  75
ATOM     75  C   UNL     1      -8.012  -4.440 -17.662  1.00  0.00     0.057 A 
ATOM     76  C   UNL     1      -8.526  -5.204 -18.718  1.00  0.00     0.134 A 
ATOM     77  C   UNL     1      -6.960  -5.021 -16.932  1.00  0.00     0.134 A 
ATOM     78  F   UNL     1      -9.506  -4.719 -19.493  1.00  0.00    -0.206 F 
ATOM     79  C   UNL     1      -8.002  -6.459 -19.052  1.00  0.00     0.040 A 
ATOM     80  C   UNL     1      -6.431  -6.276 -17.251  1.00  0.00     0.040 A 
ATOM     81  F   UNL     1      -6.350  -4.350 -15.944  1.00  0.00    -0.206 F 
ATOM     82  C   UNL     1      -6.941  -6.993 -18.326  1.00  0.00     0.006 A 
ENDBRANCH  54  75
BRANCH  66  83
ATOM     83  C   UNL     1     -11.282   0.864 -18.497  1.00  0.00     0.057 A 
ATOM     84  C   UNL     1     -11.524   0.361 -17.210  1.00  0.00     0.134 A 
ATOM     85  C   UNL     1     -12.366   1.457 -19.154  1.00  0.00     0.134 A 
ATOM     86  F   UNL     1     -10.534  -0.136 -16.460  1.00  0.00    -0.206 F 
ATOM     87  C   UNL     1     -12.793   0.408 -16.623  1.00  0.00     0.040 A 
ATOM     88  C   UNL     1     -13.631   1.541 -18.565  1.00  0.00     0.040 A 
ATOM     89  F   UNL     1     -12.201   2.012 -20.365  1.00  0.00    -0.206 F 
ATOM     90  C   UNL     1     -13.850   1.006 -17.299  1.00  0.00     0.006 A 
ENDBRANCH  66  83
ENDBRANCH  40  41
ENDBRANCH  32  35
ENDBRANCH  30  31
ENDBRANCH  29  30
ENDBRANCH   1  29
TORSDOF 14
