REMARK SMILES O=C(NCCCNC(=O)c1ccc2nc(-c3c[nH]nc3-c3ccc(F)cc3F)[nH]c2c1)c1ccc(-c2c3nc(c(-c4c(F)cccc4F)c4ccc([nH]4)c(-c4c(F)cccc4F)c4nc(c(-c5c(F)cccc5F)c5ccc2[nH]5)C=C4)C=C3)cc1
REMARK SMILES IDX 5 1 4 2 3 3 1 4 2 5 32 7 33 8 85 9 34 10 84 11 35 12 36 13
REMARK SMILES IDX 37 14 78 15 38 16 83 17 77 18 79 19 39 20 82 21 76 22 75 23
REMARK SMILES IDX 40 25 66 26 49 27 65 28 50 29 53 30 64 31 80 32 51 33 52 34
REMARK SMILES IDX 63 36 81 37 54 38 41 39 42 40 47 41 43 42 44 43 46 44 48 45
REMARK SMILES IDX 45 46 67 47 68 48 73 49 69 50 70 51 72 52 74 53 71 54 55 55
REMARK SMILES IDX 56 56 61 57 57 58 58 59 60 60 62 61 59 62 6 63 7 64 8 65
REMARK SMILES IDX 9 67 10 68 11 69 31 70 12 71 30 72 13 73 29 74 14 75 15 76
REMARK SMILES IDX 16 78 17 79 20 80 18 81 19 82 21 84 22 85 27 86 23 87 26 88
REMARK SMILES IDX 28 89 24 90 25 91
REMARK H PARENT 3 6 79 24 53 35 7 66 29 77 18 83
REMARK Flexibility Score: inf
ROOT
ATOM      1  C   UNL     1       4.842   2.573  -0.115  1.00  0.00     0.042 C 
ENDROOT
BRANCH   1   2
ATOM      2  C   UNL     1       4.453   1.290   0.602  1.00  0.00     0.118 C 
BRANCH   2   3
ATOM      3  N   UNL     1       3.019   1.036   0.564  1.00  0.00    -0.352 N 
ATOM      4  O   UNL     1       1.097   0.082  -0.129  1.00  0.00    -0.269 OA
ATOM      5  C   UNL     1       2.323   0.028  -0.055  1.00  0.00     0.251 C 
ATOM      6  H   UNL     1       2.466   1.684   1.057  1.00  0.00     0.163 HD
BRANCH   5   7
ATOM      7  C   UNL     1       3.048  -1.116  -0.644  1.00  0.00     0.039 A 
ATOM      8  C   UNL     1       4.116  -1.702   0.038  1.00  0.00     0.014 A 
ATOM      9  C   UNL     1       2.639  -1.629  -1.879  1.00  0.00     0.014 A 
ATOM     10  C   UNL     1       4.868  -2.692  -0.576  1.00  0.00     0.010 A 
ATOM     11  C   UNL     1       3.329  -2.704  -2.446  1.00  0.00     0.010 A 
ATOM     12  C   UNL     1       4.458  -3.234  -1.804  1.00  0.00    -0.014 A 
BRANCH  12  13
ATOM     13  C   UNL     1       5.152  -4.441  -2.316  1.00  0.00     0.031 A 
ATOM     14  C   UNL     1       5.915  -4.424  -3.607  1.00  0.00     0.074 A 
ATOM     15  C   UNL     1       5.096  -5.561  -1.567  1.00  0.00     0.049 A 
ATOM     16  N   UNL     1       6.573  -5.401  -4.179  1.00  0.00    -0.248 NA
ATOM     17  C   UNL     1       5.948  -3.159  -4.358  1.00  0.00     0.031 C 
ATOM     18  C   UNL     1       4.369  -5.688  -0.299  1.00  0.00     0.029 A 
ATOM     19  N   UNL     1       5.665  -6.795  -1.743  1.00  0.00    -0.354 N 
ATOM     20  C   UNL     1       7.085  -4.878  -5.359  1.00  0.00     0.074 A 
ATOM     21  C   UNL     1       6.648  -3.500  -5.434  1.00  0.00     0.031 C 
ATOM     22  C   UNL     1       4.575  -6.910   0.209  1.00  0.00     0.029 A 
ATOM     23  C   UNL     1       5.378  -7.680  -0.731  1.00  0.00     0.049 A 
ATOM     24  H   UNL     1       6.226  -7.025  -2.519  1.00  0.00     0.167 HD
ATOM     25  C   UNL     1       7.853  -5.498  -6.285  1.00  0.00     0.037 A 
ATOM     26  C   UNL     1       5.696  -8.979  -0.587  1.00  0.00     0.037 A 
ATOM     27  C   UNL     1       8.296  -6.866  -6.185  1.00  0.00     0.049 A 
ATOM     28  C   UNL     1       6.514  -9.643  -1.653  1.00  0.00     0.074 A 
ATOM     29  C   UNL     1       9.120  -7.565  -7.051  1.00  0.00     0.029 A 
ATOM     30  N   UNL     1       7.951  -7.741  -5.166  1.00  0.00    -0.354 N 
ATOM     31  N   UNL     1       7.029  -9.121  -2.740  1.00  0.00    -0.248 NA
ATOM     32  C   UNL     1       6.786 -11.076  -1.484  1.00  0.00     0.031 C 
ATOM     33  C   UNL     1       9.227  -8.878  -6.587  1.00  0.00     0.029 A 
ATOM     34  C   UNL     1       8.515  -8.984  -5.403  1.00  0.00     0.049 A 
ATOM     35  H   UNL     1       7.389  -7.513  -4.391  1.00  0.00     0.167 HD
ATOM     36  C   UNL     1       7.690 -10.158  -3.381  1.00  0.00     0.074 A 
ATOM     37  C   UNL     1       7.539 -11.332  -2.545  1.00  0.00     0.031 C 
ATOM     38  C   UNL     1       8.354 -10.141  -4.561  1.00  0.00     0.037 A 
BRANCH  25  39
ATOM     39  C   UNL     1       8.279  -4.726  -7.499  1.00  0.00     0.057 A 
ATOM     40  C   UNL     1       7.765  -5.050  -8.762  1.00  0.00     0.134 A 
ATOM     41  C   UNL     1       9.293  -3.763  -7.441  1.00  0.00     0.134 A 
ATOM     42  F   UNL     1       6.798  -5.971  -8.888  1.00  0.00    -0.206 F 
ATOM     43  C   UNL     1       8.265  -4.465  -9.926  1.00  0.00     0.040 A 
ATOM     44  C   UNL     1       9.788  -3.156  -8.597  1.00  0.00     0.040 A 
ATOM     45  F   UNL     1       9.823  -3.404  -6.262  1.00  0.00    -0.206 F 
ATOM     46  C   UNL     1       9.284  -3.518  -9.846  1.00  0.00     0.006 A 
ENDBRANCH  25  39
BRANCH  26  47
ATOM     47  C   UNL     1       5.207  -9.733   0.595  1.00  0.00     0.057 A 
ATOM     48  C   UNL     1       3.840  -9.977   0.788  1.00  0.00     0.134 A 
ATOM     49  C   UNL     1       6.090 -10.220   1.564  1.00  0.00     0.134 A 
ATOM     50  F   UNL     1       2.940  -9.530  -0.100  1.00  0.00    -0.206 F 
ATOM     51  C   UNL     1       3.369 -10.660   1.909  1.00  0.00     0.040 A 
ATOM     52  C   UNL     1       5.635 -10.934   2.674  1.00  0.00     0.040 A 
ATOM     53  F   UNL     1       7.411 -10.032   1.429  1.00  0.00    -0.206 F 
ATOM     54  C   UNL     1       4.269 -11.149   2.852  1.00  0.00     0.006 A 
ENDBRANCH  26  47
BRANCH  38  55
ATOM     55  C   UNL     1       8.969 -11.428  -5.021  1.00  0.00     0.057 A 
ATOM     56  C   UNL     1      10.360 -11.592  -5.039  1.00  0.00     0.134 A 
ATOM     57  C   UNL     1       8.184 -12.482  -5.506  1.00  0.00     0.134 A 
ATOM     58  F   UNL     1      11.167 -10.616  -4.596  1.00  0.00    -0.206 F 
ATOM     59  C   UNL     1      10.949 -12.753  -5.540  1.00  0.00     0.040 A 
ATOM     60  C   UNL     1       8.761 -13.658  -5.984  1.00  0.00     0.040 A 
ATOM     61  F   UNL     1       6.846 -12.391  -5.501  1.00  0.00    -0.206 F 
ATOM     62  C   UNL     1      10.149 -13.791  -6.012  1.00  0.00     0.006 A 
ENDBRANCH  38  55
ENDBRANCH  12  13
ENDBRANCH   5   7
ENDBRANCH   2   3
ENDBRANCH   1   2
BRANCH   1  63
ATOM     63  C   UNL     1       4.282   3.828   0.537  1.00  0.00     0.118 C 
BRANCH  63  64
ATOM     64  N   UNL     1       4.762   3.985   1.901  1.00  0.00    -0.352 N 
ATOM     65  C   UNL     1       5.660   4.886   2.407  1.00  0.00     0.251 C 
ATOM     66  H   UNL     1       4.387   3.352   2.555  1.00  0.00     0.163 HD
ATOM     67  O   UNL     1       6.147   4.712   3.520  1.00  0.00    -0.269 OA
BRANCH  65  68
ATOM     68  C   UNL     1       6.044   6.073   1.617  1.00  0.00     0.042 A 
ATOM     69  C   UNL     1       5.055   6.877   1.032  1.00  0.00     0.016 A 
ATOM     70  C   UNL     1       7.407   6.402   1.539  1.00  0.00     0.042 A 
ATOM     71  C   UNL     1       5.402   8.033   0.328  1.00  0.00     0.031 A 
ATOM     72  C   UNL     1       7.719   7.561   0.828  1.00  0.00     0.067 A 
ATOM     73  C   UNL     1       6.754   8.388   0.262  1.00  0.00     0.089 A 
ATOM     74  N   UNL     1       8.908   8.176   0.523  1.00  0.00    -0.338 N 
ATOM     75  N   UNL     1       7.324   9.511  -0.262  1.00  0.00    -0.228 NA
ATOM     76  C   UNL     1       8.618   9.373  -0.079  1.00  0.00     0.142 A 
ATOM     77  H   UNL     1       9.808   7.821   0.705  1.00  0.00     0.168 HD
BRANCH  76  78
ATOM     78  C   UNL     1       9.602  10.421  -0.420  1.00  0.00     0.063 A 
ATOM     79  C   UNL     1      10.895  10.234  -0.842  1.00  0.00     0.117 A 
ATOM     80  C   UNL     1       9.410  11.829  -0.355  1.00  0.00     0.106 A 
ATOM     81  N   UNL     1      11.368  11.488  -1.099  1.00  0.00    -0.284 N 
ATOM     82  N   UNL     1      10.518  12.470  -0.762  1.00  0.00    -0.175 NA
ATOM     83  H   UNL     1      12.254  11.656  -1.496  1.00  0.00     0.189 HD
BRANCH  80  84
ATOM     84  C   UNL     1       8.281  12.541   0.231  1.00  0.00     0.039 A 
ATOM     85  C   UNL     1       7.917  12.276   1.564  1.00  0.00     0.016 A 
ATOM     86  C   UNL     1       7.544  13.478  -0.497  1.00  0.00     0.135 A 
ATOM     87  C   UNL     1       6.830  12.931   2.145  1.00  0.00     0.040 A 
ATOM     88  C   UNL     1       6.461  14.139   0.081  1.00  0.00     0.079 A 
ATOM     89  F   UNL     1       7.845  13.750  -1.775  1.00  0.00    -0.206 F 
ATOM     90  C   UNL     1       6.114  13.857   1.396  1.00  0.00     0.126 A 
ATOM     91  F   UNL     1       5.071  14.485   1.954  1.00  0.00    -0.207 F 
ENDBRANCH  80  84
ENDBRANCH  76  78
ENDBRANCH  65  68
ENDBRANCH  63  64
ENDBRANCH   1  63
TORSDOF 12
