REMARK SMILES C[NH2+][C@@]1(C(=O)NCCCNC(=O)c2ccc(-c3c4nc(c(-c5c(F)cccc5F)c5ccc([nH]5)c(-c5c(F)cccc5F)c5nc(c(-c6c(F)cccc6F)c6ccc3[nH]6)C=C5)C=C4)cc2)CC[C@@H]([N@@H+](C)C2CCCCCC2)C1
REMARK SMILES IDX 4 1 5 2 6 3 3 5 67 6 79 7 68 8 69 9 2 10 1 11 70 14 71 15
REMARK SMILES IDX 72 17 73 18 74 19 75 20 76 21 78 23 77 24 7 26 8 27 9 28
REMARK SMILES IDX 10 29 11 30 12 32 13 33 14 34 66 35 15 36 65 37 16 38 17 39
REMARK SMILES IDX 18 40 59 41 19 42 64 43 58 44 60 45 20 46 63 47 57 48 56 49
REMARK SMILES IDX 21 51 47 52 30 53 46 54 31 55 34 56 45 57 61 58 32 59 33 60
REMARK SMILES IDX 44 62 62 63 35 64 22 65 23 66 28 67 24 68 25 69 27 70 29 71
REMARK SMILES IDX 26 72 48 73 49 74 54 75 50 76 51 77 53 78 55 79 52 80 36 81
REMARK SMILES IDX 37 82 42 83 38 84 39 85 41 86 43 87 40 88
REMARK H PARENT 6 4 2 12 2 13 70 16 10 31 60 50 34 61
REMARK Flexibility Score: 80.00
ROOT
ATOM      1  C   UNL     1      -1.297   0.861   2.342  1.00  0.00     0.281 C 
ATOM      2  O   UNL     1      -0.299   0.662   3.049  1.00  0.00    -0.268 OA
ATOM      3  N   UNL     1      -2.482   0.854   3.006  1.00  0.00    -0.351 N 
ATOM      4  H   UNL     1      -2.434   0.526   3.933  1.00  0.00     0.163 HD
ENDROOT
BRANCH   1   5
ATOM      5  C   UNL     1      -1.171   1.125   0.788  1.00  0.00     0.181 C 
ATOM      6  C   UNL     1      -1.765   2.502   0.406  1.00  0.00     0.085 C 
ATOM      7  C   UNL     1      -1.924   0.078  -0.057  1.00  0.00     0.144 C 
ATOM      8  C   UNL     1      -2.942   2.284  -0.552  1.00  0.00     0.072 C 
ATOM      9  C   UNL     1      -2.978   0.801  -0.914  1.00  0.00     0.191 C 
BRANCH   5  10
ATOM     10  N   UNL     1       0.295   1.214   0.483  1.00  0.00    -0.336 N 
ATOM     11  C   UNL     1       0.994  -0.069   0.421  1.00  0.00     0.331 C 
ATOM     12  H   UNL     1       0.402   1.675  -0.421  1.00  0.00     0.346 HD
ATOM     13  H   UNL     1       0.716   1.730   1.255  1.00  0.00     0.346 HD
ENDBRANCH   5  10
BRANCH   9  14
ATOM     14  N   UNL     1      -3.087   0.405  -2.331  1.00  0.00    -0.332 N 
ATOM     15  C   UNL     1      -4.473   0.532  -2.802  1.00  0.00     0.333 C 
ATOM     16  H   UNL     1      -2.772  -0.562  -2.256  1.00  0.00     0.348 HD
BRANCH  14  17
ATOM     17  C   UNL     1      -2.107   0.856  -3.363  1.00  0.00     0.184 C 
BRANCH  17  18
ATOM     18  C   UNL     1      -2.145   2.337  -3.810  1.00  0.00     0.065 C 
BRANCH  18  19
ATOM     19  C   UNL     1      -1.160   3.282  -3.123  1.00  0.00     0.006 C 
BRANCH  19  20
ATOM     20  C   UNL     1       0.217   3.360  -3.759  1.00  0.00     0.000 C 
BRANCH  20  21
ATOM     21  C   UNL     1       1.055   2.105  -3.552  1.00  0.00     0.000 CG0
ATOM     22  G   UNL     1       0.402   0.818  -4.061  1.00  0.00     0.000 G0
ENDBRANCH  20  21
ENDBRANCH  19  20
ENDBRANCH  18  19
ENDBRANCH  17  18
BRANCH  17  23
ATOM     23  C   UNL     1      -0.690   0.311  -3.116  1.00  0.00     0.065 C 
BRANCH  23  24
ATOM     24  C   UNL     1       0.402   0.818  -4.061  1.00  0.00     0.006 CG0
ATOM     25  G   UNL     1       1.055   2.105  -3.552  1.00  0.00     0.000 G0
ENDBRANCH  23  24
ENDBRANCH  17  23
ENDBRANCH  14  17
ENDBRANCH   9  14
ENDBRANCH   1   5
BRANCH   3  26
ATOM     26  C   UNL     1      -3.795   1.247   2.575  1.00  0.00     0.118 C 
BRANCH  26  27
ATOM     27  C   UNL     1      -4.716   0.072   2.328  1.00  0.00     0.042 C 
BRANCH  27  28
ATOM     28  C   UNL     1      -5.629  -0.146   3.511  1.00  0.00     0.118 C 
BRANCH  28  29
ATOM     29  N   UNL     1      -6.556   0.970   3.695  1.00  0.00    -0.352 N 
ATOM     30  C   UNL     1      -7.927   0.967   3.793  1.00  0.00     0.251 C 
ATOM     31  H   UNL     1      -6.135   1.857   3.759  1.00  0.00     0.163 HD
ATOM     32  O   UNL     1      -8.549   2.015   3.757  1.00  0.00    -0.269 OA
BRANCH  30  33
ATOM     33  C   UNL     1      -8.629  -0.325   3.909  1.00  0.00     0.039 A 
ATOM     34  C   UNL     1      -9.819  -0.519   3.207  1.00  0.00     0.014 A 
ATOM     35  C   UNL     1      -8.081  -1.354   4.675  1.00  0.00     0.014 A 
ATOM     36  C   UNL     1     -10.421  -1.775   3.224  1.00  0.00     0.010 A 
ATOM     37  C   UNL     1      -8.597  -2.632   4.570  1.00  0.00     0.010 A 
ATOM     38  C   UNL     1      -9.791  -2.849   3.872  1.00  0.00    -0.014 A 
BRANCH  38  39
ATOM     39  C   UNL     1     -10.379  -4.207   3.886  1.00  0.00     0.031 A 
ATOM     40  C   UNL     1     -10.716  -4.849   5.205  1.00  0.00     0.074 A 
ATOM     41  C   UNL     1     -10.533  -4.881   2.732  1.00  0.00     0.049 A 
ATOM     42  N   UNL     1     -11.144  -6.060   5.450  1.00  0.00    -0.248 NA
ATOM     43  C   UNL     1     -10.495  -4.038   6.416  1.00  0.00     0.031 C 
ATOM     44  C   UNL     1     -10.177  -4.382   1.401  1.00  0.00     0.029 A 
ATOM     45  N   UNL     1     -11.023  -6.138   2.494  1.00  0.00    -0.354 N 
ATOM     46  C   UNL     1     -11.214  -6.159   6.833  1.00  0.00     0.074 A 
ATOM     47  C   UNL     1     -10.711  -4.919   7.378  1.00  0.00     0.031 C 
ATOM     48  C   UNL     1     -10.498  -5.308   0.484  1.00  0.00     0.029 A 
ATOM     49  C   UNL     1     -11.040  -6.479   1.164  1.00  0.00     0.049 A 
ATOM     50  H   UNL     1     -11.334  -6.740   3.209  1.00  0.00     0.167 HD
ATOM     51  C   UNL     1     -11.691  -7.178   7.584  1.00  0.00     0.037 A 
ATOM     52  C   UNL     1     -11.448  -7.614   0.566  1.00  0.00     0.037 A 
ATOM     53  C   UNL     1     -12.232  -8.388   7.029  1.00  0.00     0.049 A 
ATOM     54  C   UNL     1     -11.990  -8.727   1.419  1.00  0.00     0.074 A 
ATOM     55  C   UNL     1     -12.813  -9.455   7.688  1.00  0.00     0.029 A 
ATOM     56  N   UNL     1     -12.262  -8.685   5.674  1.00  0.00    -0.354 N 
ATOM     57  N   UNL     1     -12.124  -8.779   2.723  1.00  0.00    -0.248 NA
ATOM     58  C   UNL     1     -12.445  -9.934   0.718  1.00  0.00     0.031 C 
ATOM     59  C   UNL     1     -13.153 -10.420   6.734  1.00  0.00     0.029 A 
ATOM     60  C   UNL     1     -12.832  -9.930   5.478  1.00  0.00     0.049 A 
ATOM     61  H   UNL     1     -11.928  -8.097   4.958  1.00  0.00     0.167 HD
ATOM     62  C   UNL     1     -12.701 -10.012   2.997  1.00  0.00     0.074 A 
ATOM     63  C   UNL     1     -12.907 -10.667   1.721  1.00  0.00     0.031 C 
ATOM     64  C   UNL     1     -13.031 -10.556   4.195  1.00  0.00     0.037 A 
BRANCH  51  65
ATOM     65  C   UNL     1     -11.655  -7.014   9.076  1.00  0.00     0.057 A 
ATOM     66  C   UNL     1     -12.461  -6.077   9.739  1.00  0.00     0.134 A 
ATOM     67  C   UNL     1     -10.812  -7.808   9.862  1.00  0.00     0.134 A 
ATOM     68  F   UNL     1     -13.279  -5.271   9.045  1.00  0.00    -0.206 F 
ATOM     69  C   UNL     1     -12.403  -5.913  11.124  1.00  0.00     0.040 A 
ATOM     70  C   UNL     1     -10.769  -7.676  11.251  1.00  0.00     0.040 A 
ATOM     71  F   UNL     1     -10.014  -8.726   9.294  1.00  0.00    -0.206 F 
ATOM     72  C   UNL     1     -11.560  -6.719  11.885  1.00  0.00     0.006 A 
ENDBRANCH  51  65
BRANCH  52  73
ATOM     73  C   UNL     1     -11.392  -7.738  -0.912  1.00  0.00     0.057 A 
ATOM     74  C   UNL     1     -12.564  -7.760  -1.677  1.00  0.00     0.134 A 
ATOM     75  C   UNL     1     -10.175  -7.834  -1.596  1.00  0.00     0.134 A 
ATOM     76  F   UNL     1     -13.762  -7.685  -1.079  1.00  0.00    -0.206 F 
ATOM     77  C   UNL     1     -12.530  -7.895  -3.066  1.00  0.00     0.040 A 
ATOM     78  C   UNL     1     -10.124  -7.943  -2.987  1.00  0.00     0.040 A 
ATOM     79  F   UNL     1      -9.015  -7.806  -0.923  1.00  0.00    -0.206 F 
ATOM     80  C   UNL     1     -11.305  -7.982  -3.725  1.00  0.00     0.006 A 
ENDBRANCH  52  73
BRANCH  64  81
ATOM     81  C   UNL     1     -13.678 -11.908   4.176  1.00  0.00     0.057 A 
ATOM     82  C   UNL     1     -12.958 -13.068   3.866  1.00  0.00     0.134 A 
ATOM     83  C   UNL     1     -15.029 -12.055   4.518  1.00  0.00     0.134 A 
ATOM     84  F   UNL     1     -11.664 -12.992   3.518  1.00  0.00    -0.206 F 
ATOM     85  C   UNL     1     -13.564 -14.324   3.873  1.00  0.00     0.040 A 
ATOM     86  C   UNL     1     -15.638 -13.308   4.557  1.00  0.00     0.040 A 
ATOM     87  F   UNL     1     -15.771 -10.983   4.836  1.00  0.00    -0.206 F 
ATOM     88  C   UNL     1     -14.907 -14.447   4.227  1.00  0.00     0.006 A 
ENDBRANCH  64  81
ENDBRANCH  38  39
ENDBRANCH  30  33
ENDBRANCH  28  29
ENDBRANCH  27  28
ENDBRANCH  26  27
ENDBRANCH   3  26
TORSDOF 13
