REMARK SMILES CC(C)C[C@H](CNc1cccc(F)c1C#N)CC(=O)NCCCNC(=O)c1ccc(-c2c3nc(c(-c4c(F)cccc4F)c4ccc([nH]4)c(-c4c(F)cccc4F)c4nc(c(-c5c(F)cccc5F)c5ccc2[nH]5)C=C4)C=C3)cc1
REMARK SMILES IDX 18 1 19 2 20 3 17 5 5 6 4 7 2 8 1 9 3 10 6 11 7 12 8 14 9 15
REMARK SMILES IDX 14 16 10 17 12 18 11 19 13 20 15 21 16 22 21 23 22 24 23 25
REMARK SMILES IDX 24 26 25 27 26 29 27 30 28 31 80 32 29 33 79 34 30 35 31 36
REMARK SMILES IDX 32 37 73 38 33 39 78 40 72 41 74 42 34 43 77 44 71 45 70 46
REMARK SMILES IDX 35 48 61 49 44 50 60 51 45 52 48 53 59 54 75 55 46 56 47 57
REMARK SMILES IDX 58 59 76 60 49 61 36 62 37 63 42 64 38 65 39 66 41 67 43 68
REMARK SMILES IDX 40 69 62 70 63 71 68 72 64 73 65 74 67 75 69 76 66 77 50 78
REMARK SMILES IDX 51 79 56 80 52 81 53 82 55 83 57 84 54 85
REMARK H PARENT 20 4 7 13 24 28 74 47 48 58
REMARK Flexibility Score: inf
ROOT
ATOM      1  C   UNL     1      -3.354   0.037  -0.161  1.00  0.00     0.220 C 
ATOM      2  O   UNL     1      -3.719   0.948   0.582  1.00  0.00    -0.275 OA
ATOM      3  N   UNL     1      -3.404  -1.238   0.315  1.00  0.00    -0.356 N 
ATOM      4  H   UNL     1      -3.807  -1.324   1.209  1.00  0.00     0.163 HD
ENDROOT
BRANCH   1   5
ATOM      5  C   UNL     1      -2.854   0.332  -1.565  1.00  0.00     0.105 C 
BRANCH   5   6
ATOM      6  C   UNL     1      -1.392   0.831  -1.598  1.00  0.00     0.018 C 
BRANCH   6   7
ATOM      7  C   UNL     1      -1.075   1.459  -2.975  1.00  0.00     0.009 C 
BRANCH   7   8
ATOM      8  C   UNL     1      -1.056   3.002  -2.976  1.00  0.00    -0.017 C 
ATOM      9  C   UNL     1      -0.033   3.593  -2.000  1.00  0.00     0.007 C 
ATOM     10  C   UNL     1      -0.736   3.495  -4.390  1.00  0.00     0.007 C 
ENDBRANCH   7   8
ENDBRANCH   6   7
BRANCH   6  11
ATOM     11  C   UNL     1      -0.418  -0.312  -1.278  1.00  0.00     0.117 C 
BRANCH  11  12
ATOM     12  N   UNL     1       0.967   0.140  -1.171  1.00  0.00    -0.384 N 
ATOM     13  H   UNL     1       1.409   0.598  -1.922  1.00  0.00     0.160 HD
BRANCH  12  14
ATOM     14  C   UNL     1       1.647  -0.094   0.027  1.00  0.00     0.055 A 
ATOM     15  C   UNL     1       1.915   1.015   0.847  1.00  0.00     0.027 A 
ATOM     16  C   UNL     1       1.968  -1.376   0.512  1.00  0.00     0.111 A 
ATOM     17  C   UNL     1       2.487   0.862   2.112  1.00  0.00     0.005 A 
ATOM     18  C   UNL     1       2.535  -1.516   1.782  1.00  0.00     0.143 A 
ATOM     19  C   UNL     1       2.795  -0.409   2.583  1.00  0.00     0.041 A 
ATOM     20  F   UNL     1       2.828  -2.734   2.264  1.00  0.00    -0.205 F 
BRANCH  16  21
ATOM     21  C   UNL     1       1.761  -2.561  -0.270  1.00  0.00     0.104 C 
ATOM     22  N   UNL     1       1.570  -3.525  -0.881  1.00  0.00    -0.192 NA
ENDBRANCH  16  21
ENDBRANCH  12  14
ENDBRANCH  11  12
ENDBRANCH   6  11
ENDBRANCH   5   6
ENDBRANCH   1   5
BRANCH   3  23
ATOM     23  C   UNL     1      -2.964  -2.497  -0.273  1.00  0.00     0.117 C 
BRANCH  23  24
ATOM     24  C   UNL     1      -1.755  -3.073   0.461  1.00  0.00     0.042 C 
BRANCH  24  25
ATOM     25  C   UNL     1      -2.062  -3.635   1.837  1.00  0.00     0.118 C 
BRANCH  25  26
ATOM     26  N   UNL     1      -2.495  -5.016   1.769  1.00  0.00    -0.352 N 
ATOM     27  C   UNL     1      -1.801  -6.176   2.013  1.00  0.00     0.251 C 
ATOM     28  H   UNL     1      -3.435  -5.143   1.505  1.00  0.00     0.163 HD
ATOM     29  O   UNL     1      -2.285  -7.242   1.641  1.00  0.00    -0.269 OA
BRANCH  27  30
ATOM     30  C   UNL     1      -0.488  -6.173   2.708  1.00  0.00     0.039 A 
ATOM     31  C   UNL     1       0.459  -7.139   2.347  1.00  0.00     0.014 A 
ATOM     32  C   UNL     1      -0.200  -5.300   3.760  1.00  0.00     0.014 A 
ATOM     33  C   UNL     1       1.688  -7.204   3.012  1.00  0.00     0.010 A 
ATOM     34  C   UNL     1       1.065  -5.295   4.349  1.00  0.00     0.010 A 
ATOM     35  C   UNL     1       2.014  -6.266   4.004  1.00  0.00    -0.014 A 
BRANCH  35  36
ATOM     36  C   UNL     1       3.321  -6.318   4.716  1.00  0.00     0.031 A 
ATOM     37  C   UNL     1       3.369  -6.541   6.206  1.00  0.00     0.074 A 
ATOM     38  C   UNL     1       4.466  -6.129   4.032  1.00  0.00     0.049 A 
ATOM     39  N   UNL     1       4.405  -6.573   7.008  1.00  0.00    -0.248 NA
ATOM     40  C   UNL     1       2.080  -6.725   6.893  1.00  0.00     0.031 C 
ATOM     41  C   UNL     1       4.560  -5.861   2.597  1.00  0.00     0.029 A 
ATOM     42  N   UNL     1       5.772  -6.131   4.456  1.00  0.00    -0.354 N 
ATOM     43  C   UNL     1       3.892  -6.762   8.286  1.00  0.00     0.074 A 
ATOM     44  C   UNL     1       2.452  -6.779   8.163  1.00  0.00     0.031 C 
ATOM     45  C   UNL     1       5.853  -5.758   2.252  1.00  0.00     0.029 A 
ATOM     46  C   UNL     1       6.678  -5.907   3.447  1.00  0.00     0.049 A 
ATOM     47  H   UNL     1       6.035  -6.280   5.393  1.00  0.00     0.167 HD
ATOM     48  C   UNL     1       4.558  -6.933   9.454  1.00  0.00     0.037 A 
ATOM     49  C   UNL     1       8.022  -5.820   3.482  1.00  0.00     0.037 A 
ATOM     50  C   UNL     1       5.993  -6.943   9.572  1.00  0.00     0.049 A 
ATOM     51  C   UNL     1       8.739  -6.000   4.791  1.00  0.00     0.074 A 
ATOM     52  C   UNL     1       6.763  -7.167  10.701  1.00  0.00     0.029 A 
ATOM     53  N   UNL     1       6.875  -6.717   8.525  1.00  0.00    -0.354 N 
ATOM     54  N   UNL     1       8.243  -6.241   5.981  1.00  0.00    -0.248 NA
ATOM     55  C   UNL     1      10.205  -5.901   4.762  1.00  0.00     0.031 C 
ATOM     56  C   UNL     1       8.109  -7.022  10.348  1.00  0.00     0.029 A 
ATOM     57  C   UNL     1       8.180  -6.768   8.988  1.00  0.00     0.049 A 
ATOM     58  H   UNL     1       6.612  -6.547   7.592  1.00  0.00     0.167 HD
ATOM     59  C   UNL     1       9.334  -6.350   6.834  1.00  0.00     0.074 A 
ATOM     60  C   UNL     1      10.519  -6.163   6.023  1.00  0.00     0.031 C 
ATOM     61  C   UNL     1       9.352  -6.584   8.169  1.00  0.00     0.037 A 
BRANCH  48  62
ATOM     62  C   UNL     1       3.739  -7.119  10.700  1.00  0.00     0.057 A 
ATOM     63  C   UNL     1       2.980  -8.276  10.925  1.00  0.00     0.134 A 
ATOM     64  C   UNL     1       3.733  -6.142  11.705  1.00  0.00     0.134 A 
ATOM     65  F   UNL     1       2.933  -9.248  10.001  1.00  0.00    -0.206 F 
ATOM     66  C   UNL     1       2.221  -8.440  12.085  1.00  0.00     0.040 A 
ATOM     67  C   UNL     1       3.003  -6.308  12.883  1.00  0.00     0.040 A 
ATOM     68  F   UNL     1       4.444  -5.013  11.562  1.00  0.00    -0.206 F 
ATOM     69  C   UNL     1       2.237  -7.456  13.072  1.00  0.00     0.006 A 
ENDBRANCH  48  62
BRANCH  49  70
ATOM     70  C   UNL     1       8.780  -5.566   2.230  1.00  0.00     0.057 A 
ATOM     71  C   UNL     1       9.592  -6.556   1.663  1.00  0.00     0.134 A 
ATOM     72  C   UNL     1       8.715  -4.332   1.573  1.00  0.00     0.134 A 
ATOM     73  F   UNL     1       9.713  -7.752   2.256  1.00  0.00    -0.206 F 
ATOM     74  C   UNL     1      10.326  -6.321   0.499  1.00  0.00     0.040 A 
ATOM     75  C   UNL     1       9.421  -4.093   0.393  1.00  0.00     0.040 A 
ATOM     76  F   UNL     1       7.952  -3.343   2.062  1.00  0.00    -0.206 F 
ATOM     77  C   UNL     1      10.236  -5.088  -0.143  1.00  0.00     0.006 A 
ENDBRANCH  49  70
BRANCH  61  78
ATOM     78  C   UNL     1      10.695  -6.686   8.833  1.00  0.00     0.057 A 
ATOM     79  C   UNL     1      11.518  -5.569   9.022  1.00  0.00     0.134 A 
ATOM     80  C   UNL     1      11.154  -7.916   9.324  1.00  0.00     0.134 A 
ATOM     81  F   UNL     1      11.144  -4.364   8.566  1.00  0.00    -0.206 F 
ATOM     82  C   UNL     1      12.759  -5.674   9.653  1.00  0.00     0.040 A 
ATOM     83  C   UNL     1      12.379  -8.029   9.983  1.00  0.00     0.040 A 
ATOM     84  F   UNL     1      10.412  -9.025   9.186  1.00  0.00    -0.206 F 
ATOM     85  C   UNL     1      13.189  -6.906  10.142  1.00  0.00     0.006 A 
ENDBRANCH  61  78
ENDBRANCH  35  36
ENDBRANCH  27  30
ENDBRANCH  25  26
ENDBRANCH  24  25
ENDBRANCH  23  24
ENDBRANCH   3  23
TORSDOF 17
