REMARK SMILES CC(C)n1ncnc1C[C@H](C(=O)NCCCNC(=O)c1ccc(-c2c3nc(c(-c4c(F)cccc4F)c4ccc([nH]4)c(-c4c(F)cccc4F)c4nc(c(-c5c(F)cccc5F)c5ccc2[nH]5)C=C4)C=C3)cc1)c1ccccc1F
REMARK SMILES IDX 14 1 13 2 11 3 12 4 10 6 9 7 8 8 4 9 5 10 6 11 7 12 2 13
REMARK SMILES IDX 1 14 3 15 74 16 75 17 79 18 76 19 78 20 80 21 77 22 15 23
REMARK SMILES IDX 16 24 17 25 18 26 19 28 20 29 21 30 73 31 22 32 72 33 23 34
REMARK SMILES IDX 24 35 25 36 66 37 26 38 71 39 65 40 67 41 27 42 70 43 64 44
REMARK SMILES IDX 63 45 28 47 54 48 37 49 53 50 38 51 41 52 52 53 68 54 39 55
REMARK SMILES IDX 40 56 51 58 69 59 42 60 29 61 30 62 35 63 31 64 32 65 34 66
REMARK SMILES IDX 36 67 33 68 55 69 56 70 61 71 57 72 58 73 60 74 62 75 59 76
REMARK SMILES IDX 43 77 44 78 49 79 45 80 46 81 48 82 50 83 47 84
REMARK H PARENT 13 5 17 27 67 46 41 57
REMARK Flexibility Score: inf
ROOT
ATOM      1  C   UNL     1      -0.888   3.952   2.138  1.00  0.00     0.117 C 
ENDROOT
BRANCH   1   2
ATOM      2  N   UNL     1      -0.918   2.496   2.017  1.00  0.00    -0.355 N 
ATOM      3  C   UNL     1      -1.008   1.773   0.839  1.00  0.00     0.228 C 
ATOM      4  O   UNL     1      -0.733   0.571   0.861  1.00  0.00    -0.274 OA
ATOM      5  H   UNL     1      -0.871   1.979   2.853  1.00  0.00     0.163 HD
BRANCH   3   6
ATOM      6  C   UNL     1      -1.591   2.431  -0.440  1.00  0.00     0.119 C 
BRANCH   6   7
ATOM      7  C   UNL     1      -3.117   2.447  -0.068  1.00  0.00     0.095 C 
BRANCH   7   8
ATOM      8  C   UNL     1      -3.950   3.616  -0.429  1.00  0.00     0.128 A 
ATOM      9  N   UNL     1      -4.815   3.709  -1.494  1.00  0.00    -0.248 N 
ATOM     10  N   UNL     1      -5.440   4.909  -1.486  1.00  0.00    -0.159 NA
ATOM     11  C   UNL     1      -4.905   5.493  -0.416  1.00  0.00     0.246 A 
ATOM     12  N   UNL     1      -4.016   4.731   0.276  1.00  0.00    -0.220 NA
BRANCH   9  13
ATOM     13  C   UNL     1      -5.182   2.748  -2.526  1.00  0.00     0.103 C 
ATOM     14  C   UNL     1      -4.021   1.975  -3.156  1.00  0.00     0.033 C 
ATOM     15  C   UNL     1      -6.269   1.804  -2.015  1.00  0.00     0.033 C 
ENDBRANCH   9  13
ENDBRANCH   7   8
ENDBRANCH   6   7
BRANCH   6  16
ATOM     16  C   UNL     1      -0.781   3.667  -0.873  1.00  0.00     0.001 A 
ATOM     17  C   UNL     1       0.562   3.820  -0.471  1.00  0.00     0.007 A 
ATOM     18  C   UNL     1      -1.355   4.766  -1.510  1.00  0.00     0.127 A 
ATOM     19  C   UNL     1       1.123   5.099  -0.347  1.00  0.00     0.001 A 
ATOM     20  C   UNL     1      -0.828   6.047  -1.363  1.00  0.00     0.039 A 
ATOM     21  F   UNL     1      -2.436   4.622  -2.279  1.00  0.00    -0.207 F 
ATOM     22  C   UNL     1       0.386   6.221  -0.712  1.00  0.00     0.003 A 
ENDBRANCH   6  16
ENDBRANCH   3   6
ENDBRANCH   1   2
BRANCH   1  23
ATOM     23  C   UNL     1      -1.641   4.615   3.272  1.00  0.00     0.042 C 
BRANCH  23  24
ATOM     24  C   UNL     1      -0.980   4.414   4.609  1.00  0.00     0.118 C 
BRANCH  24  25
ATOM     25  N   UNL     1       0.359   5.015   4.751  1.00  0.00    -0.352 N 
ATOM     26  C   UNL     1       1.142   5.091   5.909  1.00  0.00     0.251 C 
ATOM     27  H   UNL     1       0.748   5.409   3.937  1.00  0.00     0.163 HD
ATOM     28  O   UNL     1       2.111   5.807   5.993  1.00  0.00    -0.269 OA
BRANCH  26  29
ATOM     29  C   UNL     1       0.735   4.220   7.031  1.00  0.00     0.039 A 
ATOM     30  C   UNL     1       0.592   4.652   8.353  1.00  0.00     0.014 A 
ATOM     31  C   UNL     1       0.306   2.967   6.642  1.00  0.00     0.014 A 
ATOM     32  C   UNL     1      -0.081   3.814   9.246  1.00  0.00     0.010 A 
ATOM     33  C   UNL     1      -0.678   2.397   7.377  1.00  0.00     0.010 A 
ATOM     34  C   UNL     1      -0.730   2.687   8.728  1.00  0.00    -0.014 A 
BRANCH  34  35
ATOM     35  C   UNL     1      -1.544   1.756   9.490  1.00  0.00     0.031 A 
ATOM     36  C   UNL     1      -2.789   2.342  10.041  1.00  0.00     0.074 A 
ATOM     37  C   UNL     1      -1.360   0.421   9.339  1.00  0.00     0.049 A 
ATOM     38  N   UNL     1      -3.084   2.555  11.279  1.00  0.00    -0.248 NA
ATOM     39  C   UNL     1      -3.760   2.918   9.092  1.00  0.00     0.031 C 
ATOM     40  C   UNL     1      -0.390  -0.277   8.474  1.00  0.00     0.029 A 
ATOM     41  N   UNL     1      -2.106  -0.608   9.818  1.00  0.00    -0.354 N 
ATOM     42  C   UNL     1      -4.384   3.054  11.267  1.00  0.00     0.074 A 
ATOM     43  C   UNL     1      -4.626   3.500   9.923  1.00  0.00     0.031 C 
ATOM     44  C   UNL     1      -0.757  -1.566   8.315  1.00  0.00     0.029 A 
ATOM     45  C   UNL     1      -1.871  -1.836   9.199  1.00  0.00     0.049 A 
ATOM     46  H   UNL     1      -2.760  -0.496  10.545  1.00  0.00     0.167 HD
ATOM     47  C   UNL     1      -5.255   2.766  12.275  1.00  0.00     0.037 A 
ATOM     48  C   UNL     1      -2.579  -2.977   9.391  1.00  0.00     0.037 A 
ATOM     49  C   UNL     1      -4.554   2.209  13.410  1.00  0.00     0.049 A 
ATOM     50  C   UNL     1      -3.341  -2.801  10.655  1.00  0.00     0.074 A 
ATOM     51  C   UNL     1      -3.515   2.634  14.215  1.00  0.00     0.029 A 
ATOM     52  N   UNL     1      -4.632   0.848  13.593  1.00  0.00    -0.354 N 
ATOM     53  N   UNL     1      -2.781  -2.705  11.830  1.00  0.00    -0.248 NA
ATOM     54  C   UNL     1      -4.675  -2.229  10.552  1.00  0.00     0.031 C 
ATOM     55  C   UNL     1      -2.720   1.470  14.433  1.00  0.00     0.029 A 
ATOM     56  C   UNL     1      -3.363   0.387  13.832  1.00  0.00     0.049 A 
ATOM     57  H   UNL     1      -5.451   0.303  13.559  1.00  0.00     0.167 HD
ATOM     58  C   UNL     1      -3.488  -1.702  12.481  1.00  0.00     0.074 A 
ATOM     59  C   UNL     1      -4.689  -1.499  11.671  1.00  0.00     0.031 C 
ATOM     60  C   UNL     1      -2.892  -0.921  13.430  1.00  0.00     0.037 A 
BRANCH  47  61
ATOM     61  C   UNL     1      -6.750   2.597  12.106  1.00  0.00     0.057 A 
ATOM     62  C   UNL     1      -7.541   2.414  13.255  1.00  0.00     0.134 A 
ATOM     63  C   UNL     1      -7.407   2.326  10.887  1.00  0.00     0.134 A 
ATOM     64  F   UNL     1      -7.038   2.635  14.479  1.00  0.00    -0.206 F 
ATOM     65  C   UNL     1      -8.848   1.915  13.200  1.00  0.00     0.040 A 
ATOM     66  C   UNL     1      -8.730   1.880  10.818  1.00  0.00     0.040 A 
ATOM     67  F   UNL     1      -6.792   2.376   9.701  1.00  0.00    -0.206 F 
ATOM     68  C   UNL     1      -9.445   1.637  11.978  1.00  0.00     0.006 A 
ENDBRANCH  47  61
BRANCH  48  69
ATOM     69  C   UNL     1      -2.877  -4.062   8.427  1.00  0.00     0.057 A 
ATOM     70  C   UNL     1      -3.337  -5.314   8.857  1.00  0.00     0.134 A 
ATOM     71  C   UNL     1      -2.979  -3.811   7.046  1.00  0.00     0.134 A 
ATOM     72  F   UNL     1      -3.318  -5.634  10.159  1.00  0.00    -0.206 F 
ATOM     73  C   UNL     1      -3.890  -6.252   7.972  1.00  0.00     0.040 A 
ATOM     74  C   UNL     1      -3.523  -4.739   6.151  1.00  0.00     0.040 A 
ATOM     75  F   UNL     1      -2.637  -2.620   6.533  1.00  0.00    -0.206 F 
ATOM     76  C   UNL     1      -3.995  -5.961   6.615  1.00  0.00     0.006 A 
ENDBRANCH  48  69
BRANCH  60  77
ATOM     77  C   UNL     1      -1.528  -1.324  13.929  1.00  0.00     0.057 A 
ATOM     78  C   UNL     1      -0.370  -1.351  13.135  1.00  0.00     0.134 A 
ATOM     79  C   UNL     1      -1.350  -1.523  15.301  1.00  0.00     0.134 A 
ATOM     80  F   UNL     1      -0.418  -1.079  11.827  1.00  0.00    -0.206 F 
ATOM     81  C   UNL     1       0.897  -1.597  13.676  1.00  0.00     0.040 A 
ATOM     82  C   UNL     1      -0.087  -1.737  15.860  1.00  0.00     0.040 A 
ATOM     83  F   UNL     1      -2.401  -1.455  16.134  1.00  0.00    -0.206 F 
ATOM     84  C   UNL     1       1.041  -1.783  15.046  1.00  0.00     0.006 A 
ENDBRANCH  60  77
ENDBRANCH  34  35
ENDBRANCH  26  29
ENDBRANCH  24  25
ENDBRANCH  23  24
ENDBRANCH   1  23
TORSDOF 14
