REMARK SMILES O=C1NC(=O)/C(=C/c2ccc(OCc3cn(-c4ccc(C(=O)NCCCNC(=O)c5ccc(-c6c7nc(c(-c8c(F)cccc8F)c8ccc([nH]8)c(-c8c(F)cccc8F)c8nc(c(-c9c(F)cccc9F)c9ccc6[nH]9)C=C8)C=C7)cc5)cc4)nn3)cc2)S1
REMARK SMILES IDX 21 1 22 2 23 3 20 5 17 6 18 7 85 8 19 9 84 10 16 11 14 12
REMARK SMILES IDX 15 13 87 14 86 15 13 16 12 17 11 18 8 19 9 20 89 21 10 22
REMARK SMILES IDX 88 23 7 24 1 25 2 26 3 27 90 28 4 29 6 31 5 32 24 33 25 34
REMARK SMILES IDX 26 35 27 36 28 37 29 39 30 40 31 41 83 42 32 43 82 44 33 45
REMARK SMILES IDX 34 46 35 47 76 48 36 49 81 50 75 51 77 52 37 53 80 54 74 55
REMARK SMILES IDX 73 56 38 58 64 59 47 60 63 61 48 62 51 63 62 64 78 65 49 66
REMARK SMILES IDX 50 67 61 69 79 70 52 71 39 72 40 73 45 74 41 75 42 76 44 77
REMARK SMILES IDX 46 78 43 79 65 80 66 81 71 82 67 83 68 84 70 85 72 86 69 87
REMARK SMILES IDX 53 88 54 89 59 90 55 91 56 92 58 93 60 94 57 95
REMARK H PARENT 23 4 3 30 27 38 77 57 51 68
REMARK Flexibility Score: inf
ROOT
ATOM      1  C   UNL     1      -7.776   8.643   0.624  1.00  0.00     0.251 C 
ATOM      2  O   UNL     1      -8.634   8.036   1.263  1.00  0.00    -0.269 OA
ATOM      3  N   UNL     1      -8.178   9.720  -0.132  1.00  0.00    -0.352 N 
ATOM      4  H   UNL     1      -9.151   9.871  -0.132  1.00  0.00     0.163 HD
ENDROOT
BRANCH   1   5
ATOM      5  C   UNL     1      -6.349   8.231   0.742  1.00  0.00     0.039 A 
ATOM      6  C   UNL     1      -3.656   7.593   1.167  1.00  0.00     0.066 A 
ATOM      7  C   UNL     1      -4.624   7.169   2.086  1.00  0.00     0.029 A 
ATOM      8  C   UNL     1      -4.031   8.258   0.006  1.00  0.00     0.029 A 
ATOM      9  C   UNL     1      -5.963   7.518   1.886  1.00  0.00     0.016 A 
ATOM     10  C   UNL     1      -5.377   8.513  -0.221  1.00  0.00     0.016 A 
BRANCH   6  11
ATOM     11  N   UNL     1      -2.296   7.334   1.399  1.00  0.00    -0.220 N 
ATOM     12  C   UNL     1      -0.118   7.350   1.421  1.00  0.00     0.120 A 
ATOM     13  C   UNL     1      -1.208   8.058   0.966  1.00  0.00     0.144 A 
ATOM     14  N   UNL     1      -0.573   6.271   2.135  1.00  0.00    -0.131 NA
ATOM     15  N   UNL     1      -1.893   6.291   2.146  1.00  0.00    -0.062 NA
BRANCH  12  16
ATOM     16  C   UNL     1       1.342   7.652   1.343  1.00  0.00     0.289 C 
BRANCH  16  17
ATOM     17  O   UNL     1       2.063   6.981   0.295  1.00  0.00    -0.487 OA
BRANCH  17  18
ATOM     18  C   UNL     1       2.189   5.620   0.357  1.00  0.00     0.119 A 
ATOM     19  C   UNL     1       2.216   2.820   0.120  1.00  0.00    -0.024 A 
ATOM     20  C   UNL     1       2.686   3.617  -0.926  1.00  0.00     0.012 A 
ATOM     21  C   UNL     1       1.831   3.428   1.316  1.00  0.00     0.012 A 
ATOM     22  C   UNL     1       2.663   5.012  -0.808  1.00  0.00     0.047 A 
ATOM     23  C   UNL     1       1.856   4.817   1.444  1.00  0.00     0.047 A 
BRANCH  19  24
ATOM     24  C   UNL     1       2.144   1.363  -0.014  1.00  0.00     0.029 C 
ATOM     25  O   UNL     1      -2.443  -0.713   0.021  1.00  0.00    -0.261 OA
ATOM     26  C   UNL     1      -1.262  -0.436  -0.002  1.00  0.00     0.290 C 
ATOM     27  N   UNL     1      -0.236  -1.328  -0.047  1.00  0.00    -0.282 N 
ATOM     28  S   UNL     1      -0.619   1.195   0.013  1.00  0.00    -0.022 SA
ATOM     29  C   UNL     1       1.036  -0.844  -0.078  1.00  0.00     0.265 C 
ATOM     30  H   UNL     1      -0.408  -2.297  -0.058  1.00  0.00     0.174 HD
ATOM     31  C   UNL     1       1.016   0.641  -0.032  1.00  0.00     0.083 C 
ATOM     32  O   UNL     1       2.042  -1.536  -0.121  1.00  0.00    -0.268 OA
ENDBRANCH  19  24
ENDBRANCH  17  18
ENDBRANCH  16  17
ENDBRANCH  12  16
ENDBRANCH   6  11
ENDBRANCH   1   5
BRANCH   3  33
ATOM     33  C   UNL     1      -7.427  10.677  -0.934  1.00  0.00     0.118 C 
BRANCH  33  34
ATOM     34  C   UNL     1      -7.304  10.226  -2.400  1.00  0.00     0.042 C 
BRANCH  34  35
ATOM     35  C   UNL     1      -8.508  10.632  -3.216  1.00  0.00     0.118 C 
BRANCH  35  36
ATOM     36  N   UNL     1      -8.571  12.082  -3.456  1.00  0.00    -0.352 N 
ATOM     37  C   UNL     1      -9.562  12.811  -4.098  1.00  0.00     0.251 C 
ATOM     38  H   UNL     1      -7.809  12.605  -3.115  1.00  0.00     0.163 HD
ATOM     39  O   UNL     1      -9.351  13.939  -4.524  1.00  0.00    -0.269 OA
BRANCH  37  40
ATOM     40  C   UNL     1     -10.885  12.188  -4.238  1.00  0.00     0.039 A 
ATOM     41  C   UNL     1     -11.691  12.291  -5.374  1.00  0.00     0.014 A 
ATOM     42  C   UNL     1     -11.258  11.378  -3.183  1.00  0.00     0.014 A 
ATOM     43  C   UNL     1     -12.852  11.520  -5.420  1.00  0.00     0.010 A 
ATOM     44  C   UNL     1     -12.101  10.351  -3.439  1.00  0.00     0.010 A 
ATOM     45  C   UNL     1     -13.041  10.552  -4.425  1.00  0.00    -0.014 A 
BRANCH  45  46
ATOM     46  C   UNL     1     -14.194   9.680  -4.328  1.00  0.00     0.031 A 
ATOM     47  C   UNL     1     -14.405   8.813  -5.505  1.00  0.00     0.074 A 
ATOM     48  C   UNL     1     -14.823   9.476  -3.146  1.00  0.00     0.049 A 
ATOM     49  N   UNL     1     -15.347   8.899  -6.380  1.00  0.00    -0.248 NA
ATOM     50  C   UNL     1     -13.357   7.837  -5.843  1.00  0.00     0.031 C 
ATOM     51  C   UNL     1     -14.503  10.001  -1.806  1.00  0.00     0.029 A 
ATOM     52  N   UNL     1     -15.847   8.626  -2.882  1.00  0.00    -0.354 N 
ATOM     53  C   UNL     1     -15.144   7.839  -7.253  1.00  0.00     0.074 A 
ATOM     54  C   UNL     1     -13.807   7.365  -7.008  1.00  0.00     0.031 C 
ATOM     55  C   UNL     1     -15.146   9.278  -0.863  1.00  0.00     0.029 A 
ATOM     56  C   UNL     1     -16.055   8.370  -1.529  1.00  0.00     0.049 A 
ATOM     57  H   UNL     1     -16.399   8.222  -3.590  1.00  0.00     0.167 HD
ATOM     58  C   UNL     1     -16.187   7.269  -7.916  1.00  0.00     0.037 A 
ATOM     59  C   UNL     1     -16.894   7.427  -1.032  1.00  0.00     0.037 A 
ATOM     60  C   UNL     1     -17.370   8.094  -7.837  1.00  0.00     0.049 A 
ATOM     61  C   UNL     1     -17.862   7.108  -2.120  1.00  0.00     0.074 A 
ATOM     62  C   UNL     1     -17.663   9.398  -8.191  1.00  0.00     0.029 A 
ATOM     63  N   UNL     1     -18.343   7.733  -6.933  1.00  0.00    -0.354 N 
ATOM     64  N   UNL     1     -18.735   7.969  -2.576  1.00  0.00    -0.248 NA
ATOM     65  C   UNL     1     -17.498   6.041  -3.043  1.00  0.00     0.031 C 
ATOM     66  C   UNL     1     -18.438   9.904  -7.104  1.00  0.00     0.029 A 
ATOM     67  C   UNL     1     -18.647   8.858  -6.205  1.00  0.00     0.049 A 
ATOM     68  H   UNL     1     -18.744   6.840  -6.827  1.00  0.00     0.167 HD
ATOM     69  C   UNL     1     -18.715   7.805  -3.955  1.00  0.00     0.074 A 
ATOM     70  C   UNL     1     -17.970   6.565  -4.179  1.00  0.00     0.031 C 
ATOM     71  C   UNL     1     -19.021   8.830  -4.808  1.00  0.00     0.037 A 
BRANCH  58  72
ATOM     72  C   UNL     1     -16.255   5.815  -8.297  1.00  0.00     0.057 A 
ATOM     73  C   UNL     1     -17.274   5.385  -9.164  1.00  0.00     0.134 A 
ATOM     74  C   UNL     1     -15.555   4.788  -7.633  1.00  0.00     0.134 A 
ATOM     75  F   UNL     1     -18.019   6.271  -9.841  1.00  0.00    -0.206 F 
ATOM     76  C   UNL     1     -17.619   4.036  -9.300  1.00  0.00     0.040 A 
ATOM     77  C   UNL     1     -15.855   3.435  -7.804  1.00  0.00     0.040 A 
ATOM     78  F   UNL     1     -14.620   5.035  -6.708  1.00  0.00    -0.206 F 
ATOM     79  C   UNL     1     -16.913   3.056  -8.613  1.00  0.00     0.006 A 
ENDBRANCH  58  72
BRANCH  59  80
ATOM     80  C   UNL     1     -16.668   6.550   0.142  1.00  0.00     0.057 A 
ATOM     81  C   UNL     1     -17.711   5.809   0.713  1.00  0.00     0.134 A 
ATOM     82  C   UNL     1     -15.370   6.213   0.570  1.00  0.00     0.134 A 
ATOM     83  F   UNL     1     -18.981   6.025   0.340  1.00  0.00    -0.206 F 
ATOM     84  C   UNL     1     -17.477   4.782   1.640  1.00  0.00     0.040 A 
ATOM     85  C   UNL     1     -15.122   5.194   1.497  1.00  0.00     0.040 A 
ATOM     86  F   UNL     1     -14.290   6.802   0.037  1.00  0.00    -0.206 F 
ATOM     87  C   UNL     1     -16.178   4.465   2.027  1.00  0.00     0.006 A 
ENDBRANCH  59  80
BRANCH  71  88
ATOM     88  C   UNL     1     -19.555  10.115  -4.228  1.00  0.00     0.057 A 
ATOM     89  C   UNL     1     -18.831  10.949  -3.361  1.00  0.00     0.134 A 
ATOM     90  C   UNL     1     -20.767  10.622  -4.709  1.00  0.00     0.134 A 
ATOM     91  F   UNL     1     -17.614  10.607  -2.928  1.00  0.00    -0.206 F 
ATOM     92  C   UNL     1     -19.305  12.204  -2.961  1.00  0.00     0.040 A 
ATOM     93  C   UNL     1     -21.239  11.886  -4.343  1.00  0.00     0.040 A 
ATOM     94  F   UNL     1     -21.489   9.915  -5.593  1.00  0.00    -0.206 F 
ATOM     95  C   UNL     1     -20.512  12.679  -3.459  1.00  0.00     0.006 A 
ENDBRANCH  71  88
ENDBRANCH  45  46
ENDBRANCH  37  40
ENDBRANCH  35  36
ENDBRANCH  34  35
ENDBRANCH  33  34
ENDBRANCH   3  33
TORSDOF 15
