REMARK SMILES Nc1cnc(Cl)c(C(=O)NCCCNC(=O)c2ccc(-c3c4nc(c(-c5c(F)cccc5F)c5ccc([nH]5)c(-c5c(F)cccc5F)c5nc(c(-c6c(F)cccc6F)c6ccc3[nH]6)C=C5)C=C4)cc2)c1
REMARK SMILES IDX 12 1 11 2 10 3 8 4 9 5 7 7 2 8 3 9 71 10 4 11 5 12 6 13 1 14
REMARK SMILES IDX 13 17 14 18 15 19 16 21 17 22 18 23 70 24 19 25 69 26 20 27
REMARK SMILES IDX 21 28 22 29 63 30 23 31 68 32 62 33 64 34 24 35 67 36 61 37
REMARK SMILES IDX 60 38 25 40 51 41 34 42 50 43 35 44 38 45 49 46 65 47 36 48
REMARK SMILES IDX 37 49 48 51 66 52 39 53 26 54 27 55 32 56 28 57 29 58 31 59
REMARK SMILES IDX 33 60 30 61 52 62 53 63 58 64 54 65 55 66 57 67 59 68 56 69
REMARK SMILES IDX 40 70 41 71 46 72 42 73 43 74 45 75 47 76 44 77
REMARK H PARENT 10 6 1 15 1 16 14 20 64 39 38 50
REMARK Flexibility Score: inf
ROOT
ATOM      1  C   UNL     1       2.497  -3.006   3.423  1.00  0.00     0.042 C 
ENDROOT
BRANCH   1   2
ATOM      2  C   UNL     1       2.553  -3.747   2.086  1.00  0.00     0.118 C 
BRANCH   2   3
ATOM      3  N   UNL     1       1.400  -4.618   1.941  1.00  0.00    -0.352 N 
ATOM      4  C   UNL     1       0.176  -4.502   1.332  1.00  0.00     0.254 C 
ATOM      5  O   UNL     1      -0.604  -5.428   1.546  1.00  0.00    -0.269 OA
ATOM      6  H   UNL     1       1.526  -5.491   2.380  1.00  0.00     0.163 HD
BRANCH   4   7
ATOM      7  C   UNL     1      -0.225  -3.364   0.461  1.00  0.00     0.079 A 
ATOM      8  C   UNL     1      -0.037  -1.043  -0.278  1.00  0.00     0.051 A 
ATOM      9  C   UNL     1      -1.034  -1.319  -1.203  1.00  0.00     0.138 A 
ATOM     10  C   UNL     1       0.302  -2.073   0.603  1.00  0.00     0.044 A 
ATOM     11  N   UNL     1      -1.614  -2.526  -1.355  1.00  0.00    -0.242 NA
ATOM     12  C   UNL     1      -1.193  -3.523  -0.534  1.00  0.00     0.141 A 
ATOM     13  Cl  UNL     1      -1.993  -4.997  -0.932  1.00  0.00    -0.061 Cl
BRANCH   8  14
ATOM     14  N   UNL     1       0.508   0.222  -0.133  1.00  0.00    -0.397 N 
ATOM     15  H   UNL     1       0.261   0.939  -0.760  1.00  0.00     0.156 HD
ATOM     16  H   UNL     1       1.142   0.404   0.598  1.00  0.00     0.156 HD
ENDBRANCH   8  14
ENDBRANCH   4   7
ENDBRANCH   2   3
ENDBRANCH   1   2
BRANCH   1  17
ATOM     17  C   UNL     1       2.826  -3.900   4.618  1.00  0.00     0.118 C 
BRANCH  17  18
ATOM     18  N   UNL     1       4.224  -4.315   4.629  1.00  0.00    -0.352 N 
ATOM     19  C   UNL     1       5.214  -4.103   5.559  1.00  0.00     0.251 C 
ATOM     20  H   UNL     1       4.505  -4.834   3.841  1.00  0.00     0.163 HD
ATOM     21  O   UNL     1       6.379  -4.348   5.267  1.00  0.00    -0.269 OA
BRANCH  19  22
ATOM     22  C   UNL     1       4.886  -3.567   6.899  1.00  0.00     0.039 A 
ATOM     23  C   UNL     1       3.731  -3.970   7.567  1.00  0.00     0.014 A 
ATOM     24  C   UNL     1       5.766  -2.668   7.513  1.00  0.00     0.014 A 
ATOM     25  C   UNL     1       3.363  -3.341   8.749  1.00  0.00     0.010 A 
ATOM     26  C   UNL     1       5.446  -2.118   8.760  1.00  0.00     0.010 A 
ATOM     27  C   UNL     1       4.216  -2.411   9.366  1.00  0.00    -0.014 A 
BRANCH  27  28
ATOM     28  C   UNL     1       3.782  -1.782  10.642  1.00  0.00     0.031 A 
ATOM     29  C   UNL     1       3.545  -0.297  10.736  1.00  0.00     0.074 A 
ATOM     30  C   UNL     1       3.513  -2.574  11.699  1.00  0.00     0.049 A 
ATOM     31  N   UNL     1       3.054   0.398  11.733  1.00  0.00    -0.248 NA
ATOM     32  C   UNL     1       3.911   0.515   9.567  1.00  0.00     0.031 C 
ATOM     33  C   UNL     1       3.708  -4.026  11.735  1.00  0.00     0.029 A 
ATOM     34  N   UNL     1       2.975  -2.283  12.926  1.00  0.00    -0.354 N 
ATOM     35  C   UNL     1       3.063   1.724  11.316  1.00  0.00     0.074 A 
ATOM     36  C   UNL     1       3.648   1.742   9.993  1.00  0.00     0.031 C 
ATOM     37  C   UNL     1       3.223  -4.507  12.889  1.00  0.00     0.029 A 
ATOM     38  C   UNL     1       2.747  -3.395  13.701  1.00  0.00     0.049 A 
ATOM     39  H   UNL     1       2.773  -1.366  13.224  1.00  0.00     0.167 HD
ATOM     40  C   UNL     1       2.612   2.824  11.968  1.00  0.00     0.037 A 
ATOM     41  C   UNL     1       2.214  -3.506  14.931  1.00  0.00     0.037 A 
ATOM     42  C   UNL     1       2.027   2.804  13.285  1.00  0.00     0.049 A 
ATOM     43  C   UNL     1       1.770  -2.262  15.646  1.00  0.00     0.074 A 
ATOM     44  C   UNL     1       1.517   3.860  14.021  1.00  0.00     0.029 A 
ATOM     45  N   UNL     1       1.881   1.668  14.068  1.00  0.00    -0.354 N 
ATOM     46  N   UNL     1       1.747  -1.023  15.221  1.00  0.00    -0.248 NA
ATOM     47  C   UNL     1       1.278  -2.439  17.019  1.00  0.00     0.031 C 
ATOM     48  C   UNL     1       1.116   3.372  15.271  1.00  0.00     0.029 A 
ATOM     49  C   UNL     1       1.317   2.002  15.290  1.00  0.00     0.049 A 
ATOM     50  H   UNL     1       2.139   0.758  13.796  1.00  0.00     0.167 HD
ATOM     51  C   UNL     1       1.218  -0.275  16.265  1.00  0.00     0.074 A 
ATOM     52  C   UNL     1       0.902  -1.208  17.327  1.00  0.00     0.031 C 
ATOM     53  C   UNL     1       1.016   1.064  16.342  1.00  0.00     0.037 A 
BRANCH  40  54
ATOM     54  C   UNL     1       2.760   4.150  11.273  1.00  0.00     0.057 A 
ATOM     55  C   UNL     1       3.654   5.113  11.759  1.00  0.00     0.134 A 
ATOM     56  C   UNL     1       2.007   4.486  10.140  1.00  0.00     0.134 A 
ATOM     57  F   UNL     1       4.403   4.864  12.844  1.00  0.00    -0.206 F 
ATOM     58  C   UNL     1       3.795   6.359  11.143  1.00  0.00     0.040 A 
ATOM     59  C   UNL     1       2.160   5.717   9.498  1.00  0.00     0.040 A 
ATOM     60  F   UNL     1       1.141   3.607   9.613  1.00  0.00    -0.206 F 
ATOM     61  C   UNL     1       3.053   6.660  10.003  1.00  0.00     0.006 A 
ENDBRANCH  40  54
BRANCH  41  62
ATOM     62  C   UNL     1       2.074  -4.837  15.577  1.00  0.00     0.057 A 
ATOM     63  C   UNL     1       3.194  -5.586  15.958  1.00  0.00     0.134 A 
ATOM     64  C   UNL     1       0.813  -5.370  15.873  1.00  0.00     0.134 A 
ATOM     65  F   UNL     1       4.431  -5.136  15.698  1.00  0.00    -0.206 F 
ATOM     66  C   UNL     1       3.067  -6.812  16.610  1.00  0.00     0.040 A 
ATOM     67  C   UNL     1       0.672  -6.579  16.555  1.00  0.00     0.040 A 
ATOM     68  F   UNL     1      -0.299  -4.692  15.550  1.00  0.00    -0.206 F 
ATOM     69  C   UNL     1       1.802  -7.305  16.923  1.00  0.00     0.006 A 
ENDBRANCH  41  62
BRANCH  53  70
ATOM     70  C   UNL     1       0.393   1.577  17.610  1.00  0.00     0.057 A 
ATOM     71  C   UNL     1      -0.915   2.076  17.609  1.00  0.00     0.134 A 
ATOM     72  C   UNL     1       1.071   1.546  18.837  1.00  0.00     0.134 A 
ATOM     73  F   UNL     1      -1.619   2.146  16.469  1.00  0.00    -0.206 F 
ATOM     74  C   UNL     1      -1.532   2.510  18.784  1.00  0.00     0.040 A 
ATOM     75  C   UNL     1       0.452   1.943  20.023  1.00  0.00     0.040 A 
ATOM     76  F   UNL     1       2.322   1.066  18.911  1.00  0.00    -0.206 F 
ATOM     77  C   UNL     1      -0.854   2.428  19.998  1.00  0.00     0.006 A 
ENDBRANCH  53  70
ENDBRANCH  27  28
ENDBRANCH  19  22
ENDBRANCH  17  18
ENDBRANCH   1  17
TORSDOF 11
