REMARK SMILES CC[C@H]1CC[C@](O)([C@H](F)C(=O)NCCCNC(=O)c2ccc(-c3c4nc(c(-c5c(F)cccc5F)c5ccc([nH]5)c(-c5c(F)cccc5F)c5nc(c(-c6c(F)cccc6F)c6ccc3[nH]6)C=C5)C=C4)cc2)CC1
REMARK SMILES IDX 14 1 13 2 12 3 10 4 11 5 8 7 9 8 6 9 3 10 4 11 74 12 5 13
REMARK SMILES IDX 73 14 2 15 1 16 7 17 15 19 16 20 17 21 18 23 19 24 20 25
REMARK SMILES IDX 72 26 21 27 71 28 22 29 23 30 24 31 65 32 25 33 70 34 64 35
REMARK SMILES IDX 66 36 26 37 69 38 63 39 62 40 27 42 53 43 36 44 52 45 37 46
REMARK SMILES IDX 40 47 51 48 67 49 38 50 39 51 50 53 68 54 41 55 28 56 29 57
REMARK SMILES IDX 34 58 30 59 31 60 33 61 35 62 32 63 54 64 55 65 60 66 56 67
REMARK SMILES IDX 57 68 59 69 61 70 58 71 42 72 43 73 48 74 44 75 45 76 47 77
REMARK SMILES IDX 49 78 46 79
REMARK H PARENT 12 6 7 18 16 22 66 41 40 52
REMARK Flexibility Score: inf
ROOT
ATOM      1  C   UNL     1       0.829   5.803   1.480  1.00  0.00     0.042 C 
ENDROOT
BRANCH   1   2
ATOM      2  C   UNL     1       1.551   5.561   0.171  1.00  0.00     0.117 C 
BRANCH   2   3
ATOM      3  N   UNL     1       2.892   6.107   0.172  1.00  0.00    -0.353 N 
ATOM      4  C   UNL     1       4.045   5.494  -0.210  1.00  0.00     0.257 C 
ATOM      5  O   UNL     1       5.085   6.158  -0.169  1.00  0.00    -0.272 OA
ATOM      6  H   UNL     1       2.981   7.036   0.487  1.00  0.00     0.163 HD
BRANCH   4   7
ATOM      7  C   UNL     1       4.042   4.059  -0.724  1.00  0.00     0.286 C 
ATOM      8  F   UNL     1       3.532   3.183   0.199  1.00  0.00    -0.234 F 
BRANCH   7   9
ATOM      9  C   UNL     1       3.356   3.829  -2.109  1.00  0.00     0.105 C 
ATOM     10  C   UNL     1       5.269   4.340  -4.386  1.00  0.00    -0.011 C 
ATOM     11  C   UNL     1       5.423   3.134  -3.447  1.00  0.00     0.006 C 
ATOM     12  C   UNL     1       4.602   5.496  -3.623  1.00  0.00     0.006 C 
ATOM     13  C   UNL     1       4.090   2.688  -2.849  1.00  0.00     0.039 C 
ATOM     14  C   UNL     1       3.270   5.081  -3.007  1.00  0.00     0.039 C 
BRANCH  10  15
ATOM     15  C   UNL     1       4.497   4.037  -5.689  1.00  0.00    -0.000 C 
ATOM     16  C   UNL     1       4.968   2.791  -6.422  1.00  0.00     0.004 C 
ENDBRANCH  10  15
BRANCH   9  17
ATOM     17  O   UNL     1       1.998   3.378  -1.914  1.00  0.00    -0.386 OA
ATOM     18  H   UNL     1       1.578   3.237  -2.777  1.00  0.00     0.211 HD
ENDBRANCH   9  17
ENDBRANCH   7   9
ENDBRANCH   4   7
ENDBRANCH   2   3
ENDBRANCH   1   2
BRANCH   1  19
ATOM     19  C   UNL     1       0.715   7.268   1.861  1.00  0.00     0.118 C 
BRANCH  19  20
ATOM     20  N   UNL     1      -0.095   8.045   0.932  1.00  0.00    -0.352 N 
ATOM     21  C   UNL     1      -1.256   8.743   1.165  1.00  0.00     0.251 C 
ATOM     22  H   UNL     1       0.236   8.075   0.005  1.00  0.00     0.163 HD
ATOM     23  O   UNL     1      -1.892   9.223   0.232  1.00  0.00    -0.269 OA
BRANCH  21  24
ATOM     24  C   UNL     1      -1.753   8.877   2.550  1.00  0.00     0.039 A 
ATOM     25  C   UNL     1      -3.100   8.627   2.816  1.00  0.00     0.014 A 
ATOM     26  C   UNL     1      -0.875   9.194   3.588  1.00  0.00     0.014 A 
ATOM     27  C   UNL     1      -3.546   8.609   4.139  1.00  0.00     0.010 A 
ATOM     28  C   UNL     1      -1.294   9.063   4.905  1.00  0.00     0.010 A 
ATOM     29  C   UNL     1      -2.636   8.778   5.196  1.00  0.00    -0.014 A 
BRANCH  29  30
ATOM     30  C   UNL     1      -3.063   8.680   6.614  1.00  0.00     0.031 A 
ATOM     31  C   UNL     1      -2.893   9.862   7.528  1.00  0.00     0.074 A 
ATOM     32  C   UNL     1      -3.524   7.510   7.097  1.00  0.00     0.049 A 
ATOM     33  N   UNL     1      -3.114   9.952   8.815  1.00  0.00    -0.248 NA
ATOM     34  C   UNL     1      -2.367  11.097   6.924  1.00  0.00     0.031 C 
ATOM     35  C   UNL     1      -3.677   6.273   6.327  1.00  0.00     0.029 A 
ATOM     36  N   UNL     1      -3.940   7.167   8.359  1.00  0.00    -0.354 N 
ATOM     37  C   UNL     1      -2.733  11.239   9.173  1.00  0.00     0.074 A 
ATOM     38  C   UNL     1      -2.209  11.873   7.985  1.00  0.00     0.031 C 
ATOM     39  C   UNL     1      -4.179   5.317   7.125  1.00  0.00     0.029 A 
ATOM     40  C   UNL     1      -4.346   5.859   8.470  1.00  0.00     0.049 A 
ATOM     41  H   UNL     1      -3.947   7.799   9.114  1.00  0.00     0.167 HD
ATOM     42  C   UNL     1      -2.838  11.848  10.377  1.00  0.00     0.037 A 
ATOM     43  C   UNL     1      -4.797   5.174   9.537  1.00  0.00     0.037 A 
ATOM     44  C   UNL     1      -3.397  11.227  11.547  1.00  0.00     0.049 A 
ATOM     45  C   UNL     1      -4.919   5.877  10.861  1.00  0.00     0.074 A 
ATOM     46  C   UNL     1      -3.615  11.781  12.796  1.00  0.00     0.029 A 
ATOM     47  N   UNL     1      -3.828   9.911  11.610  1.00  0.00    -0.354 N 
ATOM     48  N   UNL     1      -4.625   7.118  11.168  1.00  0.00    -0.248 NA
ATOM     49  C   UNL     1      -5.442   5.088  11.985  1.00  0.00     0.031 C 
ATOM     50  C   UNL     1      -4.141  10.787  13.627  1.00  0.00     0.029 A 
ATOM     51  C   UNL     1      -4.294   9.628  12.883  1.00  0.00     0.049 A 
ATOM     52  H   UNL     1      -3.806   9.272  10.861  1.00  0.00     0.167 HD
ATOM     53  C   UNL     1      -4.951   7.265  12.509  1.00  0.00     0.074 A 
ATOM     54  C   UNL     1      -5.479   5.992  12.953  1.00  0.00     0.031 C 
ATOM     55  C   UNL     1      -4.825   8.357  13.303  1.00  0.00     0.037 A 
BRANCH  42  56
ATOM     56  C   UNL     1      -2.348  13.263  10.479  1.00  0.00     0.057 A 
ATOM     57  C   UNL     1      -3.014  14.324   9.851  1.00  0.00     0.134 A 
ATOM     58  C   UNL     1      -1.208  13.573  11.232  1.00  0.00     0.134 A 
ATOM     59  F   UNL     1      -4.103  14.094   9.102  1.00  0.00    -0.206 F 
ATOM     60  C   UNL     1      -2.549  15.637   9.943  1.00  0.00     0.040 A 
ATOM     61  C   UNL     1      -0.750  14.886  11.356  1.00  0.00     0.040 A 
ATOM     62  F   UNL     1      -0.525  12.606  11.863  1.00  0.00    -0.206 F 
ATOM     63  C   UNL     1      -1.417  15.921  10.704  1.00  0.00     0.006 A 
ENDBRANCH  42  56
BRANCH  43  64
ATOM     64  C   UNL     1      -5.195   3.751   9.395  1.00  0.00     0.057 A 
ATOM     65  C   UNL     1      -6.539   3.367   9.472  1.00  0.00     0.134 A 
ATOM     66  C   UNL     1      -4.248   2.741   9.186  1.00  0.00     0.134 A 
ATOM     67  F   UNL     1      -7.492   4.286   9.688  1.00  0.00    -0.206 F 
ATOM     68  C   UNL     1      -6.926   2.030   9.366  1.00  0.00     0.040 A 
ATOM     69  C   UNL     1      -4.623   1.403   9.054  1.00  0.00     0.040 A 
ATOM     70  F   UNL     1      -2.945   3.044   9.095  1.00  0.00    -0.206 F 
ATOM     71  C   UNL     1      -5.966   1.044   9.152  1.00  0.00     0.006 A 
ENDBRANCH  43  64
BRANCH  55  72
ATOM     72  C   UNL     1      -5.298   8.232  14.721  1.00  0.00     0.057 A 
ATOM     73  C   UNL     1      -4.589   7.492  15.675  1.00  0.00     0.134 A 
ATOM     74  C   UNL     1      -6.456   8.897  15.145  1.00  0.00     0.134 A 
ATOM     75  F   UNL     1      -3.480   6.822  15.329  1.00  0.00    -0.206 F 
ATOM     76  C   UNL     1      -5.027   7.401  16.997  1.00  0.00     0.040 A 
ATOM     77  C   UNL     1      -6.889   8.835  16.469  1.00  0.00     0.040 A 
ATOM     78  F   UNL     1      -7.175   9.631  14.282  1.00  0.00    -0.206 F 
ATOM     79  C   UNL     1      -6.176   8.080  17.398  1.00  0.00     0.006 A 
ENDBRANCH  55  72
ENDBRANCH  29  30
ENDBRANCH  21  24
ENDBRANCH  19  20
ENDBRANCH   1  19
TORSDOF 13
