REMARK SMILES CC1=Nc2c(c(C)nn2-c2ccc(F)cc2)[C@H](c2ccc(C(=O)NCCCNC(=O)c3ccc(-c4c5nc(c(-c6c(F)cccc6F)c6ccc([nH]6)c(-c6c(F)cccc6F)c6nc(c(-c7c(F)cccc7F)c7ccc4[nH]7)C=C6)C=C5)cc3)cc2)S1
REMARK SMILES IDX 26 1 25 2 24 3 22 4 23 5 21 7 18 8 19 9 86 10 20 11 85 12
REMARK SMILES IDX 17 13 1 14 2 15 3 16 87 17 4 18 5 19 9 20 6 21 8 22 7 23
REMARK SMILES IDX 10 24 11 25 16 26 12 27 15 28 13 29 14 30 27 31 28 32 29 33
REMARK SMILES IDX 30 35 31 36 32 37 84 38 33 39 83 40 34 41 35 42 36 43 77 44
REMARK SMILES IDX 37 45 82 46 76 47 78 48 38 49 81 50 75 51 74 52 39 54 65 55
REMARK SMILES IDX 48 56 64 57 49 58 52 59 63 60 79 61 50 62 51 63 62 65 80 66
REMARK SMILES IDX 53 67 40 68 41 69 46 70 42 71 43 72 45 73 47 74 44 75 66 76
REMARK SMILES IDX 67 77 72 78 68 79 69 80 71 81 73 82 70 83 54 84 55 85 60 86
REMARK SMILES IDX 56 87 57 88 59 89 61 90 58 91
REMARK H PARENT 24 6 28 34 78 53 52 64
REMARK Flexibility Score: inf
ROOT
ATOM      1  C   UNL     1      -6.173  -1.710  -0.529  1.00  0.00     0.042 C 
ENDROOT
BRANCH   1   2
ATOM      2  C   UNL     1      -5.936  -2.503  -1.820  1.00  0.00     0.118 C 
BRANCH   2   3
ATOM      3  N   UNL     1      -6.480  -1.821  -2.985  1.00  0.00    -0.352 N 
ATOM      4  C   UNL     1      -5.865  -1.063  -3.952  1.00  0.00     0.251 C 
ATOM      5  O   UNL     1      -6.531  -0.682  -4.913  1.00  0.00    -0.269 OA
ATOM      6  H   UNL     1      -7.452  -1.921  -3.100  1.00  0.00     0.163 HD
BRANCH   4   7
ATOM      7  C   UNL     1      -4.416  -0.737  -3.898  1.00  0.00     0.039 A 
ATOM      8  C   UNL     1      -1.643  -0.158  -3.921  1.00  0.00    -0.030 A 
ATOM      9  C   UNL     1      -2.341  -0.413  -5.115  1.00  0.00     0.006 A 
ATOM     10  C   UNL     1      -2.373  -0.160  -2.723  1.00  0.00     0.006 A 
ATOM     11  C   UNL     1      -3.713  -0.686  -5.105  1.00  0.00     0.014 A 
ATOM     12  C   UNL     1      -3.743  -0.432  -2.716  1.00  0.00     0.014 A 
BRANCH   8  13
ATOM     13  C   UNL     1      -0.158   0.173  -3.976  1.00  0.00     0.119 C 
ATOM     14  C   UNL     1       1.117  -0.004  -0.034  1.00  0.00     0.075 C 
ATOM     15  C   UNL     1       0.846   0.540  -1.413  1.00  0.00     0.074 C 
ATOM     16  N   UNL     1       0.688   1.819  -1.540  1.00  0.00    -0.227 NA
ATOM     17  S   UNL     1       0.838  -0.664  -2.696  1.00  0.00    -0.098 SA
ATOM     18  C   UNL     1       0.371   2.311  -2.762  1.00  0.00     0.161 A 
ATOM     19  C   UNL     1      -0.066   1.647  -3.886  1.00  0.00     0.038 A 
ATOM     20  N   UNL     1       0.340   3.662  -3.073  1.00  0.00    -0.215 N 
ATOM     21  C   UNL     1      -0.388   2.670  -4.814  1.00  0.00     0.067 A 
ATOM     22  N   UNL     1      -0.246   3.888  -4.278  1.00  0.00    -0.171 NA
ATOM     23  C   UNL     1      -0.871   2.535  -6.212  1.00  0.00     0.069 C 
BRANCH  20  24
ATOM     24  C   UNL     1       0.876   4.732  -2.317  1.00  0.00     0.067 A 
ATOM     25  C   UNL     1       2.068   4.546  -1.598  1.00  0.00     0.031 A 
ATOM     26  C   UNL     1       0.229   5.974  -2.310  1.00  0.00     0.031 A 
ATOM     27  C   UNL     1       2.608   5.604  -0.870  1.00  0.00     0.041 A 
ATOM     28  C   UNL     1       0.751   7.013  -1.538  1.00  0.00     0.041 A 
ATOM     29  C   UNL     1       1.937   6.821  -0.833  1.00  0.00     0.123 A 
ATOM     30  F   UNL     1       2.444   7.827  -0.108  1.00  0.00    -0.207 F 
ENDBRANCH  20  24
ENDBRANCH   8  13
ENDBRANCH   4   7
ENDBRANCH   2   3
ENDBRANCH   1   2
BRANCH   1  31
ATOM     31  C   UNL     1      -7.568  -1.913   0.036  1.00  0.00     0.118 C 
BRANCH  31  32
ATOM     32  N   UNL     1      -7.751  -3.246   0.608  1.00  0.00    -0.352 N 
ATOM     33  C   UNL     1      -8.915  -3.818   1.090  1.00  0.00     0.251 C 
ATOM     34  H   UNL     1      -6.944  -3.808   0.655  1.00  0.00     0.163 HD
ATOM     35  O   UNL     1      -8.884  -4.771   1.846  1.00  0.00    -0.269 OA
BRANCH  33  36
ATOM     36  C   UNL     1     -10.199  -3.236   0.666  1.00  0.00     0.039 A 
ATOM     37  C   UNL     1     -11.229  -3.009   1.583  1.00  0.00     0.014 A 
ATOM     38  C   UNL     1     -10.327  -2.857  -0.665  1.00  0.00     0.014 A 
ATOM     39  C   UNL     1     -12.357  -2.309   1.162  1.00  0.00     0.010 A 
ATOM     40  C   UNL     1     -11.353  -2.026  -1.030  1.00  0.00     0.010 A 
ATOM     41  C   UNL     1     -12.401  -1.796  -0.143  1.00  0.00    -0.014 A 
BRANCH  41  42
ATOM     42  C   UNL     1     -13.497  -0.938  -0.579  1.00  0.00     0.031 A 
ATOM     43  C   UNL     1     -13.749   0.270   0.261  1.00  0.00     0.074 A 
ATOM     44  C   UNL     1     -14.086  -1.083  -1.786  1.00  0.00     0.049 A 
ATOM     45  N   UNL     1     -14.819   0.571   0.920  1.00  0.00    -0.248 NA
ATOM     46  C   UNL     1     -12.640   1.217   0.467  1.00  0.00     0.031 C 
ATOM     47  C   UNL     1     -13.745  -2.010  -2.873  1.00  0.00     0.029 A 
ATOM     48  N   UNL     1     -15.066  -0.326  -2.344  1.00  0.00    -0.354 N 
ATOM     49  C   UNL     1     -14.590   1.822   1.491  1.00  0.00     0.074 A 
ATOM     50  C   UNL     1     -13.191   2.106   1.297  1.00  0.00     0.031 C 
ATOM     51  C   UNL     1     -14.327  -1.599  -4.020  1.00  0.00     0.029 A 
ATOM     52  C   UNL     1     -15.222  -0.501  -3.712  1.00  0.00     0.049 A 
ATOM     53  H   UNL     1     -15.621   0.297  -1.820  1.00  0.00     0.167 HD
ATOM     54  C   UNL     1     -15.611   2.617   1.918  1.00  0.00     0.037 A 
ATOM     55  C   UNL     1     -16.015   0.229  -4.532  1.00  0.00     0.037 A 
ATOM     56  C   UNL     1     -16.844   1.885   2.022  1.00  0.00     0.049 A 
ATOM     57  C   UNL     1     -17.020   0.905  -3.674  1.00  0.00     0.074 A 
ATOM     58  C   UNL     1     -17.263   0.803   2.772  1.00  0.00     0.029 A 
ATOM     59  N   UNL     1     -17.747   1.998   0.994  1.00  0.00    -0.354 N 
ATOM     60  N   UNL     1     -17.958   0.278  -3.022  1.00  0.00    -0.248 NA
ATOM     61  C   UNL     1     -16.698   2.236  -3.182  1.00  0.00     0.031 C 
ATOM     62  C   UNL     1     -18.067   0.033   1.881  1.00  0.00     0.029 A 
ATOM     63  C   UNL     1     -18.146   0.725   0.671  1.00  0.00     0.049 A 
ATOM     64  H   UNL     1     -18.050   2.832   0.569  1.00  0.00     0.167 HD
ATOM     65  C   UNL     1     -18.043   0.936  -1.804  1.00  0.00     0.074 A 
ATOM     66  C   UNL     1     -17.310   2.186  -1.996  1.00  0.00     0.031 C 
ATOM     67  C   UNL     1     -18.448   0.287  -0.673  1.00  0.00     0.037 A 
BRANCH  54  68
ATOM     68  C   UNL     1     -15.572   4.121   1.953  1.00  0.00     0.057 A 
ATOM     69  C   UNL     1     -14.758   4.898   1.106  1.00  0.00     0.134 A 
ATOM     70  C   UNL     1     -16.559   4.835   2.656  1.00  0.00     0.134 A 
ATOM     71  F   UNL     1     -13.853   4.344   0.288  1.00  0.00    -0.206 F 
ATOM     72  C   UNL     1     -14.901   6.282   0.977  1.00  0.00     0.040 A 
ATOM     73  C   UNL     1     -16.745   6.214   2.496  1.00  0.00     0.040 A 
ATOM     74  F   UNL     1     -17.418   4.202   3.469  1.00  0.00    -0.206 F 
ATOM     75  C   UNL     1     -15.914   6.943   1.654  1.00  0.00     0.006 A 
ENDBRANCH  54  68
BRANCH  55  76
ATOM     76  C   UNL     1     -15.783   0.616  -5.941  1.00  0.00     0.057 A 
ATOM     77  C   UNL     1     -14.486   0.754  -6.467  1.00  0.00     0.134 A 
ATOM     78  C   UNL     1     -16.823   1.139  -6.721  1.00  0.00     0.134 A 
ATOM     79  F   UNL     1     -13.411   0.344  -5.779  1.00  0.00    -0.206 F 
ATOM     80  C   UNL     1     -14.236   1.405  -7.679  1.00  0.00     0.040 A 
ATOM     81  C   UNL     1     -16.585   1.800  -7.934  1.00  0.00     0.040 A 
ATOM     82  F   UNL     1     -18.092   1.081  -6.291  1.00  0.00    -0.206 F 
ATOM     83  C   UNL     1     -15.286   1.949  -8.408  1.00  0.00     0.006 A 
ENDBRANCH  55  76
BRANCH  67  84
ATOM     84  C   UNL     1     -19.013  -1.102  -0.812  1.00  0.00     0.057 A 
ATOM     85  C   UNL     1     -20.283  -1.366  -0.288  1.00  0.00     0.134 A 
ATOM     86  C   UNL     1     -18.279  -2.208  -1.266  1.00  0.00     0.134 A 
ATOM     87  F   UNL     1     -21.026  -0.368   0.217  1.00  0.00    -0.206 F 
ATOM     88  C   UNL     1     -20.797  -2.664  -0.212  1.00  0.00     0.040 A 
ATOM     89  C   UNL     1     -18.793  -3.508  -1.227  1.00  0.00     0.040 A 
ATOM     90  F   UNL     1     -17.020  -2.077  -1.696  1.00  0.00    -0.206 F 
ATOM     91  C   UNL     1     -20.053  -3.740  -0.688  1.00  0.00     0.006 A 
ENDBRANCH  67  84
ENDBRANCH  41  42
ENDBRANCH  33  36
ENDBRANCH  31  32
ENDBRANCH   1  31
TORSDOF 12
