REMARK SMILES O=C(NCCCNC(=O)C1CCN(C2=[NH+]C(Cl)=[NH+]C3=[NH+]C=N[C@@H]32)CC1)c1ccc(-c2c3nc(c(-c4c(F)cccc4F)c4ccc([nH]4)c(-c4c(F)cccc4F)c4nc(c(-c5c(F)cccc5F)c5ccc2[nH]5)C=C4)C=C3)cc1
REMARK SMILES IDX 4 1 3 2 1 3 2 4 26 6 27 7 79 8 28 9 78 10 29 11 30 12 31 13
REMARK SMILES IDX 72 14 32 15 77 16 71 17 73 18 33 19 76 20 70 21 69 22 34 24
REMARK SMILES IDX 60 25 43 26 59 27 44 28 47 29 58 30 74 31 45 32 46 33 57 35
REMARK SMILES IDX 75 36 48 37 35 38 36 39 41 40 37 41 38 42 40 43 42 44 39 45
REMARK SMILES IDX 61 46 62 47 67 48 63 49 64 50 66 51 68 52 65 53 49 54 50 55
REMARK SMILES IDX 55 56 51 57 52 58 54 59 56 60 53 61 5 62 6 63 7 64 8 65 9 67
REMARK SMILES IDX 10 68 11 69 25 70 12 71 24 72 13 73 14 74 15 75 23 76 16 77
REMARK SMILES IDX 19 79 22 80 17 81 18 82 20 83 21 84
REMARK H PARENT 3 5 73 23 47 34 7 66 15 78 18 85 20 86
REMARK Flexibility Score: inf
ROOT
ATOM      1  C   UNL     1       4.353  -1.065   0.328  1.00  0.00     0.118 C 
ENDROOT
BRANCH   1   2
ATOM      2  N   UNL     1       2.992  -1.178  -0.154  1.00  0.00    -0.352 N 
ATOM      3  O   UNL     1       0.909  -0.751  -0.769  1.00  0.00    -0.269 OA
ATOM      4  C   UNL     1       1.944  -0.306  -0.265  1.00  0.00     0.251 C 
ATOM      5  H   UNL     1       2.772  -2.083  -0.473  1.00  0.00     0.163 HD
BRANCH   4   6
ATOM      6  C   UNL     1       1.952   1.103   0.217  1.00  0.00     0.039 A 
ATOM      7  C   UNL     1       3.090   1.887   0.414  1.00  0.00     0.014 A 
ATOM      8  C   UNL     1       0.693   1.689   0.438  1.00  0.00     0.014 A 
ATOM      9  C   UNL     1       2.978   3.201   0.880  1.00  0.00     0.010 A 
ATOM     10  C   UNL     1       0.576   3.011   0.866  1.00  0.00     0.010 A 
ATOM     11  C   UNL     1       1.722   3.769   1.110  1.00  0.00    -0.014 A 
BRANCH  11  12
ATOM     12  C   UNL     1       1.649   5.188   1.484  1.00  0.00     0.031 A 
ATOM     13  C   UNL     1       2.128   6.192   0.481  1.00  0.00     0.074 A 
ATOM     14  C   UNL     1       0.981   5.654   2.559  1.00  0.00     0.049 A 
ATOM     15  N   UNL     1       2.944   7.187   0.652  1.00  0.00    -0.248 NA
ATOM     16  C   UNL     1       1.606   6.079  -0.890  1.00  0.00     0.031 C 
ATOM     17  C   UNL     1       0.125   4.902   3.477  1.00  0.00     0.029 A 
ATOM     18  N   UNL     1       0.830   6.950   2.975  1.00  0.00    -0.354 N 
ATOM     19  C   UNL     1       2.928   7.914  -0.539  1.00  0.00     0.074 A 
ATOM     20  C   UNL     1       2.135   7.154  -1.474  1.00  0.00     0.031 C 
ATOM     21  C   UNL     1      -0.619   5.771   4.195  1.00  0.00     0.029 A 
ATOM     22  C   UNL     1      -0.206   7.129   3.876  1.00  0.00     0.049 A 
ATOM     23  H   UNL     1       1.404   7.686   2.662  1.00  0.00     0.167 HD
ATOM     24  C   UNL     1       3.446   9.167  -0.661  1.00  0.00     0.037 A 
ATOM     25  C   UNL     1      -0.740   8.301   4.290  1.00  0.00     0.037 A 
ATOM     26  C   UNL     1       4.343   9.512   0.403  1.00  0.00     0.049 A 
ATOM     27  C   UNL     1       0.209   9.396   3.992  1.00  0.00     0.074 A 
ATOM     28  C   UNL     1       5.533   9.010   0.891  1.00  0.00     0.029 A 
ATOM     29  N   UNL     1       3.940  10.447   1.321  1.00  0.00    -0.354 N 
ATOM     30  N   UNL     1       1.326   9.613   4.625  1.00  0.00    -0.248 NA
ATOM     31  C   UNL     1       0.039  10.144   2.755  1.00  0.00     0.031 C 
ATOM     32  C   UNL     1       5.537   9.327   2.280  1.00  0.00     0.029 A 
ATOM     33  C   UNL     1       4.335   9.982   2.547  1.00  0.00     0.049 A 
ATOM     34  H   UNL     1       3.461  11.287   1.135  1.00  0.00     0.167 HD
ATOM     35  C   UNL     1       2.155  10.204   3.687  1.00  0.00     0.074 A 
ATOM     36  C   UNL     1       1.269  10.641   2.618  1.00  0.00     0.031 C 
ATOM     37  C   UNL     1       3.507  10.027   3.728  1.00  0.00     0.037 A 
BRANCH  24  38
ATOM     38  C   UNL     1       2.947  10.202  -1.634  1.00  0.00     0.057 A 
ATOM     39  C   UNL     1       3.747  11.309  -1.965  1.00  0.00     0.134 A 
ATOM     40  C   UNL     1       1.602  10.281  -2.043  1.00  0.00     0.134 A 
ATOM     41  F   UNL     1       5.033  11.366  -1.587  1.00  0.00    -0.206 F 
ATOM     42  C   UNL     1       3.238  12.429  -2.635  1.00  0.00     0.040 A 
ATOM     43  C   UNL     1       1.094  11.374  -2.753  1.00  0.00     0.040 A 
ATOM     44  F   UNL     1       0.706   9.347  -1.695  1.00  0.00    -0.206 F 
ATOM     45  C   UNL     1       1.907  12.463  -3.033  1.00  0.00     0.006 A 
ENDBRANCH  24  38
BRANCH  25  46
ATOM     46  C   UNL     1      -2.109   8.568   4.778  1.00  0.00     0.057 A 
ATOM     47  C   UNL     1      -2.397   9.687   5.571  1.00  0.00     0.134 A 
ATOM     48  C   UNL     1      -3.217   7.854   4.291  1.00  0.00     0.134 A 
ATOM     49  F   UNL     1      -1.410  10.464   6.039  1.00  0.00    -0.206 F 
ATOM     50  C   UNL     1      -3.711  10.072   5.865  1.00  0.00     0.040 A 
ATOM     51  C   UNL     1      -4.533   8.217   4.588  1.00  0.00     0.040 A 
ATOM     52  F   UNL     1      -3.059   6.824   3.445  1.00  0.00    -0.206 F 
ATOM     53  C   UNL     1      -4.784   9.336   5.372  1.00  0.00     0.006 A 
ENDBRANCH  25  46
BRANCH  37  54
ATOM     54  C   UNL     1       4.107   9.506   4.998  1.00  0.00     0.057 A 
ATOM     55  C   UNL     1       3.840   8.230   5.513  1.00  0.00     0.134 A 
ATOM     56  C   UNL     1       5.091  10.262   5.645  1.00  0.00     0.134 A 
ATOM     57  F   UNL     1       2.994   7.396   4.893  1.00  0.00    -0.206 F 
ATOM     58  C   UNL     1       4.484   7.751   6.657  1.00  0.00     0.040 A 
ATOM     59  C   UNL     1       5.767   9.781   6.769  1.00  0.00     0.040 A 
ATOM     60  F   UNL     1       5.445  11.466   5.167  1.00  0.00    -0.206 F 
ATOM     61  C   UNL     1       5.454   8.526   7.286  1.00  0.00     0.006 A 
ENDBRANCH  37  54
ENDBRANCH  11  12
ENDBRANCH   4   6
ENDBRANCH   1   2
BRANCH   1  62
ATOM     62  C   UNL     1       4.480  -0.867   1.837  1.00  0.00     0.042 C 
BRANCH  62  63
ATOM     63  C   UNL     1       4.008  -2.058   2.674  1.00  0.00     0.117 C 
BRANCH  63  64
ATOM     64  N   UNL     1       4.856  -3.221   2.487  1.00  0.00    -0.356 N 
ATOM     65  C   UNL     1       5.806  -3.869   3.188  1.00  0.00     0.223 C 
ATOM     66  H   UNL     1       4.693  -3.650   1.616  1.00  0.00     0.163 HD
ATOM     67  O   UNL     1       6.346  -4.791   2.556  1.00  0.00    -0.275 OA
BRANCH  65  68
ATOM     68  C   UNL     1       6.196  -3.652   4.657  1.00  0.00     0.087 C 
ATOM     69  C   UNL     1       5.895  -2.350   5.391  1.00  0.00     0.068 C 
ATOM     70  C   UNL     1       7.715  -3.915   4.797  1.00  0.00     0.068 C 
ATOM     71  C   UNL     1       6.718  -1.190   4.858  1.00  0.00     0.277 C 
ATOM     72  C   UNL     1       8.527  -2.756   4.208  1.00  0.00     0.277 C 
ATOM     73  N   UNL     1       8.141  -1.511   4.875  1.00  0.00    -0.230 N 
ATOM     74  C   UNL     1       9.089  -0.587   5.288  1.00  0.00     0.383 C 
ATOM     75  N   UNL     1      10.236  -0.460   4.677  1.00  0.00    -0.155 N 
ATOM     76  C   UNL     1       8.788   0.321   6.467  1.00  0.00     0.523 C 
ATOM     77  C   UNL     1      11.117   0.500   5.114  1.00  0.00     0.414 C 
ATOM     78  H   UNL     1      10.466  -1.042   3.917  1.00  0.00     0.367 HD
ATOM     79  C   UNL     1      10.104   0.641   7.056  1.00  0.00     0.389 C 
ATOM     80  N   UNL     1       8.128  -0.368   7.600  1.00  0.00     0.003 NA
ATOM     81  Cl  UNL     1      12.319   0.969   3.991  1.00  0.00     0.028 Cl
ATOM     82  N   UNL     1      11.111   1.076   6.275  1.00  0.00    -0.155 N 
ATOM     83  N   UNL     1      10.192   0.353   8.309  1.00  0.00    -0.169 N 
ATOM     84  C   UNL     1       8.989  -0.253   8.570  1.00  0.00     0.532 C 
ATOM     85  H   UNL     1      11.767   1.754   6.554  1.00  0.00     0.367 HD
ATOM     86  H   UNL     1      10.939   0.525   8.927  1.00  0.00     0.365 HD
ENDBRANCH  65  68
ENDBRANCH  63  64
ENDBRANCH  62  63
ENDBRANCH   1  62
TORSDOF 10
