REMARK SMILES O=C(NCCCNC(=O)c1ccccc1-c1ccccc1C(=O)N1CC[NH+](Cc2ccc3c(c2)OCO3)CC1)c1ccc(-c2c3nc(c(-c4c(F)cccc4F)c4ccc([nH]4)c(-c4c(F)cccc4F)c4nc(c(-c5c(F)cccc5F)c5ccc2[nH]5)C=C4)C=C3)cc1
REMARK SMILES IDX 6 1 5 2 4 3 3 4 1 5 2 6 40 8 41 9 93 10 42 11 92 12 43 13
REMARK SMILES IDX 44 14 45 15 86 16 46 17 91 18 85 19 87 20 47 21 90 22 84 23
REMARK SMILES IDX 83 24 48 26 74 27 57 28 73 29 58 30 61 31 72 32 88 33 59 34
REMARK SMILES IDX 60 35 71 37 89 38 62 39 49 40 50 41 55 42 51 43 52 44 54 45
REMARK SMILES IDX 56 46 53 47 75 48 76 49 81 50 77 51 78 52 80 53 82 54 79 55
REMARK SMILES IDX 63 56 64 57 69 58 65 59 66 60 68 61 70 62 67 63 7 64 8 65
REMARK SMILES IDX 9 67 10 68 11 69 15 70 12 71 14 72 13 73 16 74 17 75 21 76
REMARK SMILES IDX 18 77 20 78 19 79 22 80 23 81 24 82 25 83 39 84 26 85 38 86
REMARK SMILES IDX 27 87 28 89 29 90 30 91 34 92 31 93 33 94 32 95 35 96 37 97
REMARK SMILES IDX 36 98
REMARK H PARENT 3 7 87 25 61 36 7 66 27 88
REMARK Flexibility Score: inf
ROOT
ATOM      1  C   UNL     1       4.160   2.939   0.548  1.00  0.00     0.118 C 
ENDROOT
BRANCH   1   2
ATOM      2  C   UNL     1       4.768   1.676  -0.017  1.00  0.00     0.042 C 
BRANCH   2   3
ATOM      3  C   UNL     1       4.470   0.509   0.906  1.00  0.00     0.118 C 
BRANCH   3   4
ATOM      4  N   UNL     1       3.027   0.279   0.999  1.00  0.00    -0.352 N 
ATOM      5  O   UNL     1       1.032  -0.254   0.059  1.00  0.00    -0.269 OA
ATOM      6  C   UNL     1       2.236  -0.436   0.130  1.00  0.00     0.251 C 
ATOM      7  H   UNL     1       2.570   0.682   1.772  1.00  0.00     0.163 HD
BRANCH   6   8
ATOM      8  C   UNL     1       2.911  -1.430  -0.722  1.00  0.00     0.039 A 
ATOM      9  C   UNL     1       3.923  -2.197  -0.145  1.00  0.00     0.014 A 
ATOM     10  C   UNL     1       2.590  -1.567  -2.071  1.00  0.00     0.014 A 
ATOM     11  C   UNL     1       4.760  -2.934  -0.950  1.00  0.00     0.010 A 
ATOM     12  C   UNL     1       3.315  -2.473  -2.847  1.00  0.00     0.010 A 
ATOM     13  C   UNL     1       4.406  -3.156  -2.285  1.00  0.00    -0.014 A 
BRANCH  13  14
ATOM     14  C   UNL     1       5.090  -4.266  -2.980  1.00  0.00     0.031 A 
ATOM     15  C   UNL     1       5.901  -4.042  -4.214  1.00  0.00     0.074 A 
ATOM     16  C   UNL     1       4.976  -5.489  -2.421  1.00  0.00     0.049 A 
ATOM     17  N   UNL     1       6.534  -4.927  -4.938  1.00  0.00    -0.248 NA
ATOM     18  C   UNL     1       6.013  -2.663  -4.713  1.00  0.00     0.031 C 
ATOM     19  C   UNL     1       4.196  -5.795  -1.212  1.00  0.00     0.029 A 
ATOM     20  N   UNL     1       5.526  -6.693  -2.762  1.00  0.00    -0.354 N 
ATOM     21  C   UNL     1       7.092  -4.223  -5.995  1.00  0.00     0.074 A 
ATOM     22  C   UNL     1       6.722  -2.834  -5.823  1.00  0.00     0.031 C 
ATOM     23  C   UNL     1       4.370  -7.078  -0.881  1.00  0.00     0.029 A 
ATOM     24  C   UNL     1       5.168  -7.714  -1.915  1.00  0.00     0.049 A 
ATOM     25  H   UNL     1       6.119  -6.816  -3.538  1.00  0.00     0.167 HD
ATOM     26  C   UNL     1       7.837  -4.712  -7.013  1.00  0.00     0.037 A 
ATOM     27  C   UNL     1       5.403  -9.033  -1.992  1.00  0.00     0.037 A 
ATOM     28  C   UNL     1       8.207  -6.099  -7.141  1.00  0.00     0.049 A 
ATOM     29  C   UNL     1       6.195  -9.536  -3.157  1.00  0.00     0.074 A 
ATOM     30  C   UNL     1       9.010  -6.688  -8.102  1.00  0.00     0.029 A 
ATOM     31  N   UNL     1       7.791  -7.113  -6.290  1.00  0.00    -0.354 N 
ATOM     32  N   UNL     1       6.755  -8.854  -4.126  1.00  0.00    -0.248 NA
ATOM     33  C   UNL     1       6.374 -10.988  -3.253  1.00  0.00     0.031 C 
ATOM     34  C   UNL     1       9.025  -8.066  -7.871  1.00  0.00     0.029 A 
ATOM     35  C   UNL     1       8.282  -8.331  -6.731  1.00  0.00     0.049 A 
ATOM     36  H   UNL     1       7.230  -6.986  -5.491  1.00  0.00     0.167 HD
ATOM     37  C   UNL     1       7.359  -9.792  -4.946  1.00  0.00     0.074 A 
ATOM     38  C   UNL     1       7.128 -11.088  -4.337  1.00  0.00     0.031 C 
ATOM     39  C   UNL     1       8.032  -9.604  -6.107  1.00  0.00     0.037 A 
BRANCH  26  40
ATOM     40  C   UNL     1       8.280  -3.767  -8.090  1.00  0.00     0.057 A 
ATOM     41  C   UNL     1       9.300  -2.830  -7.889  1.00  0.00     0.134 A 
ATOM     42  C   UNL     1       7.742  -3.871  -9.380  1.00  0.00     0.134 A 
ATOM     43  F   UNL     1       9.850  -2.672  -6.676  1.00  0.00    -0.206 F 
ATOM     44  C   UNL     1       9.771  -2.031  -8.934  1.00  0.00     0.040 A 
ATOM     45  C   UNL     1       8.220  -3.094 -10.437  1.00  0.00     0.040 A 
ATOM     46  F   UNL     1       6.764  -4.751  -9.641  1.00  0.00    -0.206 F 
ATOM     47  C   UNL     1       9.239  -2.172 -10.215  1.00  0.00     0.006 A 
ENDBRANCH  26  40
BRANCH  27  48
ATOM     48  C   UNL     1       4.816  -9.957  -0.990  1.00  0.00     0.057 A 
ATOM     49  C   UNL     1       5.623 -10.710  -0.133  1.00  0.00     0.134 A 
ATOM     50  C   UNL     1       3.428 -10.119  -0.876  1.00  0.00     0.134 A 
ATOM     51  F   UNL     1       6.959 -10.608  -0.199  1.00  0.00    -0.206 F 
ATOM     52  C   UNL     1       5.075 -11.614   0.779  1.00  0.00     0.040 A 
ATOM     53  C   UNL     1       2.865 -10.989   0.057  1.00  0.00     0.040 A 
ATOM     54  F   UNL     1       2.595  -9.415  -1.658  1.00  0.00    -0.206 F 
ATOM     55  C   UNL     1       3.691 -11.751   0.878  1.00  0.00     0.006 A 
ENDBRANCH  27  48
BRANCH  39  56
ATOM     56  C   UNL     1       8.570 -10.833  -6.774  1.00  0.00     0.057 A 
ATOM     57  C   UNL     1       7.726 -11.756  -7.403  1.00  0.00     0.134 A 
ATOM     58  C   UNL     1       9.947 -11.083  -6.805  1.00  0.00     0.134 A 
ATOM     59  F   UNL     1       6.395 -11.582  -7.387  1.00  0.00    -0.206 F 
ATOM     60  C   UNL     1       8.231 -12.900  -8.019  1.00  0.00     0.040 A 
ATOM     61  C   UNL     1      10.467 -12.206  -7.446  1.00  0.00     0.040 A 
ATOM     62  F   UNL     1      10.808 -10.233  -6.225  1.00  0.00    -0.206 F 
ATOM     63  C   UNL     1       9.607 -13.122  -8.049  1.00  0.00     0.006 A 
ENDBRANCH  39  56
ENDBRANCH  13  14
ENDBRANCH   6   8
ENDBRANCH   3   4
ENDBRANCH   2   3
ENDBRANCH   1   2
BRANCH   1  64
ATOM     64  N   UNL     1       4.713   3.167   1.865  1.00  0.00    -0.352 N 
ATOM     65  C   UNL     1       5.897   3.815   2.050  1.00  0.00     0.251 C 
ATOM     66  H   UNL     1       4.219   2.842   2.653  1.00  0.00     0.163 HD
ATOM     67  O   UNL     1       6.765   3.311   2.752  1.00  0.00    -0.269 OA
BRANCH  65  68
ATOM     68  C   UNL     1       6.072   5.121   1.362  1.00  0.00     0.047 A 
ATOM     69  C   UNL     1       7.365   5.389   0.884  1.00  0.00     0.014 A 
ATOM     70  C   UNL     1       5.020   6.064   1.210  1.00  0.00    -0.005 A 
ATOM     71  C   UNL     1       7.630   6.574   0.207  1.00  0.00     0.001 A 
ATOM     72  C   UNL     1       5.322   7.245   0.499  1.00  0.00     0.009 A 
ATOM     73  C   UNL     1       6.606   7.494   0.002  1.00  0.00     0.001 A 
BRANCH  70  74
ATOM     74  C   UNL     1       3.618   5.856   1.677  1.00  0.00    -0.005 A 
ATOM     75  C   UNL     1       2.629   5.809   0.655  1.00  0.00     0.009 A 
ATOM     76  C   UNL     1       3.205   5.540   2.997  1.00  0.00     0.047 A 
ATOM     77  C   UNL     1       1.324   5.371   0.891  1.00  0.00     0.001 A 
ATOM     78  C   UNL     1       1.868   5.120   3.215  1.00  0.00     0.014 A 
ATOM     79  C   UNL     1       0.946   5.013   2.173  1.00  0.00     0.001 A 
BRANCH  76  80
ATOM     80  C   UNL     1       4.107   5.364   4.189  1.00  0.00     0.254 C 
ATOM     81  O   UNL     1       3.762   4.556   5.055  1.00  0.00    -0.269 OA
ATOM     82  N   UNL     1       5.340   6.000   4.258  1.00  0.00    -0.327 N 
ATOM     83  C   UNL     1       6.379   5.355   5.050  1.00  0.00     0.181 C 
ATOM     84  C   UNL     1       5.512   7.439   4.123  1.00  0.00     0.181 C 
ATOM     85  C   UNL     1       7.799   5.686   4.545  1.00  0.00     0.284 C 
ATOM     86  C   UNL     1       6.952   7.854   3.727  1.00  0.00     0.284 C 
ATOM     87  N   UNL     1       8.097   7.101   4.263  1.00  0.00    -0.328 N 
ATOM     88  H   UNL     1       8.745   7.072   3.475  1.00  0.00     0.348 HD
BRANCH  87  89
ATOM     89  C   UNL     1       8.922   7.787   5.265  1.00  0.00     0.299 C 
BRANCH  89  90
ATOM     90  C   UNL     1       8.230   7.894   6.605  1.00  0.00     0.010 A 
ATOM     91  C   UNL     1       7.258   8.903   6.798  1.00  0.00     0.013 A 
ATOM     92  C   UNL     1       8.309   6.804   7.484  1.00  0.00     0.060 A 
ATOM     93  C   UNL     1       6.215   8.706   7.700  1.00  0.00     0.051 A 
ATOM     94  C   UNL     1       7.230   6.605   8.308  1.00  0.00     0.166 A 
ATOM     95  C   UNL     1       6.190   7.506   8.376  1.00  0.00     0.165 A 
ATOM     96  O   UNL     1       6.936   5.429   8.930  1.00  0.00    -0.454 OA
ATOM     97  O   UNL     1       5.118   6.990   9.040  1.00  0.00    -0.454 OA
ATOM     98  C   UNL     1       5.513   5.601   9.097  1.00  0.00     0.468 C 
ENDBRANCH  89  90
ENDBRANCH  87  89
ENDBRANCH  76  80
ENDBRANCH  70  74
ENDBRANCH  65  68
ENDBRANCH   1  64
TORSDOF 14
