REMARK SMILES Cc1ccccc1CN1C(=O)[C@H](CC(=O)NCCCNC(=O)c2ccc(-c3c4nc(c(-c5c(F)cccc5F)c5ccc([nH]5)c(-c5c(F)cccc5F)c5nc(c(-c6c(F)cccc6F)c6ccc3[nH]6)C=C5)C=C4)cc2)n2c(nc3ccccc32)[C@H]1C
REMARK SMILES IDX 17 1 16 2 14 3 15 4 13 6 12 7 9 8 10 9 86 10 11 11 78 12
REMARK SMILES IDX 87 13 77 14 79 15 85 16 80 17 84 18 81 19 83 20 82 21 8 22
REMARK SMILES IDX 7 23 1 24 2 25 3 26 4 27 6 28 5 29 18 30 19 31 20 32 21 33
REMARK SMILES IDX 22 35 23 36 24 37 76 38 25 39 75 40 26 41 27 42 28 43 69 44
REMARK SMILES IDX 29 45 74 46 68 47 70 48 30 49 73 50 67 51 66 52 31 54 57 55
REMARK SMILES IDX 40 56 56 57 41 58 44 59 55 60 71 61 42 62 43 63 54 65 72 66
REMARK SMILES IDX 45 67 32 68 33 69 38 70 34 71 35 72 37 73 39 74 36 75 58 76
REMARK SMILES IDX 59 77 64 78 60 79 61 80 63 81 65 82 62 83 46 84 47 85 52 86
REMARK SMILES IDX 48 87 49 88 51 89 53 90 50 91
REMARK H PARENT 16 5 20 34 70 53 44 64
REMARK Flexibility Score: inf
ROOT
ATOM      1  C   UNL     1       4.379   5.156  -2.463  1.00  0.00     0.117 C 
ENDROOT
BRANCH   1   2
ATOM      2  N   UNL     1       4.436   4.056  -3.424  1.00  0.00    -0.356 N 
ATOM      3  C   UNL     1       3.456   3.438  -4.140  1.00  0.00     0.222 C 
ATOM      4  O   UNL     1       3.759   2.407  -4.748  1.00  0.00    -0.275 OA
ATOM      5  H   UNL     1       5.340   3.700  -3.580  1.00  0.00     0.163 HD
BRANCH   3   6
ATOM      6  C   UNL     1       2.039   3.982  -4.228  1.00  0.00     0.135 C 
BRANCH   6   7
ATOM      7  C   UNL     1       1.059   3.034  -3.514  1.00  0.00     0.187 C 
ATOM      8  N   UNL     1      -0.039   2.916  -1.308  1.00  0.00    -0.327 N 
ATOM      9  C   UNL     1       1.048   3.365  -2.025  1.00  0.00     0.247 C 
ATOM     10  C   UNL     1      -1.284   3.549  -1.752  1.00  0.00     0.149 C 
ATOM     11  O   UNL     1       1.943   3.992  -1.459  1.00  0.00    -0.272 OA
ATOM     12  C   UNL     1      -1.411   3.313  -3.233  1.00  0.00     0.133 A 
ATOM     13  C   UNL     1      -2.561   3.157  -1.023  1.00  0.00     0.040 C 
ATOM     14  N   UNL     1      -0.307   3.071  -4.028  1.00  0.00    -0.313 N 
ATOM     15  N   UNL     1      -2.517   3.301  -3.945  1.00  0.00    -0.231 NA
ATOM     16  C   UNL     1      -0.760   2.709  -5.275  1.00  0.00     0.069 A 
ATOM     17  C   UNL     1      -2.140   2.896  -5.197  1.00  0.00     0.089 A 
ATOM     18  C   UNL     1      -0.136   2.238  -6.436  1.00  0.00     0.028 A 
ATOM     19  C   UNL     1      -2.945   2.643  -6.316  1.00  0.00     0.030 A 
ATOM     20  C   UNL     1      -0.959   1.980  -7.542  1.00  0.00     0.002 A 
ATOM     21  C   UNL     1      -2.339   2.183  -7.488  1.00  0.00     0.002 A 
BRANCH   8  22
ATOM     22  C   UNL     1       0.187   2.510   0.083  1.00  0.00     0.156 C 
BRANCH  22  23
ATOM     23  C   UNL     1      -0.070   1.025   0.259  1.00  0.00    -0.026 A 
ATOM     24  C   UNL     1       2.298   0.271  -0.453  1.00  0.00     0.044 C 
ATOM     25  C   UNL     1       0.860   0.017  -0.086  1.00  0.00    -0.046 A 
ATOM     26  C   UNL     1       0.456  -1.332  -0.036  1.00  0.00     0.004 A 
ATOM     27  C   UNL     1      -0.832  -1.689   0.358  1.00  0.00     0.000 A 
ATOM     28  C   UNL     1      -1.339   0.632   0.724  1.00  0.00     0.006 A 
ATOM     29  C   UNL     1      -1.725  -0.706   0.756  1.00  0.00     0.000 A 
ENDBRANCH  22  23
ENDBRANCH   8  22
ENDBRANCH   6   7
ENDBRANCH   3   6
ENDBRANCH   1   2
BRANCH   1  30
ATOM     30  C   UNL     1       4.446   4.638  -1.015  1.00  0.00     0.042 C 
BRANCH  30  31
ATOM     31  C   UNL     1       5.813   4.760  -0.357  1.00  0.00     0.118 C 
BRANCH  31  32
ATOM     32  N   UNL     1       6.027   6.110   0.128  1.00  0.00    -0.352 N 
ATOM     33  C   UNL     1       7.101   6.750   0.683  1.00  0.00     0.251 C 
ATOM     34  H   UNL     1       5.234   6.686   0.040  1.00  0.00     0.163 HD
ATOM     35  O   UNL     1       6.846   7.782   1.308  1.00  0.00    -0.269 OA
BRANCH  33  36
ATOM     36  C   UNL     1       8.518   6.290   0.602  1.00  0.00     0.039 A 
ATOM     37  C   UNL     1       9.411   6.872   1.518  1.00  0.00     0.014 A 
ATOM     38  C   UNL     1       9.039   5.391  -0.331  1.00  0.00     0.014 A 
ATOM     39  C   UNL     1      10.764   6.513   1.544  1.00  0.00     0.010 A 
ATOM     40  C   UNL     1      10.396   5.017  -0.294  1.00  0.00     0.010 A 
ATOM     41  C   UNL     1      11.263   5.548   0.661  1.00  0.00    -0.014 A 
BRANCH  41  42
ATOM     42  C   UNL     1      12.576   4.947   0.995  1.00  0.00     0.031 A 
ATOM     43  C   UNL     1      12.390   3.604   1.660  1.00  0.00     0.074 A 
ATOM     44  C   UNL     1      13.722   4.940   0.263  1.00  0.00     0.049 A 
ATOM     45  N   UNL     1      12.072   2.557   0.964  1.00  0.00    -0.248 NA
ATOM     46  C   UNL     1      12.385   3.356   3.100  1.00  0.00     0.031 C 
ATOM     47  C   UNL     1      15.036   4.781   0.890  1.00  0.00     0.029 A 
ATOM     48  N   UNL     1      14.020   5.059  -1.096  1.00  0.00    -0.354 N 
ATOM     49  C   UNL     1      12.068   1.465   1.815  1.00  0.00     0.074 A 
ATOM     50  C   UNL     1      12.139   2.030   3.147  1.00  0.00     0.031 C 
ATOM     51  C   UNL     1      15.991   4.733  -0.058  1.00  0.00     0.029 A 
ATOM     52  C   UNL     1      15.360   4.720  -1.378  1.00  0.00     0.049 A 
ATOM     53  H   UNL     1      13.370   5.346  -1.778  1.00  0.00     0.167 HD
ATOM     54  C   UNL     1      12.232   0.200   1.311  1.00  0.00     0.037 A 
ATOM     55  C   UNL     1      15.973   4.224  -2.499  1.00  0.00     0.037 A 
ATOM     56  C   UNL     1      12.762   0.294  -0.028  1.00  0.00     0.049 A 
ATOM     57  C   UNL     1      15.002   3.786  -3.551  1.00  0.00     0.074 A 
ATOM     58  C   UNL     1      14.069   0.638  -0.261  1.00  0.00     0.029 A 
ATOM     59  N   UNL     1      12.037   0.478  -1.200  1.00  0.00    -0.354 N 
ATOM     60  N   UNL     1      14.659   2.539  -3.678  1.00  0.00    -0.248 NA
ATOM     61  C   UNL     1      14.156   4.678  -4.349  1.00  0.00     0.031 C 
ATOM     62  C   UNL     1      13.975   1.432  -1.381  1.00  0.00     0.029 A 
ATOM     63  C   UNL     1      12.807   1.229  -2.093  1.00  0.00     0.049 A 
ATOM     64  H   UNL     1      11.130   0.137  -1.373  1.00  0.00     0.167 HD
ATOM     65  C   UNL     1      13.322   2.577  -4.009  1.00  0.00     0.074 A 
ATOM     66  C   UNL     1      13.160   3.846  -4.702  1.00  0.00     0.031 C 
ATOM     67  C   UNL     1      12.353   1.859  -3.341  1.00  0.00     0.037 A 
BRANCH  54  68
ATOM     68  C   UNL     1      12.460  -1.071   2.080  1.00  0.00     0.057 A 
ATOM     69  C   UNL     1      13.387  -2.044   1.622  1.00  0.00     0.134 A 
ATOM     70  C   UNL     1      11.738  -1.425   3.219  1.00  0.00     0.134 A 
ATOM     71  F   UNL     1      14.150  -1.855   0.536  1.00  0.00    -0.206 F 
ATOM     72  C   UNL     1      13.581  -3.273   2.248  1.00  0.00     0.040 A 
ATOM     73  C   UNL     1      11.928  -2.660   3.862  1.00  0.00     0.040 A 
ATOM     74  F   UNL     1      10.809  -0.602   3.726  1.00  0.00    -0.206 F 
ATOM     75  C   UNL     1      12.845  -3.589   3.374  1.00  0.00     0.006 A 
ENDBRANCH  54  68
BRANCH  55  76
ATOM     76  C   UNL     1      17.323   3.554  -2.430  1.00  0.00     0.057 A 
ATOM     77  C   UNL     1      18.495   4.276  -2.653  1.00  0.00     0.134 A 
ATOM     78  C   UNL     1      17.515   2.193  -2.109  1.00  0.00     0.134 A 
ATOM     79  F   UNL     1      18.433   5.578  -2.968  1.00  0.00    -0.206 F 
ATOM     80  C   UNL     1      19.769   3.683  -2.556  1.00  0.00     0.040 A 
ATOM     81  C   UNL     1      18.771   1.592  -1.994  1.00  0.00     0.040 A 
ATOM     82  F   UNL     1      16.506   1.360  -1.878  1.00  0.00    -0.206 F 
ATOM     83  C   UNL     1      19.910   2.337  -2.221  1.00  0.00     0.006 A 
ENDBRANCH  55  76
BRANCH  67  84
ATOM     84  C   UNL     1      10.929   1.968  -3.793  1.00  0.00     0.057 A 
ATOM     85  C   UNL     1      10.591   1.889  -5.155  1.00  0.00     0.134 A 
ATOM     86  C   UNL     1       9.854   2.130  -2.909  1.00  0.00     0.134 A 
ATOM     87  F   UNL     1      11.538   1.681  -6.084  1.00  0.00    -0.206 F 
ATOM     88  C   UNL     1       9.276   2.033  -5.611  1.00  0.00     0.040 A 
ATOM     89  C   UNL     1       8.532   2.260  -3.347  1.00  0.00     0.040 A 
ATOM     90  F   UNL     1      10.043   2.160  -1.585  1.00  0.00    -0.206 F 
ATOM     91  C   UNL     1       8.240   2.226  -4.704  1.00  0.00     0.006 A 
ENDBRANCH  67  84
ENDBRANCH  41  42
ENDBRANCH  33  36
ENDBRANCH  31  32
ENDBRANCH  30  31
ENDBRANCH   1  30
TORSDOF 13
