REMARK SMILES C[C@@H](Oc1ccc(/C=C2\C(=O)[NH+]=C(NCCCNC(=O)c3ccc(-c4c5nc(c(-c6c(F)cccc6F)c6ccc([nH]6)c(-c6c(F)cccc6F)c6nc(c(-c7c(F)cccc7F)c7ccc4[nH]7)C=C6)C=C5)cc3)N(c3ccc4c(c3)OCO4)C2=O)cc1)C(=O)[O-]
REMARK SMILES IDX 15 1 14 2 8 3 9 4 10 5 85 6 11 7 12 8 75 9 86 10 13 11 7 14
REMARK SMILES IDX 4 15 5 16 88 17 6 18 87 19 3 20 2 21 1 22 89 23 90 24 91 25
REMARK SMILES IDX 76 26 77 27 81 28 78 29 80 30 79 31 82 32 84 33 83 34 16 35
REMARK SMILES IDX 17 36 18 37 19 38 20 40 21 41 22 42 74 43 23 44 73 45 24 46
REMARK SMILES IDX 25 47 26 48 67 49 27 50 72 51 66 52 68 53 28 54 71 55 65 56
REMARK SMILES IDX 64 57 29 59 55 60 38 61 54 62 39 63 42 64 53 65 69 66 40 67
REMARK SMILES IDX 41 68 52 70 70 71 43 72 30 73 31 74 36 75 32 76 33 77 35 78
REMARK SMILES IDX 37 79 34 80 56 81 57 82 62 83 58 84 59 85 61 86 63 87 60 88
REMARK SMILES IDX 44 89 45 90 50 91 46 92 47 93 49 94 51 95 48 96
REMARK H PARENT 12 12 14 13 18 39 68 58 42 69
REMARK Flexibility Score: inf
ROOT
ATOM      1  C   UNL     1       7.554   0.439   9.578  1.00  0.00     0.199 C 
ENDROOT
BRANCH   1   2
ATOM      2  N   UNL     1       8.380   0.648   8.405  1.00  0.00    -0.277 N 
ATOM      3  C   UNL     1       6.262   0.914   3.551  1.00  0.00     0.031 C 
ATOM      4  C   UNL     1       6.924   0.422   4.615  1.00  0.00     0.138 C 
ATOM      5  C   UNL     1       6.382  -0.462   5.661  1.00  0.00     0.321 C 
ATOM      6  C   UNL     1       8.339   0.815   4.757  1.00  0.00     0.328 C 
ATOM      7  O   UNL     1       5.582  -1.351   5.417  1.00  0.00    -0.250 OA
ATOM      8  N   UNL     1       6.833  -0.188   6.921  1.00  0.00    -0.210 N 
ATOM      9  N   UNL     1       8.806   0.756   6.065  1.00  0.00    -0.162 N 
ATOM     10  O   UNL     1       9.000   1.179   3.785  1.00  0.00    -0.249 OA
ATOM     11  C   UNL     1       7.983   0.375   7.119  1.00  0.00     0.366 C 
ATOM     12  H   UNL     1       6.272  -0.424   7.695  1.00  0.00     0.270 HD
ATOM     13  H   UNL     1       9.286   1.010   8.539  1.00  0.00     0.260 HD
BRANCH   3  14
ATOM     14  C   UNL     1       4.851   0.778   3.166  1.00  0.00    -0.024 A 
ATOM     15  C   UNL     1       2.184   0.677   2.278  1.00  0.00     0.120 A 
ATOM     16  C   UNL     1       2.469   0.642   3.640  1.00  0.00     0.047 A 
ATOM     17  C   UNL     1       3.220   0.817   1.361  1.00  0.00     0.047 A 
ATOM     18  C   UNL     1       3.795   0.705   4.082  1.00  0.00     0.012 A 
ATOM     19  C   UNL     1       4.544   0.853   1.801  1.00  0.00     0.012 A 
BRANCH  15  20
ATOM     20  O   UNL     1       0.873   0.724   1.902  1.00  0.00    -0.485 OA
BRANCH  20  21
ATOM     21  C   UNL     1       0.446  -0.385   1.098  1.00  0.00     0.216 C 
ATOM     22  C   UNL     1       0.652  -0.128  -0.392  1.00  0.00     0.059 C 
BRANCH  21  23
ATOM     23  C   UNL     1      -1.048  -0.584   1.326  1.00  0.00     0.082 C 
ATOM     24  O   UNL     1      -1.619  -1.660   1.437  1.00  0.00    -0.546 OA
ATOM     25  O   UNL     1      -1.765   0.560   1.316  1.00  0.00    -0.546 OA
ENDBRANCH  21  23
ENDBRANCH  20  21
ENDBRANCH  15  20
ENDBRANCH   3  14
BRANCH   9  26
ATOM     26  C   UNL     1      10.131   1.217   6.282  1.00  0.00     0.115 A 
ATOM     27  C   UNL     1      11.159   0.295   6.573  1.00  0.00     0.048 A 
ATOM     28  C   UNL     1      10.419   2.572   6.076  1.00  0.00     0.094 A 
ATOM     29  C   UNL     1      12.493   0.717   6.603  1.00  0.00     0.054 A 
ATOM     30  C   UNL     1      11.739   2.950   6.103  1.00  0.00     0.169 A 
ATOM     31  C   UNL     1      12.749   2.047   6.342  1.00  0.00     0.166 A 
ATOM     32  O   UNL     1      12.207   4.201   5.849  1.00  0.00    -0.453 OA
ATOM     33  O   UNL     1      13.979   2.622   6.242  1.00  0.00    -0.454 OA
ATOM     34  C   UNL     1      13.617   3.926   5.736  1.00  0.00     0.468 C 
ENDBRANCH   9  26
ENDBRANCH   1   2
BRANCH   1  35
ATOM     35  C   UNL     1       7.880  -0.893  10.239  1.00  0.00     0.059 C 
BRANCH  35  36
ATOM     36  C   UNL     1       9.318  -1.003  10.737  1.00  0.00     0.119 C 
BRANCH  36  37
ATOM     37  N   UNL     1       9.652  -0.003  11.743  1.00  0.00    -0.352 N 
ATOM     38  C   UNL     1      10.143  -0.144  13.016  1.00  0.00     0.251 C 
ATOM     39  H   UNL     1       9.501   0.928  11.462  1.00  0.00     0.163 HD
ATOM     40  O   UNL     1      10.193   0.840  13.749  1.00  0.00    -0.269 OA
BRANCH  38  41
ATOM     41  C   UNL     1      10.589  -1.460  13.524  1.00  0.00     0.039 A 
ATOM     42  C   UNL     1      10.299  -1.791  14.851  1.00  0.00     0.014 A 
ATOM     43  C   UNL     1      11.316  -2.350  12.729  1.00  0.00     0.014 A 
ATOM     44  C   UNL     1      10.680  -3.036  15.356  1.00  0.00     0.010 A 
ATOM     45  C   UNL     1      11.624  -3.623  13.209  1.00  0.00     0.010 A 
ATOM     46  C   UNL     1      11.309  -3.980  14.527  1.00  0.00    -0.014 A 
BRANCH  46  47
ATOM     47  C   UNL     1      11.605  -5.347  15.030  1.00  0.00     0.031 A 
ATOM     48  C   UNL     1      13.020  -5.844  15.139  1.00  0.00     0.074 A 
ATOM     49  C   UNL     1      10.582  -6.160  15.358  1.00  0.00     0.049 A 
ATOM     50  N   UNL     1      13.457  -7.003  15.565  1.00  0.00    -0.248 NA
ATOM     51  C   UNL     1      14.083  -4.931  14.690  1.00  0.00     0.031 C 
ATOM     52  C   UNL     1       9.162  -5.820  15.241  1.00  0.00     0.029 A 
ATOM     53  N   UNL     1      10.576  -7.439  15.857  1.00  0.00    -0.354 N 
ATOM     54  C   UNL     1      14.840  -6.960  15.433  1.00  0.00     0.074 A 
ATOM     55  C   UNL     1      15.165  -5.684  14.833  1.00  0.00     0.031 C 
ATOM     56  C   UNL     1       8.425  -6.847  15.693  1.00  0.00     0.029 A 
ATOM     57  C   UNL     1       9.315  -7.931  16.093  1.00  0.00     0.049 A 
ATOM     58  H   UNL     1      11.397  -7.954  16.030  1.00  0.00     0.167 HD
ATOM     59  C   UNL     1      15.756  -7.888  15.800  1.00  0.00     0.037 A 
ATOM     60  C   UNL     1       8.918  -9.123  16.577  1.00  0.00     0.037 A 
ATOM     61  C   UNL     1      15.431  -9.156  16.404  1.00  0.00     0.049 A 
ATOM     62  C   UNL     1       9.955 -10.136  16.972  1.00  0.00     0.074 A 
ATOM     63  C   UNL     1      16.291 -10.141  16.858  1.00  0.00     0.029 A 
ATOM     64  N   UNL     1      14.143  -9.617  16.632  1.00  0.00    -0.354 N 
ATOM     65  N   UNL     1      11.261 -10.050  16.913  1.00  0.00    -0.248 NA
ATOM     66  C   UNL     1       9.459 -11.409  17.513  1.00  0.00     0.031 C 
ATOM     67  C   UNL     1      15.524 -11.220  17.311  1.00  0.00     0.029 A 
ATOM     68  C   UNL     1      14.185 -10.883  17.197  1.00  0.00     0.049 A 
ATOM     69  H   UNL     1      13.319  -9.120  16.422  1.00  0.00     0.167 HD
ATOM     70  C   UNL     1      11.745 -11.243  17.436  1.00  0.00     0.074 A 
ATOM     71  C   UNL     1      10.590 -12.025  17.827  1.00  0.00     0.031 C 
ATOM     72  C   UNL     1      13.029 -11.654  17.580  1.00  0.00     0.037 A 
BRANCH  59  73
ATOM     73  C   UNL     1      17.205  -7.568  15.557  1.00  0.00     0.057 A 
ATOM     74  C   UNL     1      17.874  -6.571  16.281  1.00  0.00     0.134 A 
ATOM     75  C   UNL     1      17.952  -8.291  14.618  1.00  0.00     0.134 A 
ATOM     76  F   UNL     1      17.217  -5.833  17.189  1.00  0.00    -0.206 F 
ATOM     77  C   UNL     1      19.223  -6.287  16.061  1.00  0.00     0.040 A 
ATOM     78  C   UNL     1      19.309  -8.037  14.411  1.00  0.00     0.040 A 
ATOM     79  F   UNL     1      17.379  -9.265  13.895  1.00  0.00    -0.206 F 
ATOM     80  C   UNL     1      19.947  -7.028  15.129  1.00  0.00     0.006 A 
ENDBRANCH  59  73
BRANCH  60  81
ATOM     81  C   UNL     1       7.470  -9.413  16.742  1.00  0.00     0.057 A 
ATOM     82  C   UNL     1       6.898  -9.541  18.014  1.00  0.00     0.134 A 
ATOM     83  C   UNL     1       6.628  -9.581  15.637  1.00  0.00     0.134 A 
ATOM     84  F   UNL     1       7.657  -9.408  19.112  1.00  0.00    -0.206 F 
ATOM     85  C   UNL     1       5.547  -9.848  18.181  1.00  0.00     0.040 A 
ATOM     86  C   UNL     1       5.269  -9.860  15.789  1.00  0.00     0.040 A 
ATOM     87  F   UNL     1       7.112  -9.462  14.392  1.00  0.00    -0.206 F 
ATOM     88  C   UNL     1       4.727 -10.004  17.065  1.00  0.00     0.006 A 
ENDBRANCH  60  81
BRANCH  72  89
ATOM     89  C   UNL     1      13.248 -12.995  18.222  1.00  0.00     0.057 A 
ATOM     90  C   UNL     1      12.901 -14.193  17.582  1.00  0.00     0.134 A 
ATOM     91  C   UNL     1      13.818 -13.088  19.498  1.00  0.00     0.134 A 
ATOM     92  F   UNL     1      12.339 -14.175  16.364  1.00  0.00    -0.206 F 
ATOM     93  C   UNL     1      13.073 -15.430  18.206  1.00  0.00     0.040 A 
ATOM     94  C   UNL     1      14.027 -14.322  20.118  1.00  0.00     0.040 A 
ATOM     95  F   UNL     1      14.185 -11.983  20.164  1.00  0.00    -0.206 F 
ATOM     96  C   UNL     1      13.643 -15.497  19.476  1.00  0.00     0.006 A 
ENDBRANCH  72  89
ENDBRANCH  46  47
ENDBRANCH  38  41
ENDBRANCH  36  37
ENDBRANCH  35  36
ENDBRANCH   1  35
TORSDOF 14
