REMARK SMILES COc1cc(S(=O)(=O)Nc2cccc(C(=O)NCCCNC(=O)c3ccc(-c4c5nc(c(-c6c(F)cccc6F)c6ccc([nH]6)c(-c6c(F)cccc6F)c6nc(c(-c7c(F)cccc7F)c7ccc4[nH]7)C=C6)C=C5)cc3)c2)c(OC)cc1C
REMARK SMILES IDX 18 1 17 2 15 3 16 4 14 6 10 7 11 8 78 9 12 10 13 11 9 12
REMARK SMILES IDX 6 14 7 15 8 16 5 17 3 18 4 19 83 20 82 21 84 22 79 23 2 24
REMARK SMILES IDX 1 25 80 26 81 27 19 28 20 29 21 30 22 31 23 33 24 34 25 35
REMARK SMILES IDX 77 36 26 37 76 38 27 39 28 40 29 41 70 42 30 43 75 44 69 45
REMARK SMILES IDX 71 46 31 47 74 48 68 49 67 50 32 52 58 53 41 54 57 55 42 56
REMARK SMILES IDX 45 57 56 58 72 59 43 60 44 61 55 63 73 64 46 65 33 66 34 67
REMARK SMILES IDX 39 68 35 69 36 70 38 71 40 72 37 73 59 74 60 75 65 76 61 77
REMARK SMILES IDX 62 78 64 79 66 80 63 81 47 82 48 83 53 84 49 85 50 86 52 87
REMARK SMILES IDX 54 88 51 89
REMARK H PARENT 17 5 9 13 21 32 71 51 45 62
REMARK Flexibility Score: inf
ROOT
ATOM      1  C   UNL     1       5.701  -7.815   3.262  1.00  0.00     0.118 C 
ENDROOT
BRANCH   1   2
ATOM      2  N   UNL     1       4.774  -8.893   3.568  1.00  0.00    -0.352 N 
ATOM      3  C   UNL     1       3.548  -8.873   4.191  1.00  0.00     0.251 C 
ATOM      4  O   UNL     1       2.877  -9.902   4.216  1.00  0.00    -0.269 OA
ATOM      5  H   UNL     1       5.075  -9.786   3.282  1.00  0.00     0.163 HD
BRANCH   3   6
ATOM      6  C   UNL     1       2.971  -7.627   4.751  1.00  0.00     0.041 A 
ATOM      7  C   UNL     1       1.083  -6.098   4.763  1.00  0.00     0.050 A 
ATOM      8  C   UNL     1       1.778  -5.244   5.616  1.00  0.00     0.027 A 
ATOM      9  C   UNL     1       1.654  -7.321   4.393  1.00  0.00     0.040 A 
ATOM     10  C   UNL     1       3.069  -5.577   6.032  1.00  0.00     0.003 A 
ATOM     11  C   UNL     1       3.666  -6.763   5.596  1.00  0.00     0.014 A 
BRANCH   7  12
ATOM     12  N   UNL     1      -0.173  -5.787   4.178  1.00  0.00    -0.279 N 
ATOM     13  H   UNL     1      -0.770  -6.540   3.965  1.00  0.00     0.180 HD
BRANCH  12  14
ATOM     14  S   UNL     1      -0.724  -4.252   3.819  1.00  0.00     0.265 S 
ATOM     15  O   UNL     1      -0.837  -3.520   5.063  1.00  0.00    -0.201 OA
ATOM     16  O   UNL     1      -1.894  -4.461   2.985  1.00  0.00    -0.201 OA
BRANCH  14  17
ATOM     17  C   UNL     1       0.434  -3.345   2.815  1.00  0.00     0.133 A 
ATOM     18  C   UNL     1       0.949  -1.141   1.932  1.00  0.00     0.123 A 
ATOM     19  C   UNL     1       0.065  -2.011   2.566  1.00  0.00     0.073 A 
ATOM     20  C   UNL     1       2.262  -1.532   1.687  1.00  0.00    -0.005 A 
ATOM     21  C   UNL     1       2.586  -2.885   1.847  1.00  0.00     0.055 A 
ATOM     22  C   UNL     1       3.321  -0.579   1.217  1.00  0.00     0.048 C 
ATOM     23  C   UNL     1       1.655  -3.818   2.333  1.00  0.00     0.139 A 
BRANCH  18  24
ATOM     24  O   UNL     1       0.479   0.100   1.601  1.00  0.00    -0.496 OA
ATOM     25  C   UNL     1       0.397   0.239   0.177  1.00  0.00     0.278 C 
ENDBRANCH  18  24
BRANCH  23  26
ATOM     26  O   UNL     1       1.877  -5.160   2.288  1.00  0.00    -0.495 OA
ATOM     27  C   UNL     1       3.125  -5.606   1.771  1.00  0.00     0.278 C 
ENDBRANCH  23  26
ENDBRANCH  14  17
ENDBRANCH  12  14
ENDBRANCH   7  12
ENDBRANCH   3   6
ENDBRANCH   1   2
BRANCH   1  28
ATOM     28  C   UNL     1       6.802  -7.684   4.302  1.00  0.00     0.042 C 
BRANCH  28  29
ATOM     29  C   UNL     1       7.920  -8.698   4.144  1.00  0.00     0.118 C 
BRANCH  29  30
ATOM     30  N   UNL     1       9.131  -8.165   3.528  1.00  0.00    -0.352 N 
ATOM     31  C   UNL     1      10.365  -8.768   3.351  1.00  0.00     0.251 C 
ATOM     32  H   UNL     1       9.059  -7.243   3.189  1.00  0.00     0.163 HD
ATOM     33  O   UNL     1      11.270  -8.152   2.796  1.00  0.00    -0.269 OA
BRANCH  31  34
ATOM     34  C   UNL     1      10.534 -10.206   3.676  1.00  0.00     0.039 A 
ATOM     35  C   UNL     1      11.135 -11.019   2.708  1.00  0.00     0.014 A 
ATOM     36  C   UNL     1       9.861 -10.780   4.746  1.00  0.00     0.014 A 
ATOM     37  C   UNL     1      10.789 -12.364   2.646  1.00  0.00     0.010 A 
ATOM     38  C   UNL     1       9.395 -12.067   4.603  1.00  0.00     0.010 A 
ATOM     39  C   UNL     1       9.806 -12.835   3.511  1.00  0.00    -0.014 A 
BRANCH  39  40
ATOM     40  C   UNL     1       9.082 -14.079   3.306  1.00  0.00     0.031 A 
ATOM     41  C   UNL     1       9.337 -15.228   4.193  1.00  0.00     0.074 A 
ATOM     42  C   UNL     1       8.094 -14.126   2.385  1.00  0.00     0.049 A 
ATOM     43  N   UNL     1       9.055 -16.449   3.898  1.00  0.00    -0.248 NA
ATOM     44  C   UNL     1       9.980 -15.086   5.493  1.00  0.00     0.031 C 
ATOM     45  C   UNL     1       7.063 -15.150   2.239  1.00  0.00     0.029 A 
ATOM     46  N   UNL     1       7.948 -13.323   1.245  1.00  0.00    -0.354 N 
ATOM     47  C   UNL     1       9.201 -17.202   5.041  1.00  0.00     0.074 A 
ATOM     48  C   UNL     1       9.841 -16.319   5.986  1.00  0.00     0.031 C 
ATOM     49  C   UNL     1       6.588 -15.112   0.984  1.00  0.00     0.029 A 
ATOM     50  C   UNL     1       7.406 -14.165   0.248  1.00  0.00     0.049 A 
ATOM     51  H   UNL     1       8.177 -12.369   1.157  1.00  0.00     0.167 HD
ATOM     52  C   UNL     1       8.634 -18.442   5.089  1.00  0.00     0.037 A 
ATOM     53  C   UNL     1       8.101 -14.458  -0.889  1.00  0.00     0.037 A 
ATOM     54  C   UNL     1       8.038 -18.790   3.799  1.00  0.00     0.049 A 
ATOM     55  C   UNL     1       8.365 -15.934  -1.073  1.00  0.00     0.074 A 
ATOM     56  C   UNL     1       6.739 -18.732   3.320  1.00  0.00     0.029 A 
ATOM     57  N   UNL     1       8.858 -18.962   2.688  1.00  0.00    -0.354 N 
ATOM     58  N   UNL     1       8.350 -16.803  -0.101  1.00  0.00    -0.248 NA
ATOM     59  C   UNL     1       8.674 -16.544  -2.362  1.00  0.00     0.031 C 
ATOM     60  C   UNL     1       6.784 -18.830   1.908  1.00  0.00     0.029 A 
ATOM     61  C   UNL     1       8.108 -18.965   1.528  1.00  0.00     0.049 A 
ATOM     62  H   UNL     1       9.836 -19.067   2.724  1.00  0.00     0.167 HD
ATOM     63  C   UNL     1       8.652 -18.049  -0.593  1.00  0.00     0.074 A 
ATOM     64  C   UNL     1       8.826 -17.834  -2.017  1.00  0.00     0.031 C 
ATOM     65  C   UNL     1       8.738 -19.141   0.226  1.00  0.00     0.037 A 
BRANCH  52  66
ATOM     66  C   UNL     1       8.354 -19.199   6.372  1.00  0.00     0.057 A 
ATOM     67  C   UNL     1       7.271 -20.098   6.457  1.00  0.00     0.134 A 
ATOM     68  C   UNL     1       9.066 -19.050   7.574  1.00  0.00     0.134 A 
ATOM     69  F   UNL     1       6.558 -20.452   5.379  1.00  0.00    -0.206 F 
ATOM     70  C   UNL     1       6.857 -20.690   7.658  1.00  0.00     0.040 A 
ATOM     71  C   UNL     1       8.634 -19.592   8.795  1.00  0.00     0.040 A 
ATOM     72  F   UNL     1      10.250 -18.430   7.618  1.00  0.00    -0.206 F 
ATOM     73  C   UNL     1       7.513 -20.404   8.843  1.00  0.00     0.006 A 
ENDBRANCH  52  66
BRANCH  53  74
ATOM     74  C   UNL     1       9.011 -13.362  -1.315  1.00  0.00     0.057 A 
ATOM     75  C   UNL     1       8.443 -12.137  -1.708  1.00  0.00     0.134 A 
ATOM     76  C   UNL     1      10.362 -13.351  -0.960  1.00  0.00     0.134 A 
ATOM     77  F   UNL     1       7.149 -12.078  -2.064  1.00  0.00    -0.206 F 
ATOM     78  C   UNL     1       9.149 -10.934  -1.626  1.00  0.00     0.040 A 
ATOM     79  C   UNL     1      11.084 -12.153  -0.889  1.00  0.00     0.040 A 
ATOM     80  F   UNL     1      10.971 -14.474  -0.554  1.00  0.00    -0.206 F 
ATOM     81  C   UNL     1      10.465 -10.937  -1.178  1.00  0.00     0.006 A 
ENDBRANCH  53  74
BRANCH  65  82
ATOM     82  C   UNL     1       9.322 -20.498  -0.120  1.00  0.00     0.057 A 
ATOM     83  C   UNL     1      10.226 -20.738  -1.165  1.00  0.00     0.134 A 
ATOM     84  C   UNL     1       9.086 -21.615   0.718  1.00  0.00     0.134 A 
ATOM     85  F   UNL     1      10.647 -19.759  -1.975  1.00  0.00    -0.206 F 
ATOM     86  C   UNL     1      10.801 -21.997  -1.396  1.00  0.00     0.040 A 
ATOM     87  C   UNL     1       9.700 -22.858   0.534  1.00  0.00     0.040 A 
ATOM     88  F   UNL     1       8.268 -21.548   1.779  1.00  0.00    -0.206 F 
ATOM     89  C   UNL     1      10.550 -23.059  -0.538  1.00  0.00     0.006 A 
ENDBRANCH  65  82
ENDBRANCH  39  40
ENDBRANCH  31  34
ENDBRANCH  29  30
ENDBRANCH  28  29
ENDBRANCH   1  28
TORSDOF 15
