REMARK SMILES C[C@]12C[C@@H](O)[C@H]3[C@@H](CCC4=CC(=O)C=C[C@]43C)[C@H]1CC[C@]2(O)C(=O)COC(=O)CCC(=O)NCCCNC(=O)c1ccc(-c2c3nc(c(-c4c(F)cccc4F)c4ccc([nH]4)c(-c4c(F)cccc4F)c4nc(c(-c5c(F)cccc5F)c5ccc2[nH]5)C=C4)C=C3)cc1
REMARK SMILES IDX 31 1 32 2 33 3 30 5 29 6 27 7 28 8 26 9 25 10 23 11 24 12
REMARK SMILES IDX 21 13 17 14 16 15 15 16 10 17 6 18 14 19 11 20 9 21 7 22
REMARK SMILES IDX 4 23 12 24 8 25 18 26 3 27 13 28 2 29 19 30 1 31 20 32 5 33
REMARK SMILES IDX 22 35 34 37 35 38 36 39 37 40 38 41 39 43 40 44 41 45 93 46
REMARK SMILES IDX 42 47 92 48 43 49 44 50 45 51 86 52 46 53 91 54 85 55 87 56
REMARK SMILES IDX 47 57 90 58 84 59 83 60 48 62 74 63 57 64 73 65 58 66 61 67
REMARK SMILES IDX 72 68 88 69 59 70 60 71 71 73 89 74 62 75 49 76 50 77 55 78
REMARK SMILES IDX 51 79 52 80 54 81 56 82 53 83 75 84 76 85 81 86 77 87 78 88
REMARK SMILES IDX 80 89 82 90 79 91 63 92 64 93 69 94 65 95 66 96 68 97 70 98
REMARK SMILES IDX 67 99
REMARK H PARENT 33 4 5 34 22 36 37 42 87 61 61 72
REMARK Flexibility Score: inf
ROOT
ATOM      1  C   UNL     1       3.140  -6.439  -1.768  1.00  0.00     0.220 C 
ATOM      2  O   UNL     1       3.784  -6.089  -2.759  1.00  0.00    -0.275 OA
ATOM      3  N   UNL     1       3.776  -6.436  -0.567  1.00  0.00    -0.356 N 
ATOM      4  H   UNL     1       4.737  -6.225  -0.615  1.00  0.00     0.163 HD
ENDROOT
BRANCH   1   5
ATOM      5  C   UNL     1       1.690  -6.851  -1.893  1.00  0.00     0.111 C 
BRANCH   5   6
ATOM      6  C   UNL     1       1.458  -8.335  -1.657  1.00  0.00     0.132 C 
BRANCH   6   7
ATOM      7  C   UNL     1       0.308  -8.579  -0.709  1.00  0.00     0.306 C 
ATOM      8  O   UNL     1      -0.797  -8.979  -1.061  1.00  0.00    -0.252 OA
BRANCH   7   9
ATOM      9  O   UNL     1       0.648  -8.282   0.575  1.00  0.00    -0.458 OA
BRANCH   9  10
ATOM     10  C   UNL     1      -0.343  -8.483   1.579  1.00  0.00     0.311 C 
BRANCH  10  11
ATOM     11  C   UNL     1      -0.888  -7.243   2.315  1.00  0.00     0.202 C 
ATOM     12  O   UNL     1      -1.267  -7.368   3.485  1.00  0.00    -0.293 OA
BRANCH  11  13
ATOM     13  C   UNL     1      -1.106  -5.913   1.543  1.00  0.00     0.132 C 
ATOM     14  C   UNL     1       0.800   0.253  -0.180  1.00  0.00     0.021 C 
ATOM     15  C   UNL     1       0.725  -0.249   1.309  1.00  0.00     0.013 C 
ATOM     16  C   UNL     1       2.148  -0.104   1.874  1.00  0.00    -0.012 C 
ATOM     17  C   UNL     1      -0.141   0.734   2.116  1.00  0.00    -0.056 C 
ATOM     18  C   UNL     1       0.162  -1.720   1.252  1.00  0.00     0.035 C 
ATOM     19  C   UNL     1       2.658   1.109   2.146  1.00  0.00     0.048 C 
ATOM     20  C   UNL     1       0.326   1.979   2.363  1.00  0.00     0.052 C 
ATOM     21  C   UNL     1      -1.363   0.290   2.874  1.00  0.00     0.032 C 
ATOM     22  C   UNL     1      -0.697  -2.119   2.469  1.00  0.00    -0.000 C 
ATOM     23  C   UNL     1       1.230  -2.782   0.937  1.00  0.00     0.119 C 
ATOM     24  C   UNL     1       1.753   2.285   2.083  1.00  0.00     0.178 C 
ATOM     25  C   UNL     1      -1.852  -1.124   2.606  1.00  0.00     0.009 C 
ATOM     26  C   UNL     1      -1.232  -3.579   2.439  1.00  0.00     0.002 C 
ATOM     27  C   UNL     1       0.566  -4.126   0.734  1.00  0.00     0.042 C 
ATOM     28  O   UNL     1       2.172   3.424   1.950  1.00  0.00    -0.290 OA
ATOM     29  C   UNL     1      -0.211  -4.648   1.958  1.00  0.00     0.009 C 
ATOM     30  C   UNL     1      -2.468  -3.898   1.606  1.00  0.00     0.008 C 
ATOM     31  C   UNL     1       0.759  -4.827   3.131  1.00  0.00     0.015 C 
ATOM     32  C   UNL     1      -2.554  -5.417   1.756  1.00  0.00     0.044 C 
BRANCH  23  33
ATOM     33  O   UNL     1       1.917  -2.504  -0.279  1.00  0.00    -0.393 OA
ATOM     34  H   UNL     1       1.287  -2.510  -1.016  1.00  0.00     0.210 HD
ENDBRANCH  23  33
BRANCH  13  35
ATOM     35  O   UNL     1      -0.992  -6.154   0.137  1.00  0.00    -0.381 OA
ATOM     36  H   UNL     1      -1.128  -5.323  -0.345  1.00  0.00     0.212 HD
ENDBRANCH  13  35
ENDBRANCH  11  13
ENDBRANCH  10  11
ENDBRANCH   9  10
ENDBRANCH   7   9
ENDBRANCH   6   7
ENDBRANCH   5   6
ENDBRANCH   1   5
BRANCH   3  37
ATOM     37  C   UNL     1       3.285  -6.690   0.770  1.00  0.00     0.117 C 
BRANCH  37  38
ATOM     38  C   UNL     1       3.675  -8.066   1.290  1.00  0.00     0.042 C 
BRANCH  38  39
ATOM     39  C   UNL     1       3.641  -8.174   2.810  1.00  0.00     0.118 C 
BRANCH  39  40
ATOM     40  N   UNL     1       2.433  -7.693   3.458  1.00  0.00    -0.352 N 
ATOM     41  C   UNL     1       2.040  -7.764   4.776  1.00  0.00     0.251 C 
ATOM     42  H   UNL     1       1.792  -7.245   2.859  1.00  0.00     0.163 HD
ATOM     43  O   UNL     1       1.160  -7.036   5.220  1.00  0.00    -0.269 OA
BRANCH  41  44
ATOM     44  C   UNL     1       2.563  -8.822   5.641  1.00  0.00     0.039 A 
ATOM     45  C   UNL     1       1.636  -9.535   6.412  1.00  0.00     0.014 A 
ATOM     46  C   UNL     1       3.895  -9.203   5.588  1.00  0.00     0.014 A 
ATOM     47  C   UNL     1       2.029 -10.715   7.025  1.00  0.00     0.010 A 
ATOM     48  C   UNL     1       4.245 -10.446   6.067  1.00  0.00     0.010 A 
ATOM     49  C   UNL     1       3.314 -11.213   6.784  1.00  0.00    -0.014 A 
BRANCH  49  50
ATOM     50  C   UNL     1       3.735 -12.543   7.260  1.00  0.00     0.031 A 
ATOM     51  C   UNL     1       4.939 -12.641   8.146  1.00  0.00     0.074 A 
ATOM     52  C   UNL     1       3.115 -13.638   6.779  1.00  0.00     0.049 A 
ATOM     53  N   UNL     1       5.601 -13.702   8.519  1.00  0.00    -0.248 NA
ATOM     54  C   UNL     1       5.517 -11.371   8.626  1.00  0.00     0.031 C 
ATOM     55  C   UNL     1       1.980 -13.640   5.849  1.00  0.00     0.029 A 
ATOM     56  N   UNL     1       3.369 -14.967   6.989  1.00  0.00    -0.354 N 
ATOM     57  C   UNL     1       6.691 -13.224   9.234  1.00  0.00     0.074 A 
ATOM     58  C   UNL     1       6.640 -11.782   9.193  1.00  0.00     0.031 C 
ATOM     59  C   UNL     1       1.624 -14.908   5.588  1.00  0.00     0.029 A 
ATOM     60  C   UNL     1       2.535 -15.804   6.288  1.00  0.00     0.049 A 
ATOM     61  H   UNL     1       4.082 -15.292   7.585  1.00  0.00     0.167 HD
ATOM     62  C   UNL     1       7.633 -13.936   9.890  1.00  0.00     0.037 A 
ATOM     63  C   UNL     1       2.526 -17.147   6.210  1.00  0.00     0.037 A 
ATOM     64  C   UNL     1       7.620 -15.370   9.973  1.00  0.00     0.049 A 
ATOM     65  C   UNL     1       3.557 -17.911   6.996  1.00  0.00     0.074 A 
ATOM     66  C   UNL     1       8.457 -16.196  10.698  1.00  0.00     0.029 A 
ATOM     67  N   UNL     1       6.715 -16.187   9.312  1.00  0.00    -0.354 N 
ATOM     68  N   UNL     1       4.531 -17.452   7.745  1.00  0.00    -0.248 NA
ATOM     69  C   UNL     1       3.485 -19.376   6.933  1.00  0.00     0.031 C 
ATOM     70  C   UNL     1       8.089 -17.518  10.436  1.00  0.00     0.029 A 
ATOM     71  C   UNL     1       6.988 -17.513   9.593  1.00  0.00     0.049 A 
ATOM     72  H   UNL     1       5.986 -15.870   8.730  1.00  0.00     0.167 HD
ATOM     73  C   UNL     1       5.169 -18.569   8.266  1.00  0.00     0.074 A 
ATOM     74  C   UNL     1       4.458 -19.726   7.762  1.00  0.00     0.031 C 
ATOM     75  C   UNL     1       6.247 -18.638   9.084  1.00  0.00     0.037 A 
BRANCH  62  76
ATOM     76  C   UNL     1       8.734 -13.183  10.572  1.00  0.00     0.057 A 
ATOM     77  C   UNL     1       8.505 -12.396  11.708  1.00  0.00     0.134 A 
ATOM     78  C   UNL     1      10.052 -13.283  10.111  1.00  0.00     0.134 A 
ATOM     79  F   UNL     1       7.262 -12.239  12.189  1.00  0.00    -0.206 F 
ATOM     80  C   UNL     1       9.544 -11.723  12.352  1.00  0.00     0.040 A 
ATOM     81  C   UNL     1      11.104 -12.640  10.764  1.00  0.00     0.040 A 
ATOM     82  F   UNL     1      10.341 -14.016   9.025  1.00  0.00    -0.206 F 
ATOM     83  C   UNL     1      10.851 -11.854  11.886  1.00  0.00     0.006 A 
ENDBRANCH  62  76
BRANCH  63  84
ATOM     84  C   UNL     1       1.520 -17.851   5.375  1.00  0.00     0.057 A 
ATOM     85  C   UNL     1       0.523 -18.643   5.957  1.00  0.00     0.134 A 
ATOM     86  C   UNL     1       1.541 -17.771   3.978  1.00  0.00     0.134 A 
ATOM     87  F   UNL     1       0.454 -18.769   7.291  1.00  0.00    -0.206 F 
ATOM     88  C   UNL     1      -0.390 -19.361   5.182  1.00  0.00     0.040 A 
ATOM     89  C   UNL     1       0.615 -18.459   3.190  1.00  0.00     0.040 A 
ATOM     90  F   UNL     1       2.458 -17.016   3.355  1.00  0.00    -0.206 F 
ATOM     91  C   UNL     1      -0.346 -19.267   3.793  1.00  0.00     0.006 A 
ENDBRANCH  63  84
BRANCH  75  92
ATOM     92  C   UNL     1       6.691 -20.003   9.514  1.00  0.00     0.057 A 
ATOM     93  C   UNL     1       7.322 -20.887   8.630  1.00  0.00     0.134 A 
ATOM     94  C   UNL     1       6.530 -20.415  10.843  1.00  0.00     0.134 A 
ATOM     95  F   UNL     1       7.494 -20.554   7.342  1.00  0.00    -0.206 F 
ATOM     96  C   UNL     1       7.756 -22.144   9.049  1.00  0.00     0.040 A 
ATOM     97  C   UNL     1       6.989 -21.656  11.280  1.00  0.00     0.040 A 
ATOM     98  F   UNL     1       5.944 -19.607  11.740  1.00  0.00    -0.206 F 
ATOM     99  C   UNL     1       7.598 -22.527  10.380  1.00  0.00     0.006 A 
ENDBRANCH  75  92
ENDBRANCH  49  50
ENDBRANCH  41  44
ENDBRANCH  39  40
ENDBRANCH  38  39
ENDBRANCH  37  38
ENDBRANCH   3  37
TORSDOF 18
