REMARK SMILES CC(=O)N[C@H]1[C@@H](Oc2ccc(C)c(C)c2)O[C@H]2CO[C@H](c3ccco3)O[C@@H]2[C@H]1OCC(=O)NCCCNC(=O)c1ccc(-c2c3nc(c(-c4c(F)cccc4F)c4ccc([nH]4)c(-c4c(F)cccc4F)c4nc(c(-c5c(F)cccc5F)c5ccc2[nH]5)C=C4)C=C3)cc1
REMARK SMILES IDX 34 1 33 2 31 3 32 4 30 6 29 7 28 8 5 9 6 10 16 11 27 12
REMARK SMILES IDX 17 13 26 14 18 15 20 16 19 17 4 18 1 19 2 20 3 21 7 23 8 24
REMARK SMILES IDX 9 25 15 26 10 27 13 28 11 29 14 30 12 31 21 32 22 33 25 34
REMARK SMILES IDX 23 35 24 36 35 37 36 38 37 39 38 40 39 42 40 43 41 44 93 45
REMARK SMILES IDX 42 46 92 47 43 48 44 49 45 50 86 51 46 52 91 53 85 54 87 55
REMARK SMILES IDX 47 56 90 57 84 58 83 59 48 61 74 62 57 63 73 64 58 65 61 66
REMARK SMILES IDX 72 67 88 68 59 69 60 70 71 72 89 73 62 74 49 75 50 76 55 77
REMARK SMILES IDX 51 78 52 79 54 80 56 81 53 82 75 83 76 84 81 85 77 86 78 87
REMARK SMILES IDX 80 88 82 89 79 90 63 91 64 92 69 93 65 94 66 95 68 96 70 97
REMARK SMILES IDX 67 98
REMARK H PARENT 33 5 4 22 37 41 87 60 61 71
REMARK Flexibility Score: inf
ROOT
ATOM      1  C   UNL     1      -3.123  -0.891  -1.283  1.00  0.00     0.117 C 
ENDROOT
BRANCH   1   2
ATOM      2  N   UNL     1      -2.339  -0.585  -0.105  1.00  0.00    -0.354 N 
ATOM      3  C   UNL     1      -1.135  -1.163   0.195  1.00  0.00     0.246 C 
ATOM      4  O   UNL     1      -0.963  -1.512   1.361  1.00  0.00    -0.272 OA
ATOM      5  H   UNL     1      -2.695   0.084   0.523  1.00  0.00     0.163 HD
BRANCH   3   6
ATOM      6  C   UNL     1      -0.109  -1.350  -0.959  1.00  0.00     0.260 C 
BRANCH   6   7
ATOM      7  O   UNL     1       1.051  -2.143  -1.023  1.00  0.00    -0.363 OA
BRANCH   7   8
ATOM      8  C   UNL     1       1.304  -3.195  -0.090  1.00  0.00     0.179 C 
ATOM      9  C   UNL     1       2.049  -2.692   1.191  1.00  0.00     0.182 C 
ATOM     10  C   UNL     1       2.123  -3.822   2.292  1.00  0.00     0.333 C 
ATOM     11  O   UNL     1       1.030  -4.742   2.342  1.00  0.00    -0.332 OA
ATOM     12  C   UNL     1       0.157  -4.201   0.165  1.00  0.00     0.184 C 
ATOM     13  C   UNL     1       0.700  -5.296   1.084  1.00  0.00     0.180 C 
ATOM     14  O   UNL     1      -0.332  -4.783  -1.053  1.00  0.00    -0.337 OA
ATOM     15  C   UNL     1      -0.361  -6.375   1.267  1.00  0.00     0.199 C 
ATOM     16  C   UNL     1      -1.339  -5.764  -0.769  1.00  0.00     0.319 C 
ATOM     17  O   UNL     1      -0.818  -6.840   0.005  1.00  0.00    -0.343 OA
BRANCH   9  18
ATOM     18  N   UNL     1       1.567  -1.387   1.670  1.00  0.00    -0.345 N 
ATOM     19  C   UNL     1       3.018   0.136   0.354  1.00  0.00     0.114 C 
ATOM     20  C   UNL     1       1.938  -0.116   1.365  1.00  0.00     0.217 C 
ATOM     21  O   UNL     1       1.360   0.827   1.907  1.00  0.00    -0.275 OA
ATOM     22  H   UNL     1       0.842  -1.445   2.333  1.00  0.00     0.164 HD
ENDBRANCH   9  18
BRANCH  10  23
ATOM     23  O   UNL     1       2.480  -3.348   3.602  1.00  0.00    -0.463 OA
BRANCH  23  24
ATOM     24  C   UNL     1       1.542  -2.728   4.384  1.00  0.00     0.123 A 
ATOM     25  C   UNL     1       0.167  -2.699   4.174  1.00  0.00     0.047 A 
ATOM     26  C   UNL     1       2.062  -2.020   5.468  1.00  0.00     0.050 A 
ATOM     27  C   UNL     1      -0.650  -1.862   4.936  1.00  0.00     0.007 A 
ATOM     28  C   UNL     1       1.248  -1.197   6.271  1.00  0.00    -0.045 A 
ATOM     29  C   UNL     1      -0.117  -1.070   5.960  1.00  0.00    -0.048 A 
ATOM     30  C   UNL     1       1.895  -0.491   7.430  1.00  0.00     0.045 C 
ATOM     31  C   UNL     1      -1.023  -0.107   6.673  1.00  0.00     0.044 C 
ENDBRANCH  23  24
ENDBRANCH  10  23
BRANCH  16  32
ATOM     32  C   UNL     1      -1.858  -6.368  -2.032  1.00  0.00     0.159 A 
ATOM     33  C   UNL     1      -2.855  -7.302  -2.260  1.00  0.00     0.051 A 
ATOM     34  O   UNL     1      -1.310  -5.988  -3.226  1.00  0.00    -0.464 OA
ATOM     35  C   UNL     1      -2.906  -7.512  -3.658  1.00  0.00     0.042 A 
ATOM     36  C   UNL     1      -1.943  -6.694  -4.199  1.00  0.00     0.195 A 
ENDBRANCH  16  32
ENDBRANCH   7   8
ENDBRANCH   6   7
ENDBRANCH   3   6
ENDBRANCH   1   2
BRANCH   1  37
ATOM     37  C   UNL     1      -3.572  -2.355  -1.264  1.00  0.00     0.042 C 
BRANCH  37  38
ATOM     38  C   UNL     1      -4.209  -2.777   0.062  1.00  0.00     0.118 C 
BRANCH  38  39
ATOM     39  N   UNL     1      -5.356  -1.950   0.399  1.00  0.00    -0.352 N 
ATOM     40  C   UNL     1      -6.689  -2.261   0.342  1.00  0.00     0.251 C 
ATOM     41  H   UNL     1      -5.146  -1.040   0.711  1.00  0.00     0.163 HD
ATOM     42  O   UNL     1      -7.537  -1.378   0.371  1.00  0.00    -0.269 OA
BRANCH  40  43
ATOM     43  C   UNL     1      -7.090  -3.675   0.247  1.00  0.00     0.039 A 
ATOM     44  C   UNL     1      -8.044  -4.050  -0.699  1.00  0.00     0.014 A 
ATOM     45  C   UNL     1      -6.530  -4.620   1.113  1.00  0.00     0.014 A 
ATOM     46  C   UNL     1      -8.410  -5.391  -0.806  1.00  0.00     0.010 A 
ATOM     47  C   UNL     1      -6.844  -5.963   0.959  1.00  0.00     0.010 A 
ATOM     48  C   UNL     1      -7.798  -6.357   0.009  1.00  0.00    -0.014 A 
BRANCH  48  49
ATOM     49  C   UNL     1      -8.159  -7.789  -0.100  1.00  0.00     0.031 A 
ATOM     50  C   UNL     1      -8.843  -8.477   1.047  1.00  0.00     0.074 A 
ATOM     51  C   UNL     1      -7.812  -8.478  -1.202  1.00  0.00     0.049 A 
ATOM     52  N   UNL     1      -9.178  -9.735   1.175  1.00  0.00    -0.248 NA
ATOM     53  C   UNL     1      -9.163  -7.646   2.219  1.00  0.00     0.031 C 
ATOM     54  C   UNL     1      -7.102  -7.926  -2.358  1.00  0.00     0.029 A 
ATOM     55  N   UNL     1      -8.002  -9.796  -1.525  1.00  0.00    -0.354 N 
ATOM     56  C   UNL     1      -9.728  -9.850   2.445  1.00  0.00     0.074 A 
ATOM     57  C   UNL     1      -9.635  -8.547   3.067  1.00  0.00     0.031 C 
ATOM     58  C   UNL     1      -6.938  -8.894  -3.273  1.00  0.00     0.029 A 
ATOM     59  C   UNL     1      -7.499 -10.138  -2.755  1.00  0.00     0.049 A 
ATOM     60  H   UNL     1      -8.456 -10.437  -0.931  1.00  0.00     0.167 HD
ATOM     61  C   UNL     1     -10.280 -10.938   3.031  1.00  0.00     0.037 A 
ATOM     62  C   UNL     1      -7.492 -11.324  -3.391  1.00  0.00     0.037 A 
ATOM     63  C   UNL     1     -10.399 -12.222   2.393  1.00  0.00     0.049 A 
ATOM     64  C   UNL     1      -8.129 -12.514  -2.730  1.00  0.00     0.074 A 
ATOM     65  C   UNL     1     -11.002 -13.371   2.872  1.00  0.00     0.029 A 
ATOM     66  N   UNL     1      -9.902 -12.524   1.134  1.00  0.00    -0.354 N 
ATOM     67  N   UNL     1      -8.706 -12.594  -1.556  1.00  0.00    -0.248 NA
ATOM     68  C   UNL     1      -8.121 -13.774  -3.485  1.00  0.00     0.031 C 
ATOM     69  C   UNL     1     -10.840 -14.379   1.915  1.00  0.00     0.029 A 
ATOM     70  C   UNL     1     -10.170 -13.846   0.825  1.00  0.00     0.049 A 
ATOM     71  H   UNL     1      -9.429 -11.891   0.547  1.00  0.00     0.167 HD
ATOM     72  C   UNL     1      -9.150 -13.904  -1.438  1.00  0.00     0.074 A 
ATOM     73  C   UNL     1      -8.787 -14.579  -2.668  1.00  0.00     0.031 C 
ATOM     74  C   UNL     1      -9.801 -14.496  -0.407  1.00  0.00     0.037 A 
BRANCH  61  75
ATOM     75  C   UNL     1     -10.797 -10.778   4.431  1.00  0.00     0.057 A 
ATOM     76  C   UNL     1     -11.944 -10.024   4.713  1.00  0.00     0.134 A 
ATOM     77  C   UNL     1     -10.148 -11.394   5.508  1.00  0.00     0.134 A 
ATOM     78  F   UNL     1     -12.604  -9.396   3.728  1.00  0.00    -0.206 F 
ATOM     79  C   UNL     1     -12.408  -9.861   6.020  1.00  0.00     0.040 A 
ATOM     80  C   UNL     1     -10.618 -11.261   6.816  1.00  0.00     0.040 A 
ATOM     81  F   UNL     1      -9.047 -12.134   5.308  1.00  0.00    -0.206 F 
ATOM     82  C   UNL     1     -11.747 -10.486   7.075  1.00  0.00     0.006 A 
ENDBRANCH  61  75
BRANCH  62  83
ATOM     83  C   UNL     1      -6.889 -11.430  -4.742  1.00  0.00     0.057 A 
ATOM     84  C   UNL     1      -7.693 -11.586  -5.877  1.00  0.00     0.134 A 
ATOM     85  C   UNL     1      -5.505 -11.357  -4.935  1.00  0.00     0.134 A 
ATOM     86  F   UNL     1      -9.025 -11.674  -5.753  1.00  0.00    -0.206 F 
ATOM     87  C   UNL     1      -7.141 -11.681  -7.156  1.00  0.00     0.040 A 
ATOM     88  C   UNL     1      -4.940 -11.431  -6.210  1.00  0.00     0.040 A 
ATOM     89  F   UNL     1      -4.683 -11.188  -3.889  1.00  0.00    -0.206 F 
ATOM     90  C   UNL     1      -5.760 -11.598  -7.324  1.00  0.00     0.006 A 
ENDBRANCH  62  83
BRANCH  74  91
ATOM     91  C   UNL     1     -10.183 -15.936  -0.577  1.00  0.00     0.057 A 
ATOM     92  C   UNL     1      -9.235 -16.963  -0.504  1.00  0.00     0.134 A 
ATOM     93  C   UNL     1     -11.521 -16.300  -0.773  1.00  0.00     0.134 A 
ATOM     94  F   UNL     1      -7.936 -16.678  -0.330  1.00  0.00    -0.206 F 
ATOM     95  C   UNL     1      -9.602 -18.303  -0.639  1.00  0.00     0.040 A 
ATOM     96  C   UNL     1     -11.904 -17.637  -0.886  1.00  0.00     0.040 A 
ATOM     97  F   UNL     1     -12.479 -15.363  -0.844  1.00  0.00    -0.206 F 
ATOM     98  C   UNL     1     -10.941 -18.642  -0.824  1.00  0.00     0.006 A 
ENDBRANCH  74  91
ENDBRANCH  48  49
ENDBRANCH  40  43
ENDBRANCH  38  39
ENDBRANCH  37  38
ENDBRANCH   1  37
TORSDOF 16
