REMARK SMILES O=C(N[C@H]1c2ccccc2C[C@H]1C(=O)NCCCNC(=O)c1ccc(-c2c3nc(c(-c4c(F)cccc4F)c4ccc([nH]4)c(-c4c(F)cccc4F)c4nc(c(-c5c(F)cccc5F)c5ccc2[nH]5)C=C4)C=C3)cc1)OCC1c2ccccc2-c2ccccc21
REMARK SMILES IDX 16 1 15 2 13 3 14 4 12 6 4 7 5 8 6 9 10 10 11 11 7 12 9 13
REMARK SMILES IDX 8 14 3 15 1 16 2 17 76 19 77 20 78 21 79 22 90 23 80 24
REMARK SMILES IDX 84 25 85 26 89 27 81 28 83 29 86 30 88 31 82 32 87 33 17 34
REMARK SMILES IDX 18 35 19 36 20 37 21 39 22 40 23 41 75 42 24 43 74 44 25 45
REMARK SMILES IDX 26 46 27 47 68 48 28 49 73 50 67 51 69 52 29 53 72 54 66 55
REMARK SMILES IDX 65 56 30 58 56 59 39 60 55 61 40 62 43 63 54 64 70 65 41 66
REMARK SMILES IDX 42 67 53 69 71 70 44 71 31 72 32 73 37 74 33 75 34 76 36 77
REMARK SMILES IDX 38 78 35 79 57 80 58 81 63 82 59 83 60 84 62 85 64 86 61 87
REMARK SMILES IDX 45 88 46 89 51 90 47 91 48 92 50 93 52 94 49 95
REMARK H PARENT 15 5 3 18 19 38 69 57 43 68
REMARK Flexibility Score: inf
ROOT
ATOM      1  C   UNL     1       5.783  -3.068   1.244  1.00  0.00     0.117 C 
ENDROOT
BRANCH   1   2
ATOM      2  N   UNL     1       4.460  -2.534   0.986  1.00  0.00    -0.356 N 
ATOM      3  C   UNL     1       3.925  -1.376   1.470  1.00  0.00     0.225 C 
ATOM      4  O   UNL     1       2.713  -1.350   1.671  1.00  0.00    -0.275 OA
ATOM      5  H   UNL     1       3.881  -3.068   0.395  1.00  0.00     0.163 HD
BRANCH   3   6
ATOM      6  C   UNL     1       4.838  -0.191   1.703  1.00  0.00     0.110 C 
ATOM      7  C   UNL     1       4.386   1.123   1.001  1.00  0.00     0.129 C 
ATOM      8  C   UNL     1       4.848   2.153   1.995  1.00  0.00    -0.021 A 
ATOM      9  C   UNL     1       4.977   3.518   1.787  1.00  0.00     0.006 A 
ATOM     10  C   UNL     1       5.255   1.566   3.197  1.00  0.00    -0.042 A 
ATOM     11  C   UNL     1       4.981   0.099   3.203  1.00  0.00     0.052 C 
ATOM     12  C   UNL     1       5.554   4.290   2.796  1.00  0.00     0.000 A 
ATOM     13  C   UNL     1       5.828   2.325   4.204  1.00  0.00     0.004 A 
ATOM     14  C   UNL     1       5.988   3.695   3.991  1.00  0.00     0.000 A 
BRANCH   7  15
ATOM     15  N   UNL     1       2.986   1.241   0.682  1.00  0.00    -0.314 N 
ATOM     16  O   UNL     1       1.068   1.272  -0.453  1.00  0.00    -0.225 OA
ATOM     17  C   UNL     1       2.273   1.019  -0.461  1.00  0.00     0.407 C 
ATOM     18  H   UNL     1       2.433   1.541   1.440  1.00  0.00     0.167 HD
BRANCH  17  19
ATOM     19  O   UNL     1       2.857   0.607  -1.618  1.00  0.00    -0.449 OA
BRANCH  19  20
ATOM     20  C   UNL     1       4.049  -0.177  -1.769  1.00  0.00     0.248 C 
BRANCH  20  21
ATOM     21  C   UNL     1       5.137   0.507  -2.608  1.00  0.00     0.088 C 
ATOM     22  C   UNL     1       6.544   0.034  -2.216  1.00  0.00    -0.029 A 
ATOM     23  C   UNL     1       5.291   2.022  -2.501  1.00  0.00    -0.029 A 
ATOM     24  C   UNL     1       7.001  -1.256  -1.982  1.00  0.00     0.005 A 
ATOM     25  C   UNL     1       7.401   1.146  -2.063  1.00  0.00    -0.014 A 
ATOM     26  C   UNL     1       6.641   2.360  -2.263  1.00  0.00    -0.014 A 
ATOM     27  C   UNL     1       4.330   3.011  -2.652  1.00  0.00     0.005 A 
ATOM     28  C   UNL     1       8.332  -1.424  -1.586  1.00  0.00     0.000 A 
ATOM     29  C   UNL     1       8.726   0.975  -1.694  1.00  0.00     0.009 A 
ATOM     30  C   UNL     1       7.043   3.685  -2.209  1.00  0.00     0.009 A 
ATOM     31  C   UNL     1       4.728   4.347  -2.562  1.00  0.00     0.000 A 
ATOM     32  C   UNL     1       9.189  -0.320  -1.451  1.00  0.00     0.001 A 
ATOM     33  C   UNL     1       6.075   4.682  -2.360  1.00  0.00     0.001 A 
ENDBRANCH  20  21
ENDBRANCH  19  20
ENDBRANCH  17  19
ENDBRANCH   7  15
ENDBRANCH   3   6
ENDBRANCH   1   2
BRANCH   1  34
ATOM     34  C   UNL     1       5.771  -3.894   2.525  1.00  0.00     0.042 C 
BRANCH  34  35
ATOM     35  C   UNL     1       4.831  -5.094   2.460  1.00  0.00     0.118 C 
BRANCH  35  36
ATOM     36  N   UNL     1       5.269  -6.093   1.496  1.00  0.00    -0.352 N 
ATOM     37  C   UNL     1       5.395  -7.449   1.670  1.00  0.00     0.251 C 
ATOM     38  H   UNL     1       5.505  -5.752   0.603  1.00  0.00     0.163 HD
ATOM     39  O   UNL     1       5.942  -8.136   0.815  1.00  0.00    -0.269 OA
BRANCH  37  40
ATOM     40  C   UNL     1       4.893  -8.065   2.914  1.00  0.00     0.039 A 
ATOM     41  C   UNL     1       5.728  -8.929   3.624  1.00  0.00     0.014 A 
ATOM     42  C   UNL     1       3.613  -7.762   3.389  1.00  0.00     0.014 A 
ATOM     43  C   UNL     1       5.299  -9.447   4.847  1.00  0.00     0.010 A 
ATOM     44  C   UNL     1       3.216  -8.223   4.640  1.00  0.00     0.010 A 
ATOM     45  C   UNL     1       4.053  -9.072   5.378  1.00  0.00    -0.014 A 
BRANCH  45  46
ATOM     46  C   UNL     1       3.611  -9.567   6.705  1.00  0.00     0.031 A 
ATOM     47  C   UNL     1       2.413 -10.469   6.812  1.00  0.00     0.074 A 
ATOM     48  C   UNL     1       4.255  -9.162   7.816  1.00  0.00     0.049 A 
ATOM     49  N   UNL     1       1.849 -10.970   7.881  1.00  0.00    -0.248 NA
ATOM     50  C   UNL     1       1.745 -10.836   5.553  1.00  0.00     0.031 C 
ATOM     51  C   UNL     1       5.398  -8.246   7.847  1.00  0.00     0.029 A 
ATOM     52  N   UNL     1       4.037  -9.465   9.136  1.00  0.00    -0.354 N 
ATOM     53  C   UNL     1       0.758 -11.698   7.426  1.00  0.00     0.074 A 
ATOM     54  C   UNL     1       0.706 -11.530   5.990  1.00  0.00     0.031 C 
ATOM     55  C   UNL     1       5.796  -8.084   9.120  1.00  0.00     0.029 A 
ATOM     56  C   UNL     1       4.921  -8.857   9.995  1.00  0.00     0.049 A 
ATOM     57  H   UNL     1       3.315 -10.062   9.440  1.00  0.00     0.167 HD
ATOM     58  C   UNL     1      -0.108 -12.459   8.137  1.00  0.00     0.037 A 
ATOM     59  C   UNL     1       5.013  -8.918  11.336  1.00  0.00     0.037 A 
ATOM     60  C   UNL     1      -0.038 -12.646   9.562  1.00  0.00     0.049 A 
ATOM     61  C   UNL     1       4.043  -9.775  12.101  1.00  0.00     0.074 A 
ATOM     62  C   UNL     1      -0.835 -13.441  10.367  1.00  0.00     0.029 A 
ATOM     63  N   UNL     1       0.884 -12.031  10.393  1.00  0.00    -0.354 N 
ATOM     64  N   UNL     1       3.058 -10.513  11.649  1.00  0.00    -0.248 NA
ATOM     65  C   UNL     1       4.204  -9.815  13.561  1.00  0.00     0.031 C 
ATOM     66  C   UNL     1      -0.415 -13.281  11.691  1.00  0.00     0.029 A 
ATOM     67  C   UNL     1       0.668 -12.417  11.705  1.00  0.00     0.049 A 
ATOM     68  H   UNL     1       1.589 -11.411  10.095  1.00  0.00     0.167 HD
ATOM     69  C   UNL     1       2.501 -11.125  12.764  1.00  0.00     0.074 A 
ATOM     70  C   UNL     1       3.267 -10.684  13.911  1.00  0.00     0.031 C 
ATOM     71  C   UNL     1       1.448 -11.976  12.832  1.00  0.00     0.037 A 
BRANCH  58  72
ATOM     72  C   UNL     1      -1.197 -13.156   7.377  1.00  0.00     0.057 A 
ATOM     73  C   UNL     1      -0.927 -14.244   6.536  1.00  0.00     0.134 A 
ATOM     74  C   UNL     1      -2.533 -12.760   7.512  1.00  0.00     0.134 A 
ATOM     75  F   UNL     1       0.334 -14.665   6.353  1.00  0.00    -0.206 F 
ATOM     76  C   UNL     1      -1.943 -14.897   5.837  1.00  0.00     0.040 A 
ATOM     77  C   UNL     1      -3.561 -13.421   6.838  1.00  0.00     0.040 A 
ATOM     78  F   UNL     1      -2.862 -11.729   8.305  1.00  0.00    -0.206 F 
ATOM     79  C   UNL     1      -3.266 -14.489   5.993  1.00  0.00     0.006 A 
ENDBRANCH  58  72
BRANCH  59  80
ATOM     80  C   UNL     1       6.082  -8.170  12.045  1.00  0.00     0.057 A 
ATOM     81  C   UNL     1       7.152  -8.843  12.647  1.00  0.00     0.134 A 
ATOM     82  C   UNL     1       6.053  -6.775  12.152  1.00  0.00     0.134 A 
ATOM     83  F   UNL     1       7.224 -10.181  12.592  1.00  0.00    -0.206 F 
ATOM     84  C   UNL     1       8.144  -8.157  13.350  1.00  0.00     0.040 A 
ATOM     85  C   UNL     1       7.050  -6.075  12.833  1.00  0.00     0.040 A 
ATOM     86  F   UNL     1       5.059  -6.073  11.590  1.00  0.00    -0.206 F 
ATOM     87  C   UNL     1       8.096  -6.768  13.441  1.00  0.00     0.006 A 
ENDBRANCH  59  80
BRANCH  71  88
ATOM     88  C   UNL     1       1.089 -12.512  14.186  1.00  0.00     0.057 A 
ATOM     89  C   UNL     1       0.463 -11.716  15.153  1.00  0.00     0.134 A 
ATOM     90  C   UNL     1       1.344 -13.850  14.512  1.00  0.00     0.134 A 
ATOM     91  F   UNL     1       0.204 -10.423  14.906  1.00  0.00    -0.206 F 
ATOM     92  C   UNL     1       0.123 -12.227  16.407  1.00  0.00     0.040 A 
ATOM     93  C   UNL     1       0.987 -14.378  15.753  1.00  0.00     0.040 A 
ATOM     94  F   UNL     1       1.935 -14.667  13.627  1.00  0.00    -0.206 F 
ATOM     95  C   UNL     1       0.380 -13.564  16.707  1.00  0.00     0.006 A 
ENDBRANCH  71  88
ENDBRANCH  45  46
ENDBRANCH  37  40
ENDBRANCH  35  36
ENDBRANCH  34  35
ENDBRANCH   1  34
TORSDOF 14
