REMARK SMILES CC(C)N1C(=O)C[C@@H](C(=O)NCCCNC(=O)c2ccc(-c3c4nc(c(-c5c(F)cccc5F)c5ccc([nH]5)c(-c5c(F)cccc5F)c5nc(c(-c6c(F)cccc6F)c6ccc3[nH]6)C=C5)C=C4)cc2)[C@H]1c1ccccc1
REMARK SMILES IDX 13 1 12 2 11 3 9 4 10 5 8 7 4 8 5 9 72 10 6 11 7 12 2 13
REMARK SMILES IDX 1 14 3 15 73 16 74 17 78 18 75 19 77 20 76 21 14 22 15 23
REMARK SMILES IDX 16 24 17 26 18 27 19 28 71 29 20 30 70 31 21 32 22 33 23 34
REMARK SMILES IDX 64 35 24 36 69 37 63 38 65 39 25 40 68 41 62 42 61 43 26 45
REMARK SMILES IDX 52 46 35 47 51 48 36 49 39 50 50 51 66 52 37 53 38 54 49 56
REMARK SMILES IDX 67 57 40 58 27 59 28 60 33 61 29 62 30 63 32 64 34 65 31 66
REMARK SMILES IDX 53 67 54 68 59 69 55 70 56 71 58 72 60 73 57 74 41 75 42 76
REMARK SMILES IDX 47 77 43 78 44 79 46 80 48 81 45 82
REMARK H PARENT 11 6 15 25 65 44 39 55
REMARK Flexibility Score: inf
ROOT
ATOM      1  C   UNL     1      -6.736  -0.009  -3.101  1.00  0.00     0.042 C 
ENDROOT
BRANCH   1   2
ATOM      2  C   UNL     1      -5.898  -1.264  -2.850  1.00  0.00     0.117 C 
BRANCH   2   3
ATOM      3  N   UNL     1      -4.697  -1.252  -3.663  1.00  0.00    -0.356 N 
ATOM      4  C   UNL     1      -3.462  -0.784  -3.330  1.00  0.00     0.226 C 
ATOM      5  O   UNL     1      -2.817  -0.229  -4.217  1.00  0.00    -0.275 OA
ATOM      6  H   UNL     1      -4.786  -1.628  -4.568  1.00  0.00     0.163 HD
BRANCH   4   7
ATOM      7  C   UNL     1      -2.982  -0.900  -1.892  1.00  0.00     0.115 C 
ATOM      8  N   UNL     1      -0.713  -0.221  -1.693  1.00  0.00    -0.332 N 
ATOM      9  C   UNL     1      -1.499   0.918  -1.491  1.00  0.00     0.224 C 
ATOM     10  C   UNL     1      -1.543  -1.418  -1.687  1.00  0.00     0.128 C 
ATOM     11  O   UNL     1      -1.094   2.063  -1.333  1.00  0.00    -0.275 OA
ATOM     12  C   UNL     1      -2.939   0.507  -1.316  1.00  0.00     0.116 C 
BRANCH   8  13
ATOM     13  C   UNL     1       0.734  -0.153  -1.412  1.00  0.00     0.079 C 
ATOM     14  C   UNL     1       0.990   0.046   0.088  1.00  0.00     0.031 C 
ATOM     15  C   UNL     1       1.586  -1.321  -1.903  1.00  0.00     0.031 C 
ENDBRANCH   8  13
BRANCH  10  16
ATOM     16  C   UNL     1      -1.134  -2.565  -2.591  1.00  0.00    -0.025 A 
ATOM     17  C   UNL     1      -0.815  -2.376  -3.946  1.00  0.00     0.006 A 
ATOM     18  C   UNL     1      -1.040  -3.867  -2.072  1.00  0.00     0.006 A 
ATOM     19  C   UNL     1      -0.432  -3.444  -4.759  1.00  0.00     0.000 A 
ATOM     20  C   UNL     1      -0.629  -4.933  -2.879  1.00  0.00     0.000 A 
ATOM     21  C   UNL     1      -0.333  -4.722  -4.223  1.00  0.00     0.000 A 
ENDBRANCH  10  16
ENDBRANCH   4   7
ENDBRANCH   2   3
ENDBRANCH   1   2
BRANCH   1  22
ATOM     22  C   UNL     1      -7.171   0.183  -4.555  1.00  0.00     0.118 C 
BRANCH  22  23
ATOM     23  N   UNL     1      -7.967  -0.927  -5.056  1.00  0.00    -0.352 N 
ATOM     24  C   UNL     1      -9.227  -0.952  -5.595  1.00  0.00     0.251 C 
ATOM     25  H   UNL     1      -7.527  -1.806  -4.998  1.00  0.00     0.163 HD
ATOM     26  O   UNL     1      -9.777  -2.034  -5.782  1.00  0.00    -0.269 OA
BRANCH  24  27
ATOM     27  C   UNL     1      -9.942   0.300  -5.932  1.00  0.00     0.039 A 
ATOM     28  C   UNL     1     -11.314   0.367  -5.675  1.00  0.00     0.014 A 
ATOM     29  C   UNL     1      -9.295   1.385  -6.530  1.00  0.00     0.014 A 
ATOM     30  C   UNL     1     -12.020   1.537  -5.958  1.00  0.00     0.010 A 
ATOM     31  C   UNL     1      -9.984   2.581  -6.740  1.00  0.00     0.010 A 
ATOM     32  C   UNL     1     -11.354   2.671  -6.455  1.00  0.00    -0.014 A 
BRANCH  32  33
ATOM     33  C   UNL     1     -12.087   3.952  -6.631  1.00  0.00     0.031 A 
ATOM     34  C   UNL     1     -12.263   4.569  -7.992  1.00  0.00     0.074 A 
ATOM     35  C   UNL     1     -12.581   4.576  -5.544  1.00  0.00     0.049 A 
ATOM     36  N   UNL     1     -12.909   5.659  -8.325  1.00  0.00    -0.248 NA
ATOM     37  C   UNL     1     -11.614   3.889  -9.122  1.00  0.00     0.031 C 
ATOM     38  C   UNL     1     -12.425   4.115  -4.162  1.00  0.00     0.029 A 
ATOM     39  N   UNL     1     -13.320   5.726  -5.427  1.00  0.00    -0.354 N 
ATOM     40  C   UNL     1     -12.745   5.794  -9.698  1.00  0.00     0.074 A 
ATOM     41  C   UNL     1     -11.890   4.708 -10.127  1.00  0.00     0.031 C 
ATOM     42  C   UNL     1     -13.084   4.948  -3.343  1.00  0.00     0.029 A 
ATOM     43  C   UNL     1     -13.676   6.022  -4.133  1.00  0.00     0.049 A 
ATOM     44  H   UNL     1     -13.571   6.287  -6.196  1.00  0.00     0.167 HD
ATOM     45  C   UNL     1     -13.277   6.724 -10.529  1.00  0.00     0.037 A 
ATOM     46  C   UNL     1     -14.402   7.041  -3.636  1.00  0.00     0.037 A 
ATOM     47  C   UNL     1     -14.130   7.804 -10.101  1.00  0.00     0.049 A 
ATOM     48  C   UNL     1     -14.976   8.060  -4.580  1.00  0.00     0.074 A 
ATOM     49  C   UNL     1     -14.761   8.764 -10.873  1.00  0.00     0.029 A 
ATOM     50  N   UNL     1     -14.465   8.073  -8.782  1.00  0.00    -0.354 N 
ATOM     51  N   UNL     1     -14.881   8.127  -5.885  1.00  0.00    -0.248 NA
ATOM     52  C   UNL     1     -15.769   9.140  -3.978  1.00  0.00     0.031 C 
ATOM     53  C   UNL     1     -15.431   9.647 -10.018  1.00  0.00     0.029 A 
ATOM     54  C   UNL     1     -15.270   9.201  -8.717  1.00  0.00     0.049 A 
ATOM     55  H   UNL     1     -14.174   7.542  -8.005  1.00  0.00     0.167 HD
ATOM     56  C   UNL     1     -15.620   9.240  -6.264  1.00  0.00     0.074 A 
ATOM     57  C   UNL     1     -16.181   9.799  -5.051  1.00  0.00     0.031 C 
ATOM     58  C   UNL     1     -15.813   9.757  -7.503  1.00  0.00     0.037 A 
BRANCH  45  59
ATOM     59  C   UNL     1     -12.949   6.615 -11.993  1.00  0.00     0.057 A 
ATOM     60  C   UNL     1     -13.443   5.570 -12.786  1.00  0.00     0.134 A 
ATOM     61  C   UNL     1     -12.164   7.587 -12.626  1.00  0.00     0.134 A 
ATOM     62  F   UNL     1     -14.193   4.599 -12.243  1.00  0.00    -0.206 F 
ATOM     63  C   UNL     1     -13.146   5.481 -14.148  1.00  0.00     0.040 A 
ATOM     64  C   UNL     1     -11.886   7.526 -13.993  1.00  0.00     0.040 A 
ATOM     65  F   UNL     1     -11.664   8.620 -11.931  1.00  0.00    -0.206 F 
ATOM     66  C   UNL     1     -12.371   6.466 -14.757  1.00  0.00     0.006 A 
ENDBRANCH  45  59
BRANCH  46  67
ATOM     67  C   UNL     1     -14.650   7.135  -2.175  1.00  0.00     0.057 A 
ATOM     68  C   UNL     1     -15.932   6.950  -1.643  1.00  0.00     0.134 A 
ATOM     69  C   UNL     1     -13.616   7.425  -1.276  1.00  0.00     0.134 A 
ATOM     70  F   UNL     1     -16.967   6.687  -2.455  1.00  0.00    -0.206 F 
ATOM     71  C   UNL     1     -16.183   7.075  -0.276  1.00  0.00     0.040 A 
ATOM     72  C   UNL     1     -13.847   7.524   0.097  1.00  0.00     0.040 A 
ATOM     73  F   UNL     1     -12.363   7.604  -1.719  1.00  0.00    -0.206 F 
ATOM     74  C   UNL     1     -15.136   7.358   0.599  1.00  0.00     0.006 A 
ENDBRANCH  46  67
BRANCH  58  75
ATOM     75  C   UNL     1     -16.689  10.975  -7.600  1.00  0.00     0.057 A 
ATOM     76  C   UNL     1     -16.294  12.217  -7.086  1.00  0.00     0.134 A 
ATOM     77  C   UNL     1     -17.950  10.901  -8.207  1.00  0.00     0.134 A 
ATOM     78  F   UNL     1     -15.105  12.356  -6.481  1.00  0.00    -0.206 F 
ATOM     79  C   UNL     1     -17.139  13.328  -7.129  1.00  0.00     0.040 A 
ATOM     80  C   UNL     1     -18.790  12.013  -8.287  1.00  0.00     0.040 A 
ATOM     81  F   UNL     1     -18.389   9.747  -8.731  1.00  0.00    -0.206 F 
ATOM     82  C   UNL     1     -18.390  13.228  -7.734  1.00  0.00     0.006 A 
ENDBRANCH  58  75
ENDBRANCH  32  33
ENDBRANCH  24  27
ENDBRANCH  22  23
ENDBRANCH   1  22
TORSDOF 12
