REMARK SMILES C[C@H]([C@H](C)C(=O)NCCCNC(=O)c1ccc(-c2c3nc(c(-c4c(F)cccc4F)c4ccc([nH]4)c(-c4c(F)cccc4F)c4nc(c(-c5c(F)cccc5F)c5ccc2[nH]5)C=C4)C=C3)cc1)[C@H](O)c1cncn1C1CC1
REMARK SMILES IDX 8 1 7 2 5 3 6 4 3 6 4 7 2 8 1 9 68 10 70 11 71 12 74 13
REMARK SMILES IDX 72 14 73 15 75 16 76 17 77 18 69 19 9 21 10 22 11 23 12 24
REMARK SMILES IDX 13 26 14 27 15 28 67 29 16 30 66 31 17 32 18 33 19 34 60 35
REMARK SMILES IDX 20 36 65 37 59 38 61 39 21 40 64 41 58 42 57 43 22 45 48 46
REMARK SMILES IDX 31 47 47 48 32 49 35 50 46 51 62 52 33 53 34 54 45 56 63 57
REMARK SMILES IDX 36 58 23 59 24 60 29 61 25 62 26 63 28 64 30 65 27 66 49 67
REMARK SMILES IDX 50 68 55 69 51 70 52 71 54 72 56 73 53 74 37 75 38 76 43 77
REMARK SMILES IDX 39 78 40 79 42 80 44 81 41 82
REMARK H PARENT 7 5 69 20 11 25 61 44 35 55
REMARK Flexibility Score: inf
ROOT
ATOM      1  C   UNL     1       0.427  -0.896   2.666  1.00  0.00     0.117 C 
ENDROOT
BRANCH   1   2
ATOM      2  N   UNL     1       1.199  -1.034   1.466  1.00  0.00    -0.356 N 
ATOM      3  C   UNL     1       0.809  -1.136   0.179  1.00  0.00     0.223 C 
ATOM      4  O   UNL     1       1.725  -1.001  -0.645  1.00  0.00    -0.275 OA
ATOM      5  H   UNL     1       2.173  -1.058   1.603  1.00  0.00     0.163 HD
BRANCH   3   6
ATOM      6  C   UNL     1      -0.605  -1.467  -0.330  1.00  0.00     0.081 C 
ATOM      7  C   UNL     1      -0.488  -2.857  -0.991  1.00  0.00     0.018 C 
BRANCH   6   8
ATOM      8  C   UNL     1      -1.970  -1.298   0.441  1.00  0.00     0.033 C 
ATOM      9  C   UNL     1      -2.449  -2.554   1.185  1.00  0.00     0.011 C 
BRANCH   8  10
ATOM     10  C   UNL     1      -2.324   0.116   1.050  1.00  0.00     0.166 C 
BRANCH  10  11
ATOM     11  C   UNL     1      -2.370   0.341   2.546  1.00  0.00     0.067 A 
ATOM     12  C   UNL     1      -2.779  -0.550   3.542  1.00  0.00     0.137 A 
ATOM     13  N   UNL     1      -2.158   1.506   3.291  1.00  0.00    -0.329 N 
ATOM     14  N   UNL     1      -2.602  -0.066   4.803  1.00  0.00    -0.245 NA
ATOM     15  C   UNL     1      -2.218   1.169   4.622  1.00  0.00     0.199 A 
BRANCH  13  16
ATOM     16  C   UNL     1      -2.001   2.915   2.967  1.00  0.00     0.088 C 
ATOM     17  C   UNL     1      -1.084   3.530   1.939  1.00  0.00     0.027 C 
ATOM     18  C   UNL     1      -2.562   3.553   1.717  1.00  0.00     0.027 C 
ENDBRANCH  13  16
ENDBRANCH  10  11
BRANCH  10  19
ATOM     19  O   UNL     1      -1.443   1.050   0.461  1.00  0.00    -0.387 OA
ATOM     20  H   UNL     1      -0.534   0.859   0.742  1.00  0.00     0.211 HD
ENDBRANCH  10  19
ENDBRANCH   8  10
ENDBRANCH   6   8
ENDBRANCH   3   6
ENDBRANCH   1   2
BRANCH   1  21
ATOM     21  C   UNL     1       1.071  -1.446   3.919  1.00  0.00     0.042 C 
BRANCH  21  22
ATOM     22  C   UNL     1       2.245  -0.606   4.393  1.00  0.00     0.118 C 
BRANCH  22  23
ATOM     23  N   UNL     1       1.855   0.721   4.865  1.00  0.00    -0.352 N 
ATOM     24  C   UNL     1       1.522   1.201   6.113  1.00  0.00     0.251 C 
ATOM     25  H   UNL     1       1.823   1.402   4.155  1.00  0.00     0.163 HD
ATOM     26  O   UNL     1       1.022   2.318   6.204  1.00  0.00    -0.269 OA
BRANCH  24  27
ATOM     27  C   UNL     1       1.725   0.383   7.333  1.00  0.00     0.039 A 
ATOM     28  C   UNL     1       0.835   0.511   8.405  1.00  0.00     0.014 A 
ATOM     29  C   UNL     1       2.795  -0.498   7.445  1.00  0.00     0.014 A 
ATOM     30  C   UNL     1       0.966  -0.318   9.526  1.00  0.00     0.010 A 
ATOM     31  C   UNL     1       2.831  -1.425   8.478  1.00  0.00     0.010 A 
ATOM     32  C   UNL     1       1.927  -1.341   9.544  1.00  0.00    -0.014 A 
BRANCH  32  33
ATOM     33  C   UNL     1       2.036  -2.325  10.655  1.00  0.00     0.031 A 
ATOM     34  C   UNL     1       3.357  -2.524  11.359  1.00  0.00     0.074 A 
ATOM     35  C   UNL     1       0.992  -3.123  10.956  1.00  0.00     0.049 A 
ATOM     36  N   UNL     1       3.712  -3.452  12.212  1.00  0.00    -0.248 NA
ATOM     37  C   UNL     1       4.441  -1.591  11.010  1.00  0.00     0.031 C 
ATOM     38  C   UNL     1      -0.321  -3.090  10.308  1.00  0.00     0.029 A 
ATOM     39  N   UNL     1       0.877  -4.133  11.879  1.00  0.00    -0.354 N 
ATOM     40  C   UNL     1       5.066  -3.245  12.453  1.00  0.00     0.074 A 
ATOM     41  C   UNL     1       5.482  -2.146  11.611  1.00  0.00     0.031 C 
ATOM     42  C   UNL     1      -1.119  -4.005  10.879  1.00  0.00     0.029 A 
ATOM     43  C   UNL     1      -0.362  -4.725  11.898  1.00  0.00     0.049 A 
ATOM     44  H   UNL     1       1.614  -4.407  12.472  1.00  0.00     0.167 HD
ATOM     45  C   UNL     1       5.884  -3.888  13.319  1.00  0.00     0.037 A 
ATOM     46  C   UNL     1      -0.835  -5.738  12.648  1.00  0.00     0.037 A 
ATOM     47  C   UNL     1       5.449  -4.925  14.216  1.00  0.00     0.049 A 
ATOM     48  C   UNL     1       0.072  -6.395  13.649  1.00  0.00     0.074 A 
ATOM     49  C   UNL     1       6.171  -5.574  15.201  1.00  0.00     0.029 A 
ATOM     50  N   UNL     1       4.166  -5.451  14.245  1.00  0.00    -0.354 N 
ATOM     51  N   UNL     1       1.333  -6.150  13.906  1.00  0.00    -0.248 NA
ATOM     52  C   UNL     1      -0.512  -7.468  14.466  1.00  0.00     0.031 C 
ATOM     53  C   UNL     1       5.332  -6.513  15.810  1.00  0.00     0.029 A 
ATOM     54  C   UNL     1       4.078  -6.423  15.227  1.00  0.00     0.049 A 
ATOM     55  H   UNL     1       3.428  -5.175  13.655  1.00  0.00     0.167 HD
ATOM     56  C   UNL     1       1.688  -7.019  14.929  1.00  0.00     0.074 A 
ATOM     57  C   UNL     1       0.505  -7.788  15.254  1.00  0.00     0.031 C 
ATOM     58  C   UNL     1       2.887  -7.169  15.542  1.00  0.00     0.037 A 
BRANCH  45  59
ATOM     59  C   UNL     1       7.326  -3.468  13.351  1.00  0.00     0.057 A 
ATOM     60  C   UNL     1       7.724  -2.217  13.843  1.00  0.00     0.134 A 
ATOM     61  C   UNL     1       8.332  -4.330  12.895  1.00  0.00     0.134 A 
ATOM     62  F   UNL     1       6.810  -1.339  14.284  1.00  0.00    -0.206 F 
ATOM     63  C   UNL     1       9.063  -1.823  13.843  1.00  0.00     0.040 A 
ATOM     64  C   UNL     1       9.678  -3.958  12.919  1.00  0.00     0.040 A 
ATOM     65  F   UNL     1       8.025  -5.545  12.419  1.00  0.00    -0.206 F 
ATOM     66  C   UNL     1      10.045  -2.697  13.384  1.00  0.00     0.006 A 
ENDBRANCH  45  59
BRANCH  46  67
ATOM     67  C   UNL     1      -2.251  -6.164  12.510  1.00  0.00     0.057 A 
ATOM     68  C   UNL     1      -3.185  -5.873  13.511  1.00  0.00     0.134 A 
ATOM     69  C   UNL     1      -2.706  -6.858  11.383  1.00  0.00     0.134 A 
ATOM     70  F   UNL     1      -2.803  -5.226  14.622  1.00  0.00    -0.206 F 
ATOM     71  C   UNL     1      -4.518  -6.271  13.406  1.00  0.00     0.040 A 
ATOM     72  C   UNL     1      -4.042  -7.242  11.255  1.00  0.00     0.040 A 
ATOM     73  F   UNL     1      -1.863  -7.158  10.385  1.00  0.00    -0.206 F 
ATOM     74  C   UNL     1      -4.951  -6.954  12.271  1.00  0.00     0.006 A 
ENDBRANCH  46  67
BRANCH  58  75
ATOM     75  C   UNL     1       2.969  -8.177  16.648  1.00  0.00     0.057 A 
ATOM     76  C   UNL     1       2.983  -9.553  16.392  1.00  0.00     0.134 A 
ATOM     77  C   UNL     1       3.077  -7.763  17.982  1.00  0.00     0.134 A 
ATOM     78  F   UNL     1       2.869 -10.012  15.136  1.00  0.00    -0.206 F 
ATOM     79  C   UNL     1       3.085 -10.485  17.426  1.00  0.00     0.040 A 
ATOM     80  C   UNL     1       3.204  -8.684  19.022  1.00  0.00     0.040 A 
ATOM     81  F   UNL     1       3.077  -6.458  18.293  1.00  0.00    -0.206 F 
ATOM     82  C   UNL     1       3.203 -10.050  18.745  1.00  0.00     0.006 A 
ENDBRANCH  58  75
ENDBRANCH  32  33
ENDBRANCH  24  27
ENDBRANCH  22  23
ENDBRANCH  21  22
ENDBRANCH   1  21
TORSDOF 15
