REMARK SMILES CC[C@@H](C(=O)NCCCNC(=O)c1ccc(-c2c3nc(c(-c4c(F)cccc4F)c4ccc([nH]4)c(-c4c(F)cccc4F)c4nc(c(-c5c(F)cccc5F)c5ccc2[nH]5)C=C4)C=C3)cc1)N(C)C(=O)N(C)CC(C)(C)O
REMARK SMILES IDX 4 1 5 2 6 3 3 5 2 6 1 7 67 8 68 9 69 10 70 11 71 12 72 13
REMARK SMILES IDX 73 14 74 15 75 16 76 17 77 18 7 20 8 21 9 22 10 23 11 24
REMARK SMILES IDX 12 26 13 27 14 28 66 29 15 30 65 31 16 32 17 33 18 34 59 35
REMARK SMILES IDX 19 36 64 37 58 38 60 39 20 40 63 41 57 42 56 43 21 45 47 46
REMARK SMILES IDX 30 47 46 48 31 49 34 50 45 51 61 52 32 53 33 54 44 56 62 57
REMARK SMILES IDX 35 58 22 59 23 60 28 61 24 62 25 63 27 64 29 65 26 66 48 67
REMARK SMILES IDX 49 68 54 69 50 70 51 71 53 72 55 73 52 74 36 75 37 76 42 77
REMARK SMILES IDX 38 78 39 79 41 80 43 81 40 82
REMARK H PARENT 6 4 77 19 10 25 60 44 34 55
REMARK Flexibility Score: inf
ROOT
ATOM      1  C   UNL     1       0.322  -1.256   2.270  1.00  0.00     0.242 C 
ATOM      2  O   UNL     1      -0.409  -1.727   3.149  1.00  0.00    -0.273 OA
ATOM      3  N   UNL     1       0.779  -0.010   2.562  1.00  0.00    -0.354 N 
ATOM      4  H   UNL     1       0.337   0.399   3.341  1.00  0.00     0.163 HD
ENDROOT
BRANCH   1   5
ATOM      5  C   UNL     1       0.767  -2.062   1.005  1.00  0.00     0.175 C 
BRANCH   5   6
ATOM      6  C   UNL     1       0.263  -1.612  -0.387  1.00  0.00     0.032 C 
ATOM      7  C   UNL     1       0.985  -0.456  -1.052  1.00  0.00     0.006 C 
ENDBRANCH   5   6
BRANCH   5   8
ATOM      8  N   UNL     1       0.413  -3.508   1.255  1.00  0.00    -0.316 N 
ATOM      9  C   UNL     1       1.510  -4.340   1.711  1.00  0.00     0.149 C 
BRANCH   8  10
ATOM     10  C   UNL     1      -0.931  -3.848   1.186  1.00  0.00     0.320 C 
ATOM     11  O   UNL     1      -1.744  -2.996   0.801  1.00  0.00    -0.248 OA
BRANCH  10  12
ATOM     12  N   UNL     1      -1.426  -5.088   1.533  1.00  0.00    -0.325 N 
ATOM     13  C   UNL     1      -0.750  -6.343   1.830  1.00  0.00     0.148 C 
BRANCH  12  14
ATOM     14  C   UNL     1      -2.905  -5.210   1.549  1.00  0.00     0.155 C 
BRANCH  14  15
ATOM     15  C   UNL     1      -3.631  -4.727   2.841  1.00  0.00     0.077 C 
ATOM     16  C   UNL     1      -3.546  -3.217   3.080  1.00  0.00     0.043 C 
ATOM     17  C   UNL     1      -5.114  -5.114   2.745  1.00  0.00     0.043 C 
BRANCH  15  18
ATOM     18  O   UNL     1      -3.104  -5.430   3.978  1.00  0.00    -0.389 OA
ATOM     19  H   UNL     1      -2.163  -5.218   4.082  1.00  0.00     0.211 HD
ENDBRANCH  15  18
ENDBRANCH  14  15
ENDBRANCH  12  14
ENDBRANCH  10  12
ENDBRANCH   8  10
ENDBRANCH   5   8
ENDBRANCH   1   5
BRANCH   3  20
ATOM     20  C   UNL     1       1.784   0.836   1.958  1.00  0.00     0.117 C 
BRANCH  20  21
ATOM     21  C   UNL     1       1.170   2.117   1.401  1.00  0.00     0.042 C 
BRANCH  21  22
ATOM     22  C   UNL     1       0.635   3.072   2.463  1.00  0.00     0.118 C 
BRANCH  22  23
ATOM     23  N   UNL     1       1.686   3.836   3.118  1.00  0.00    -0.352 N 
ATOM     24  C   UNL     1       2.001   5.169   3.028  1.00  0.00     0.251 C 
ATOM     25  H   UNL     1       2.263   3.314   3.721  1.00  0.00     0.163 HD
ATOM     26  O   UNL     1       3.053   5.574   3.530  1.00  0.00    -0.269 OA
BRANCH  24  27
ATOM     27  C   UNL     1       1.122   6.124   2.315  1.00  0.00     0.039 A 
ATOM     28  C   UNL     1       1.710   7.106   1.510  1.00  0.00     0.014 A 
ATOM     29  C   UNL     1      -0.268   6.087   2.450  1.00  0.00     0.014 A 
ATOM     30  C   UNL     1       0.907   7.989   0.783  1.00  0.00     0.010 A 
ATOM     31  C   UNL     1      -1.069   6.910   1.659  1.00  0.00     0.010 A 
ATOM     32  C   UNL     1      -0.491   7.868   0.814  1.00  0.00    -0.014 A 
BRANCH  32  33
ATOM     33  C   UNL     1      -1.358   8.715  -0.047  1.00  0.00     0.031 A 
ATOM     34  C   UNL     1      -2.343   9.675   0.561  1.00  0.00     0.074 A 
ATOM     35  C   UNL     1      -1.305   8.572  -1.386  1.00  0.00     0.049 A 
ATOM     36  N   UNL     1      -3.218  10.449  -0.031  1.00  0.00    -0.248 NA
ATOM     37  C   UNL     1      -2.363   9.758   2.029  1.00  0.00     0.031 C 
ATOM     38  C   UNL     1      -0.423   7.649  -2.102  1.00  0.00     0.029 A 
ATOM     39  N   UNL     1      -2.013   9.196  -2.383  1.00  0.00    -0.354 N 
ATOM     40  C   UNL     1      -3.898  11.101   0.990  1.00  0.00     0.074 A 
ATOM     41  C   UNL     1      -3.373  10.590   2.238  1.00  0.00     0.031 C 
ATOM     42  C   UNL     1      -0.620   7.788  -3.422  1.00  0.00     0.029 A 
ATOM     43  C   UNL     1      -1.672   8.775  -3.646  1.00  0.00     0.049 A 
ATOM     44  H   UNL     1      -2.699   9.880  -2.210  1.00  0.00     0.167 HD
ATOM     45  C   UNL     1      -4.859  12.053   0.897  1.00  0.00     0.037 A 
ATOM     46  C   UNL     1      -2.157   9.134  -4.849  1.00  0.00     0.037 A 
ATOM     47  C   UNL     1      -5.375  12.566  -0.346  1.00  0.00     0.049 A 
ATOM     48  C   UNL     1      -3.253  10.158  -4.927  1.00  0.00     0.074 A 
ATOM     49  C   UNL     1      -6.298  13.577  -0.545  1.00  0.00     0.029 A 
ATOM     50  N   UNL     1      -5.021  12.096  -1.603  1.00  0.00    -0.354 N 
ATOM     51  N   UNL     1      -3.835  10.820  -3.957  1.00  0.00    -0.248 NA
ATOM     52  C   UNL     1      -3.763  10.482  -6.267  1.00  0.00     0.031 C 
ATOM     53  C   UNL     1      -6.545  13.681  -1.919  1.00  0.00     0.029 A 
ATOM     54  C   UNL     1      -5.737  12.770  -2.579  1.00  0.00     0.049 A 
ATOM     55  H   UNL     1      -4.359  11.388  -1.775  1.00  0.00     0.167 HD
ATOM     56  C   UNL     1      -4.766  11.650  -4.567  1.00  0.00     0.074 A 
ATOM     57  C   UNL     1      -4.659  11.420  -5.994  1.00  0.00     0.031 C 
ATOM     58  C   UNL     1      -5.631  12.524  -3.996  1.00  0.00     0.037 A 
BRANCH  45  59
ATOM     59  C   UNL     1      -5.418  12.592   2.183  1.00  0.00     0.057 A 
ATOM     60  C   UNL     1      -4.653  13.386   3.049  1.00  0.00     0.134 A 
ATOM     61  C   UNL     1      -6.741  12.323   2.558  1.00  0.00     0.134 A 
ATOM     62  F   UNL     1      -3.376  13.675   2.757  1.00  0.00    -0.206 F 
ATOM     63  C   UNL     1      -5.169  13.857   4.258  1.00  0.00     0.040 A 
ATOM     64  C   UNL     1      -7.278  12.814   3.749  1.00  0.00     0.040 A 
ATOM     65  F   UNL     1      -7.534  11.579   1.772  1.00  0.00    -0.206 F 
ATOM     66  C   UNL     1      -6.487  13.575   4.609  1.00  0.00     0.006 A 
ENDBRANCH  45  59
BRANCH  46  67
ATOM     67  C   UNL     1      -1.589   8.532  -6.081  1.00  0.00     0.057 A 
ATOM     68  C   UNL     1      -0.791   9.289  -6.947  1.00  0.00     0.134 A 
ATOM     69  C   UNL     1      -1.807   7.190  -6.412  1.00  0.00     0.134 A 
ATOM     70  F   UNL     1      -0.563  10.586  -6.692  1.00  0.00    -0.206 F 
ATOM     71  C   UNL     1      -0.235   8.736  -8.101  1.00  0.00     0.040 A 
ATOM     72  C   UNL     1      -1.238   6.616  -7.551  1.00  0.00     0.040 A 
ATOM     73  F   UNL     1      -2.557   6.410  -5.620  1.00  0.00    -0.206 F 
ATOM     74  C   UNL     1      -0.452   7.392  -8.401  1.00  0.00     0.006 A 
ENDBRANCH  46  67
BRANCH  58  75
ATOM     75  C   UNL     1      -6.525  13.304  -4.916  1.00  0.00     0.057 A 
ATOM     76  C   UNL     1      -7.603  12.704  -5.580  1.00  0.00     0.134 A 
ATOM     77  C   UNL     1      -6.332  14.678  -5.107  1.00  0.00     0.134 A 
ATOM     78  F   UNL     1      -7.833  11.389  -5.452  1.00  0.00    -0.206 F 
ATOM     79  C   UNL     1      -8.444  13.440  -6.417  1.00  0.00     0.040 A 
ATOM     80  C   UNL     1      -7.182  15.429  -5.920  1.00  0.00     0.040 A 
ATOM     81  F   UNL     1      -5.323  15.316  -4.495  1.00  0.00    -0.206 F 
ATOM     82  C   UNL     1      -8.240  14.808  -6.582  1.00  0.00     0.006 A 
ENDBRANCH  58  75
ENDBRANCH  32  33
ENDBRANCH  24  27
ENDBRANCH  22  23
ENDBRANCH  21  22
ENDBRANCH  20  21
ENDBRANCH   3  20
TORSDOF 17
