REMARK SMILES CCC(CC)(Nc1ccc(Br)cc1[N+](=O)[O-])C(=O)NCCCNC(=O)c1ccc(-c2c3nc(c(-c4c(F)cccc4F)c4ccc([nH]4)c(-c4c(F)cccc4F)c4nc(c(-c5c(F)cccc5F)c5ccc2[nH]5)C=C4)C=C3)cc1
REMARK SMILES IDX 20 1 19 2 17 3 18 4 3 6 2 7 1 8 4 9 5 10 6 11 7 13 8 14
REMARK SMILES IDX 13 15 9 16 12 17 10 18 11 19 14 20 15 21 16 22 21 23 22 24
REMARK SMILES IDX 23 25 24 26 25 28 26 29 27 30 79 31 28 32 78 33 29 34 30 35
REMARK SMILES IDX 31 36 72 37 32 38 77 39 71 40 73 41 33 42 76 43 70 44 69 45
REMARK SMILES IDX 34 47 60 48 43 49 59 50 44 51 47 52 58 53 74 54 45 55 46 56
REMARK SMILES IDX 57 58 75 59 48 60 35 61 36 62 41 63 37 64 38 65 40 66 42 67
REMARK SMILES IDX 39 68 61 69 62 70 67 71 63 72 64 73 66 74 68 75 65 76 49 77
REMARK SMILES IDX 50 78 55 79 51 80 52 81 54 82 56 83 53 84
REMARK H PARENT 19 5 6 12 23 27 73 46 47 57
REMARK Flexibility Score: inf
ROOT
ATOM      1  C   UNL     1       2.379  -3.593  -3.620  1.00  0.00     0.117 C 
ENDROOT
BRANCH   1   2
ATOM      2  N   UNL     1       3.005  -2.684  -2.669  1.00  0.00    -0.354 N 
ATOM      3  C   UNL     1       2.578  -1.548  -2.036  1.00  0.00     0.245 C 
ATOM      4  O   UNL     1       3.429  -0.990  -1.332  1.00  0.00    -0.272 OA
ATOM      5  H   UNL     1       3.926  -2.940  -2.433  1.00  0.00     0.163 HD
BRANCH   3   6
ATOM      6  C   UNL     1       1.138  -0.967  -2.204  1.00  0.00     0.116 C 
BRANCH   6   7
ATOM      7  C   UNL     1       0.956   0.368  -1.409  1.00  0.00     0.035 C 
ATOM      8  C   UNL     1       1.050   0.292   0.114  1.00  0.00     0.007 C 
ENDBRANCH   6   7
BRANCH   6   9
ATOM      9  C   UNL     1       0.152  -2.051  -1.653  1.00  0.00     0.035 C 
ATOM     10  C   UNL     1      -1.340  -1.760  -1.746  1.00  0.00     0.007 C 
ENDBRANCH   6   9
BRANCH   6  11
ATOM     11  N   UNL     1       0.809  -0.627  -3.625  1.00  0.00    -0.366 N 
ATOM     12  H   UNL     1      -0.089  -0.910  -3.913  1.00  0.00     0.161 HD
BRANCH  11  13
ATOM     13  C   UNL     1       1.552   0.022  -4.612  1.00  0.00     0.114 A 
ATOM     14  C   UNL     1       2.952  -0.060  -4.683  1.00  0.00     0.034 A 
ATOM     15  C   UNL     1       0.941   0.690  -5.711  1.00  0.00     0.293 A 
ATOM     16  C   UNL     1       3.675   0.283  -5.838  1.00  0.00     0.018 A 
ATOM     17  C   UNL     1       1.659   1.049  -6.874  1.00  0.00     0.103 A 
ATOM     18  C   UNL     1       3.018   0.791  -6.945  1.00  0.00     0.024 A 
ATOM     19  Br  UNL     1       3.975   1.128  -8.536  1.00  0.00    -0.051 Br
BRANCH  15  20
ATOM     20  N   UNL     1      -0.465   1.122  -5.652  1.00  0.00     0.065 N 
ATOM     21  O   UNL     1      -0.817   2.034  -6.416  1.00  0.00    -0.258 OA
ATOM     22  O   UNL     1      -1.219   0.572  -4.835  1.00  0.00    -0.258 OA
ENDBRANCH  15  20
ENDBRANCH  11  13
ENDBRANCH   6  11
ENDBRANCH   3   6
ENDBRANCH   1   2
BRANCH   1  23
ATOM     23  C   UNL     1       2.858  -3.464  -5.061  1.00  0.00     0.042 C 
BRANCH  23  24
ATOM     24  C   UNL     1       4.363  -3.355  -5.247  1.00  0.00     0.118 C 
BRANCH  24  25
ATOM     25  N   UNL     1       5.042  -4.625  -5.056  1.00  0.00    -0.352 N 
ATOM     26  C   UNL     1       5.659  -5.432  -5.981  1.00  0.00     0.251 C 
ATOM     27  H   UNL     1       5.062  -4.955  -4.128  1.00  0.00     0.163 HD
ATOM     28  O   UNL     1       6.006  -6.566  -5.668  1.00  0.00    -0.269 OA
BRANCH  26  29
ATOM     29  C   UNL     1       5.885  -4.950  -7.363  1.00  0.00     0.039 A 
ATOM     30  C   UNL     1       5.588  -5.801  -8.431  1.00  0.00     0.014 A 
ATOM     31  C   UNL     1       6.406  -3.677  -7.610  1.00  0.00     0.014 A 
ATOM     32  C   UNL     1       5.756  -5.355  -9.745  1.00  0.00     0.010 A 
ATOM     33  C   UNL     1       6.502  -3.206  -8.918  1.00  0.00     0.010 A 
ATOM     34  C   UNL     1       6.184  -4.042 -10.000  1.00  0.00    -0.014 A 
BRANCH  34  35
ATOM     35  C   UNL     1       6.319  -3.528 -11.387  1.00  0.00     0.031 A 
ATOM     36  C   UNL     1       7.672  -3.136 -11.917  1.00  0.00     0.074 A 
ATOM     37  C   UNL     1       5.223  -3.353 -12.151  1.00  0.00     0.049 A 
ATOM     38  N   UNL     1       7.984  -2.582 -13.062  1.00  0.00    -0.248 NA
ATOM     39  C   UNL     1       8.823  -3.380 -11.034  1.00  0.00     0.031 C 
ATOM     40  C   UNL     1       3.852  -3.670 -11.748  1.00  0.00     0.029 A 
ATOM     41  N   UNL     1       5.088  -2.853 -13.422  1.00  0.00    -0.354 N 
ATOM     42  C   UNL     1       9.360  -2.397 -13.029  1.00  0.00     0.074 A 
ATOM     43  C   UNL     1       9.818  -2.856 -11.735  1.00  0.00     0.031 C 
ATOM     44  C   UNL     1       3.018  -3.368 -12.756  1.00  0.00     0.029 A 
ATOM     45  C   UNL     1       3.786  -2.797 -13.858  1.00  0.00     0.049 A 
ATOM     46  H   UNL     1       5.853  -2.561 -13.970  1.00  0.00     0.167 HD
ATOM     47  C   UNL     1      10.172  -1.909 -13.997  1.00  0.00     0.037 A 
ATOM     48  C   UNL     1       3.268  -2.323 -15.007  1.00  0.00     0.037 A 
ATOM     49  C   UNL     1       9.719  -1.472 -15.291  1.00  0.00     0.049 A 
ATOM     50  C   UNL     1       4.187  -1.754 -16.053  1.00  0.00     0.074 A 
ATOM     51  C   UNL     1      10.473  -1.010 -16.356  1.00  0.00     0.029 A 
ATOM     52  N   UNL     1       8.393  -1.438 -15.695  1.00  0.00    -0.354 N 
ATOM     53  N   UNL     1       5.493  -1.639 -16.032  1.00  0.00    -0.248 NA
ATOM     54  C   UNL     1       3.562  -1.249 -17.285  1.00  0.00     0.031 C 
ATOM     55  C   UNL     1       9.600  -0.650 -17.387  1.00  0.00     0.029 A 
ATOM     56  C   UNL     1       8.306  -0.939 -16.984  1.00  0.00     0.049 A 
ATOM     57  H   UNL     1       7.628  -1.726 -15.147  1.00  0.00     0.167 HD
ATOM     58  C   UNL     1       5.847  -1.083 -17.255  1.00  0.00     0.074 A 
ATOM     59  C   UNL     1       4.620  -0.888 -17.998  1.00  0.00     0.031 C 
ATOM     60  C   UNL     1       7.080  -0.767 -17.721  1.00  0.00     0.037 A 
BRANCH  47  61
ATOM     61  C   UNL     1      11.639  -1.816 -13.691  1.00  0.00     0.057 A 
ATOM     62  C   UNL     1      12.445  -2.956 -13.578  1.00  0.00     0.134 A 
ATOM     63  C   UNL     1      12.262  -0.569 -13.550  1.00  0.00     0.134 A 
ATOM     64  F   UNL     1      11.910  -4.181 -13.692  1.00  0.00    -0.206 F 
ATOM     65  C   UNL     1      13.812  -2.861 -13.310  1.00  0.00     0.040 A 
ATOM     66  C   UNL     1      13.633  -0.461 -13.311  1.00  0.00     0.040 A 
ATOM     67  F   UNL     1      11.552   0.564 -13.655  1.00  0.00    -0.206 F 
ATOM     68  C   UNL     1      14.411  -1.609 -13.184  1.00  0.00     0.006 A 
ENDBRANCH  47  61
BRANCH  48  69
ATOM     69  C   UNL     1       1.801  -2.372 -15.237  1.00  0.00     0.057 A 
ATOM     70  C   UNL     1       1.248  -3.227 -16.197  1.00  0.00     0.134 A 
ATOM     71  C   UNL     1       0.920  -1.560 -14.512  1.00  0.00     0.134 A 
ATOM     72  F   UNL     1       2.043  -4.015 -16.936  1.00  0.00    -0.206 F 
ATOM     73  C   UNL     1      -0.125  -3.261 -16.442  1.00  0.00     0.040 A 
ATOM     74  C   UNL     1      -0.459  -1.602 -14.729  1.00  0.00     0.040 A 
ATOM     75  F   UNL     1       1.385  -0.723 -13.573  1.00  0.00    -0.206 F 
ATOM     76  C   UNL     1      -0.984  -2.450 -15.703  1.00  0.00     0.006 A 
ENDBRANCH  48  69
BRANCH  60  77
ATOM     77  C   UNL     1       7.178  -0.222 -19.116  1.00  0.00     0.057 A 
ATOM     78  C   UNL     1       6.777   1.081 -19.433  1.00  0.00     0.134 A 
ATOM     79  C   UNL     1       7.745  -0.993 -20.139  1.00  0.00     0.134 A 
ATOM     80  F   UNL     1       6.215   1.866 -18.501  1.00  0.00    -0.206 F 
ATOM     81  C   UNL     1       6.924   1.595 -20.723  1.00  0.00     0.040 A 
ATOM     82  C   UNL     1       7.921  -0.482 -21.426  1.00  0.00     0.040 A 
ATOM     83  F   UNL     1       8.157  -2.246 -19.899  1.00  0.00    -0.206 F 
ATOM     84  C   UNL     1       7.508   0.815 -21.721  1.00  0.00     0.006 A 
ENDBRANCH  60  77
ENDBRANCH  34  35
ENDBRANCH  26  29
ENDBRANCH  24  25
ENDBRANCH  23  24
ENDBRANCH   1  23
TORSDOF 15
