REMARK SMILES COc1cc(/C=C/C(=O)NCCCNC(=O)c2ccc(-c3c4nc(c(-c5c(F)cccc5F)c5ccc([nH]5)c(-c5c(F)cccc5F)c5nc(c(-c6c(F)cccc6F)c6ccc3[nH]6)C=C5)C=C4)cc2)cc(OC)c1O
REMARK SMILES IDX 12 1 11 2 10 3 8 4 9 5 7 7 6 8 5 9 3 10 4 11 75 12 72 13
REMARK SMILES IDX 71 14 2 15 1 16 76 17 73 19 74 20 13 21 14 22 15 23 16 25
REMARK SMILES IDX 17 26 18 27 70 28 19 29 69 30 20 31 21 32 22 33 63 34 23 35
REMARK SMILES IDX 68 36 62 37 64 38 24 39 67 40 61 41 60 42 25 44 51 45 34 46
REMARK SMILES IDX 50 47 35 48 38 49 49 50 65 51 36 52 37 53 48 55 66 56 39 57
REMARK SMILES IDX 26 58 27 59 32 60 28 61 29 62 31 63 33 64 30 65 52 66 53 67
REMARK SMILES IDX 58 68 54 69 55 70 57 71 59 72 56 73 40 74 41 75 46 76 42 77
REMARK SMILES IDX 43 78 45 79 47 80 44 81
REMARK H PARENT 10 6 76 18 14 24 64 43 38 54
REMARK Flexibility Score: inf
ROOT
ATOM      1  C   UNL     1      -4.572   6.016  -4.653  1.00  0.00     0.042 C 
ENDROOT
BRANCH   1   2
ATOM      2  C   UNL     1      -3.068   6.140  -4.891  1.00  0.00     0.118 C 
BRANCH   2   3
ATOM      3  N   UNL     1      -2.437   6.969  -3.878  1.00  0.00    -0.352 N 
ATOM      4  C   UNL     1      -1.586   6.651  -2.868  1.00  0.00     0.244 C 
ATOM      5  O   UNL     1      -1.094   7.552  -2.191  1.00  0.00    -0.270 OA
ATOM      6  H   UNL     1      -2.666   7.925  -3.934  1.00  0.00     0.163 HD
BRANCH   4   7
ATOM      7  C   UNL     1      -1.173   5.253  -2.616  1.00  0.00     0.072 C 
ATOM      8  C   UNL     1      -2.013   4.210  -2.554  1.00  0.00     0.014 C 
BRANCH   8   9
ATOM      9  C   UNL     1      -1.601   2.834  -2.243  1.00  0.00    -0.018 A 
ATOM     10  C   UNL     1      -0.388   1.210  -0.900  1.00  0.00     0.165 A 
ATOM     11  C   UNL     1      -0.666   2.537  -1.247  1.00  0.00     0.058 A 
ATOM     12  C   UNL     1      -1.081   0.163  -1.530  1.00  0.00     0.200 A 
ATOM     13  C   UNL     1      -1.985   0.438  -2.562  1.00  0.00     0.165 A 
ATOM     14  C   UNL     1      -2.240   1.775  -2.900  1.00  0.00     0.058 A 
BRANCH  10  15
ATOM     15  O   UNL     1       0.491   1.061   0.142  1.00  0.00    -0.493 OA
ATOM     16  C   UNL     1       1.448   0.010   0.017  1.00  0.00     0.278 C 
ENDBRANCH  10  15
BRANCH  12  17
ATOM     17  O   UNL     1      -0.939  -1.113  -1.055  1.00  0.00    -0.502 OA
ATOM     18  H   UNL     1      -0.332  -1.291  -0.364  1.00  0.00     0.293 HD
ENDBRANCH  12  17
BRANCH  13  19
ATOM     19  O   UNL     1      -2.744  -0.441  -3.289  1.00  0.00    -0.493 OA
ATOM     20  C   UNL     1      -2.536  -1.833  -3.099  1.00  0.00     0.278 C 
ENDBRANCH  13  19
ENDBRANCH   8   9
ENDBRANCH   4   7
ENDBRANCH   2   3
ENDBRANCH   1   2
BRANCH   1  21
ATOM     21  C   UNL     1      -5.348   7.295  -4.962  1.00  0.00     0.118 C 
BRANCH  21  22
ATOM     22  N   UNL     1      -5.355   7.603  -6.386  1.00  0.00    -0.352 N 
ATOM     23  C   UNL     1      -6.406   7.755  -7.255  1.00  0.00     0.251 C 
ATOM     24  H   UNL     1      -4.465   7.720  -6.789  1.00  0.00     0.163 HD
ATOM     25  O   UNL     1      -6.190   7.797  -8.462  1.00  0.00    -0.269 OA
BRANCH  23  26
ATOM     26  C   UNL     1      -7.795   7.862  -6.756  1.00  0.00     0.039 A 
ATOM     27  C   UNL     1      -8.814   7.216  -7.464  1.00  0.00     0.014 A 
ATOM     28  C   UNL     1      -8.108   8.638  -5.637  1.00  0.00     0.014 A 
ATOM     29  C   UNL     1     -10.136   7.307  -7.022  1.00  0.00     0.010 A 
ATOM     30  C   UNL     1      -9.416   8.674  -5.159  1.00  0.00     0.010 A 
ATOM     31  C   UNL     1     -10.444   8.015  -5.849  1.00  0.00    -0.014 A 
BRANCH  31  32
ATOM     32  C   UNL     1     -11.834   8.079  -5.333  1.00  0.00     0.031 A 
ATOM     33  C   UNL     1     -12.562   9.394  -5.275  1.00  0.00     0.074 A 
ATOM     34  C   UNL     1     -12.418   6.963  -4.855  1.00  0.00     0.049 A 
ATOM     35  N   UNL     1     -13.745   9.664  -4.785  1.00  0.00    -0.248 NA
ATOM     36  C   UNL     1     -11.855  10.565  -5.818  1.00  0.00     0.031 C 
ATOM     37  C   UNL     1     -11.801   5.636  -4.816  1.00  0.00     0.029 A 
ATOM     38  N   UNL     1     -13.657   6.771  -4.299  1.00  0.00    -0.354 N 
ATOM     39  C   UNL     1     -13.917  11.034  -4.944  1.00  0.00     0.074 A 
ATOM     40  C   UNL     1     -12.698  11.546  -5.532  1.00  0.00     0.031 C 
ATOM     41  C   UNL     1     -12.670   4.764  -4.281  1.00  0.00     0.029 A 
ATOM     42  C   UNL     1     -13.888   5.474  -3.906  1.00  0.00     0.049 A 
ATOM     43  H   UNL     1     -14.318   7.492  -4.191  1.00  0.00     0.167 HD
ATOM     44  C   UNL     1     -14.999  11.792  -4.645  1.00  0.00     0.037 A 
ATOM     45  C   UNL     1     -14.958   4.923  -3.304  1.00  0.00     0.037 A 
ATOM     46  C   UNL     1     -16.219  11.275  -4.082  1.00  0.00     0.049 A 
ATOM     47  C   UNL     1     -16.147   5.785  -2.983  1.00  0.00     0.074 A 
ATOM     48  C   UNL     1     -17.392  11.952  -3.796  1.00  0.00     0.029 A 
ATOM     49  N   UNL     1     -16.423   9.952  -3.720  1.00  0.00    -0.354 N 
ATOM     50  N   UNL     1     -16.318   7.067  -3.193  1.00  0.00    -0.248 NA
ATOM     51  C   UNL     1     -17.293   5.122  -2.346  1.00  0.00     0.031 C 
ATOM     52  C   UNL     1     -18.292  11.045  -3.226  1.00  0.00     0.029 A 
ATOM     53  C   UNL     1     -17.696   9.795  -3.197  1.00  0.00     0.049 A 
ATOM     54  H   UNL     1     -15.760   9.230  -3.821  1.00  0.00     0.167 HD
ATOM     55  C   UNL     1     -17.598   7.360  -2.740  1.00  0.00     0.074 A 
ATOM     56  C   UNL     1     -18.164   6.117  -2.256  1.00  0.00     0.031 C 
ATOM     57  C   UNL     1     -18.246   8.550  -2.726  1.00  0.00     0.037 A 
BRANCH  44  58
ATOM     58  C   UNL     1     -14.911  13.264  -4.925  1.00  0.00     0.057 A 
ATOM     59  C   UNL     1     -14.909  13.768  -6.232  1.00  0.00     0.134 A 
ATOM     60  C   UNL     1     -14.860  14.191  -3.876  1.00  0.00     0.134 A 
ATOM     61  F   UNL     1     -14.944  12.933  -7.282  1.00  0.00    -0.206 F 
ATOM     62  C   UNL     1     -14.831  15.138  -6.487  1.00  0.00     0.040 A 
ATOM     63  C   UNL     1     -14.810  15.566  -4.118  1.00  0.00     0.040 A 
ATOM     64  F   UNL     1     -14.867  13.779  -2.600  1.00  0.00    -0.206 F 
ATOM     65  C   UNL     1     -14.788  16.042  -5.428  1.00  0.00     0.006 A 
ENDBRANCH  44  58
BRANCH  45  66
ATOM     66  C   UNL     1     -14.964   3.474  -2.984  1.00  0.00     0.057 A 
ATOM     67  C   UNL     1     -15.781   2.583  -3.690  1.00  0.00     0.134 A 
ATOM     68  C   UNL     1     -14.157   2.944  -1.970  1.00  0.00     0.134 A 
ATOM     69  F   UNL     1     -16.589   3.034  -4.660  1.00  0.00    -0.206 F 
ATOM     70  C   UNL     1     -15.810   1.221  -3.388  1.00  0.00     0.040 A 
ATOM     71  C   UNL     1     -14.158   1.580  -1.673  1.00  0.00     0.040 A 
ATOM     72  F   UNL     1     -13.345   3.744  -1.263  1.00  0.00    -0.206 F 
ATOM     73  C   UNL     1     -14.992   0.716  -2.379  1.00  0.00     0.006 A 
ENDBRANCH  45  66
BRANCH  57  74
ATOM     74  C   UNL     1     -19.651   8.558  -2.202  1.00  0.00     0.057 A 
ATOM     75  C   UNL     1     -19.930   8.430  -0.836  1.00  0.00     0.134 A 
ATOM     76  C   UNL     1     -20.735   8.734  -3.071  1.00  0.00     0.134 A 
ATOM     77  F   UNL     1     -18.937   8.245   0.047  1.00  0.00    -0.206 F 
ATOM     78  C   UNL     1     -21.241   8.454  -0.355  1.00  0.00     0.040 A 
ATOM     79  C   UNL     1     -22.047   8.785  -2.600  1.00  0.00     0.040 A 
ATOM     80  F   UNL     1     -20.534   8.871  -4.391  1.00  0.00    -0.206 F 
ATOM     81  C   UNL     1     -22.303   8.639  -1.238  1.00  0.00     0.006 A 
ENDBRANCH  57  74
ENDBRANCH  31  32
ENDBRANCH  23  26
ENDBRANCH  21  22
ENDBRANCH   1  21
TORSDOF 14
