REMARK SMILES Cc1ccc([C@H]2CC(=O)C3=C(C2)Nc2ccccc2N(C(=O)CCC(=O)NCCCNC(=O)c2ccc(-c4c5nc(c(-c6c(F)cccc6F)c6ccc([nH]6)c(-c6c(F)cccc6F)c6nc(c(-c7c(F)cccc7F)c7ccc4[nH]7)C=C6)C=C5)cc2)[C@@H]3c2ccc(C)cc2)cc1
REMARK SMILES IDX 25 1 26 2 27 3 24 5 23 6 21 7 22 8 20 9 19 10 14 11 15 12
REMARK SMILES IDX 16 13 18 14 17 15 13 16 11 18 6 19 7 20 12 21 8 22 9 23
REMARK SMILES IDX 10 24 5 26 1 27 2 28 3 29 97 30 4 31 96 32 88 33 89 35 90 36
REMARK SMILES IDX 95 37 91 38 94 39 92 40 93 41 28 42 29 43 30 44 31 45 32 46
REMARK SMILES IDX 33 48 34 49 35 50 87 51 36 52 86 53 37 54 38 55 39 56 80 57
REMARK SMILES IDX 40 58 85 59 79 60 81 61 41 62 84 63 78 64 77 65 42 67 68 68
REMARK SMILES IDX 51 69 67 70 52 71 55 72 66 73 82 74 53 75 54 76 65 78 83 79
REMARK SMILES IDX 56 80 43 81 44 82 49 83 45 84 46 85 48 86 50 87 47 88 69 89
REMARK SMILES IDX 70 90 75 91 71 92 72 93 74 94 76 95 73 96 57 97 58 98 63 99
REMARK SMILES IDX 59 100 60 101 62 102 64 103 61 104
REMARK H PARENT 27 4 13 17 31 47 81 66 55 77
REMARK Flexibility Score: 80.00
ROOT
ATOM      1  C   UNL     1      -9.763   0.080   3.960  1.00  0.00     0.220 C 
ATOM      2  O   UNL     1     -10.766   0.424   4.587  1.00  0.00    -0.275 OA
ATOM      3  N   UNL     1      -9.043  -0.979   4.425  1.00  0.00    -0.356 N 
ATOM      4  H   UNL     1      -9.425  -1.432   5.211  1.00  0.00     0.163 HD
ENDROOT
BRANCH   1   5
ATOM      5  C   UNL     1      -9.332   0.830   2.716  1.00  0.00     0.110 C 
BRANCH   5   6
ATOM      6  C   UNL     1      -8.272   1.891   3.019  1.00  0.00     0.110 C 
BRANCH   6   7
ATOM      7  C   UNL     1      -6.946   1.563   2.352  1.00  0.00     0.228 C 
ATOM      8  O   UNL     1      -6.697   0.444   1.905  1.00  0.00    -0.274 OA
BRANCH   7   9
ATOM      9  N   UNL     1      -6.061   2.626   2.162  1.00  0.00    -0.298 N 
BRANCH   9  10
ATOM     10  C   UNL     1      -5.056   2.772   3.208  1.00  0.00     0.068 A 
ATOM     11  C   UNL     1      -3.670   2.666   2.989  1.00  0.00     0.062 A 
ATOM     12  C   UNL     1      -2.753   2.704   4.060  1.00  0.00     0.028 A 
ATOM     13  C   UNL     1      -3.186   2.831   5.367  1.00  0.00     0.002 A 
ATOM     14  C   UNL     1      -5.464   2.933   4.544  1.00  0.00     0.028 A 
ATOM     15  C   UNL     1      -4.544   2.975   5.605  1.00  0.00     0.002 A 
BRANCH  11  16
ATOM     16  N   UNL     1      -3.080   2.550   1.728  1.00  0.00    -0.357 N 
ATOM     17  H   UNL     1      -2.274   3.081   1.536  1.00  0.00     0.166 HD
BRANCH  16  18
ATOM     18  C   UNL     1      -3.572   1.731   0.743  1.00  0.00     0.025 C 
ATOM     19  C   UNL     1      -3.054  -0.224  -0.839  1.00  0.00     0.033 C 
ATOM     20  C   UNL     1      -3.649   0.705  -1.889  1.00  0.00     0.089 C 
ATOM     21  C   UNL     1      -2.660   0.577   0.404  1.00  0.00     0.063 C 
ATOM     22  C   UNL     1      -4.668   1.691  -1.357  1.00  0.00     0.163 C 
ATOM     23  O   UNL     1      -5.314   2.356  -2.170  1.00  0.00    -0.294 OA
ATOM     24  C   UNL     1      -4.709   2.032   0.098  1.00  0.00     0.042 CG0
ATOM     25  G   UNL     1      -5.776   2.941   0.708  1.00  0.00     0.000 G0
BRANCH  19  26
ATOM     26  C   UNL     1      -3.891  -1.483  -0.663  1.00  0.00    -0.044 A 
ATOM     27  C   UNL     1      -6.191  -5.154  -0.470  1.00  0.00     0.044 C 
ATOM     28  C   UNL     1      -5.400  -3.881  -0.520  1.00  0.00    -0.051 A 
ATOM     29  C   UNL     1      -4.493  -3.677  -1.560  1.00  0.00     0.004 A 
ATOM     30  C   UNL     1      -5.546  -2.882   0.449  1.00  0.00     0.004 A 
ATOM     31  C   UNL     1      -3.755  -2.496  -1.630  1.00  0.00     0.004 A 
ATOM     32  C   UNL     1      -4.793  -1.699   0.382  1.00  0.00     0.004 A 
ENDBRANCH  19  26
ENDBRANCH  16  18
ENDBRANCH  11  16
ENDBRANCH   9  10
BRANCH   9  33
ATOM     33  C   UNL     1      -5.776   2.941   0.708  1.00  0.00     0.156 CG0
ATOM     34  G   UNL     1      -4.709   2.032   0.098  1.00  0.00     0.000 G0
BRANCH  33  35
ATOM     35  C   UNL     1      -7.127   2.962  -0.059  1.00  0.00    -0.020 A 
ATOM     36  C   UNL     1      -7.871   4.143  -0.190  1.00  0.00     0.006 A 
ATOM     37  C   UNL     1      -7.678   1.780  -0.601  1.00  0.00     0.006 A 
ATOM     38  C   UNL     1      -9.081   4.146  -0.903  1.00  0.00     0.004 A 
ATOM     39  C   UNL     1      -8.872   1.785  -1.317  1.00  0.00     0.004 A 
ATOM     40  C   UNL     1      -9.570   2.976  -1.499  1.00  0.00    -0.051 A 
ATOM     41  C   UNL     1     -10.828   2.989  -2.315  1.00  0.00     0.044 C 
ENDBRANCH  33  35
ENDBRANCH   9  33
ENDBRANCH   7   9
ENDBRANCH   6   7
ENDBRANCH   5   6
ENDBRANCH   1   5
BRANCH   3  42
ATOM     42  C   UNL     1      -7.796  -1.540   3.935  1.00  0.00     0.117 C 
BRANCH  42  43
ATOM     43  C   UNL     1      -6.581  -0.872   4.587  1.00  0.00     0.042 C 
BRANCH  43  44
ATOM     44  C   UNL     1      -5.780  -1.798   5.499  1.00  0.00     0.118 C 
BRANCH  44  45
ATOM     45  N   UNL     1      -4.394  -1.896   5.028  1.00  0.00    -0.352 N 
ATOM     46  C   UNL     1      -3.191  -1.583   5.630  1.00  0.00     0.251 C 
ATOM     47  H   UNL     1      -4.305  -2.249   4.113  1.00  0.00     0.163 HD
ATOM     48  O   UNL     1      -2.130  -1.794   5.073  1.00  0.00    -0.269 OA
BRANCH  46  49
ATOM     49  C   UNL     1      -3.213  -1.101   7.022  1.00  0.00     0.039 A 
ATOM     50  C   UNL     1      -2.647  -1.925   7.997  1.00  0.00     0.014 A 
ATOM     51  C   UNL     1      -4.040  -0.035   7.361  1.00  0.00     0.014 A 
ATOM     52  C   UNL     1      -3.155  -1.870   9.289  1.00  0.00     0.010 A 
ATOM     53  C   UNL     1      -4.534   0.037   8.646  1.00  0.00     0.010 A 
ATOM     54  C   UNL     1      -4.192  -0.972   9.555  1.00  0.00    -0.014 A 
BRANCH  54  55
ATOM     55  C   UNL     1      -5.229  -1.274  10.536  1.00  0.00     0.031 A 
ATOM     56  C   UNL     1      -5.337  -0.571  11.818  1.00  0.00     0.074 A 
ATOM     57  C   UNL     1      -6.204  -2.127  10.149  1.00  0.00     0.049 A 
ATOM     58  N   UNL     1      -5.936  -1.054  12.853  1.00  0.00    -0.248 NA
ATOM     59  C   UNL     1      -4.750   0.738  12.042  1.00  0.00     0.031 C 
ATOM     60  C   UNL     1      -7.516  -2.325  10.750  1.00  0.00     0.029 A 
ATOM     61  N   UNL     1      -6.122  -3.117   9.168  1.00  0.00    -0.354 N 
ATOM     62  C   UNL     1      -6.088  -0.030  13.760  1.00  0.00     0.074 A 
ATOM     63  C   UNL     1      -5.243   1.030  13.251  1.00  0.00     0.031 C 
ATOM     64  C   UNL     1      -8.030  -3.483  10.304  1.00  0.00     0.029 A 
ATOM     65  C   UNL     1      -6.999  -4.151   9.528  1.00  0.00     0.049 A 
ATOM     66  H   UNL     1      -5.551  -3.094   8.367  1.00  0.00     0.167 HD
ATOM     67  C   UNL     1      -7.032  -0.147  14.742  1.00  0.00     0.037 A 
ATOM     68  C   UNL     1      -6.518  -5.402   9.785  1.00  0.00     0.037 A 
ATOM     69  C   UNL     1      -7.722  -1.441  14.657  1.00  0.00     0.049 A 
ATOM     70  C   UNL     1      -6.713  -5.840  11.219  1.00  0.00     0.074 A 
ATOM     71  C   UNL     1      -8.954  -1.805  14.134  1.00  0.00     0.029 A 
ATOM     72  N   UNL     1      -7.028  -2.626  14.880  1.00  0.00    -0.354 N 
ATOM     73  N   UNL     1      -7.022  -5.027  12.190  1.00  0.00    -0.248 NA
ATOM     74  C   UNL     1      -6.541  -7.215  11.681  1.00  0.00     0.031 C 
ATOM     75  C   UNL     1      -8.978  -3.214  13.996  1.00  0.00     0.029 A 
ATOM     76  C   UNL     1      -7.769  -3.712  14.450  1.00  0.00     0.049 A 
ATOM     77  H   UNL     1      -6.134  -2.683  15.288  1.00  0.00     0.167 HD
ATOM     78  C   UNL     1      -7.039  -5.710  13.377  1.00  0.00     0.074 A 
ATOM     79  C   UNL     1      -6.766  -7.084  13.001  1.00  0.00     0.031 C 
ATOM     80  C   UNL     1      -7.251  -5.069  14.565  1.00  0.00     0.037 A 
BRANCH  67  81
ATOM     81  C   UNL     1      -7.569   1.014  15.566  1.00  0.00     0.057 A 
ATOM     82  C   UNL     1      -8.858   0.961  16.140  1.00  0.00     0.134 A 
ATOM     83  C   UNL     1      -6.903   2.231  15.790  1.00  0.00     0.134 A 
ATOM     84  F   UNL     1      -9.579  -0.167  16.158  1.00  0.00    -0.206 F 
ATOM     85  C   UNL     1      -9.478   2.064  16.745  1.00  0.00     0.040 A 
ATOM     86  C   UNL     1      -7.525   3.358  16.350  1.00  0.00     0.040 A 
ATOM     87  F   UNL     1      -5.595   2.372  15.552  1.00  0.00    -0.206 F 
ATOM     88  C   UNL     1      -8.828   3.284  16.812  1.00  0.00     0.006 A 
ENDBRANCH  67  81
BRANCH  68  89
ATOM     89  C   UNL     1      -5.353  -5.770   8.936  1.00  0.00     0.057 A 
ATOM     90  C   UNL     1      -5.555  -5.943   7.555  1.00  0.00     0.134 A 
ATOM     91  C   UNL     1      -4.035  -5.590   9.369  1.00  0.00     0.134 A 
ATOM     92  F   UNL     1      -6.796  -6.107   7.071  1.00  0.00    -0.206 F 
ATOM     93  C   UNL     1      -4.508  -5.842   6.636  1.00  0.00     0.040 A 
ATOM     94  C   UNL     1      -2.977  -5.496   8.457  1.00  0.00     0.040 A 
ATOM     95  F   UNL     1      -3.764  -5.388  10.666  1.00  0.00    -0.206 F 
ATOM     96  C   UNL     1      -3.216  -5.587   7.085  1.00  0.00     0.006 A 
ENDBRANCH  68  89
BRANCH  80  97
ATOM     97  C   UNL     1      -7.067  -5.665  15.938  1.00  0.00     0.057 A 
ATOM     98  C   UNL     1      -6.156  -6.686  16.242  1.00  0.00     0.134 A 
ATOM     99  C   UNL     1      -7.723  -5.097  17.055  1.00  0.00     0.134 A 
ATOM    100  F   UNL     1      -5.387  -7.246  15.299  1.00  0.00    -0.206 F 
ATOM    101  C   UNL     1      -5.946  -7.141  17.552  1.00  0.00     0.040 A 
ATOM    102  C   UNL     1      -7.480  -5.504  18.369  1.00  0.00     0.040 A 
ATOM    103  F   UNL     1      -8.611  -4.101  16.918  1.00  0.00    -0.206 F 
ATOM    104  C   UNL     1      -6.597  -6.541  18.622  1.00  0.00     0.006 A 
ENDBRANCH  80  97
ENDBRANCH  54  55
ENDBRANCH  46  49
ENDBRANCH  44  45
ENDBRANCH  43  44
ENDBRANCH  42  43
ENDBRANCH   3  42
TORSDOF 15
