REMARK SMILES CC(C)CN(C)c1cc2c(cc1Cl)C=C(C(=O)NCCCNC(=O)c1ccc(-c3c4nc(c(-c5c(F)cccc5F)c5ccc([nH]5)c(-c5c(F)cccc5F)c5nc(c(-c6c(F)cccc6F)c6ccc3[nH]6)C=C5)C=C4)cc1)[C@@H](C(F)(F)F)O2
REMARK SMILES IDX 19 1 18 2 16 3 17 4 15 6 7 7 8 8 12 9 9 10 11 11 13 12 10 13
REMARK SMILES IDX 84 14 14 15 79 16 5 17 6 18 4 19 2 20 1 21 3 22 80 23 81 24
REMARK SMILES IDX 82 25 83 26 20 27 21 28 22 29 23 30 24 32 25 33 26 34 78 35
REMARK SMILES IDX 27 36 77 37 28 38 29 39 30 40 71 41 31 42 76 43 70 44 72 45
REMARK SMILES IDX 32 46 75 47 69 48 68 49 33 51 59 52 42 53 58 54 43 55 46 56
REMARK SMILES IDX 57 57 73 58 44 59 45 60 56 62 74 63 47 64 34 65 35 66 40 67
REMARK SMILES IDX 36 68 37 69 39 70 41 71 38 72 60 73 61 74 66 75 62 76 63 77
REMARK SMILES IDX 65 78 67 79 64 80 48 81 49 82 54 83 50 84 51 85 53 86 55 87
REMARK SMILES IDX 52 88
REMARK H PARENT 18 5 22 31 72 50 46 61
REMARK Flexibility Score: inf
ROOT
ATOM      1  C   UNL     1      -2.945   2.948   8.092  1.00  0.00     0.118 C 
ENDROOT
BRANCH   1   2
ATOM      2  N   UNL     1      -1.597   2.410   8.045  1.00  0.00    -0.352 N 
ATOM      3  C   UNL     1      -0.727   2.023   7.085  1.00  0.00     0.251 C 
ATOM      4  O   UNL     1       0.364   1.615   7.495  1.00  0.00    -0.270 OA
ATOM      5  H   UNL     1      -1.218   2.298   8.947  1.00  0.00     0.163 HD
BRANCH   3   6
ATOM      6  C   UNL     1      -1.002   2.060   5.626  1.00  0.00     0.067 C 
ATOM      7  C   UNL     1      -0.698   1.703   0.612  1.00  0.00     0.059 A 
ATOM      8  C   UNL     1      -1.726   1.506   1.549  1.00  0.00     0.074 A 
ATOM      9  C   UNL     1       0.576   2.075   1.104  1.00  0.00     0.065 A 
ATOM     10  C   UNL     1      -1.473   1.636   2.911  1.00  0.00     0.130 A 
ATOM     11  C   UNL     1       0.847   2.097   2.477  1.00  0.00     0.034 A 
ATOM     12  Cl  UNL     1       1.864   2.556   0.052  1.00  0.00    -0.082 Cl
ATOM     13  C   UNL     1      -0.179   1.861   3.384  1.00  0.00     0.019 A 
ATOM     14  O   UNL     1      -2.540   1.547   3.768  1.00  0.00    -0.475 OA
ATOM     15  C   UNL     1       0.056   1.847   4.822  1.00  0.00     0.025 C 
ATOM     16  C   UNL     1      -2.346   2.308   5.001  1.00  0.00     0.314 C 
BRANCH   7  17
ATOM     17  N   UNL     1      -0.942   1.500  -0.756  1.00  0.00    -0.373 N 
ATOM     18  C   UNL     1      -2.006   2.320  -1.330  1.00  0.00     0.143 C 
BRANCH  17  19
ATOM     19  C   UNL     1      -0.858   0.102  -1.230  1.00  0.00     0.119 C 
BRANCH  19  20
ATOM     20  C   UNL     1       0.597  -0.387  -1.390  1.00  0.00     0.002 C 
ATOM     21  C   UNL     1       1.107  -1.120  -0.144  1.00  0.00     0.009 C 
ATOM     22  C   UNL     1       0.740  -1.315  -2.599  1.00  0.00     0.009 C 
ENDBRANCH  19  20
ENDBRANCH  17  19
ENDBRANCH   7  17
BRANCH  16  23
ATOM     23  C   UNL     1      -2.613   3.816   4.770  1.00  0.00     0.429 C 
ATOM     24  F   UNL     1      -3.943   4.045   4.637  1.00  0.00    -0.167 F 
ATOM     25  F   UNL     1      -2.194   4.575   5.813  1.00  0.00    -0.167 F 
ATOM     26  F   UNL     1      -2.006   4.311   3.671  1.00  0.00    -0.167 F 
ENDBRANCH  16  23
ENDBRANCH   3   6
ENDBRANCH   1   2
BRANCH   1  27
ATOM     27  C   UNL     1      -3.926   1.941   8.669  1.00  0.00     0.042 C 
BRANCH  27  28
ATOM     28  C   UNL     1      -3.824   1.841  10.183  1.00  0.00     0.118 C 
BRANCH  28  29
ATOM     29  N   UNL     1      -4.278   3.059  10.850  1.00  0.00    -0.352 N 
ATOM     30  C   UNL     1      -5.331   3.253  11.712  1.00  0.00     0.251 C 
ATOM     31  H   UNL     1      -3.749   3.865  10.652  1.00  0.00     0.163 HD
ATOM     32  O   UNL     1      -5.685   4.390  12.008  1.00  0.00    -0.269 OA
BRANCH  30  33
ATOM     33  C   UNL     1      -6.051   2.086  12.256  1.00  0.00     0.039 A 
ATOM     34  C   UNL     1      -5.340   0.960  12.668  1.00  0.00     0.014 A 
ATOM     35  C   UNL     1      -7.447   2.098  12.315  1.00  0.00     0.014 A 
ATOM     36  C   UNL     1      -6.019  -0.221  12.920  1.00  0.00     0.010 A 
ATOM     37  C   UNL     1      -8.131   0.939  12.691  1.00  0.00     0.010 A 
ATOM     38  C   UNL     1      -7.423  -0.248  12.935  1.00  0.00    -0.014 A 
BRANCH  38  39
ATOM     39  C   UNL     1      -8.112  -1.540  13.189  1.00  0.00     0.031 A 
ATOM     40  C   UNL     1      -9.006  -2.155  12.146  1.00  0.00     0.074 A 
ATOM     41  C   UNL     1      -7.858  -2.200  14.337  1.00  0.00     0.049 A 
ATOM     42  N   UNL     1      -9.668  -3.285  12.189  1.00  0.00    -0.248 NA
ATOM     43  C   UNL     1      -9.188  -1.406  10.893  1.00  0.00     0.031 C 
ATOM     44  C   UNL     1      -6.994  -1.714  15.416  1.00  0.00     0.029 A 
ATOM     45  N   UNL     1      -8.268  -3.433  14.772  1.00  0.00    -0.354 N 
ATOM     46  C   UNL     1     -10.363  -3.367  10.988  1.00  0.00     0.074 A 
ATOM     47  C   UNL     1     -10.066  -2.161  10.247  1.00  0.00     0.031 C 
ATOM     48  C   UNL     1      -6.881  -2.666  16.353  1.00  0.00     0.029 A 
ATOM     49  C   UNL     1      -7.727  -3.792  15.982  1.00  0.00     0.049 A 
ATOM     50  H   UNL     1      -8.889  -4.005  14.266  1.00  0.00     0.167 HD
ATOM     51  C   UNL     1     -11.167  -4.361  10.540  1.00  0.00     0.037 A 
ATOM     52  C   UNL     1      -7.909  -4.900  16.724  1.00  0.00     0.037 A 
ATOM     53  C   UNL     1     -11.440  -5.572  11.271  1.00  0.00     0.049 A 
ATOM     54  C   UNL     1      -8.841  -5.963  16.223  1.00  0.00     0.074 A 
ATOM     55  C   UNL     1     -12.230  -6.647  10.899  1.00  0.00     0.029 A 
ATOM     56  N   UNL     1     -10.926  -5.870  12.525  1.00  0.00    -0.354 N 
ATOM     57  N   UNL     1      -9.496  -6.021  15.089  1.00  0.00    -0.248 NA
ATOM     58  C   UNL     1      -9.072  -7.106  17.115  1.00  0.00     0.031 C 
ATOM     59  C   UNL     1     -12.225  -7.576  11.946  1.00  0.00     0.029 A 
ATOM     60  C   UNL     1     -11.398  -7.101  12.950  1.00  0.00     0.049 A 
ATOM     61  H   UNL     1     -10.317  -5.291  13.037  1.00  0.00     0.167 HD
ATOM     62  C   UNL     1     -10.209  -7.210  15.126  1.00  0.00     0.074 A 
ATOM     63  C   UNL     1      -9.883  -7.855  16.382  1.00  0.00     0.031 C 
ATOM     64  C   UNL     1     -11.064  -7.721  14.207  1.00  0.00     0.037 A 
BRANCH  51  65
ATOM     65  C   UNL     1     -11.828  -4.168   9.205  1.00  0.00     0.057 A 
ATOM     66  C   UNL     1     -13.207  -3.937   9.120  1.00  0.00     0.134 A 
ATOM     67  C   UNL     1     -11.109  -4.228   8.004  1.00  0.00     0.134 A 
ATOM     68  F   UNL     1     -13.957  -3.873  10.230  1.00  0.00    -0.206 F 
ATOM     69  C   UNL     1     -13.847  -3.772   7.890  1.00  0.00     0.040 A 
ATOM     70  C   UNL     1     -11.734  -4.040   6.768  1.00  0.00     0.040 A 
ATOM     71  F   UNL     1      -9.783  -4.430   8.014  1.00  0.00    -0.206 F 
ATOM     72  C   UNL     1     -13.108  -3.816   6.709  1.00  0.00     0.006 A 
ENDBRANCH  51  65
BRANCH  52  73
ATOM     73  C   UNL     1      -7.215  -5.045  18.027  1.00  0.00     0.057 A 
ATOM     74  C   UNL     1      -7.532  -4.225  19.117  1.00  0.00     0.134 A 
ATOM     75  C   UNL     1      -6.226  -6.017  18.217  1.00  0.00     0.134 A 
ATOM     76  F   UNL     1      -8.467  -3.271  18.998  1.00  0.00    -0.206 F 
ATOM     77  C   UNL     1      -6.883  -4.357  20.345  1.00  0.00     0.040 A 
ATOM     78  C   UNL     1      -5.589  -6.179  19.448  1.00  0.00     0.040 A 
ATOM     79  F   UNL     1      -5.891  -6.844  17.216  1.00  0.00    -0.206 F 
ATOM     80  C   UNL     1      -5.915  -5.344  20.515  1.00  0.00     0.006 A 
ENDBRANCH  52  73
BRANCH  64  81
ATOM     81  C   UNL     1     -11.682  -9.049  14.528  1.00  0.00     0.057 A 
ATOM     82  C   UNL     1     -11.280 -10.206  13.850  1.00  0.00     0.134 A 
ATOM     83  C   UNL     1     -12.673  -9.182  15.509  1.00  0.00     0.134 A 
ATOM     84  F   UNL     1     -10.339 -10.145  12.896  1.00  0.00    -0.206 F 
ATOM     85  C   UNL     1     -11.841 -11.451  14.139  1.00  0.00     0.040 A 
ATOM     86  C   UNL     1     -13.222 -10.425  15.825  1.00  0.00     0.040 A 
ATOM     87  F   UNL     1     -13.087  -8.114  16.207  1.00  0.00    -0.206 F 
ATOM     88  C   UNL     1     -12.809 -11.564  15.135  1.00  0.00     0.006 A 
ENDBRANCH  64  81
ENDBRANCH  38  39
ENDBRANCH  30  33
ENDBRANCH  28  29
ENDBRANCH  27  28
ENDBRANCH   1  27
TORSDOF 14
