REMARK SMILES O=C(NCCCNC(=O)c1ccc(-c2c3nc(c(-c4c(F)cccc4F)c4ccc([nH]4)c(-c4c(F)cccc4F)c4nc(c(-c5c(F)cccc5F)c5ccc2[nH]5)C=C4)C=C3)cc1)C1=Cc2cc(S(F)(F)(F)(F)F)cc(Br)c2O[C@@H]1C(F)(F)F
REMARK SMILES IDX 5 1 4 2 3 3 1 4 2 5 64 7 65 8 80 9 66 10 79 11 67 12 78 13
REMARK SMILES IDX 68 14 76 15 75 16 77 17 81 18 82 19 83 20 84 21 69 22 70 23
REMARK SMILES IDX 71 24 72 25 73 26 74 27 6 28 7 29 8 30 9 32 10 33 11 34
REMARK SMILES IDX 63 35 12 36 62 37 13 38 14 39 15 40 56 41 16 42 61 43 55 44
REMARK SMILES IDX 57 45 17 46 60 47 54 48 53 49 18 51 44 52 27 53 43 54 28 55
REMARK SMILES IDX 31 56 42 57 58 58 29 59 30 60 41 62 59 63 32 64 19 65 20 66
REMARK SMILES IDX 25 67 21 68 22 69 24 70 26 71 23 72 45 73 46 74 51 75 47 76
REMARK SMILES IDX 48 77 50 78 52 79 49 80 33 81 34 82 39 83 35 84 36 85 38 86
REMARK SMILES IDX 40 87 37 88
REMARK H PARENT 3 6 7 31 57 50 31 61
REMARK Flexibility Score: inf
ROOT
ATOM      1  C   UNL     1       4.927  -1.103   2.138  1.00  0.00     0.042 C 
ENDROOT
BRANCH   1   2
ATOM      2  C   UNL     1       4.420  -1.156   0.706  1.00  0.00     0.118 C 
BRANCH   2   3
ATOM      3  N   UNL     1       2.950  -1.156   0.706  1.00  0.00    -0.352 N 
ATOM      4  O   UNL     1       0.945  -0.078   0.028  1.00  0.00    -0.270 OA
ATOM      5  C   UNL     1       2.215  -0.078   0.028  1.00  0.00     0.251 C 
ATOM      6  H   UNL     1       2.458  -1.878   1.159  1.00  0.00     0.163 HD
BRANCH   5   7
ATOM      7  C   UNL     1       2.975   1.036  -0.672  1.00  0.00     0.067 C 
ATOM      8  C   UNL     1       4.336   1.036  -0.672  1.00  0.00     0.025 C 
ATOM      9  C   UNL     1       2.215   2.151  -1.372  1.00  0.00     0.314 C 
ATOM     10  C   UNL     1       5.096  -0.078   0.028  1.00  0.00     0.020 A 
ATOM     11  O   UNL     1       3.511  -1.692  -0.701  1.00  0.00    -0.474 OA
ATOM     12  C   UNL     1       6.228   0.292   0.736  1.00  0.00     0.036 A 
ATOM     13  C   UNL     1       4.757  -1.355  -0.110  1.00  0.00     0.142 A 
ATOM     14  C   UNL     1       7.104  -0.782   1.018  1.00  0.00     0.109 A 
ATOM     15  C   UNL     1       5.603  -2.352   0.312  1.00  0.00     0.062 A 
ATOM     16  C   UNL     1       6.767  -2.058   0.966  1.00  0.00     0.044 A 
ATOM     17  Br  UNL     1       5.133  -4.225  -0.027  1.00  0.00    -0.047 Br
BRANCH   9  18
ATOM     18  C   UNL     1       2.583   2.166  -2.847  1.00  0.00     0.429 C 
ATOM     19  F   UNL     1       2.261   0.997  -3.396  1.00  0.00    -0.167 F 
ATOM     20  F   UNL     1       1.918   3.141  -3.460  1.00  0.00    -0.167 F 
ATOM     21  F   UNL     1       3.890   2.371  -2.977  1.00  0.00    -0.167 F 
ENDBRANCH   9  18
BRANCH  14  22
ATOM     22  S   UNL     1       8.806  -0.380   1.484  1.00  0.00     0.310 S 
ATOM     23  F   UNL     1       8.449  -0.404   3.029  1.00  0.00    -0.094 F 
ATOM     24  F   UNL     1       8.410   1.145   1.487  1.00  0.00    -0.094 F 
ATOM     25  F   UNL     1      10.266  -0.029   1.890  1.00  0.00    -0.094 F 
ATOM     26  F   UNL     1       9.148  -1.916   1.613  1.00  0.00    -0.094 F 
ATOM     27  F   UNL     1       7.301  -0.755   1.183  1.00  0.00    -0.094 F 
ENDBRANCH  14  22
ENDBRANCH   5   7
ENDBRANCH   2   3
ENDBRANCH   1   2
BRANCH   1  28
ATOM     28  C   UNL     1       4.420  -2.316   2.900  1.00  0.00     0.118 C 
BRANCH  28  29
ATOM     29  N   UNL     1       4.910  -3.541   2.253  1.00  0.00    -0.352 N 
ATOM     30  C   UNL     1       5.756  -4.481   3.003  1.00  0.00     0.251 C 
ATOM     31  H   UNL     1       4.673  -3.732   1.317  1.00  0.00     0.163 HD
ATOM     32  O   UNL     1       6.179  -5.541   2.443  1.00  0.00    -0.269 OA
BRANCH  30  33
ATOM     33  C   UNL     1       6.123  -4.187   4.448  1.00  0.00     0.039 A 
ATOM     34  C   UNL     1       7.414  -4.425   4.888  1.00  0.00     0.014 A 
ATOM     35  C   UNL     1       5.178  -3.765   5.280  1.00  0.00     0.014 A 
ATOM     36  C   UNL     1       7.541  -4.466   6.297  1.00  0.00     0.010 A 
ATOM     37  C   UNL     1       5.415  -3.700   6.632  1.00  0.00     0.010 A 
ATOM     38  C   UNL     1       6.652  -3.980   7.143  1.00  0.00    -0.014 A 
BRANCH  38  39
ATOM     39  C   UNL     1       6.985  -3.743   8.607  1.00  0.00     0.031 A 
ATOM     40  C   UNL     1       6.233  -4.428   9.564  1.00  0.00     0.074 A 
ATOM     41  C   UNL     1       8.044  -2.905   8.910  1.00  0.00     0.049 A 
ATOM     42  N   UNL     1       6.407  -4.430  10.886  1.00  0.00    -0.248 NA
ATOM     43  C   UNL     1       5.087  -5.292   9.247  1.00  0.00     0.031 C 
ATOM     44  C   UNL     1       8.813  -2.217   7.951  1.00  0.00     0.029 A 
ATOM     45  N   UNL     1       8.540  -2.584  10.155  1.00  0.00    -0.354 N 
ATOM     46  C   UNL     1       5.503  -5.220  11.469  1.00  0.00     0.074 A 
ATOM     47  C   UNL     1       4.637  -5.780  10.423  1.00  0.00     0.031 C 
ATOM     48  C   UNL     1       9.751  -1.485   8.607  1.00  0.00     0.029 A 
ATOM     49  C   UNL     1       9.584  -1.702   9.988  1.00  0.00     0.049 A 
ATOM     50  H   UNL     1       8.205  -2.927  11.015  1.00  0.00     0.167 HD
ATOM     51  C   UNL     1       5.368  -5.495  12.831  1.00  0.00     0.037 A 
ATOM     52  C   UNL     1      10.358  -1.108  10.972  1.00  0.00     0.037 A 
ATOM     53  C   UNL     1       6.170  -4.935  13.812  1.00  0.00     0.049 A 
ATOM     54  C   UNL     1      10.186  -1.339  12.339  1.00  0.00     0.074 A 
ATOM     55  C   UNL     1       6.053  -5.208  15.188  1.00  0.00     0.029 A 
ATOM     56  N   UNL     1       7.199  -4.034  13.647  1.00  0.00    -0.354 N 
ATOM     57  N   UNL     1       9.307  -2.159  12.918  1.00  0.00    -0.248 NA
ATOM     58  C   UNL     1      10.979  -0.691  13.392  1.00  0.00     0.031 C 
ATOM     59  C   UNL     1       6.991  -4.475  15.845  1.00  0.00     0.029 A 
ATOM     60  C   UNL     1       7.709  -3.731  14.890  1.00  0.00     0.049 A 
ATOM     61  H   UNL     1       7.515  -3.669  12.789  1.00  0.00     0.167 HD
ATOM     62  C   UNL     1       9.455  -2.128  14.244  1.00  0.00     0.074 A 
ATOM     63  C   UNL     1      10.528  -1.178  14.569  1.00  0.00     0.031 C 
ATOM     64  C   UNL     1       8.741  -2.858  15.197  1.00  0.00     0.037 A 
BRANCH  51  65
ATOM     65  C   UNL     1       4.279  -6.465  13.262  1.00  0.00     0.057 A 
ATOM     66  C   UNL     1       4.263  -7.765  12.783  1.00  0.00     0.134 A 
ATOM     67  C   UNL     1       3.340  -6.024  14.090  1.00  0.00     0.134 A 
ATOM     68  F   UNL     1       5.300  -8.323  12.166  1.00  0.00    -0.206 F 
ATOM     69  C   UNL     1       3.043  -8.444  13.011  1.00  0.00     0.040 A 
ATOM     70  C   UNL     1       2.240  -6.796  14.375  1.00  0.00     0.040 A 
ATOM     71  F   UNL     1       3.465  -4.823  14.649  1.00  0.00    -0.206 F 
ATOM     72  C   UNL     1       2.130  -8.069  13.888  1.00  0.00     0.006 A 
ENDBRANCH  51  65
BRANCH  52  73
ATOM     73  C   UNL     1      11.458  -0.152  10.540  1.00  0.00     0.057 A 
ATOM     74  C   UNL     1      12.783  -0.412  10.847  1.00  0.00     0.134 A 
ATOM     75  C   UNL     1      11.110   0.928   9.849  1.00  0.00     0.134 A 
ATOM     76  F   UNL     1      13.203  -1.588  11.306  1.00  0.00    -0.206 F 
ATOM     77  C   UNL     1      13.649   0.685  10.626  1.00  0.00     0.040 A 
ATOM     78  C   UNL     1      12.038   1.896   9.551  1.00  0.00     0.040 A 
ATOM     79  F   UNL     1       9.852   1.073   9.442  1.00  0.00    -0.206 F 
ATOM     80  C   UNL     1      13.356   1.732   9.877  1.00  0.00     0.006 A 
ENDBRANCH  52  73
BRANCH  64  81
ATOM     81  C   UNL     1       9.118  -2.684  16.659  1.00  0.00     0.057 A 
ATOM     82  C   UNL     1       9.057  -1.425  17.233  1.00  0.00     0.134 A 
ATOM     83  C   UNL     1       9.527  -3.739  17.354  1.00  0.00     0.134 A 
ATOM     84  F   UNL     1       8.425  -0.400  16.669  1.00  0.00    -0.206 F 
ATOM     85  C   UNL     1       9.728  -1.328  18.475  1.00  0.00     0.040 A 
ATOM     86  C   UNL     1      10.047  -3.586  18.616  1.00  0.00     0.040 A 
ATOM     87  F   UNL     1       9.432  -4.955  16.823  1.00  0.00    -0.206 F 
ATOM     88  C   UNL     1      10.073  -2.361  19.223  1.00  0.00     0.006 A 
ENDBRANCH  64  81
ENDBRANCH  38  39
ENDBRANCH  30  33
ENDBRANCH  28  29
ENDBRANCH   1  28
TORSDOF 12
