REMARK SMILES Cc1ccccc1Nc1nc2c(c(=O)[nH]c(=O)n2C)n1CC(=O)NCCCNC(=O)c1ccc(-c2c3nc(c(-c4c(F)cccc4F)c4ccc([nH]4)c(-c4c(F)cccc4F)c4nc(c(-c5c(F)cccc5F)c5ccc2[nH]5)C=C4)C=C3)cc1
REMARK SMILES IDX 25 1 24 2 22 3 23 4 21 6 20 7 9 8 10 9 11 10 12 11 18 12
REMARK SMILES IDX 13 13 16 14 19 15 14 16 15 17 17 18 8 20 7 22 1 23 2 24 3 25
REMARK SMILES IDX 4 26 6 27 5 28 26 29 27 30 28 31 29 32 30 34 31 35 32 36
REMARK SMILES IDX 84 37 33 38 83 39 34 40 35 41 36 42 77 43 37 44 82 45 76 46
REMARK SMILES IDX 78 47 38 48 81 49 75 50 74 51 39 53 65 54 48 55 64 56 49 57
REMARK SMILES IDX 52 58 63 59 79 60 50 61 51 62 62 64 80 65 53 66 40 67 41 68
REMARK SMILES IDX 46 69 42 70 43 71 45 72 47 73 44 74 66 75 67 76 72 77 68 78
REMARK SMILES IDX 69 79 71 80 73 81 70 82 54 83 55 84 60 85 56 86 57 87 59 88
REMARK SMILES IDX 61 89 58 90
REMARK H PARENT 24 5 15 19 8 21 28 33 78 52 52 63
REMARK Flexibility Score: inf
ROOT
ATOM      1  C   UNL     1      -3.820   3.548   1.026  1.00  0.00     0.117 C 
ENDROOT
BRANCH   1   2
ATOM      2  N   UNL     1      -3.071   2.372   1.434  1.00  0.00    -0.354 N 
ATOM      3  C   UNL     1      -1.855   2.251   2.049  1.00  0.00     0.240 C 
ATOM      4  O   UNL     1      -1.619   1.162   2.584  1.00  0.00    -0.273 OA
ATOM      5  H   UNL     1      -3.513   1.516   1.232  1.00  0.00     0.163 HD
BRANCH   3   6
ATOM      6  C   UNL     1      -0.862   3.388   2.184  1.00  0.00     0.226 C 
BRANCH   6   7
ATOM      7  N   UNL     1      -0.522   4.105   0.966  1.00  0.00    -0.295 N 
ATOM      8  C   UNL     1       0.296   3.683  -0.078  1.00  0.00     0.210 A 
ATOM      9  N   UNL     1       0.448   4.644  -0.970  1.00  0.00    -0.194 NA
ATOM     10  C   UNL     1      -0.310   5.678  -0.526  1.00  0.00     0.170 A 
ATOM     11  C   UNL     1      -0.862   5.415   0.694  1.00  0.00     0.154 A 
ATOM     12  N   UNL     1      -0.563   6.851  -1.206  1.00  0.00    -0.279 N 
ATOM     13  C   UNL     1      -1.679   6.367   1.368  1.00  0.00     0.279 A 
ATOM     14  C   UNL     1      -1.426   7.781  -0.638  1.00  0.00     0.329 A 
ATOM     15  C   UNL     1       0.019   7.091  -2.512  1.00  0.00     0.157 C 
ATOM     16  O   UNL     1      -2.178   6.218   2.481  1.00  0.00    -0.267 OA
ATOM     17  N   UNL     1      -1.920   7.493   0.618  1.00  0.00    -0.272 N 
ATOM     18  O   UNL     1      -1.776   8.826  -1.186  1.00  0.00    -0.248 OA
ATOM     19  H   UNL     1      -2.510   8.169   1.022  1.00  0.00     0.175 HD
BRANCH   8  20
ATOM     20  N   UNL     1       0.944   2.496  -0.123  1.00  0.00    -0.325 N 
ATOM     21  H   UNL     1       1.925   2.535  -0.043  1.00  0.00     0.170 HD
BRANCH  20  22
ATOM     22  C   UNL     1       0.382   1.201  -0.270  1.00  0.00     0.044 A 
ATOM     23  C   UNL     1       2.643   0.073   0.207  1.00  0.00     0.046 C 
ATOM     24  C   UNL     1       1.156   0.047  -0.021  1.00  0.00    -0.027 A 
ATOM     25  C   UNL     1       0.539  -1.222  -0.033  1.00  0.00     0.005 A 
ATOM     26  C   UNL     1      -0.818  -1.361  -0.312  1.00  0.00     0.000 A 
ATOM     27  C   UNL     1      -0.961   1.021  -0.634  1.00  0.00     0.026 A 
ATOM     28  C   UNL     1      -1.564  -0.239  -0.639  1.00  0.00     0.002 A 
ENDBRANCH  20  22
ENDBRANCH   8  20
ENDBRANCH   6   7
ENDBRANCH   3   6
ENDBRANCH   1   2
BRANCH   1  29
ATOM     29  C   UNL     1      -3.568   3.990  -0.410  1.00  0.00     0.042 C 
BRANCH  29  30
ATOM     30  C   UNL     1      -4.328   3.209  -1.464  1.00  0.00     0.118 C 
BRANCH  30  31
ATOM     31  N   UNL     1      -5.581   3.840  -1.871  1.00  0.00    -0.352 N 
ATOM     32  C   UNL     1      -6.462   3.495  -2.882  1.00  0.00     0.251 C 
ATOM     33  H   UNL     1      -5.838   4.633  -1.347  1.00  0.00     0.163 HD
ATOM     34  O   UNL     1      -7.487   4.148  -3.052  1.00  0.00    -0.269 OA
BRANCH  32  35
ATOM     35  C   UNL     1      -6.260   2.231  -3.624  1.00  0.00     0.039 A 
ATOM     36  C   UNL     1      -7.354   1.358  -3.671  1.00  0.00     0.014 A 
ATOM     37  C   UNL     1      -4.974   1.775  -3.880  1.00  0.00     0.014 A 
ATOM     38  C   UNL     1      -7.119  -0.004  -3.601  1.00  0.00     0.010 A 
ATOM     39  C   UNL     1      -4.727   0.445  -3.667  1.00  0.00     0.010 A 
ATOM     40  C   UNL     1      -5.802  -0.417  -3.443  1.00  0.00    -0.014 A 
BRANCH  40  41
ATOM     41  C   UNL     1      -5.411  -1.772  -3.142  1.00  0.00     0.031 A 
ATOM     42  C   UNL     1      -5.142  -2.635  -4.293  1.00  0.00     0.074 A 
ATOM     43  C   UNL     1      -5.164  -2.103  -1.857  1.00  0.00     0.049 A 
ATOM     44  N   UNL     1      -5.032  -3.908  -4.229  1.00  0.00    -0.248 NA
ATOM     45  C   UNL     1      -5.045  -2.112  -5.657  1.00  0.00     0.031 C 
ATOM     46  C   UNL     1      -4.503  -3.286  -1.323  1.00  0.00     0.029 A 
ATOM     47  N   UNL     1      -5.704  -1.476  -0.726  1.00  0.00    -0.354 N 
ATOM     48  C   UNL     1      -4.540  -4.330  -5.442  1.00  0.00     0.074 A 
ATOM     49  C   UNL     1      -4.729  -3.218  -6.332  1.00  0.00     0.031 C 
ATOM     50  C   UNL     1      -4.935  -3.485  -0.063  1.00  0.00     0.029 A 
ATOM     51  C   UNL     1      -5.999  -2.524   0.180  1.00  0.00     0.049 A 
ATOM     52  H   UNL     1      -5.847  -0.512  -0.590  1.00  0.00     0.167 HD
ATOM     53  C   UNL     1      -3.888  -5.524  -5.469  1.00  0.00     0.037 A 
ATOM     54  C   UNL     1      -7.312  -2.839   0.405  1.00  0.00     0.037 A 
ATOM     55  C   UNL     1      -4.147  -6.245  -4.213  1.00  0.00     0.049 A 
ATOM     56  C   UNL     1      -7.714  -4.178  -0.193  1.00  0.00     0.074 A 
ATOM     57  C   UNL     1      -3.440  -6.443  -3.040  1.00  0.00     0.029 A 
ATOM     58  N   UNL     1      -5.467  -6.545  -3.909  1.00  0.00    -0.354 N 
ATOM     59  N   UNL     1      -6.933  -4.922  -0.934  1.00  0.00    -0.248 NA
ATOM     60  C   UNL     1      -9.047  -4.759  -0.047  1.00  0.00     0.031 C 
ATOM     61  C   UNL     1      -4.385  -6.769  -2.009  1.00  0.00     0.029 A 
ATOM     62  C   UNL     1      -5.651  -6.816  -2.567  1.00  0.00     0.049 A 
ATOM     63  H   UNL     1      -6.191  -6.563  -4.575  1.00  0.00     0.167 HD
ATOM     64  C   UNL     1      -7.597  -6.046  -1.340  1.00  0.00     0.074 A 
ATOM     65  C   UNL     1      -8.935  -5.874  -0.791  1.00  0.00     0.031 C 
ATOM     66  C   UNL     1      -7.016  -7.034  -2.091  1.00  0.00     0.037 A 
BRANCH  53  67
ATOM     67  C   UNL     1      -2.880  -5.953  -6.516  1.00  0.00     0.057 A 
ATOM     68  C   UNL     1      -2.184  -7.166  -6.351  1.00  0.00     0.134 A 
ATOM     69  C   UNL     1      -2.454  -5.203  -7.635  1.00  0.00     0.134 A 
ATOM     70  F   UNL     1      -2.470  -8.003  -5.343  1.00  0.00    -0.206 F 
ATOM     71  C   UNL     1      -1.143  -7.576  -7.198  1.00  0.00     0.040 A 
ATOM     72  C   UNL     1      -1.434  -5.615  -8.505  1.00  0.00     0.040 A 
ATOM     73  F   UNL     1      -2.960  -4.010  -7.949  1.00  0.00    -0.206 F 
ATOM     74  C   UNL     1      -0.761  -6.800  -8.281  1.00  0.00     0.006 A 
ENDBRANCH  53  67
BRANCH  54  75
ATOM     75  C   UNL     1      -8.151  -1.598   0.472  1.00  0.00     0.057 A 
ATOM     76  C   UNL     1      -7.776  -0.619   1.419  1.00  0.00     0.134 A 
ATOM     77  C   UNL     1      -8.892  -1.157  -0.626  1.00  0.00     0.134 A 
ATOM     78  F   UNL     1      -7.102  -0.976   2.525  1.00  0.00    -0.206 F 
ATOM     79  C   UNL     1      -7.916   0.748   1.163  1.00  0.00     0.040 A 
ATOM     80  C   UNL     1      -9.082   0.210  -0.864  1.00  0.00     0.040 A 
ATOM     81  F   UNL     1      -9.317  -2.022  -1.558  1.00  0.00    -0.206 F 
ATOM     82  C   UNL     1      -8.525   1.165  -0.013  1.00  0.00     0.006 A 
ENDBRANCH  54  75
BRANCH  66  83
ATOM     83  C   UNL     1      -7.743  -8.301  -2.472  1.00  0.00     0.057 A 
ATOM     84  C   UNL     1      -8.614  -8.963  -1.595  1.00  0.00     0.134 A 
ATOM     85  C   UNL     1      -7.534  -8.952  -3.706  1.00  0.00     0.134 A 
ATOM     86  F   UNL     1      -8.779  -8.543  -0.331  1.00  0.00    -0.206 F 
ATOM     87  C   UNL     1      -9.334 -10.103  -1.970  1.00  0.00     0.040 A 
ATOM     88  C   UNL     1      -8.198 -10.125  -4.069  1.00  0.00     0.040 A 
ATOM     89  F   UNL     1      -6.691  -8.482  -4.633  1.00  0.00    -0.206 F 
ATOM     90  C   UNL     1      -9.132 -10.685  -3.214  1.00  0.00     0.006 A 
ENDBRANCH  66  83
ENDBRANCH  40  41
ENDBRANCH  32  35
ENDBRANCH  30  31
ENDBRANCH  29  30
ENDBRANCH   1  29
TORSDOF 13
