REMARK SMILES CCc1cccc(NC(=O)NCC(=O)NCCCNC(=O)c2ccc(-c3c4nc(c(-c5c(F)cccc5F)c5ccc([nH]5)c(-c5c(F)cccc5F)c5nc(c(-c6c(F)cccc6F)c6ccc3[nH]6)C=C5)C=C4)cc2)c1
REMARK SMILES IDX 16 1 15 2 13 3 14 4 12 6 11 7 8 8 9 9 10 11 7 13 3 14 4 15
REMARK SMILES IDX 76 16 5 17 6 18 2 19 1 20 17 21 18 22 19 23 20 24 21 26
REMARK SMILES IDX 22 27 23 28 75 29 24 30 74 31 25 32 26 33 27 34 68 35 28 36
REMARK SMILES IDX 73 37 67 38 69 39 29 40 72 41 66 42 65 43 30 45 56 46 39 47
REMARK SMILES IDX 55 48 40 49 43 50 54 51 70 52 41 53 42 54 53 56 71 57 44 58
REMARK SMILES IDX 31 59 32 60 37 61 33 62 34 63 36 64 38 65 35 66 57 67 58 68
REMARK SMILES IDX 63 69 59 70 60 71 62 72 64 73 61 74 45 75 46 76 51 77 47 78
REMARK SMILES IDX 48 79 50 80 52 81 49 82
REMARK H PARENT 15 5 8 10 11 12 19 25 69 44 43 55
REMARK Flexibility Score: inf
ROOT
ATOM      1  C   UNL     1      -0.378   5.583  -4.130  1.00  0.00     0.117 C 
ENDROOT
BRANCH   1   2
ATOM      2  N   UNL     1       0.829   5.784  -4.909  1.00  0.00    -0.355 N 
ATOM      3  C   UNL     1       2.024   6.354  -4.602  1.00  0.00     0.239 C 
ATOM      4  O   UNL     1       2.910   6.258  -5.461  1.00  0.00    -0.273 OA
ATOM      5  H   UNL     1       0.771   5.444  -5.831  1.00  0.00     0.163 HD
BRANCH   3   6
ATOM      6  C   UNL     1       2.365   6.988  -3.237  1.00  0.00     0.217 C 
BRANCH   6   7
ATOM      7  N   UNL     1       1.312   7.422  -2.349  1.00  0.00    -0.329 N 
ATOM      8  N   UNL     1       0.791   5.774  -0.674  1.00  0.00    -0.308 N 
ATOM      9  C   UNL     1       0.760   6.991  -1.222  1.00  0.00     0.319 C 
ATOM     10  H   UNL     1       0.378   5.814   0.218  1.00  0.00     0.171 HD
ATOM     11  O   UNL     1       0.078   7.833  -0.620  1.00  0.00    -0.248 OA
ATOM     12  H   UNL     1       0.895   8.256  -2.662  1.00  0.00     0.165 HD
BRANCH   8  13
ATOM     13  C   UNL     1       1.207   4.452  -0.925  1.00  0.00     0.043 A 
ATOM     14  C   UNL     1       1.066   2.114  -0.132  1.00  0.00    -0.046 A 
ATOM     15  C   UNL     1       1.856   1.712  -1.208  1.00  0.00     0.004 A 
ATOM     16  C   UNL     1       0.776   3.488   0.008  1.00  0.00     0.029 A 
ATOM     17  C   UNL     1       2.281   2.645  -2.144  1.00  0.00     0.002 A 
ATOM     18  C   UNL     1       1.939   3.993  -2.008  1.00  0.00     0.026 A 
BRANCH  14  19
ATOM     19  C   UNL     1       0.498   1.143   0.879  1.00  0.00     0.032 C 
ATOM     20  C   UNL     1       0.693  -0.338   0.572  1.00  0.00     0.009 C 
ENDBRANCH  14  19
ENDBRANCH   8  13
ENDBRANCH   6   7
ENDBRANCH   3   6
ENDBRANCH   1   2
BRANCH   1  21
ATOM     21  C   UNL     1      -1.425   6.658  -4.375  1.00  0.00     0.042 C 
BRANCH  21  22
ATOM     22  C   UNL     1      -2.131   6.499  -5.716  1.00  0.00     0.118 C 
BRANCH  22  23
ATOM     23  N   UNL     1      -2.996   5.324  -5.762  1.00  0.00    -0.352 N 
ATOM     24  C   UNL     1      -4.335   5.220  -6.052  1.00  0.00     0.251 C 
ATOM     25  H   UNL     1      -2.550   4.472  -5.551  1.00  0.00     0.163 HD
ATOM     26  O   UNL     1      -4.915   4.151  -5.883  1.00  0.00    -0.269 OA
BRANCH  24  27
ATOM     27  C   UNL     1      -5.088   6.396  -6.535  1.00  0.00     0.039 A 
ATOM     28  C   UNL     1      -6.359   6.646  -6.009  1.00  0.00     0.014 A 
ATOM     29  C   UNL     1      -4.546   7.257  -7.493  1.00  0.00     0.014 A 
ATOM     30  C   UNL     1      -7.044   7.806  -6.374  1.00  0.00     0.010 A 
ATOM     31  C   UNL     1      -5.192   8.453  -7.792  1.00  0.00     0.010 A 
ATOM     32  C   UNL     1      -6.442   8.745  -7.228  1.00  0.00    -0.014 A 
BRANCH  32  33
ATOM     33  C   UNL     1      -7.086  10.052  -7.513  1.00  0.00     0.031 A 
ATOM     34  C   UNL     1      -7.483  10.415  -8.917  1.00  0.00     0.074 A 
ATOM     35  C   UNL     1      -7.236  10.947  -6.516  1.00  0.00     0.049 A 
ATOM     36  N   UNL     1      -7.976  11.540  -9.371  1.00  0.00    -0.248 NA
ATOM     37  C   UNL     1      -7.274   9.391  -9.953  1.00  0.00     0.031 C 
ATOM     38  C   UNL     1      -6.840  10.736  -5.121  1.00  0.00     0.029 A 
ATOM     39  N   UNL     1      -7.751  12.219  -6.524  1.00  0.00    -0.354 N 
ATOM     40  C   UNL     1      -8.118  11.365 -10.741  1.00  0.00     0.074 A 
ATOM     41  C   UNL     1      -7.618  10.044 -11.053  1.00  0.00     0.031 C 
ATOM     42  C   UNL     1      -7.148  11.829  -4.406  1.00  0.00     0.029 A 
ATOM     43  C   UNL     1      -7.723  12.833  -5.295  1.00  0.00     0.049 A 
ATOM     44  H   UNL     1      -8.106  12.651  -7.334  1.00  0.00     0.167 HD
ATOM     45  C   UNL     1      -8.638  12.220 -11.653  1.00  0.00     0.037 A 
ATOM     46  C   UNL     1      -8.108  14.069  -4.927  1.00  0.00     0.037 A 
ATOM     47  C   UNL     1      -9.165  13.521 -11.335  1.00  0.00     0.049 A 
ATOM     48  C   UNL     1      -8.679  14.998  -5.962  1.00  0.00     0.074 A 
ATOM     49  C   UNL     1      -9.783  14.429 -12.178  1.00  0.00     0.029 A 
ATOM     50  N   UNL     1      -9.134  14.101 -10.076  1.00  0.00    -0.354 N 
ATOM     51  N   UNL     1      -8.877  14.790  -7.240  1.00  0.00    -0.248 NA
ATOM     52  C   UNL     1      -9.081  16.335  -5.501  1.00  0.00     0.031 C 
ATOM     53  C   UNL     1     -10.087  15.576 -11.438  1.00  0.00     0.029 A 
ATOM     54  C   UNL     1      -9.699  15.364 -10.124  1.00  0.00     0.049 A 
ATOM     55  H   UNL     1      -8.766  13.677  -9.268  1.00  0.00     0.167 HD
ATOM     56  C   UNL     1      -9.449  15.956  -7.731  1.00  0.00     0.074 A 
ATOM     57  C   UNL     1      -9.582  16.862  -6.609  1.00  0.00     0.031 C 
ATOM     58  C   UNL     1      -9.829  16.252  -8.998  1.00  0.00     0.037 A 
BRANCH  45  59
ATOM     59  C   UNL     1      -8.673  11.775 -13.085  1.00  0.00     0.057 A 
ATOM     60  C   UNL     1      -9.558  10.783 -13.527  1.00  0.00     0.134 A 
ATOM     61  C   UNL     1      -7.853  12.383 -14.044  1.00  0.00     0.134 A 
ATOM     62  F   UNL     1     -10.363  10.153 -12.658  1.00  0.00    -0.206 F 
ATOM     63  C   UNL     1      -9.613  10.399 -14.868  1.00  0.00     0.040 A 
ATOM     64  C   UNL     1      -7.917  12.026 -15.392  1.00  0.00     0.040 A 
ATOM     65  F   UNL     1      -6.987  13.344 -13.688  1.00  0.00    -0.206 F 
ATOM     66  C   UNL     1      -8.796  11.028 -15.806  1.00  0.00     0.006 A 
ENDBRANCH  45  59
BRANCH  46  67
ATOM     67  C   UNL     1      -7.982  14.502  -3.512  1.00  0.00     0.057 A 
ATOM     68  C   UNL     1      -9.116  14.704  -2.717  1.00  0.00     0.134 A 
ATOM     69  C   UNL     1      -6.733  14.745  -2.928  1.00  0.00     0.134 A 
ATOM     70  F   UNL     1     -10.341  14.507  -3.228  1.00  0.00    -0.206 F 
ATOM     71  C   UNL     1      -9.016  15.154  -1.400  1.00  0.00     0.040 A 
ATOM     72  C   UNL     1      -6.617  15.170  -1.603  1.00  0.00     0.040 A 
ATOM     73  F   UNL     1      -5.608  14.565  -3.635  1.00  0.00    -0.206 F 
ATOM     74  C   UNL     1      -7.762  15.385  -0.839  1.00  0.00     0.006 A 
ENDBRANCH  46  67
BRANCH  58  75
ATOM     75  C   UNL     1     -10.449  17.597  -9.230  1.00  0.00     0.057 A 
ATOM     76  C   UNL     1      -9.689  18.773  -9.210  1.00  0.00     0.134 A 
ATOM     77  C   UNL     1     -11.817  17.713  -9.509  1.00  0.00     0.134 A 
ATOM     78  F   UNL     1      -8.377  18.730  -8.934  1.00  0.00    -0.206 F 
ATOM     79  C   UNL     1     -10.272  20.021  -9.438  1.00  0.00     0.040 A 
ATOM     80  C   UNL     1     -12.406  18.952  -9.764  1.00  0.00     0.040 A 
ATOM     81  F   UNL     1     -12.599  16.624  -9.551  1.00  0.00    -0.206 F 
ATOM     82  C   UNL     1     -11.634  20.111  -9.722  1.00  0.00     0.006 A 
ENDBRANCH  58  75
ENDBRANCH  32  33
ENDBRANCH  24  27
ENDBRANCH  22  23
ENDBRANCH  21  22
ENDBRANCH   1  21
TORSDOF 13
