REMARK SMILES COCc1nc2ccccc2n1CC(=O)NCCCNC(=O)c1ccc(-c2c3nc(c(-c4c(F)cccc4F)c4ccc([nH]4)c(-c4c(F)cccc4F)c4nc(c(-c5c(F)cccc5F)c5ccc2[nH]5)C=C4)C=C3)cc1
REMARK SMILES IDX 17 1 16 2 14 3 15 4 13 6 12 7 4 8 5 9 6 10 11 11 7 12 10 13
REMARK SMILES IDX 8 14 9 15 3 16 2 17 1 18 18 19 19 20 20 21 21 22 22 24 23 25
REMARK SMILES IDX 24 26 76 27 25 28 75 29 26 30 27 31 28 32 69 33 29 34 74 35
REMARK SMILES IDX 68 36 70 37 30 38 73 39 67 40 66 41 31 43 57 44 40 45 56 46
REMARK SMILES IDX 41 47 44 48 55 49 71 50 42 51 43 52 54 54 72 55 45 56 32 57
REMARK SMILES IDX 33 58 38 59 34 60 35 61 37 62 39 63 36 64 58 65 59 66 64 67
REMARK SMILES IDX 60 68 61 69 63 70 65 71 62 72 46 73 47 74 52 75 48 76 49 77
REMARK SMILES IDX 51 78 53 79 50 80
REMARK H PARENT 16 5 20 23 70 42 44 53
REMARK Flexibility Score: inf
ROOT
ATOM      1  C   UNL     1       3.492   4.769   1.676  1.00  0.00     0.117 C 
ENDROOT
BRANCH   1   2
ATOM      2  N   UNL     1       3.572   4.595   0.233  1.00  0.00    -0.354 N 
ATOM      3  C   UNL     1       2.580   4.654  -0.690  1.00  0.00     0.240 C 
ATOM      4  O   UNL     1       2.889   4.463  -1.889  1.00  0.00    -0.273 OA
ATOM      5  H   UNL     1       4.471   4.407  -0.122  1.00  0.00     0.163 HD
BRANCH   3   6
ATOM      6  C   UNL     1       1.152   4.960  -0.306  1.00  0.00     0.223 C 
BRANCH   6   7
ATOM      7  N   UNL     1       0.561   3.960   0.567  1.00  0.00    -0.316 N 
ATOM      8  C   UNL     1       0.453   2.605   0.305  1.00  0.00     0.136 A 
ATOM      9  N   UNL     1      -0.070   1.987   1.347  1.00  0.00    -0.231 NA
ATOM     10  C   UNL     1      -0.253   2.928   2.313  1.00  0.00     0.089 A 
ATOM     11  C   UNL     1       0.099   4.189   1.850  1.00  0.00     0.069 A 
ATOM     12  C   UNL     1      -0.683   2.757   3.635  1.00  0.00     0.030 A 
ATOM     13  C   UNL     1       0.014   5.328   2.666  1.00  0.00     0.028 A 
ATOM     14  C   UNL     1      -0.733   3.873   4.474  1.00  0.00     0.002 A 
ATOM     15  C   UNL     1      -0.390   5.137   3.994  1.00  0.00     0.002 A 
BRANCH   8  16
ATOM     16  C   UNL     1       0.970   1.945  -0.943  1.00  0.00     0.235 C 
BRANCH  16  17
ATOM     17  O   UNL     1       0.489   0.599  -1.042  1.00  0.00    -0.377 OA
ATOM     18  C   UNL     1       1.118  -0.296  -0.130  1.00  0.00     0.195 C 
ENDBRANCH  16  17
ENDBRANCH   8  16
ENDBRANCH   6   7
ENDBRANCH   3   6
ENDBRANCH   1   2
BRANCH   1  19
ATOM     19  C   UNL     1       3.741   3.467   2.441  1.00  0.00     0.042 C 
BRANCH  19  20
ATOM     20  C   UNL     1       5.183   2.985   2.332  1.00  0.00     0.118 C 
BRANCH  20  21
ATOM     21  N   UNL     1       6.132   3.980   2.766  1.00  0.00    -0.352 N 
ATOM     22  C   UNL     1       6.974   4.115   3.818  1.00  0.00     0.251 C 
ATOM     23  H   UNL     1       6.179   4.745   2.148  1.00  0.00     0.163 HD
ATOM     24  O   UNL     1       7.825   5.001   3.696  1.00  0.00    -0.269 OA
BRANCH  22  25
ATOM     25  C   UNL     1       6.814   3.458   5.130  1.00  0.00     0.039 A 
ATOM     26  C   UNL     1       6.011   2.386   5.508  1.00  0.00     0.014 A 
ATOM     27  C   UNL     1       7.435   4.181   6.147  1.00  0.00     0.014 A 
ATOM     28  C   UNL     1       5.537   2.381   6.846  1.00  0.00     0.010 A 
ATOM     29  C   UNL     1       7.261   3.811   7.452  1.00  0.00     0.010 A 
ATOM     30  C   UNL     1       6.003   3.359   7.779  1.00  0.00    -0.014 A 
BRANCH  30  31
ATOM     31  C   UNL     1       5.752   3.402   9.273  1.00  0.00     0.031 A 
ATOM     32  C   UNL     1       6.115   1.925   9.686  1.00  0.00     0.074 A 
ATOM     33  C   UNL     1       5.387   4.534  10.063  1.00  0.00     0.049 A 
ATOM     34  N   UNL     1       5.238   0.975   9.821  1.00  0.00    -0.248 NA
ATOM     35  C   UNL     1       7.465   1.273   9.497  1.00  0.00     0.031 C 
ATOM     36  C   UNL     1       5.065   5.992   9.759  1.00  0.00     0.029 A 
ATOM     37  N   UNL     1       5.128   4.631  11.459  1.00  0.00    -0.354 N 
ATOM     38  C   UNL     1       5.930  -0.161  10.261  1.00  0.00     0.074 A 
ATOM     39  C   UNL     1       7.252  -0.021   9.774  1.00  0.00     0.031 C 
ATOM     40  C   UNL     1       5.019   6.786  10.889  1.00  0.00     0.029 A 
ATOM     41  C   UNL     1       5.149   5.962  12.078  1.00  0.00     0.049 A 
ATOM     42  H   UNL     1       4.940   3.827  11.995  1.00  0.00     0.167 HD
ATOM     43  C   UNL     1       5.438  -0.838  11.337  1.00  0.00     0.037 A 
ATOM     44  C   UNL     1       4.975   6.318  13.428  1.00  0.00     0.037 A 
ATOM     45  C   UNL     1       4.069  -0.411  11.518  1.00  0.00     0.049 A 
ATOM     46  C   UNL     1       4.428   5.104  14.082  1.00  0.00     0.074 A 
ATOM     47  C   UNL     1       2.913  -0.524  10.778  1.00  0.00     0.029 A 
ATOM     48  N   UNL     1       3.991   0.761  12.222  1.00  0.00    -0.354 N 
ATOM     49  N   UNL     1       3.231   4.673  13.795  1.00  0.00    -0.248 NA
ATOM     50  C   UNL     1       5.441   4.111  14.416  1.00  0.00     0.031 C 
ATOM     51  C   UNL     1       2.265   0.743  10.878  1.00  0.00     0.029 A 
ATOM     52  C   UNL     1       2.917   1.504  11.842  1.00  0.00     0.049 A 
ATOM     53  H   UNL     1       4.633   1.033  12.917  1.00  0.00     0.167 HD
ATOM     54  C   UNL     1       3.459   3.374  13.377  1.00  0.00     0.074 A 
ATOM     55  C   UNL     1       4.854   3.080  13.794  1.00  0.00     0.031 C 
ATOM     56  C   UNL     1       2.680   2.803  12.402  1.00  0.00     0.037 A 
BRANCH  43  57
ATOM     57  C   UNL     1       6.247  -1.316  12.535  1.00  0.00     0.057 A 
ATOM     58  C   UNL     1       7.559  -0.917  12.870  1.00  0.00     0.134 A 
ATOM     59  C   UNL     1       5.528  -1.921  13.585  1.00  0.00     0.134 A 
ATOM     60  F   UNL     1       8.374  -0.317  11.996  1.00  0.00    -0.206 F 
ATOM     61  C   UNL     1       8.079  -1.040  14.168  1.00  0.00     0.040 A 
ATOM     62  C   UNL     1       6.014  -1.991  14.896  1.00  0.00     0.040 A 
ATOM     63  F   UNL     1       4.287  -2.388  13.381  1.00  0.00    -0.206 F 
ATOM     64  C   UNL     1       7.289  -1.533  15.196  1.00  0.00     0.006 A 
ENDBRANCH  43  57
BRANCH  44  65
ATOM     65  C   UNL     1       5.641   7.366  14.342  1.00  0.00     0.057 A 
ATOM     66  C   UNL     1       6.942   7.745  14.000  1.00  0.00     0.134 A 
ATOM     67  C   UNL     1       5.266   7.775  15.664  1.00  0.00     0.134 A 
ATOM     68  F   UNL     1       7.465   7.319  12.845  1.00  0.00    -0.206 F 
ATOM     69  C   UNL     1       7.802   8.473  14.844  1.00  0.00     0.040 A 
ATOM     70  C   UNL     1       6.118   8.541  16.519  1.00  0.00     0.040 A 
ATOM     71  F   UNL     1       4.092   7.408  16.205  1.00  0.00    -0.206 F 
ATOM     72  C   UNL     1       7.397   8.889  16.104  1.00  0.00     0.006 A 
ENDBRANCH  44  65
BRANCH  56  73
ATOM     73  C   UNL     1       1.454   3.536  11.918  1.00  0.00     0.057 A 
ATOM     74  C   UNL     1       0.228   2.992  12.293  1.00  0.00     0.134 A 
ATOM     75  C   UNL     1       1.401   4.621  11.024  1.00  0.00     0.134 A 
ATOM     76  F   UNL     1       0.194   1.852  12.998  1.00  0.00    -0.206 F 
ATOM     77  C   UNL     1      -0.985   3.553  11.902  1.00  0.00     0.040 A 
ATOM     78  C   UNL     1       0.190   5.235  10.668  1.00  0.00     0.040 A 
ATOM     79  F   UNL     1       2.496   5.060  10.395  1.00  0.00    -0.206 F 
ATOM     80  C   UNL     1      -1.010   4.713  11.136  1.00  0.00     0.006 A 
ENDBRANCH  56  73
ENDBRANCH  30  31
ENDBRANCH  22  25
ENDBRANCH  20  21
ENDBRANCH  19  20
ENDBRANCH   1  19
TORSDOF 13
