REMARK SMILES Cc1cc(Nc2ccc(C(=O)NCCCNC(=O)c3ccc(-c4c5nc(c(-c6c(F)cccc6F)c6ccc([nH]6)c(-c6c(F)cccc6F)c6nc(c(-c7c(F)cccc7F)c7ccc4[nH]7)C=C6)C=C5)cc3)cc2)nc(C(C)C)n1
REMARK SMILES IDX 13 1 12 2 10 3 11 4 9 6 6 7 7 8 74 9 8 10 73 11 5 12 4 14
REMARK SMILES IDX 1 15 2 16 3 17 80 18 76 19 75 20 77 21 78 22 79 23 14 24
REMARK SMILES IDX 15 25 16 26 17 27 18 29 19 30 20 31 72 32 21 33 71 34 22 35
REMARK SMILES IDX 23 36 24 37 65 38 25 39 70 40 64 41 66 42 26 43 69 44 63 45
REMARK SMILES IDX 62 46 27 48 53 49 36 50 52 51 37 52 40 53 51 54 67 55 38 56
REMARK SMILES IDX 39 57 50 59 68 60 41 61 28 62 29 63 34 64 30 65 31 66 33 67
REMARK SMILES IDX 35 68 32 69 54 70 55 71 60 72 56 73 57 74 59 75 61 76 58 77
REMARK SMILES IDX 42 78 43 79 48 80 44 81 45 82 47 83 49 84 46 85
REMARK H PARENT 12 5 5 13 16 28 66 47 40 58
REMARK Flexibility Score: inf
ROOT
ATOM      1  C   UNL     1       7.786  -0.328   1.857  1.00  0.00     0.118 C 
ENDROOT
BRANCH   1   2
ATOM      2  N   UNL     1       8.199  -1.453   1.038  1.00  0.00    -0.352 N 
ATOM      3  C   UNL     1       7.485  -2.363   0.301  1.00  0.00     0.251 C 
ATOM      4  O   UNL     1       8.119  -3.176  -0.373  1.00  0.00    -0.269 OA
ATOM      5  H   UNL     1       9.174  -1.587   1.005  1.00  0.00     0.163 HD
BRANCH   3   6
ATOM      6  C   UNL     1       5.998  -2.378   0.241  1.00  0.00     0.039 A 
ATOM      7  C   UNL     1       3.189  -2.420  -0.064  1.00  0.00     0.040 A 
ATOM      8  C   UNL     1       4.022  -2.841  -1.105  1.00  0.00     0.027 A 
ATOM      9  C   UNL     1       3.775  -2.004   1.135  1.00  0.00     0.027 A 
ATOM     10  C   UNL     1       5.412  -2.814  -0.956  1.00  0.00     0.016 A 
ATOM     11  C   UNL     1       5.164  -2.022   1.301  1.00  0.00     0.016 A 
BRANCH   7  12
ATOM     12  N   UNL     1       1.802  -2.328  -0.264  1.00  0.00    -0.340 N 
ATOM     13  H   UNL     1       1.330  -3.155  -0.512  1.00  0.00     0.168 HD
BRANCH  12  14
ATOM     14  C   UNL     1       1.024  -1.158  -0.142  1.00  0.00     0.134 A 
ATOM     15  C   UNL     1      -2.582  -0.141   0.013  1.00  0.00     0.067 C 
ATOM     16  C   UNL     1      -1.085  -0.114  -0.017  1.00  0.00     0.043 A 
ATOM     17  C   UNL     1      -0.351  -1.280  -0.102  1.00  0.00     0.070 A 
ATOM     18  N   UNL     1      -0.502   1.100   0.013  1.00  0.00    -0.238 NA
ATOM     19  C   UNL     1       0.842   1.132  -0.019  1.00  0.00     0.133 A 
ATOM     20  N   UNL     1       1.626   0.042  -0.075  1.00  0.00    -0.216 NA
BRANCH  19  21
ATOM     21  C   UNL     1       1.529   2.479  -0.045  1.00  0.00     0.051 C 
ATOM     22  C   UNL     1       1.177   3.241  -1.323  1.00  0.00     0.016 C 
ATOM     23  C   UNL     1       1.185   3.299   1.197  1.00  0.00     0.016 C 
ENDBRANCH  19  21
ENDBRANCH  12  14
ENDBRANCH   7  12
ENDBRANCH   3   6
ENDBRANCH   1   2
BRANCH   1  24
ATOM     24  C   UNL     1       7.860  -0.667   3.346  1.00  0.00     0.042 C 
BRANCH  24  25
ATOM     25  C   UNL     1       9.286  -0.738   3.891  1.00  0.00     0.118 C 
BRANCH  25  26
ATOM     26  N   UNL     1       9.911   0.573   3.957  1.00  0.00    -0.352 N 
ATOM     27  C   UNL     1      10.575   1.191   4.985  1.00  0.00     0.251 C 
ATOM     28  H   UNL     1       9.848   1.102   3.129  1.00  0.00     0.163 HD
ATOM     29  O   UNL     1      10.858   2.382   4.877  1.00  0.00    -0.269 OA
BRANCH  27  30
ATOM     30  C   UNL     1      10.949   0.463   6.220  1.00  0.00     0.039 A 
ATOM     31  C   UNL     1      10.895   1.159   7.434  1.00  0.00     0.014 A 
ATOM     32  C   UNL     1      11.425  -0.851   6.198  1.00  0.00     0.014 A 
ATOM     33  C   UNL     1      11.289   0.534   8.618  1.00  0.00     0.010 A 
ATOM     34  C   UNL     1      11.762  -1.496   7.391  1.00  0.00     0.010 A 
ATOM     35  C   UNL     1      11.712  -0.805   8.610  1.00  0.00    -0.014 A 
BRANCH  35  36
ATOM     36  C   UNL     1      12.111  -1.472   9.876  1.00  0.00     0.031 A 
ATOM     37  C   UNL     1      13.541  -1.869  10.117  1.00  0.00     0.074 A 
ATOM     38  C   UNL     1      11.175  -1.733  10.809  1.00  0.00     0.049 A 
ATOM     39  N   UNL     1      14.076  -2.429  11.174  1.00  0.00    -0.248 NA
ATOM     40  C   UNL     1      14.493  -1.624   9.023  1.00  0.00     0.031 C 
ATOM     41  C   UNL     1       9.746  -1.447  10.674  1.00  0.00     0.029 A 
ATOM     42  N   UNL     1      11.287  -2.294  12.056  1.00  0.00    -0.354 N 
ATOM     43  C   UNL     1      15.419  -2.612  10.868  1.00  0.00     0.074 A 
ATOM     44  C   UNL     1      15.609  -2.147   9.511  1.00  0.00     0.031 C 
ATOM     45  C   UNL     1       9.119  -1.805  11.806  1.00  0.00     0.029 A 
ATOM     46  C   UNL     1      10.097  -2.362  12.736  1.00  0.00     0.049 A 
ATOM     47  H   UNL     1      12.140  -2.617  12.427  1.00  0.00     0.167 HD
ATOM     48  C   UNL     1      16.408  -3.104  11.653  1.00  0.00     0.037 A 
ATOM     49  C   UNL     1       9.825  -2.811  13.976  1.00  0.00     0.037 A 
ATOM     50  C   UNL     1      16.226  -3.543  13.012  1.00  0.00     0.049 A 
ATOM     51  C   UNL     1      10.945  -3.317  14.839  1.00  0.00     0.074 A 
ATOM     52  C   UNL     1      17.177  -4.005  13.906  1.00  0.00     0.029 A 
ATOM     53  N   UNL     1      15.008  -3.573  13.674  1.00  0.00    -0.354 N 
ATOM     54  N   UNL     1      12.222  -3.419  14.560  1.00  0.00    -0.248 NA
ATOM     55  C   UNL     1      10.588  -3.756  16.195  1.00  0.00     0.031 C 
ATOM     56  C   UNL     1      16.530  -4.343  15.100  1.00  0.00     0.029 A 
ATOM     57  C   UNL     1      15.181  -4.056  14.961  1.00  0.00     0.049 A 
ATOM     58  H   UNL     1      14.148  -3.292  13.287  1.00  0.00     0.167 HD
ATOM     59  C   UNL     1      12.823  -3.912  15.710  1.00  0.00     0.074 A 
ATOM     60  C   UNL     1      11.774  -4.071  16.696  1.00  0.00     0.031 C 
ATOM     61  C   UNL     1      14.127  -4.208  15.930  1.00  0.00     0.037 A 
BRANCH  48  62
ATOM     62  C   UNL     1      17.784  -3.184  11.058  1.00  0.00     0.057 A 
ATOM     63  C   UNL     1      18.554  -2.036  10.827  1.00  0.00     0.134 A 
ATOM     64  C   UNL     1      18.358  -4.421  10.742  1.00  0.00     0.134 A 
ATOM     65  F   UNL     1      18.058  -0.820  11.098  1.00  0.00    -0.206 F 
ATOM     66  C   UNL     1      19.836  -2.115  10.280  1.00  0.00     0.040 A 
ATOM     67  C   UNL     1      19.648  -4.515  10.216  1.00  0.00     0.040 A 
ATOM     68  F   UNL     1      17.677  -5.560  10.944  1.00  0.00    -0.206 F 
ATOM     69  C   UNL     1      20.388  -3.358   9.978  1.00  0.00     0.006 A 
ENDBRANCH  48  62
BRANCH  49  70
ATOM     70  C   UNL     1       8.436  -2.757  14.492  1.00  0.00     0.057 A 
ATOM     71  C   UNL     1       8.068  -1.826  15.470  1.00  0.00     0.134 A 
ATOM     72  C   UNL     1       7.447  -3.628  14.023  1.00  0.00     0.134 A 
ATOM     73  F   UNL     1       8.978  -0.977  15.969  1.00  0.00    -0.206 F 
ATOM     74  C   UNL     1       6.768  -1.773  15.975  1.00  0.00     0.040 A 
ATOM     75  C   UNL     1       6.138  -3.573  14.504  1.00  0.00     0.040 A 
ATOM     76  F   UNL     1       7.737  -4.538  13.081  1.00  0.00    -0.206 F 
ATOM     77  C   UNL     1       5.798  -2.646  15.488  1.00  0.00     0.006 A 
ENDBRANCH  49  70
BRANCH  61  78
ATOM     78  C   UNL     1      14.489  -4.709  17.296  1.00  0.00     0.057 A 
ATOM     79  C   UNL     1      14.158  -6.003  17.718  1.00  0.00     0.134 A 
ATOM     80  C   UNL     1      15.187  -3.893  18.195  1.00  0.00     0.134 A 
ATOM     81  F   UNL     1      13.476  -6.828  16.908  1.00  0.00    -0.206 F 
ATOM     82  C   UNL     1      14.485  -6.459  18.996  1.00  0.00     0.040 A 
ATOM     83  C   UNL     1      15.540  -4.345  19.467  1.00  0.00     0.040 A 
ATOM     84  F   UNL     1      15.540  -2.646  17.850  1.00  0.00    -0.206 F 
ATOM     85  C   UNL     1      15.181  -5.630  19.873  1.00  0.00     0.006 A 
ENDBRANCH  61  78
ENDBRANCH  35  36
ENDBRANCH  27  30
ENDBRANCH  25  26
ENDBRANCH  24  25
ENDBRANCH   1  24
TORSDOF 13
