REMARK SMILES [NH3+][C@@H]1CCCCC[C@H]1C(=O)N1[C@@H](C2CC2)SC[C@H]1C(=O)NCCCNC(=O)c1ccc(-c2c3nc(c(-c4c(F)cccc4F)c4ccc([nH]4)c(-c4c(F)cccc4F)c4nc(c(-c5c(F)cccc5F)c5ccc2[nH]5)C=C4)C=C3)cc1
REMARK SMILES IDX 19 1 20 2 21 3 18 5 11 6 12 7 16 8 17 9 9 10 10 11 8 12 2 13
REMARK SMILES IDX 1 14 3 18 7 20 6 21 5 22 4 23 13 25 14 26 15 27 22 28 23 29
REMARK SMILES IDX 24 30 25 31 26 32 27 34 28 35 29 36 81 37 30 38 80 39 31 40
REMARK SMILES IDX 32 41 33 42 74 43 34 44 79 45 73 46 75 47 35 48 78 49 72 50
REMARK SMILES IDX 71 51 36 53 62 54 45 55 61 56 46 57 49 58 60 59 76 60 47 61
REMARK SMILES IDX 48 62 59 64 77 65 50 66 37 67 38 68 43 69 39 70 40 71 42 72
REMARK SMILES IDX 44 73 41 74 63 75 64 76 69 77 65 78 66 79 68 80 70 81 67 82
REMARK SMILES IDX 51 83 52 84 57 85 53 86 54 87 56 88 58 89 55 90
REMARK H PARENT 21 4 1 15 1 16 1 17 25 33 75 52 49 63
REMARK Flexibility Score: 90.00
ROOT
ATOM      1  C   UNL     1      -2.793   2.356   3.927  1.00  0.00     0.243 C 
ATOM      2  O   UNL     1      -3.968   2.493   4.297  1.00  0.00    -0.273 OA
ATOM      3  N   UNL     1      -2.151   3.495   3.554  1.00  0.00    -0.354 N 
ATOM      4  H   UNL     1      -2.733   4.277   3.421  1.00  0.00     0.163 HD
ENDROOT
BRANCH   1   5
ATOM      5  C   UNL     1      -2.118   0.971   4.072  1.00  0.00     0.185 C 
ATOM      6  N   UNL     1      -0.888   0.600   3.355  1.00  0.00    -0.317 N 
ATOM      7  C   UNL     1       0.208   0.130   4.201  1.00  0.00     0.147 C 
ATOM      8  S   UNL     1      -0.572  -0.472   5.704  1.00  0.00    -0.134 SA
ATOM      9  C   UNL     1      -1.968   0.665   5.564  1.00  0.00     0.107 C 
BRANCH   6  10
ATOM     10  C   UNL     1      -1.048   0.413   1.993  1.00  0.00     0.233 C 
ATOM     11  O   UNL     1      -1.664   1.257   1.334  1.00  0.00    -0.274 OA
BRANCH  10  12
ATOM     12  C   UNL     1      -0.646  -0.908   1.317  1.00  0.00     0.136 C 
BRANCH  12  13
ATOM     13  C   UNL     1       0.839  -0.990   0.913  1.00  0.00     0.193 C 
BRANCH  13  14
ATOM     14  N   UNL     1       1.129   0.001  -0.134  1.00  0.00    -0.354 N 
ATOM     15  H   UNL     1       2.113  -0.059  -0.396  1.00  0.00     0.344 HD
ATOM     16  H   UNL     1       0.927   0.937   0.218  1.00  0.00     0.344 HD
ATOM     17  H   UNL     1       0.548  -0.188  -0.951  1.00  0.00     0.344 HD
ENDBRANCH  13  14
BRANCH  13  18
ATOM     18  C   UNL     1       1.277  -2.354   0.340  1.00  0.00     0.066 CG0
ATOM     19  G   UNL     1       1.234  -3.494   1.355  1.00  0.00     0.000 G0
ENDBRANCH  13  18
ENDBRANCH  12  13
BRANCH  12  20
ATOM     20  C   UNL     1      -1.239  -2.080   2.126  1.00  0.00     0.020 C 
BRANCH  20  21
ATOM     21  C   UNL     1      -1.347  -3.377   1.333  1.00  0.00     0.001 C 
BRANCH  21  22
ATOM     22  C   UNL     1      -0.095  -4.241   1.414  1.00  0.00     0.000 C 
BRANCH  22  23
ATOM     23  C   UNL     1       1.234  -3.494   1.355  1.00  0.00     0.006 CG0
ATOM     24  G   UNL     1       1.277  -2.354   0.340  1.00  0.00     0.000 G0
ENDBRANCH  22  23
ENDBRANCH  21  22
ENDBRANCH  20  21
ENDBRANCH  12  20
ENDBRANCH  10  12
ENDBRANCH   6  10
BRANCH   7  25
ATOM     25  C   UNL     1       1.226   1.236   4.403  1.00  0.00     0.022 C 
ATOM     26  C   UNL     1       1.182   2.280   5.511  1.00  0.00     0.007 C 
ATOM     27  C   UNL     1       2.256   1.233   5.516  1.00  0.00     0.007 C 
ENDBRANCH   7  25
ENDBRANCH   1   5
BRANCH   3  28
ATOM     28  C   UNL     1      -0.748   3.730   3.323  1.00  0.00     0.117 C 
BRANCH  28  29
ATOM     29  C   UNL     1      -0.441   4.631   2.143  1.00  0.00     0.042 C 
BRANCH  29  30
ATOM     30  C   UNL     1      -0.763   6.093   2.401  1.00  0.00     0.118 C 
BRANCH  30  31
ATOM     31  N   UNL     1       0.045   6.687   3.466  1.00  0.00    -0.352 N 
ATOM     32  C   UNL     1       1.158   7.499   3.449  1.00  0.00     0.251 C 
ATOM     33  H   UNL     1      -0.268   6.462   4.372  1.00  0.00     0.163 HD
ATOM     34  O   UNL     1       1.748   7.727   4.496  1.00  0.00    -0.269 OA
BRANCH  32  35
ATOM     35  C   UNL     1       1.675   8.062   2.180  1.00  0.00     0.039 A 
ATOM     36  C   UNL     1       3.057   8.185   1.996  1.00  0.00     0.014 A 
ATOM     37  C   UNL     1       0.813   8.469   1.167  1.00  0.00     0.014 A 
ATOM     38  C   UNL     1       3.563   8.594   0.757  1.00  0.00     0.010 A 
ATOM     39  C   UNL     1       1.313   8.735  -0.100  1.00  0.00     0.010 A 
ATOM     40  C   UNL     1       2.695   8.798  -0.326  1.00  0.00    -0.014 A 
BRANCH  40  41
ATOM     41  C   UNL     1       3.178   9.074  -1.706  1.00  0.00     0.031 A 
ATOM     42  C   UNL     1       2.668  10.282  -2.450  1.00  0.00     0.074 A 
ATOM     43  C   UNL     1       3.954   8.174  -2.343  1.00  0.00     0.049 A 
ATOM     44  N   UNL     1       2.763  10.575  -3.721  1.00  0.00    -0.248 NA
ATOM     45  C   UNL     1       1.897  11.262  -1.666  1.00  0.00     0.031 C 
ATOM     46  C   UNL     1       4.468   6.929  -1.766  1.00  0.00     0.029 A 
ATOM     47  N   UNL     1       4.426   8.157  -3.633  1.00  0.00    -0.354 N 
ATOM     48  C   UNL     1       2.014  11.733  -3.897  1.00  0.00     0.074 A 
ATOM     49  C   UNL     1       1.434  12.062  -2.614  1.00  0.00     0.031 C 
ATOM     50  C   UNL     1       5.204   6.286  -2.687  1.00  0.00     0.029 A 
ATOM     51  C   UNL     1       5.170   7.041  -3.933  1.00  0.00     0.049 A 
ATOM     52  H   UNL     1       4.248   8.876  -4.281  1.00  0.00     0.167 HD
ATOM     53  C   UNL     1       1.842  12.469  -5.020  1.00  0.00     0.037 A 
ATOM     54  C   UNL     1       5.747   6.660  -5.089  1.00  0.00     0.037 A 
ATOM     55  C   UNL     1       2.487  12.187  -6.274  1.00  0.00     0.049 A 
ATOM     56  C   UNL     1       5.596   7.527  -6.306  1.00  0.00     0.074 A 
ATOM     57  C   UNL     1       2.459  12.925  -7.444  1.00  0.00     0.029 A 
ATOM     58  N   UNL     1       3.294  11.085  -6.513  1.00  0.00    -0.354 N 
ATOM     59  N   UNL     1       4.926   8.645  -6.445  1.00  0.00    -0.248 NA
ATOM     60  C   UNL     1       6.280   7.080  -7.528  1.00  0.00     0.031 C 
ATOM     61  C   UNL     1       3.232  12.256  -8.399  1.00  0.00     0.029 A 
ATOM     62  C   UNL     1       3.766  11.120  -7.813  1.00  0.00     0.049 A 
ATOM     63  H   UNL     1       3.500  10.381  -5.855  1.00  0.00     0.167 HD
ATOM     64  C   UNL     1       5.129   9.048  -7.758  1.00  0.00     0.074 A 
ATOM     65  C   UNL     1       5.992   8.061  -8.372  1.00  0.00     0.031 C 
ATOM     66  C   UNL     1       4.641  10.138  -8.398  1.00  0.00     0.037 A 
BRANCH  53  67
ATOM     67  C   UNL     1       0.936  13.663  -4.935  1.00  0.00     0.057 A 
ATOM     68  C   UNL     1       1.288  14.810  -4.211  1.00  0.00     0.134 A 
ATOM     69  C   UNL     1      -0.296  13.674  -5.602  1.00  0.00     0.134 A 
ATOM     70  F   UNL     1       2.448  14.860  -3.539  1.00  0.00    -0.206 F 
ATOM     71  C   UNL     1       0.434  15.910  -4.125  1.00  0.00     0.040 A 
ATOM     72  C   UNL     1      -1.146  14.780  -5.547  1.00  0.00     0.040 A 
ATOM     73  F   UNL     1      -0.692  12.613  -6.320  1.00  0.00    -0.206 F 
ATOM     74  C   UNL     1      -0.785  15.899  -4.799  1.00  0.00     0.006 A 
ENDBRANCH  53  67
BRANCH  54  75
ATOM     75  C   UNL     1       6.544   5.409  -5.144  1.00  0.00     0.057 A 
ATOM     76  C   UNL     1       7.940   5.456  -5.245  1.00  0.00     0.134 A 
ATOM     77  C   UNL     1       5.942   4.147  -5.097  1.00  0.00     0.134 A 
ATOM     78  F   UNL     1       8.572   6.637  -5.311  1.00  0.00    -0.206 F 
ATOM     79  C   UNL     1       8.708   4.293  -5.316  1.00  0.00     0.040 A 
ATOM     80  C   UNL     1       6.700   2.975  -5.146  1.00  0.00     0.040 A 
ATOM     81  F   UNL     1       4.611   4.035  -4.989  1.00  0.00    -0.206 F 
ATOM     82  C   UNL     1       8.087   3.046  -5.262  1.00  0.00     0.006 A 
ENDBRANCH  54  75
BRANCH  66  83
ATOM     83  C   UNL     1       5.064  10.346  -9.821  1.00  0.00     0.057 A 
ATOM     84  C   UNL     1       4.528   9.586 -10.867  1.00  0.00     0.134 A 
ATOM     85  C   UNL     1       5.974  11.357 -10.150  1.00  0.00     0.134 A 
ATOM     86  F   UNL     1       3.661   8.594 -10.612  1.00  0.00    -0.206 F 
ATOM     87  C   UNL     1       4.892   9.818 -12.194  1.00  0.00     0.040 A 
ATOM     88  C   UNL     1       6.330  11.613 -11.475  1.00  0.00     0.040 A 
ATOM     89  F   UNL     1       6.518  12.124  -9.193  1.00  0.00    -0.206 F 
ATOM     90  C   UNL     1       5.789  10.840 -12.501  1.00  0.00     0.006 A 
ENDBRANCH  66  83
ENDBRANCH  40  41
ENDBRANCH  32  35
ENDBRANCH  30  31
ENDBRANCH  29  30
ENDBRANCH  28  29
ENDBRANCH   3  28
TORSDOF 14
