REMARK SMILES Cc1nonc1C[C@@]1(C(=O)NCCCNC(=O)c2ccc(-c3c4nc(c(-c5c(F)cccc5F)c5ccc([nH]5)c(-c5c(F)cccc5F)c5nc(c(-c6c(F)cccc6F)c6ccc3[nH]6)C=C5)C=C4)cc2)CCC[NH2+]C1
REMARK SMILES IDX 13 1 12 2 11 3 9 4 10 5 8 7 72 8 76 9 73 10 75 11 74 12 7 15
REMARK SMILES IDX 6 16 1 17 2 18 3 19 4 20 5 21 14 22 15 23 16 24 17 26 18 27
REMARK SMILES IDX 19 28 71 29 20 30 70 31 21 32 22 33 23 34 64 35 24 36 69 37
REMARK SMILES IDX 63 38 65 39 25 40 68 41 62 42 61 43 26 45 52 46 35 47 51 48
REMARK SMILES IDX 36 49 39 50 50 51 66 52 37 53 38 54 49 56 67 57 40 58 27 59
REMARK SMILES IDX 28 60 33 61 29 62 30 63 32 64 34 65 31 66 53 67 54 68 59 69
REMARK SMILES IDX 55 70 56 71 58 72 60 73 57 74 41 75 42 76 47 77 43 78 44 79
REMARK SMILES IDX 46 80 48 81 45 82
REMARK H PARENT 11 6 75 13 75 14 15 25 65 44 39 55
REMARK Flexibility Score: inf
ROOT
ATOM      1  C   UNL     1       3.282   4.536   0.300  1.00  0.00     0.042 C 
ENDROOT
BRANCH   1   2
ATOM      2  C   UNL     1       2.645   3.403  -0.494  1.00  0.00     0.117 C 
BRANCH   2   3
ATOM      3  N   UNL     1       1.518   2.833   0.214  1.00  0.00    -0.355 N 
ATOM      4  C   UNL     1       0.180   2.790  -0.012  1.00  0.00     0.232 C 
ATOM      5  O   UNL     1      -0.476   2.293   0.910  1.00  0.00    -0.274 OA
ATOM      6  H   UNL     1       1.780   2.374   1.044  1.00  0.00     0.163 HD
BRANCH   4   7
ATOM      7  C   UNL     1      -0.488   3.311  -1.303  1.00  0.00     0.104 C 
ATOM      8  C   UNL     1      -2.023   3.029  -1.249  1.00  0.00     0.029 C 
ATOM      9  C   UNL     1       0.066   2.563  -2.549  1.00  0.00     0.277 C 
ATOM     10  C   UNL     1      -2.373   1.545  -1.403  1.00  0.00     0.063 C 
ATOM     11  N   UNL     1      -0.256   1.137  -2.593  1.00  0.00    -0.345 N 
ATOM     12  C   UNL     1      -1.700   0.923  -2.619  1.00  0.00     0.260 C 
ATOM     13  H   UNL     1       0.156   0.729  -3.432  1.00  0.00     0.346 HD
ATOM     14  H   UNL     1       0.121   0.694  -1.756  1.00  0.00     0.346 HD
BRANCH   7  15
ATOM     15  C   UNL     1      -0.256   4.835  -1.509  1.00  0.00     0.085 C 
BRANCH  15  16
ATOM     16  C   UNL     1      -0.462   5.765  -0.358  1.00  0.00     0.109 A 
ATOM     17  C   UNL     1       1.121   7.782  -0.922  1.00  0.00     0.073 C 
ATOM     18  C   UNL     1       0.131   7.027  -0.127  1.00  0.00     0.105 A 
ATOM     19  N   UNL     1      -0.350   7.546   1.004  1.00  0.00    -0.055 NA
ATOM     20  O   UNL     1      -1.263   6.608   1.471  1.00  0.00    -0.244 OA
ATOM     21  N   UNL     1      -1.341   5.519   0.614  1.00  0.00    -0.055 NA
ENDBRANCH  15  16
ENDBRANCH   7  15
ENDBRANCH   4   7
ENDBRANCH   2   3
ENDBRANCH   1   2
BRANCH   1  22
ATOM     22  C   UNL     1       3.895   4.095   1.624  1.00  0.00     0.118 C 
BRANCH  22  23
ATOM     23  N   UNL     1       5.032   3.203   1.443  1.00  0.00    -0.352 N 
ATOM     24  C   UNL     1       6.339   3.352   1.834  1.00  0.00     0.251 C 
ATOM     25  H   UNL     1       4.833   2.364   0.967  1.00  0.00     0.163 HD
ATOM     26  O   UNL     1       7.193   2.571   1.418  1.00  0.00    -0.269 OA
BRANCH  24  27
ATOM     27  C   UNL     1       6.731   4.461   2.729  1.00  0.00     0.039 A 
ATOM     28  C   UNL     1       7.914   5.156   2.463  1.00  0.00     0.014 A 
ATOM     29  C   UNL     1       5.948   4.812   3.832  1.00  0.00     0.014 A 
ATOM     30  C   UNL     1       8.272   6.246   3.259  1.00  0.00     0.010 A 
ATOM     31  C   UNL     1       6.259   5.950   4.570  1.00  0.00     0.010 A 
ATOM     32  C   UNL     1       7.426   6.678   4.294  1.00  0.00    -0.014 A 
BRANCH  32  33
ATOM     33  C   UNL     1       7.741   7.891   5.091  1.00  0.00     0.031 A 
ATOM     34  C   UNL     1       7.984   7.786   6.571  1.00  0.00     0.074 A 
ATOM     35  C   UNL     1       7.745   9.098   4.491  1.00  0.00     0.049 A 
ATOM     36  N   UNL     1       8.209   8.738   7.442  1.00  0.00    -0.248 NA
ATOM     37  C   UNL     1       7.943   6.436   7.156  1.00  0.00     0.031 C 
ATOM     38  C   UNL     1       7.478   9.339   3.072  1.00  0.00     0.029 A 
ATOM     39  N   UNL     1       7.973  10.351   5.002  1.00  0.00    -0.354 N 
ATOM     40  C   UNL     1       8.322   8.105   8.673  1.00  0.00     0.074 A 
ATOM     41  C   UNL     1       8.087   6.696   8.447  1.00  0.00     0.031 C 
ATOM     42  C   UNL     1       7.580  10.654   2.822  1.00  0.00     0.029 A 
ATOM     43  C   UNL     1       7.877  11.354   4.068  1.00  0.00     0.049 A 
ATOM     44  H   UNL     1       8.185  10.516   5.949  1.00  0.00     0.167 HD
ATOM     45  C   UNL     1       8.619   8.645   9.879  1.00  0.00     0.037 A 
ATOM     46  C   UNL     1       8.003  12.688   4.201  1.00  0.00     0.037 A 
ATOM     47  C   UNL     1       8.870  10.046  10.098  1.00  0.00     0.049 A 
ATOM     48  C   UNL     1       8.316  13.264   5.554  1.00  0.00     0.074 A 
ATOM     49  C   UNL     1       9.235  10.682  11.272  1.00  0.00     0.029 A 
ATOM     50  N   UNL     1       8.774  11.028   9.124  1.00  0.00    -0.354 N 
ATOM     51  N   UNL     1       8.493  12.646   6.696  1.00  0.00    -0.248 NA
ATOM     52  C   UNL     1       8.453  14.725   5.635  1.00  0.00     0.031 C 
ATOM     53  C   UNL     1       9.310  12.056  11.019  1.00  0.00     0.029 A 
ATOM     54  C   UNL     1       9.049  12.269   9.675  1.00  0.00     0.049 A 
ATOM     55  H   UNL     1       8.545  10.867   8.180  1.00  0.00     0.167 HD
ATOM     56  C   UNL     1       8.791  13.636   7.623  1.00  0.00     0.074 A 
ATOM     57  C   UNL     1       8.786  14.894   6.907  1.00  0.00     0.031 C 
ATOM     58  C   UNL     1       9.047  13.514   8.949  1.00  0.00     0.037 A 
BRANCH  45  59
ATOM     59  C   UNL     1       8.689   7.715  11.057  1.00  0.00     0.057 A 
ATOM     60  C   UNL     1       9.716   6.771  11.194  1.00  0.00     0.134 A 
ATOM     61  C   UNL     1       7.740   7.789  12.084  1.00  0.00     0.134 A 
ATOM     62  F   UNL     1      10.652   6.641  10.242  1.00  0.00    -0.206 F 
ATOM     63  C   UNL     1       9.780   5.915  12.295  1.00  0.00     0.040 A 
ATOM     64  C   UNL     1       7.810   6.958  13.204  1.00  0.00     0.040 A 
ATOM     65  F   UNL     1       6.734   8.674  12.022  1.00  0.00    -0.206 F 
ATOM     66  C   UNL     1       8.828   6.013  13.309  1.00  0.00     0.006 A 
ENDBRANCH  45  59
BRANCH  46  67
ATOM     67  C   UNL     1       7.851  13.571   3.017  1.00  0.00     0.057 A 
ATOM     68  C   UNL     1       8.947  14.261   2.485  1.00  0.00     0.134 A 
ATOM     69  C   UNL     1       6.610  13.757   2.396  1.00  0.00     0.134 A 
ATOM     70  F   UNL     1      10.159  14.138   3.046  1.00  0.00    -0.206 F 
ATOM     71  C   UNL     1       8.811  15.120   1.393  1.00  0.00     0.040 A 
ATOM     72  C   UNL     1       6.465  14.592   1.287  1.00  0.00     0.040 A 
ATOM     73  F   UNL     1       5.522  13.118   2.851  1.00  0.00    -0.206 F 
ATOM     74  C   UNL     1       7.566  15.284   0.788  1.00  0.00     0.006 A 
ENDBRANCH  46  67
BRANCH  58  75
ATOM     75  C   UNL     1       9.381  14.768   9.704  1.00  0.00     0.057 A 
ATOM     76  C   UNL     1       8.417  15.743   9.987  1.00  0.00     0.134 A 
ATOM     77  C   UNL     1      10.679  14.982  10.187  1.00  0.00     0.134 A 
ATOM     78  F   UNL     1       7.159  15.606   9.542  1.00  0.00    -0.206 F 
ATOM     79  C   UNL     1       8.737  16.899  10.702  1.00  0.00     0.040 A 
ATOM     80  C   UNL     1      11.004  16.119  10.928  1.00  0.00     0.040 A 
ATOM     81  F   UNL     1      11.648  14.083   9.959  1.00  0.00    -0.206 F 
ATOM     82  C   UNL     1      10.033  17.085  11.181  1.00  0.00     0.006 A 
ENDBRANCH  58  75
ENDBRANCH  32  33
ENDBRANCH  24  27
ENDBRANCH  22  23
ENDBRANCH   1  22
TORSDOF 12
