REMARK SMILES COc1ccc([C@@H]([NH3+])CC(=O)NCCCNC(=O)c2ccc(-c3c4nc(c(-c5c(F)cccc5F)c5ccc([nH]5)c(-c5c(F)cccc5F)c5nc(c(-c6c(F)cccc6F)c6ccc3[nH]6)C=C5)C=C4)cc2)cc1
REMARK SMILES IDX 13 1 12 2 10 3 11 4 9 6 7 7 6 8 3 9 4 10 74 11 5 12 73 13
REMARK SMILES IDX 2 14 1 15 8 16 14 20 15 21 16 22 17 23 18 25 19 26 20 27
REMARK SMILES IDX 72 28 21 29 71 30 22 31 23 32 24 33 65 34 25 35 70 36 64 37
REMARK SMILES IDX 66 38 26 39 69 40 63 41 62 42 27 44 53 45 36 46 52 47 37 48
REMARK SMILES IDX 40 49 51 50 67 51 38 52 39 53 50 55 68 56 41 57 28 58 29 59
REMARK SMILES IDX 34 60 30 61 31 62 33 63 35 64 32 65 54 66 55 67 60 68 56 69
REMARK SMILES IDX 57 70 59 71 61 72 58 73 42 74 43 75 48 76 44 77 45 78 47 79
REMARK SMILES IDX 49 80 46 81
REMARK H PARENT 12 5 8 17 8 18 8 19 16 24 66 43 40 54
REMARK Flexibility Score: inf
ROOT
ATOM      1  C   UNL     1       0.261   4.542  -0.036  1.00  0.00     0.117 C 
ENDROOT
BRANCH   1   2
ATOM      2  N   UNL     1       1.170   5.672   0.044  1.00  0.00    -0.356 N 
ATOM      3  C   UNL     1       1.755   6.386  -0.958  1.00  0.00     0.226 C 
ATOM      4  O   UNL     1       2.680   7.144  -0.660  1.00  0.00    -0.275 OA
ATOM      5  H   UNL     1       1.397   5.965   0.957  1.00  0.00     0.163 HD
BRANCH   3   6
ATOM      6  C   UNL     1       1.263   6.293  -2.390  1.00  0.00     0.170 C 
BRANCH   6   7
ATOM      7  C   UNL     1       2.175   5.428  -3.282  1.00  0.00     0.221 C 
BRANCH   7   8
ATOM      8  C   UNL     1       1.841   3.944  -3.247  1.00  0.00     0.010 A 
ATOM      9  C   UNL     1       1.215   1.216  -3.038  1.00  0.00     0.118 A 
ATOM     10  C   UNL     1       0.234   2.120  -3.433  1.00  0.00     0.047 A 
ATOM     11  C   UNL     1       2.527   1.642  -2.840  1.00  0.00     0.047 A 
ATOM     12  C   UNL     1       0.547   3.477  -3.539  1.00  0.00     0.014 A 
ATOM     13  C   UNL     1       2.839   3.001  -2.948  1.00  0.00     0.014 A 
BRANCH   9  14
ATOM     14  O   UNL     1       0.858  -0.097  -2.889  1.00  0.00    -0.497 OA
ATOM     15  C   UNL     1       0.951  -0.495  -1.520  1.00  0.00     0.278 C 
ENDBRANCH   9  14
ENDBRANCH   7   8
BRANCH   7  16
ATOM     16  N   UNL     1       2.084   5.888  -4.677  1.00  0.00    -0.351 N 
ATOM     17  H   UNL     1       1.130   5.763  -5.016  1.00  0.00     0.345 HD
ATOM     18  H   UNL     1       2.725   5.345  -5.256  1.00  0.00     0.345 HD
ATOM     19  H   UNL     1       2.336   6.875  -4.727  1.00  0.00     0.345 HD
ENDBRANCH   7  16
ENDBRANCH   6   7
ENDBRANCH   3   6
ENDBRANCH   1   2
BRANCH   1  20
ATOM     20  C   UNL     1       1.035   3.230   0.020  1.00  0.00     0.042 C 
BRANCH  20  21
ATOM     21  C   UNL     1       1.339   2.713   1.417  1.00  0.00     0.118 C 
BRANCH  21  22
ATOM     22  N   UNL     1       0.214   1.997   1.998  1.00  0.00    -0.352 N 
ATOM     23  C   UNL     1       0.007   0.664   2.266  1.00  0.00     0.251 C 
ATOM     24  H   UNL     1      -0.542   2.576   2.247  1.00  0.00     0.163 HD
ATOM     25  O   UNL     1      -1.123   0.306   2.590  1.00  0.00    -0.269 OA
BRANCH  23  26
ATOM     26  C   UNL     1       1.080  -0.360   2.151  1.00  0.00     0.039 A 
ATOM     27  C   UNL     1       0.712  -1.668   1.798  1.00  0.00     0.014 A 
ATOM     28  C   UNL     1       2.419  -0.097   2.442  1.00  0.00     0.014 A 
ATOM     29  C   UNL     1       1.676  -2.678   1.685  1.00  0.00     0.010 A 
ATOM     30  C   UNL     1       3.393  -1.080   2.248  1.00  0.00     0.010 A 
ATOM     31  C   UNL     1       3.031  -2.387   1.888  1.00  0.00    -0.014 A 
BRANCH  31  32
ATOM     32  C   UNL     1       4.076  -3.443   1.814  1.00  0.00     0.031 A 
ATOM     33  C   UNL     1       4.838  -3.827   3.056  1.00  0.00     0.074 A 
ATOM     34  C   UNL     1       4.385  -4.023   0.638  1.00  0.00     0.049 A 
ATOM     35  N   UNL     1       5.838  -4.663   3.193  1.00  0.00    -0.248 NA
ATOM     36  C   UNL     1       4.437  -3.163   4.306  1.00  0.00     0.031 C 
ATOM     37  C   UNL     1       3.744  -3.733  -0.644  1.00  0.00     0.029 A 
ATOM     38  N   UNL     1       5.331  -4.970   0.330  1.00  0.00    -0.354 N 
ATOM     39  C   UNL     1       6.190  -4.613   4.536  1.00  0.00     0.074 A 
ATOM     40  C   UNL     1       5.339  -3.622   5.159  1.00  0.00     0.031 C 
ATOM     41  C   UNL     1       4.309  -4.490  -1.599  1.00  0.00     0.029 A 
ATOM     42  C   UNL     1       5.374  -5.295  -1.004  1.00  0.00     0.049 A 
ATOM     43  H   UNL     1       5.923  -5.377   1.003  1.00  0.00     0.167 HD
ATOM     44  C   UNL     1       7.119  -5.342   5.201  1.00  0.00     0.037 A 
ATOM     45  C   UNL     1       6.185  -6.137  -1.674  1.00  0.00     0.037 A 
ATOM     46  C   UNL     1       7.956  -6.339   4.589  1.00  0.00     0.049 A 
ATOM     47  C   UNL     1       7.236  -6.911  -0.922  1.00  0.00     0.074 A 
ATOM     48  C   UNL     1       8.892  -7.164   5.187  1.00  0.00     0.029 A 
ATOM     49  N   UNL     1       7.964  -6.642   3.236  1.00  0.00    -0.354 N 
ATOM     50  N   UNL     1       7.514  -6.901   0.359  1.00  0.00    -0.248 NA
ATOM     51  C   UNL     1       8.081  -7.820  -1.711  1.00  0.00     0.031 C 
ATOM     52  C   UNL     1       9.505  -7.928   4.188  1.00  0.00     0.029 A 
ATOM     53  C   UNL     1       8.908  -7.622   2.976  1.00  0.00     0.049 A 
ATOM     54  H   UNL     1       7.383  -6.223   2.559  1.00  0.00     0.167 HD
ATOM     55  C   UNL     1       8.539  -7.824   0.534  1.00  0.00     0.074 A 
ATOM     56  C   UNL     1       8.826  -8.383  -0.770  1.00  0.00     0.031 C 
ATOM     57  C   UNL     1       9.180  -8.179   1.675  1.00  0.00     0.037 A 
BRANCH  44  58
ATOM     58  C   UNL     1       7.278  -5.077   6.671  1.00  0.00     0.057 A 
ATOM     59  C   UNL     1       6.285  -5.421   7.598  1.00  0.00     0.134 A 
ATOM     60  C   UNL     1       8.446  -4.485   7.169  1.00  0.00     0.134 A 
ATOM     61  F   UNL     1       5.136  -5.981   7.188  1.00  0.00    -0.206 F 
ATOM     62  C   UNL     1       6.430  -5.152   8.960  1.00  0.00     0.040 A 
ATOM     63  C   UNL     1       8.617  -4.240   8.532  1.00  0.00     0.040 A 
ATOM     64  F   UNL     1       9.441  -4.137   6.339  1.00  0.00    -0.206 F 
ATOM     65  C   UNL     1       7.603  -4.564   9.431  1.00  0.00     0.006 A 
ENDBRANCH  44  58
BRANCH  45  66
ATOM     66  C   UNL     1       6.029  -6.311  -3.142  1.00  0.00     0.057 A 
ATOM     67  C   UNL     1       5.551  -7.512  -3.680  1.00  0.00     0.134 A 
ATOM     68  C   UNL     1       6.370  -5.294  -4.040  1.00  0.00     0.134 A 
ATOM     69  F   UNL     1       5.229  -8.533  -2.871  1.00  0.00    -0.206 F 
ATOM     70  C   UNL     1       5.438  -7.703  -5.058  1.00  0.00     0.040 A 
ATOM     71  C   UNL     1       6.236  -5.461  -5.420  1.00  0.00     0.040 A 
ATOM     72  F   UNL     1       6.831  -4.118  -3.589  1.00  0.00    -0.206 F 
ATOM     73  C   UNL     1       5.776  -6.673  -5.932  1.00  0.00     0.006 A 
ENDBRANCH  45  66
BRANCH  57  74
ATOM     74  C   UNL     1      10.227  -9.252   1.578  1.00  0.00     0.057 A 
ATOM     75  C   UNL     1      11.467  -9.030   0.965  1.00  0.00     0.134 A 
ATOM     76  C   UNL     1      10.009 -10.512   2.152  1.00  0.00     0.134 A 
ATOM     77  F   UNL     1      11.737  -7.850   0.386  1.00  0.00    -0.206 F 
ATOM     78  C   UNL     1      12.442 -10.027   0.908  1.00  0.00     0.040 A 
ATOM     79  C   UNL     1      10.987 -11.507   2.127  1.00  0.00     0.040 A 
ATOM     80  F   UNL     1       8.848 -10.790   2.764  1.00  0.00    -0.206 F 
ATOM     81  C   UNL     1      12.206 -11.268   1.498  1.00  0.00     0.006 A 
ENDBRANCH  57  74
ENDBRANCH  31  32
ENDBRANCH  23  26
ENDBRANCH  21  22
ENDBRANCH  20  21
ENDBRANCH   1  20
TORSDOF 14
