REMARK SMILES CC(C)(C)OC(=O)N1CCC[C@H]1C(=O)N[C@@H](Cc1ccccc1)C(=O)NCCCNC(=O)c1ccc(-c2c3nc(c(-c4c(F)cccc4F)c4ccc([nH]4)c(-c4c(F)cccc4F)c4nc(c(-c5c(F)cccc5F)c5ccc2[nH]5)C=C4)C=C3)cc1
REMARK SMILES IDX 24 1 25 2 26 3 16 5 15 6 13 7 14 8 12 10 8 11 9 12 10 13
REMARK SMILES IDX 11 14 6 15 7 16 5 17 2 18 1 19 3 20 4 21 17 22 18 23 19 24
REMARK SMILES IDX 23 25 20 26 22 27 21 28 27 29 28 30 29 31 30 32 31 33 32 35
REMARK SMILES IDX 33 36 34 37 86 38 35 39 85 40 36 41 37 42 38 43 79 44 39 45
REMARK SMILES IDX 84 46 78 47 80 48 40 49 83 50 77 51 76 52 41 54 67 55 50 56
REMARK SMILES IDX 66 57 51 58 54 59 65 60 81 61 52 62 53 63 64 65 82 66 55 67
REMARK SMILES IDX 42 68 43 69 48 70 44 71 45 72 47 73 49 74 46 75 68 76 69 77
REMARK SMILES IDX 74 78 70 79 71 80 73 81 75 82 72 83 56 84 57 85 62 86 58 87
REMARK SMILES IDX 59 88 61 89 63 90 60 91
REMARK H PARENT 26 4 15 9 30 34 80 53 54 64
REMARK Flexibility Score: inf
ROOT
ATOM      1  C   UNL     1       0.581  -5.293  -1.426  1.00  0.00     0.242 C 
ATOM      2  O   UNL     1       1.509  -4.480  -1.357  1.00  0.00    -0.273 OA
ATOM      3  N   UNL     1       0.824  -6.480  -0.821  1.00  0.00    -0.354 N 
ATOM      4  H   UNL     1       1.587  -6.507  -0.200  1.00  0.00     0.163 HD
ENDROOT
BRANCH   1   5
ATOM      5  C   UNL     1      -0.664  -5.032  -2.314  1.00  0.00     0.175 C 
BRANCH   5   6
ATOM      6  N   UNL     1      -0.431  -5.613  -3.626  1.00  0.00    -0.342 N 
ATOM      7  C   UNL     1       0.149  -5.070  -4.732  1.00  0.00     0.243 C 
ATOM      8  O   UNL     1       0.280  -5.864  -5.675  1.00  0.00    -0.273 OA
ATOM      9  H   UNL     1      -0.740  -6.542  -3.732  1.00  0.00     0.164 HD
BRANCH   7  10
ATOM     10  C   UNL     1       0.419  -3.534  -4.930  1.00  0.00     0.178 C 
ATOM     11  N   UNL     1       1.052  -2.772  -3.847  1.00  0.00    -0.296 N 
ATOM     12  C   UNL     1       2.468  -2.625  -4.092  1.00  0.00     0.124 C 
ATOM     13  C   UNL     1       2.491  -2.405  -5.595  1.00  0.00     0.024 C 
ATOM     14  C   UNL     1       1.399  -3.343  -6.113  1.00  0.00     0.037 C 
BRANCH  11  15
ATOM     15  C   UNL     1       0.352  -1.998  -2.943  1.00  0.00     0.410 C 
ATOM     16  O   UNL     1      -0.849  -1.797  -3.051  1.00  0.00    -0.224 OA
BRANCH  15  17
ATOM     17  O   UNL     1       1.121  -1.609  -1.893  1.00  0.00    -0.444 OA
BRANCH  17  18
ATOM     18  C   UNL     1       0.602  -1.156  -0.604  1.00  0.00     0.106 C 
ATOM     19  C   UNL     1       1.257   0.199  -0.330  1.00  0.00     0.056 C 
ATOM     20  C   UNL     1       1.085  -2.152   0.464  1.00  0.00     0.056 C 
ATOM     21  C   UNL     1      -0.921  -1.028  -0.476  1.00  0.00     0.056 C 
ENDBRANCH  17  18
ENDBRANCH  15  17
ENDBRANCH  11  15
ENDBRANCH   7  10
ENDBRANCH   5   6
BRANCH   5  22
ATOM     22  C   UNL     1      -2.112  -5.137  -1.768  1.00  0.00     0.070 C 
BRANCH  22  23
ATOM     23  C   UNL     1      -2.669  -6.456  -1.295  1.00  0.00    -0.045 A 
ATOM     24  C   UNL     1      -2.837  -6.688   0.080  1.00  0.00     0.004 A 
ATOM     25  C   UNL     1      -2.955  -7.494  -2.196  1.00  0.00     0.004 A 
ATOM     26  C   UNL     1      -3.152  -7.965   0.550  1.00  0.00     0.000 A 
ATOM     27  C   UNL     1      -3.247  -8.776  -1.721  1.00  0.00     0.000 A 
ATOM     28  C   UNL     1      -3.320  -9.016  -0.349  1.00  0.00     0.000 A 
ENDBRANCH  22  23
ENDBRANCH   5  22
ENDBRANCH   1   5
BRANCH   3  29
ATOM     29  C   UNL     1       0.094  -7.699  -0.986  1.00  0.00     0.117 C 
BRANCH  29  30
ATOM     30  C   UNL     1       0.950  -8.896  -1.290  1.00  0.00     0.042 C 
BRANCH  30  31
ATOM     31  C   UNL     1       1.715  -9.366  -0.075  1.00  0.00     0.118 C 
BRANCH  31  32
ATOM     32  N   UNL     1       0.841  -9.801   1.015  1.00  0.00    -0.352 N 
ATOM     33  C   UNL     1       0.567 -11.060   1.493  1.00  0.00     0.251 C 
ATOM     34  H   UNL     1       0.372  -9.073   1.483  1.00  0.00     0.163 HD
ATOM     35  O   UNL     1      -0.362 -11.236   2.274  1.00  0.00    -0.269 OA
BRANCH  33  36
ATOM     36  C   UNL     1       1.381 -12.201   1.035  1.00  0.00     0.039 A 
ATOM     37  C   UNL     1       0.773 -13.430   0.776  1.00  0.00     0.014 A 
ATOM     38  C   UNL     1       2.747 -12.034   0.815  1.00  0.00     0.014 A 
ATOM     39  C   UNL     1       1.528 -14.458   0.209  1.00  0.00     0.010 A 
ATOM     40  C   UNL     1       3.444 -12.985   0.094  1.00  0.00     0.010 A 
ATOM     41  C   UNL     1       2.855 -14.223  -0.185  1.00  0.00    -0.014 A 
BRANCH  41  42
ATOM     42  C   UNL     1       3.675 -15.262  -0.850  1.00  0.00     0.031 A 
ATOM     43  C   UNL     1       4.981 -15.685  -0.233  1.00  0.00     0.074 A 
ATOM     44  C   UNL     1       3.295 -15.750  -2.045  1.00  0.00     0.049 A 
ATOM     45  N   UNL     1       5.888 -16.506  -0.696  1.00  0.00    -0.248 NA
ATOM     46  C   UNL     1       5.342 -15.062   1.052  1.00  0.00     0.031 C 
ATOM     47  C   UNL     1       2.094 -15.351  -2.783  1.00  0.00     0.029 A 
ATOM     48  N   UNL     1       3.890 -16.681  -2.856  1.00  0.00    -0.354 N 
ATOM     49  C   UNL     1       6.928 -16.470   0.224  1.00  0.00     0.074 A 
ATOM     50  C   UNL     1       6.584 -15.482   1.218  1.00  0.00     0.031 C 
ATOM     51  C   UNL     1       2.023 -16.059  -3.921  1.00  0.00     0.029 A 
ATOM     52  C   UNL     1       3.193 -16.925  -4.014  1.00  0.00     0.049 A 
ATOM     53  H   UNL     1       4.736 -17.131  -2.631  1.00  0.00     0.167 HD
ATOM     54  C   UNL     1       8.053 -17.222   0.261  1.00  0.00     0.037 A 
ATOM     55  C   UNL     1       3.471 -17.753  -5.038  1.00  0.00     0.037 A 
ATOM     56  C   UNL     1       8.371 -18.224  -0.719  1.00  0.00     0.049 A 
ATOM     57  C   UNL     1       4.711 -18.598  -4.972  1.00  0.00     0.074 A 
ATOM     58  C   UNL     1       9.440 -19.100  -0.744  1.00  0.00     0.029 A 
ATOM     59  N   UNL     1       7.617 -18.476  -1.858  1.00  0.00    -0.354 N 
ATOM     60  N   UNL     1       5.644 -18.626  -4.049  1.00  0.00    -0.248 NA
ATOM     61  C   UNL     1       4.931 -19.536  -6.079  1.00  0.00     0.031 C 
ATOM     62  C   UNL     1       9.365 -19.842  -1.928  1.00  0.00     0.029 A 
ATOM     63  C   UNL     1       8.214 -19.474  -2.608  1.00  0.00     0.049 A 
ATOM     64  H   UNL     1       6.782 -18.013  -2.096  1.00  0.00     0.167 HD
ATOM     65  C   UNL     1       6.551 -19.597  -4.452  1.00  0.00     0.074 A 
ATOM     66  C   UNL     1       6.045 -20.145  -5.695  1.00  0.00     0.031 C 
ATOM     67  C   UNL     1       7.697 -20.000  -3.849  1.00  0.00     0.037 A 
BRANCH  54  68
ATOM     68  C   UNL     1       9.006 -16.973   1.398  1.00  0.00     0.057 A 
ATOM     69  C   UNL     1       8.662 -17.236   2.732  1.00  0.00     0.134 A 
ATOM     70  C   UNL     1      10.276 -16.434   1.159  1.00  0.00     0.134 A 
ATOM     71  F   UNL     1       7.455 -17.738   3.038  1.00  0.00    -0.206 F 
ATOM     72  C   UNL     1       9.521 -16.922   3.787  1.00  0.00     0.040 A 
ATOM     73  C   UNL     1      11.159 -16.152   2.203  1.00  0.00     0.040 A 
ATOM     74  F   UNL     1      10.678 -16.162  -0.092  1.00  0.00    -0.206 F 
ATOM     75  C   UNL     1      10.776 -16.381   3.523  1.00  0.00     0.006 A 
ENDBRANCH  54  68
BRANCH  55  76
ATOM     76  C   UNL     1       2.534 -17.834  -6.185  1.00  0.00     0.057 A 
ATOM     77  C   UNL     1       1.722 -18.957  -6.380  1.00  0.00     0.134 A 
ATOM     78  C   UNL     1       2.391 -16.771  -7.086  1.00  0.00     0.134 A 
ATOM     79  F   UNL     1       1.821 -20.012  -5.558  1.00  0.00    -0.206 F 
ATOM     80  C   UNL     1       0.808 -19.025  -7.432  1.00  0.00     0.040 A 
ATOM     81  C   UNL     1       1.463 -16.815  -8.127  1.00  0.00     0.040 A 
ATOM     82  F   UNL     1       3.129 -15.661  -6.944  1.00  0.00    -0.206 F 
ATOM     83  C   UNL     1       0.670 -17.947  -8.305  1.00  0.00     0.006 A 
ENDBRANCH  55  76
BRANCH  67  84
ATOM     84  C   UNL     1       8.468 -21.105  -4.511  1.00  0.00     0.057 A 
ATOM     85  C   UNL     1       9.163 -20.909  -5.711  1.00  0.00     0.134 A 
ATOM     86  C   UNL     1       8.550 -22.370  -3.915  1.00  0.00     0.134 A 
ATOM     87  F   UNL     1       9.117 -19.724  -6.339  1.00  0.00    -0.206 F 
ATOM     88  C   UNL     1       9.891 -21.940  -6.308  1.00  0.00     0.040 A 
ATOM     89  C   UNL     1       9.301 -23.398  -4.485  1.00  0.00     0.040 A 
ATOM     90  F   UNL     1       7.918 -22.621  -2.758  1.00  0.00    -0.206 F 
ATOM     91  C   UNL     1       9.967 -23.186  -5.690  1.00  0.00     0.006 A 
ENDBRANCH  67  84
ENDBRANCH  41  42
ENDBRANCH  33  36
ENDBRANCH  31  32
ENDBRANCH  30  31
ENDBRANCH  29  30
ENDBRANCH   3  29
TORSDOF 17
