REMARK SMILES CC[C@H](NC(=O)NC[C@@]1(C)CCCO1)C(=O)NCCCNC(=O)c1ccc(-c2c3nc(c(-c4c(F)cccc4F)c4ccc([nH]4)c(-c4c(F)cccc4F)c4nc(c(-c5c(F)cccc5F)c5ccc2[nH]5)C=C4)C=C3)cc1
REMARK SMILES IDX 18 1 17 2 15 3 16 4 3 6 2 7 1 8 4 9 5 10 6 12 7 13 8 15 9 16
REMARK SMILES IDX 10 17 11 18 14 19 12 20 13 21 19 22 20 23 21 24 22 25 23 27
REMARK SMILES IDX 24 28 25 29 77 30 26 31 76 32 27 33 28 34 29 35 70 36 30 37
REMARK SMILES IDX 75 38 69 39 71 40 31 41 74 42 68 43 67 44 32 46 58 47 41 48
REMARK SMILES IDX 57 49 42 50 45 51 56 52 72 53 43 54 44 55 55 57 73 58 46 59
REMARK SMILES IDX 33 60 34 61 39 62 35 63 36 64 38 65 40 66 37 67 59 68 60 69
REMARK SMILES IDX 65 70 61 71 62 72 64 73 66 74 63 75 47 76 48 77 53 78 49 79
REMARK SMILES IDX 50 80 52 81 54 82 51 83
REMARK H PARENT 17 5 4 11 7 14 21 26 71 45 45 56
REMARK Flexibility Score: inf
ROOT
ATOM      1  C   UNL     1      -2.614  -1.055  -1.966  1.00  0.00     0.117 C 
ENDROOT
BRANCH   1   2
ATOM      2  N   UNL     1      -1.821  -1.369  -3.128  1.00  0.00    -0.354 N 
ATOM      3  C   UNL     1      -0.481  -1.557  -3.246  1.00  0.00     0.242 C 
ATOM      4  O   UNL     1      -0.105  -2.337  -4.131  1.00  0.00    -0.273 OA
ATOM      5  H   UNL     1      -2.329  -1.462  -3.966  1.00  0.00     0.163 HD
BRANCH   3   6
ATOM      6  C   UNL     1       0.557  -0.956  -2.274  1.00  0.00     0.172 C 
BRANCH   6   7
ATOM      7  C   UNL     1       0.859  -1.973  -1.144  1.00  0.00     0.032 C 
ATOM      8  C   UNL     1       0.247  -1.750   0.237  1.00  0.00     0.006 C 
ENDBRANCH   6   7
BRANCH   6   9
ATOM      9  N   UNL     1       0.270   0.397  -1.824  1.00  0.00    -0.326 N 
ATOM     10  C   UNL     1       0.122   1.569  -2.451  1.00  0.00     0.315 C 
ATOM     11  H   UNL     1       0.160   0.465  -0.848  1.00  0.00     0.166 HD
ATOM     12  O   UNL     1      -0.086   2.556  -1.740  1.00  0.00    -0.249 OA
ATOM     13  N   UNL     1       0.139   1.754  -3.773  1.00  0.00    -0.335 N 
ATOM     14  H   UNL     1      -0.191   2.647  -4.024  1.00  0.00     0.165 HD
BRANCH  13  15
ATOM     15  C   UNL     1       0.523   0.966  -4.942  1.00  0.00     0.152 C 
BRANCH  15  16
ATOM     16  C   UNL     1      -0.579   0.843  -6.033  1.00  0.00     0.083 C 
ATOM     17  C   UNL     1      -0.636   2.118  -6.888  1.00  0.00     0.044 C 
ATOM     18  C   UNL     1      -0.376  -0.393  -6.909  1.00  0.00     0.039 C 
ATOM     19  O   UNL     1      -1.878   0.647  -5.448  1.00  0.00    -0.373 OA
ATOM     20  C   UNL     1      -1.769  -0.757  -7.369  1.00  0.00     0.031 C 
ATOM     21  C   UNL     1      -2.687  -0.118  -6.350  1.00  0.00     0.161 C 
ENDBRANCH  15  16
ENDBRANCH  13  15
ENDBRANCH   6   9
ENDBRANCH   3   6
ENDBRANCH   1   2
BRANCH   1  22
ATOM     22  C   UNL     1      -3.217   0.341  -1.889  1.00  0.00     0.042 C 
BRANCH  22  23
ATOM     23  C   UNL     1      -4.119   0.810  -3.025  1.00  0.00     0.118 C 
BRANCH  23  24
ATOM     24  N   UNL     1      -4.972  -0.203  -3.621  1.00  0.00    -0.352 N 
ATOM     25  C   UNL     1      -6.175  -0.044  -4.270  1.00  0.00     0.251 C 
ATOM     26  H   UNL     1      -4.646  -1.130  -3.551  1.00  0.00     0.163 HD
ATOM     27  O   UNL     1      -6.733  -1.006  -4.780  1.00  0.00    -0.269 OA
BRANCH  25  28
ATOM     28  C   UNL     1      -6.827   1.283  -4.290  1.00  0.00     0.039 A 
ATOM     29  C   UNL     1      -8.139   1.369  -3.816  1.00  0.00     0.014 A 
ATOM     30  C   UNL     1      -6.157   2.431  -4.723  1.00  0.00     0.014 A 
ATOM     31  C   UNL     1      -8.746   2.618  -3.685  1.00  0.00     0.010 A 
ATOM     32  C   UNL     1      -6.748   3.683  -4.549  1.00  0.00     0.010 A 
ATOM     33  C   UNL     1      -8.037   3.788  -4.004  1.00  0.00    -0.014 A 
BRANCH  33  34
ATOM     34  C   UNL     1      -8.617   5.117  -3.688  1.00  0.00     0.031 A 
ATOM     35  C   UNL     1      -9.060   6.048  -4.777  1.00  0.00     0.074 A 
ATOM     36  C   UNL     1      -8.715   5.492  -2.397  1.00  0.00     0.049 A 
ATOM     37  N   UNL     1      -9.611   7.231  -4.674  1.00  0.00    -0.248 NA
ATOM     38  C   UNL     1      -8.846   5.600  -6.160  1.00  0.00     0.031 C 
ATOM     39  C   UNL     1      -8.269   4.697  -1.250  1.00  0.00     0.029 A 
ATOM     40  N   UNL     1      -9.220   6.636  -1.830  1.00  0.00    -0.354 N 
ATOM     41  C   UNL     1      -9.815   7.668  -5.976  1.00  0.00     0.074 A 
ATOM     42  C   UNL     1      -9.286   6.643  -6.851  1.00  0.00     0.031 C 
ATOM     43  C   UNL     1      -8.541   5.366  -0.118  1.00  0.00     0.029 A 
ATOM     44  C   UNL     1      -9.157   6.644  -0.458  1.00  0.00     0.049 A 
ATOM     45  H   UNL     1      -9.593   7.379  -2.357  1.00  0.00     0.167 HD
ATOM     46  C   UNL     1     -10.407   8.810  -6.401  1.00  0.00     0.037 A 
ATOM     47  C   UNL     1      -9.554   7.577   0.428  1.00  0.00     0.037 A 
ATOM     48  C   UNL     1     -10.935   9.827  -5.528  1.00  0.00     0.049 A 
ATOM     49  C   UNL     1     -10.204   8.836  -0.072  1.00  0.00     0.074 A 
ATOM     50  C   UNL     1     -11.591  10.998  -5.866  1.00  0.00     0.029 A 
ATOM     51  N   UNL     1     -10.862   9.796  -4.144  1.00  0.00    -0.354 N 
ATOM     52  N   UNL     1     -10.460   9.199  -1.304  1.00  0.00    -0.248 NA
ATOM     53  C   UNL     1     -10.628   9.810   0.944  1.00  0.00     0.031 C 
ATOM     54  C   UNL     1     -11.883  11.694  -4.688  1.00  0.00     0.029 A 
ATOM     55  C   UNL     1     -11.444  10.937  -3.614  1.00  0.00     0.049 A 
ATOM     56  H   UNL     1     -10.456   9.072  -3.615  1.00  0.00     0.167 HD
ATOM     57  C   UNL     1     -11.095  10.431  -1.213  1.00  0.00     0.074 A 
ATOM     58  C   UNL     1     -11.201  10.744   0.197  1.00  0.00     0.031 C 
ATOM     59  C   UNL     1     -11.546  11.232  -2.208  1.00  0.00     0.037 A 
BRANCH  46  60
ATOM     60  C   UNL     1     -10.524   9.017  -7.881  1.00  0.00     0.057 A 
ATOM     61  C   UNL     1     -11.433   8.281  -8.654  1.00  0.00     0.134 A 
ATOM     62  C   UNL     1      -9.758   9.990  -8.535  1.00  0.00     0.134 A 
ATOM     63  F   UNL     1     -12.189   7.328  -8.090  1.00  0.00    -0.206 F 
ATOM     64  C   UNL     1     -11.562   8.494 -10.028  1.00  0.00     0.040 A 
ATOM     65  C   UNL     1      -9.894  10.227  -9.904  1.00  0.00     0.040 A 
ATOM     66  F   UNL     1      -8.875  10.733  -7.852  1.00  0.00    -0.206 F 
ATOM     67  C   UNL     1     -10.795   9.474 -10.655  1.00  0.00     0.006 A 
ENDBRANCH  46  60
BRANCH  47  68
ATOM     68  C   UNL     1      -9.370   7.348   1.883  1.00  0.00     0.057 A 
ATOM     69  C   UNL     1     -10.466   7.110   2.721  1.00  0.00     0.134 A 
ATOM     70  C   UNL     1      -8.101   7.377   2.472  1.00  0.00     0.134 A 
ATOM     71  F   UNL     1     -11.709   7.089   2.218  1.00  0.00    -0.206 F 
ATOM     72  C   UNL     1     -10.309   6.932   4.097  1.00  0.00     0.040 A 
ATOM     73  C   UNL     1      -7.927   7.177   3.842  1.00  0.00     0.040 A 
ATOM     74  F   UNL     1      -7.011   7.594   1.722  1.00  0.00    -0.206 F 
ATOM     75  C   UNL     1      -9.035   6.962   4.660  1.00  0.00     0.006 A 
ENDBRANCH  47  68
BRANCH  59  76
ATOM     76  C   UNL     1     -12.217  12.510  -1.803  1.00  0.00     0.057 A 
ATOM     77  C   UNL     1     -11.490  13.598  -1.304  1.00  0.00     0.134 A 
ATOM     78  C   UNL     1     -13.602  12.664  -1.939  1.00  0.00     0.134 A 
ATOM     79  F   UNL     1     -10.162  13.508  -1.135  1.00  0.00    -0.206 F 
ATOM     80  C   UNL     1     -12.120  14.787  -0.933  1.00  0.00     0.040 A 
ATOM     81  C   UNL     1     -14.241  13.856  -1.594  1.00  0.00     0.040 A 
ATOM     82  F   UNL     1     -14.356  11.662  -2.417  1.00  0.00    -0.206 F 
ATOM     83  C   UNL     1     -13.499  14.920  -1.083  1.00  0.00     0.006 A 
ENDBRANCH  59  76
ENDBRANCH  33  34
ENDBRANCH  25  28
ENDBRANCH  23  24
ENDBRANCH  22  23
ENDBRANCH   1  22
TORSDOF 14
