REMARK SMILES C[C@@H](C(=O)NCCCNC(=O)c1ccc(-c2c3nc(c(-c4c(F)cccc4F)c4ccc([nH]4)c(-c4c(F)cccc4F)c4nc(c(-c5c(F)cccc5F)c5ccc2[nH]5)C=C4)C=C3)cc1)c1ccc(-c2cccc(OC(=O)NC3CC3)c2)c(F)c1
REMARK SMILES IDX 3 1 4 2 5 3 2 5 1 6 66 7 67 8 85 9 68 10 83 11 69 12 84 13
REMARK SMILES IDX 70 14 71 15 82 16 72 17 74 18 73 19 75 20 76 21 77 22 78 23
REMARK SMILES IDX 79 25 80 26 81 27 6 28 7 29 8 30 9 31 10 32 11 34 12 35
REMARK SMILES IDX 13 36 65 37 14 38 64 39 15 40 16 41 17 42 58 43 18 44 63 45
REMARK SMILES IDX 57 46 59 47 19 48 62 49 56 50 55 51 20 53 46 54 29 55 45 56
REMARK SMILES IDX 30 57 33 58 44 59 60 60 31 61 32 62 43 64 61 65 34 66 21 67
REMARK SMILES IDX 22 68 27 69 23 70 24 71 26 72 28 73 25 74 47 75 48 76 53 77
REMARK SMILES IDX 49 78 50 79 52 80 54 81 51 82 35 83 36 84 41 85 37 86 38 87
REMARK SMILES IDX 40 88 42 89 39 90
REMARK H PARENT 5 4 78 24 9 33 59 52 33 63
REMARK Flexibility Score: inf
ROOT
ATOM      1  C   UNL     1       1.219   2.362  -0.385  1.00  0.00     0.227 C 
ATOM      2  O   UNL     1       0.607   3.040  -1.213  1.00  0.00    -0.274 OA
ATOM      3  N   UNL     1       2.510   2.729  -0.138  1.00  0.00    -0.356 N 
ATOM      4  H   UNL     1       2.754   3.631  -0.451  1.00  0.00     0.163 HD
ENDROOT
BRANCH   1   5
ATOM      5  C   UNL     1       0.599   1.178   0.378  1.00  0.00     0.105 C 
ATOM      6  C   UNL     1       1.090  -0.133  -0.250  1.00  0.00     0.023 C 
BRANCH   5   7
ATOM      7  C   UNL     1      -0.930   1.240   0.475  1.00  0.00    -0.033 A 
ATOM      8  C   UNL     1      -1.603   2.466   0.627  1.00  0.00     0.005 A 
ATOM      9  C   UNL     1      -1.710   0.075   0.467  1.00  0.00     0.044 A 
ATOM     10  C   UNL     1      -3.000   2.530   0.688  1.00  0.00     0.012 A 
ATOM     11  C   UNL     1      -3.097   0.142   0.539  1.00  0.00     0.131 A 
ATOM     12  C   UNL     1      -3.770   1.363   0.644  1.00  0.00     0.018 A 
ATOM     13  F   UNL     1      -3.782  -1.012   0.517  1.00  0.00    -0.206 F 
BRANCH  12  14
ATOM     14  C   UNL     1      -5.224   1.405   0.797  1.00  0.00    -0.012 A 
ATOM     15  C   UNL     1      -6.057   2.045  -0.130  1.00  0.00     0.009 A 
ATOM     16  C   UNL     1      -5.803   0.782   1.913  1.00  0.00     0.056 A 
ATOM     17  C   UNL     1      -7.442   2.051   0.051  1.00  0.00     0.004 A 
ATOM     18  C   UNL     1      -7.179   0.789   2.093  1.00  0.00     0.133 A 
ATOM     19  C   UNL     1      -8.004   1.423   1.163  1.00  0.00     0.047 A 
BRANCH  18  20
ATOM     20  O   UNL     1      -7.832   0.185   3.193  1.00  0.00    -0.410 OA
BRANCH  20  21
ATOM     21  C   UNL     1      -7.240  -0.642   4.144  1.00  0.00     0.412 C 
ATOM     22  O   UNL     1      -6.048  -0.925   4.227  1.00  0.00    -0.224 OA
ATOM     23  N   UNL     1      -8.123  -1.176   5.043  1.00  0.00    -0.318 N 
ATOM     24  H   UNL     1      -7.729  -1.795   5.700  1.00  0.00     0.167 HD
BRANCH  23  25
ATOM     25  C   UNL     1      -9.526  -0.971   5.170  1.00  0.00     0.085 C 
ATOM     26  C   UNL     1     -10.487  -0.601   4.077  1.00  0.00     0.027 C 
ATOM     27  C   UNL     1     -10.453  -2.008   4.588  1.00  0.00     0.027 C 
ENDBRANCH  23  25
ENDBRANCH  20  21
ENDBRANCH  18  20
ENDBRANCH  12  14
ENDBRANCH   5   7
ENDBRANCH   1   5
BRANCH   3  28
ATOM     28  C   UNL     1       3.580   1.997   0.513  1.00  0.00     0.117 C 
BRANCH  28  29
ATOM     29  C   UNL     1       4.489   1.326  -0.517  1.00  0.00     0.042 C 
BRANCH  29  30
ATOM     30  C   UNL     1       5.193   2.303  -1.454  1.00  0.00     0.118 C 
BRANCH  30  31
ATOM     31  N   UNL     1       6.156   3.141  -0.759  1.00  0.00    -0.352 N 
ATOM     32  C   UNL     1       7.521   3.206  -0.895  1.00  0.00     0.251 C 
ATOM     33  H   UNL     1       5.773   3.754  -0.090  1.00  0.00     0.163 HD
ATOM     34  O   UNL     1       8.188   3.824  -0.072  1.00  0.00    -0.269 OA
BRANCH  32  35
ATOM     35  C   UNL     1       8.190   2.509  -2.015  1.00  0.00     0.039 A 
ATOM     36  C   UNL     1       9.341   1.762  -1.749  1.00  0.00     0.014 A 
ATOM     37  C   UNL     1       7.689   2.587  -3.317  1.00  0.00     0.014 A 
ATOM     38  C   UNL     1       9.937   1.021  -2.772  1.00  0.00     0.010 A 
ATOM     39  C   UNL     1       8.241   1.792  -4.319  1.00  0.00     0.010 A 
ATOM     40  C   UNL     1       9.360   0.988  -4.052  1.00  0.00    -0.014 A 
BRANCH  40  41
ATOM     41  C   UNL     1       9.872   0.074  -5.106  1.00  0.00     0.031 A 
ATOM     42  C   UNL     1      10.438   0.624  -6.386  1.00  0.00     0.074 A 
ATOM     43  C   UNL     1       9.736  -1.258  -4.943  1.00  0.00     0.049 A 
ATOM     44  N   UNL     1      10.825  -0.018  -7.458  1.00  0.00    -0.248 NA
ATOM     45  C   UNL     1      10.567   2.087  -6.483  1.00  0.00     0.031 C 
ATOM     46  C   UNL     1       9.165  -1.913  -3.764  1.00  0.00     0.029 A 
ATOM     47  N   UNL     1      10.046  -2.302  -5.781  1.00  0.00    -0.354 N 
ATOM     48  C   UNL     1      11.223   0.958  -8.362  1.00  0.00     0.074 A 
ATOM     49  C   UNL     1      11.004   2.239  -7.726  1.00  0.00     0.031 C 
ATOM     50  C   UNL     1       9.168  -3.242  -3.951  1.00  0.00     0.029 A 
ATOM     51  C   UNL     1       9.692  -3.533  -5.281  1.00  0.00     0.049 A 
ATOM     52  H   UNL     1      10.479  -2.180  -6.656  1.00  0.00     0.167 HD
ATOM     53  C   UNL     1      11.732   0.796  -9.606  1.00  0.00     0.037 A 
ATOM     54  C   UNL     1       9.751  -4.757  -5.841  1.00  0.00     0.037 A 
ATOM     55  C   UNL     1      11.976  -0.482 -10.222  1.00  0.00     0.049 A 
ATOM     56  C   UNL     1      10.293  -4.898  -7.238  1.00  0.00     0.074 A 
ATOM     57  C   UNL     1      12.581  -0.747 -11.438  1.00  0.00     0.029 A 
ATOM     58  N   UNL     1      11.613  -1.705  -9.680  1.00  0.00    -0.354 N 
ATOM     59  N   UNL     1      10.763  -3.973  -8.039  1.00  0.00    -0.248 NA
ATOM     60  C   UNL     1      10.309  -6.251  -7.813  1.00  0.00     0.031 C 
ATOM     61  C   UNL     1      12.523  -2.124 -11.664  1.00  0.00     0.029 A 
ATOM     62  C   UNL     1      11.935  -2.723 -10.562  1.00  0.00     0.049 A 
ATOM     63  H   UNL     1      11.190  -1.831  -8.800  1.00  0.00     0.167 HD
ATOM     64  C   UNL     1      11.149  -4.634  -9.198  1.00  0.00     0.074 A 
ATOM     65  C   UNL     1      10.882  -6.040  -8.989  1.00  0.00     0.031 C 
ATOM     66  C   UNL     1      11.671  -4.120 -10.338  1.00  0.00     0.037 A 
BRANCH  53  67
ATOM     67  C   UNL     1      12.062   2.023 -10.405  1.00  0.00     0.057 A 
ATOM     68  C   UNL     1      13.167   2.829 -10.104  1.00  0.00     0.134 A 
ATOM     69  C   UNL     1      11.322   2.341 -11.551  1.00  0.00     0.134 A 
ATOM     70  F   UNL     1      13.914   2.582  -9.018  1.00  0.00    -0.206 F 
ATOM     71  C   UNL     1      13.520   3.911 -10.912  1.00  0.00     0.040 A 
ATOM     72  C   UNL     1      11.679   3.405 -12.380  1.00  0.00     0.040 A 
ATOM     73  F   UNL     1      10.256   1.603 -11.900  1.00  0.00    -0.206 F 
ATOM     74  C   UNL     1      12.782   4.194 -12.061  1.00  0.00     0.006 A 
ENDBRANCH  53  67
BRANCH  54  75
ATOM     75  C   UNL     1       9.256  -5.950  -5.105  1.00  0.00     0.057 A 
ATOM     76  C   UNL     1      10.126  -6.975  -4.715  1.00  0.00     0.134 A 
ATOM     77  C   UNL     1       7.895  -6.120  -4.820  1.00  0.00     0.134 A 
ATOM     78  F   UNL     1      11.438  -6.882  -4.977  1.00  0.00    -0.206 F 
ATOM     79  C   UNL     1       9.659  -8.139  -4.102  1.00  0.00     0.040 A 
ATOM     80  C   UNL     1       7.418  -7.264  -4.178  1.00  0.00     0.040 A 
ATOM     81  F   UNL     1       7.008  -5.173  -5.159  1.00  0.00    -0.206 F 
ATOM     82  C   UNL     1       8.300  -8.284  -3.830  1.00  0.00     0.006 A 
ENDBRANCH  54  75
BRANCH  66  83
ATOM     83  C   UNL     1      12.009  -5.082 -11.439  1.00  0.00     0.057 A 
ATOM     84  C   UNL     1      11.014  -5.707 -12.201  1.00  0.00     0.134 A 
ATOM     85  C   UNL     1      13.343  -5.337 -11.782  1.00  0.00     0.134 A 
ATOM     86  F   UNL     1       9.717  -5.516 -11.915  1.00  0.00    -0.206 F 
ATOM     87  C   UNL     1      11.334  -6.563 -13.256  1.00  0.00     0.040 A 
ATOM     88  C   UNL     1      13.675  -6.168 -12.852  1.00  0.00     0.040 A 
ATOM     89  F   UNL     1      14.344  -4.763 -11.098  1.00  0.00    -0.206 F 
ATOM     90  C   UNL     1      12.668  -6.787 -13.590  1.00  0.00     0.006 A 
ENDBRANCH  66  83
ENDBRANCH  40  41
ENDBRANCH  32  35
ENDBRANCH  30  31
ENDBRANCH  29  30
ENDBRANCH  28  29
ENDBRANCH   3  28
TORSDOF 15
