REMARK SMILES CCN(CC)c1ccc([C@@H]2[NH2+][C@@H](C(=O)NCCCNC(=O)c3ccc(-c4c5nc(c(-c6c(F)cccc6F)c6ccc([nH]6)c(-c6c(F)cccc6F)c6nc(c(-c7c(F)cccc7F)c7ccc4[nH]7)C=C6)C=C5)cc3)Cc3c2[nH]c2ccccc32)cc1
REMARK SMILES IDX 16 1 15 2 13 3 14 4 12 6 10 7 11 8 78 9 77 12 79 13 76 14
REMARK SMILES IDX 85 15 80 16 84 18 81 19 83 20 82 21 9 22 6 23 7 24 87 25
REMARK SMILES IDX 8 26 86 27 3 28 2 29 1 30 4 31 5 32 17 33 18 34 19 35 20 36
REMARK SMILES IDX 21 38 22 39 23 40 75 41 24 42 74 43 25 44 26 45 27 46 68 47
REMARK SMILES IDX 28 48 73 49 67 50 69 51 29 52 72 53 66 54 65 55 30 57 56 58
REMARK SMILES IDX 39 59 55 60 40 61 43 62 54 63 70 64 41 65 42 66 53 68 71 69
REMARK SMILES IDX 44 70 31 71 32 72 37 73 33 74 34 75 36 76 38 77 35 78 57 79
REMARK SMILES IDX 58 80 63 81 59 82 60 83 62 84 64 85 61 86 45 87 46 88 51 89
REMARK SMILES IDX 47 90 48 91 50 92 52 93 49 94
REMARK H PARENT 15 5 11 10 11 11 79 17 19 37 69 56 43 67
REMARK Flexibility Score: inf
ROOT
ATOM      1  C   UNL     1       9.002  -1.009   1.734  1.00  0.00     0.118 C 
ENDROOT
BRANCH   1   2
ATOM      2  N   UNL     1       9.051  -0.293   0.475  1.00  0.00    -0.351 N 
ATOM      3  C   UNL     1       8.356  -0.522  -0.682  1.00  0.00     0.278 C 
ATOM      4  O   UNL     1       8.730   0.097  -1.685  1.00  0.00    -0.268 OA
ATOM      5  H   UNL     1       9.675   0.468   0.447  1.00  0.00     0.163 HD
BRANCH   3   6
ATOM      6  C   UNL     1       7.118  -1.455  -0.756  1.00  0.00     0.277 C 
ATOM      7  C   UNL     1       6.197  -2.567   1.385  1.00  0.00     0.262 C 
ATOM      8  N   UNL     1       6.350  -1.369   0.510  1.00  0.00    -0.325 N 
ATOM      9  C   UNL     1       6.728  -3.771   0.686  1.00  0.00     0.083 A 
ATOM     10  H   UNL     1       6.799  -0.649   1.077  1.00  0.00     0.347 HD
ATOM     11  H   UNL     1       5.397  -1.195   0.189  1.00  0.00     0.347 HD
ATOM     12  C   UNL     1       6.843  -3.950  -0.672  1.00  0.00    -0.006 A 
ATOM     13  N   UNL     1       7.180  -4.977   1.161  1.00  0.00    -0.353 N 
ATOM     14  C   UNL     1       7.328  -2.811  -1.479  1.00  0.00     0.114 C 
ATOM     15  C   UNL     1       6.134  -5.175  -0.781  1.00  0.00     0.003 A 
ATOM     16  C   UNL     1       6.646  -5.918   0.293  1.00  0.00     0.046 A 
ATOM     17  H   UNL     1       7.755  -5.138   1.943  1.00  0.00     0.166 HD
ATOM     18  C   UNL     1       5.072  -5.745  -1.514  1.00  0.00     0.010 A 
ATOM     19  C   UNL     1       6.428  -7.282   0.472  1.00  0.00     0.026 A 
ATOM     20  C   UNL     1       4.634  -7.036  -1.149  1.00  0.00     0.001 A 
ATOM     21  C   UNL     1       5.353  -7.815  -0.238  1.00  0.00     0.002 A 
BRANCH   7  22
ATOM     22  C   UNL     1       4.676  -2.637   1.692  1.00  0.00     0.016 A 
ATOM     23  C   UNL     1       1.893  -2.421   1.148  1.00  0.00     0.037 A 
ATOM     24  C   UNL     1       2.542  -3.659   1.185  1.00  0.00     0.026 A 
ATOM     25  C   UNL     1       2.622  -1.334   1.635  1.00  0.00     0.026 A 
ATOM     26  C   UNL     1       3.907  -3.776   1.470  1.00  0.00     0.012 A 
ATOM     27  C   UNL     1       3.980  -1.442   1.948  1.00  0.00     0.012 A 
BRANCH  23  28
ATOM     28  N   UNL     1       0.613  -2.263   0.639  1.00  0.00    -0.372 N 
BRANCH  28  29
ATOM     29  C   UNL     1       0.386  -1.368  -0.513  1.00  0.00     0.113 C 
ATOM     30  C   UNL     1       0.416   0.113  -0.162  1.00  0.00     0.027 C 
ENDBRANCH  28  29
BRANCH  28  31
ATOM     31  C   UNL     1      -0.437  -3.236   0.956  1.00  0.00     0.113 C 
ATOM     32  C   UNL     1      -0.480  -4.436   0.015  1.00  0.00     0.027 C 
ENDBRANCH  28  31
ENDBRANCH  23  28
ENDBRANCH   7  22
ENDBRANCH   3   6
ENDBRANCH   1   2
BRANCH   1  33
ATOM     33  C   UNL     1      10.362  -1.098   2.410  1.00  0.00     0.042 C 
BRANCH  33  34
ATOM     34  C   UNL     1      10.831   0.208   3.035  1.00  0.00     0.118 C 
BRANCH  34  35
ATOM     35  N   UNL     1      10.282   0.437   4.368  1.00  0.00    -0.352 N 
ATOM     36  C   UNL     1      10.888   0.405   5.599  1.00  0.00     0.251 C 
ATOM     37  H   UNL     1       9.320   0.648   4.387  1.00  0.00     0.163 HD
ATOM     38  O   UNL     1      10.193   0.481   6.620  1.00  0.00    -0.269 OA
BRANCH  36  39
ATOM     39  C   UNL     1      12.354   0.242   5.734  1.00  0.00     0.039 A 
ATOM     40  C   UNL     1      12.854  -0.596   6.737  1.00  0.00     0.014 A 
ATOM     41  C   UNL     1      13.244   0.915   4.895  1.00  0.00     0.014 A 
ATOM     42  C   UNL     1      14.230  -0.827   6.834  1.00  0.00     0.010 A 
ATOM     43  C   UNL     1      14.602   0.606   4.927  1.00  0.00     0.010 A 
ATOM     44  C   UNL     1      15.113  -0.269   5.897  1.00  0.00    -0.014 A 
BRANCH  44  45
ATOM     45  C   UNL     1      16.566  -0.591   5.909  1.00  0.00     0.031 A 
ATOM     46  C   UNL     1      17.588   0.497   6.104  1.00  0.00     0.074 A 
ATOM     47  C   UNL     1      16.973  -1.854   5.670  1.00  0.00     0.049 A 
ATOM     48  N   UNL     1      18.895   0.422   6.069  1.00  0.00    -0.248 NA
ATOM     49  C   UNL     1      17.073   1.855   6.343  1.00  0.00     0.031 C 
ATOM     50  C   UNL     1      16.090  -2.993   5.412  1.00  0.00     0.029 A 
ATOM     51  N   UNL     1      18.235  -2.389   5.590  1.00  0.00    -0.354 N 
ATOM     52  C   UNL     1      19.355   1.719   6.263  1.00  0.00     0.074 A 
ATOM     53  C   UNL     1      18.188   2.569   6.358  1.00  0.00     0.031 C 
ATOM     54  C   UNL     1      16.835  -4.094   5.224  1.00  0.00     0.029 A 
ATOM     55  C   UNL     1      18.247  -3.733   5.302  1.00  0.00     0.049 A 
ATOM     56  H   UNL     1      19.054  -1.860   5.725  1.00  0.00     0.167 HD
ATOM     57  C   UNL     1      20.631   2.161   6.375  1.00  0.00     0.037 A 
ATOM     58  C   UNL     1      19.277  -4.579   5.109  1.00  0.00     0.037 A 
ATOM     59  C   UNL     1      21.791   1.311   6.298  1.00  0.00     0.049 A 
ATOM     60  C   UNL     1      20.686  -4.064   5.226  1.00  0.00     0.074 A 
ATOM     61  C   UNL     1      23.122   1.654   6.464  1.00  0.00     0.029 A 
ATOM     62  N   UNL     1      21.760  -0.048   6.024  1.00  0.00    -0.354 N 
ATOM     63  N   UNL     1      21.103  -2.849   5.488  1.00  0.00    -0.248 NA
ATOM     64  C   UNL     1      21.767  -5.040   5.028  1.00  0.00     0.031 C 
ATOM     65  C   UNL     1      23.899   0.514   6.234  1.00  0.00     0.029 A 
ATOM     66  C   UNL     1      23.050  -0.552   5.987  1.00  0.00     0.049 A 
ATOM     67  H   UNL     1      20.942  -0.576   5.878  1.00  0.00     0.167 HD
ATOM     68  C   UNL     1      22.490  -2.920   5.515  1.00  0.00     0.074 A 
ATOM     69  C   UNL     1      22.843  -4.301   5.258  1.00  0.00     0.031 C 
ATOM     70  C   UNL     1      23.390  -1.930   5.733  1.00  0.00     0.037 A 
BRANCH  57  71
ATOM     71  C   UNL     1      20.838   3.634   6.589  1.00  0.00     0.057 A 
ATOM     72  C   UNL     1      20.468   4.270   7.782  1.00  0.00     0.134 A 
ATOM     73  C   UNL     1      21.444   4.422   5.601  1.00  0.00     0.134 A 
ATOM     74  F   UNL     1      19.875   3.578   8.767  1.00  0.00    -0.206 F 
ATOM     75  C   UNL     1      20.660   5.640   7.971  1.00  0.00     0.040 A 
ATOM     76  C   UNL     1      21.670   5.786   5.791  1.00  0.00     0.040 A 
ATOM     77  F   UNL     1      21.832   3.878   4.438  1.00  0.00    -0.206 F 
ATOM     78  C   UNL     1      21.270   6.401   6.975  1.00  0.00     0.006 A 
ENDBRANCH  57  71
BRANCH  58  79
ATOM     79  C   UNL     1      19.017  -6.008   4.796  1.00  0.00     0.057 A 
ATOM     80  C   UNL     1      19.321  -7.019   5.716  1.00  0.00     0.134 A 
ATOM     81  C   UNL     1      18.465  -6.399   3.570  1.00  0.00     0.134 A 
ATOM     82  F   UNL     1      19.869  -6.711   6.901  1.00  0.00    -0.206 F 
ATOM     83  C   UNL     1      19.106  -8.367   5.421  1.00  0.00     0.040 A 
ATOM     84  C   UNL     1      18.218  -7.741   3.273  1.00  0.00     0.040 A 
ATOM     85  F   UNL     1      18.142  -5.480   2.648  1.00  0.00    -0.206 F 
ATOM     86  C   UNL     1      18.547  -8.730   4.197  1.00  0.00     0.006 A 
ENDBRANCH  58  79
BRANCH  70  87
ATOM     87  C   UNL     1      24.844  -2.309   5.743  1.00  0.00     0.057 A 
ATOM     88  C   UNL     1      25.526  -2.670   4.574  1.00  0.00     0.134 A 
ATOM     89  C   UNL     1      25.580  -2.274   6.935  1.00  0.00     0.134 A 
ATOM     90  F   UNL     1      24.878  -2.736   3.401  1.00  0.00    -0.206 F 
ATOM     91  C   UNL     1      26.881  -3.006   4.594  1.00  0.00     0.040 A 
ATOM     92  C   UNL     1      26.941  -2.578   6.963  1.00  0.00     0.040 A 
ATOM     93  F   UNL     1      24.991  -1.928   8.090  1.00  0.00    -0.206 F 
ATOM     94  C   UNL     1      27.594  -2.953   5.790  1.00  0.00     0.006 A 
ENDBRANCH  70  87
ENDBRANCH  44  45
ENDBRANCH  36  39
ENDBRANCH  34  35
ENDBRANCH  33  34
ENDBRANCH   1  33
TORSDOF 14
