REMARK SMILES CCc1c(C(=O)NCC(=O)NCCCNC(=O)c2ccc(-c3c4nc(c(-c5c(F)cccc5F)c5ccc([nH]5)c(-c5c(F)cccc5F)c5nc(c(-c6c(F)cccc6F)c6ccc3[nH]6)C=C5)C=C4)cc2)nnn1-c1ccc(Cl)cc1
REMARK SMILES IDX 12 1 11 2 9 3 10 4 8 6 7 7 5 8 6 9 4 11 3 12 74 13 72 14
REMARK SMILES IDX 73 15 2 16 1 17 75 18 76 19 81 20 77 21 80 22 78 23 79 24
REMARK SMILES IDX 13 25 14 26 15 27 16 28 17 30 18 31 19 32 71 33 20 34 70 35
REMARK SMILES IDX 21 36 22 37 23 38 64 39 24 40 69 41 63 42 65 43 25 44 68 45
REMARK SMILES IDX 62 46 61 47 26 49 52 50 35 51 51 52 36 53 39 54 50 55 66 56
REMARK SMILES IDX 37 57 38 58 49 60 67 61 40 62 27 63 28 64 33 65 29 66 30 67
REMARK SMILES IDX 32 68 34 69 31 70 53 71 54 72 59 73 55 74 56 75 58 76 60 77
REMARK SMILES IDX 57 78 41 79 42 80 47 81 43 82 44 83 46 84 48 85 45 86
REMARK H PARENT 11 5 7 10 15 29 65 48 39 59
REMARK Flexibility Score: inf
ROOT
ATOM      1  C   UNL     1      -1.290   0.720   2.533  1.00  0.00     0.117 C 
ENDROOT
BRANCH   1   2
ATOM      2  N   UNL     1      -1.157   1.734   1.505  1.00  0.00    -0.355 N 
ATOM      3  C   UNL     1      -0.065   2.233   0.866  1.00  0.00     0.239 C 
ATOM      4  O   UNL     1      -0.282   2.977  -0.098  1.00  0.00    -0.273 OA
ATOM      5  H   UNL     1      -2.010   2.134   1.219  1.00  0.00     0.163 HD
BRANCH   3   6
ATOM      6  C   UNL     1       1.376   1.803   1.173  1.00  0.00     0.216 C 
BRANCH   6   7
ATOM      7  N   UNL     1       1.740   1.430   2.504  1.00  0.00    -0.342 N 
ATOM      8  C   UNL     1       2.027   0.251   3.119  1.00  0.00     0.274 C 
ATOM      9  O   UNL     1       2.554   0.427   4.226  1.00  0.00    -0.267 OA
ATOM     10  H   UNL     1       1.794   2.201   3.114  1.00  0.00     0.164 HD
BRANCH   8  11
ATOM     11  C   UNL     1       1.713  -1.121   2.667  1.00  0.00     0.174 A 
ATOM     12  C   UNL     1       1.151  -1.820   1.575  1.00  0.00     0.077 A 
ATOM     13  N   UNL     1       1.136  -3.147   2.049  1.00  0.00    -0.217 N 
ATOM     14  N   UNL     1       1.868  -2.037   3.706  1.00  0.00    -0.124 NA
ATOM     15  N   UNL     1       1.374  -3.199   3.359  1.00  0.00    -0.061 NA
BRANCH  12  16
ATOM     16  C   UNL     1       0.388  -1.544   0.291  1.00  0.00     0.055 C 
ATOM     17  C   UNL     1       1.015  -0.758  -0.838  1.00  0.00     0.011 C 
ENDBRANCH  12  16
BRANCH  13  18
ATOM     18  C   UNL     1       0.743  -4.318   1.371  1.00  0.00     0.067 A 
ATOM     19  C   UNL     1      -0.335  -5.067   1.858  1.00  0.00     0.030 A 
ATOM     20  C   UNL     1       1.403  -4.677   0.191  1.00  0.00     0.030 A 
ATOM     21  C   UNL     1      -0.806  -6.143   1.105  1.00  0.00     0.023 A 
ATOM     22  C   UNL     1       0.947  -5.774  -0.535  1.00  0.00     0.023 A 
ATOM     23  C   UNL     1      -0.168  -6.487  -0.089  1.00  0.00     0.041 A 
ATOM     24  Cl  UNL     1      -0.772  -7.791  -1.034  1.00  0.00    -0.084 Cl
ENDBRANCH  13  18
ENDBRANCH   8  11
ENDBRANCH   6   7
ENDBRANCH   3   6
ENDBRANCH   1   2
BRANCH   1  25
ATOM     25  C   UNL     1      -1.224   1.249   3.961  1.00  0.00     0.042 C 
BRANCH  25  26
ATOM     26  C   UNL     1      -2.531   1.887   4.388  1.00  0.00     0.118 C 
BRANCH  26  27
ATOM     27  N   UNL     1      -3.614   0.908   4.554  1.00  0.00    -0.352 N 
ATOM     28  C   UNL     1      -4.955   1.160   4.755  1.00  0.00     0.251 C 
ATOM     29  H   UNL     1      -3.352  -0.041   4.516  1.00  0.00     0.163 HD
ATOM     30  O   UNL     1      -5.705   0.305   5.231  1.00  0.00    -0.269 OA
BRANCH  28  31
ATOM     31  C   UNL     1      -5.476   2.480   4.382  1.00  0.00     0.039 A 
ATOM     32  C   UNL     1      -6.316   3.212   5.223  1.00  0.00     0.014 A 
ATOM     33  C   UNL     1      -5.002   3.019   3.191  1.00  0.00     0.014 A 
ATOM     34  C   UNL     1      -6.595   4.535   4.893  1.00  0.00     0.010 A 
ATOM     35  C   UNL     1      -5.104   4.366   2.986  1.00  0.00     0.010 A 
ATOM     36  C   UNL     1      -5.957   5.117   3.784  1.00  0.00    -0.014 A 
BRANCH  36  37
ATOM     37  C   UNL     1      -6.095   6.536   3.485  1.00  0.00     0.031 A 
ATOM     38  C   UNL     1      -5.822   7.449   4.627  1.00  0.00     0.074 A 
ATOM     39  C   UNL     1      -6.255   7.005   2.227  1.00  0.00     0.049 A 
ATOM     40  N   UNL     1      -6.673   8.191   5.254  1.00  0.00    -0.248 NA
ATOM     41  C   UNL     1      -4.482   7.441   5.234  1.00  0.00     0.031 C 
ATOM     42  C   UNL     1      -6.238   6.269   0.956  1.00  0.00     0.029 A 
ATOM     43  N   UNL     1      -6.376   8.294   1.813  1.00  0.00    -0.354 N 
ATOM     44  C   UNL     1      -5.944   8.903   6.203  1.00  0.00     0.074 A 
ATOM     45  C   UNL     1      -4.649   8.276   6.263  1.00  0.00     0.031 C 
ATOM     46  C   UNL     1      -6.102   7.134  -0.073  1.00  0.00     0.029 A 
ATOM     47  C   UNL     1      -6.216   8.482   0.446  1.00  0.00     0.049 A 
ATOM     48  H   UNL     1      -6.563   9.036   2.433  1.00  0.00     0.167 HD
ATOM     49  C   UNL     1      -6.399  10.094   6.685  1.00  0.00     0.037 A 
ATOM     50  C   UNL     1      -6.173   9.667  -0.210  1.00  0.00     0.037 A 
ATOM     51  C   UNL     1      -7.798  10.272   6.379  1.00  0.00     0.049 A 
ATOM     52  C   UNL     1      -6.803  10.677   0.676  1.00  0.00     0.074 A 
ATOM     53  C   UNL     1      -8.953   9.573   6.673  1.00  0.00     0.029 A 
ATOM     54  N   UNL     1      -8.120  11.092   5.324  1.00  0.00    -0.354 N 
ATOM     55  N   UNL     1      -8.073  10.683   0.973  1.00  0.00    -0.248 NA
ATOM     56  C   UNL     1      -5.939  11.384   1.609  1.00  0.00     0.031 C 
ATOM     57  C   UNL     1      -9.730   9.632   5.479  1.00  0.00     0.029 A 
ATOM     58  C   UNL     1      -9.044  10.427   4.560  1.00  0.00     0.049 A 
ATOM     59  H   UNL     1      -7.756  11.989   5.150  1.00  0.00     0.167 HD
ATOM     60  C   UNL     1      -8.117  10.995   2.324  1.00  0.00     0.074 A 
ATOM     61  C   UNL     1      -6.781  11.501   2.640  1.00  0.00     0.031 C 
ATOM     62  C   UNL     1      -9.128  10.542   3.122  1.00  0.00     0.037 A 
BRANCH  49  63
ATOM     63  C   UNL     1      -5.521  11.257   7.083  1.00  0.00     0.057 A 
ATOM     64  C   UNL     1      -6.118  12.396   7.657  1.00  0.00     0.134 A 
ATOM     65  C   UNL     1      -4.190  11.434   6.655  1.00  0.00     0.134 A 
ATOM     66  F   UNL     1      -7.382  12.360   8.105  1.00  0.00    -0.206 F 
ATOM     67  C   UNL     1      -5.474  13.638   7.710  1.00  0.00     0.040 A 
ATOM     68  C   UNL     1      -3.520  12.657   6.750  1.00  0.00     0.040 A 
ATOM     69  F   UNL     1      -3.500  10.473   6.032  1.00  0.00    -0.206 F 
ATOM     70  C   UNL     1      -4.173  13.774   7.243  1.00  0.00     0.006 A 
ENDBRANCH  49  63
BRANCH  50  71
ATOM     71  C   UNL     1      -5.387  10.037  -1.407  1.00  0.00     0.057 A 
ATOM     72  C   UNL     1      -5.675  11.201  -2.133  1.00  0.00     0.134 A 
ATOM     73  C   UNL     1      -4.160   9.415  -1.699  1.00  0.00     0.134 A 
ATOM     74  F   UNL     1      -6.805  11.884  -1.901  1.00  0.00    -0.206 F 
ATOM     75  C   UNL     1      -4.781  11.736  -3.070  1.00  0.00     0.040 A 
ATOM     76  C   UNL     1      -3.260   9.936  -2.635  1.00  0.00     0.040 A 
ATOM     77  F   UNL     1      -3.752   8.334  -1.019  1.00  0.00    -0.206 F 
ATOM     78  C   UNL     1      -3.562  11.110  -3.314  1.00  0.00     0.006 A 
ENDBRANCH  50  71
BRANCH  62  79
ATOM     79  C   UNL     1     -10.318   9.898   2.461  1.00  0.00     0.057 A 
ATOM     80  C   UNL     1     -10.262   8.708   1.719  1.00  0.00     0.134 A 
ATOM     81  C   UNL     1     -11.590  10.417   2.721  1.00  0.00     0.134 A 
ATOM     82  F   UNL     1      -9.103   8.078   1.500  1.00  0.00    -0.206 F 
ATOM     83  C   UNL     1     -11.416   8.088   1.227  1.00  0.00     0.040 A 
ATOM     84  C   UNL     1     -12.752   9.791   2.263  1.00  0.00     0.040 A 
ATOM     85  F   UNL     1     -11.728  11.522   3.471  1.00  0.00    -0.206 F 
ATOM     86  C   UNL     1     -12.667   8.626   1.505  1.00  0.00     0.006 A 
ENDBRANCH  62  79
ENDBRANCH  36  37
ENDBRANCH  28  31
ENDBRANCH  26  27
ENDBRANCH  25  26
ENDBRANCH   1  25
TORSDOF 14
