REMARK SMILES COc1cccc([C@H]2CC(c3ccc(S(C)(=O)=O)cc3)=NN2c2ccc(C(=O)NCCCNC(=O)c3ccc(-c4c5nc(c(-c6c(F)cccc6F)c6ccc([nH]6)c(-c6c(F)cccc6F)c6nc(c(-c7c(F)cccc7F)c7ccc4[nH]7)C=C6)C=C5)cc3)cc2)c1
REMARK SMILES IDX 30 1 29 2 27 3 28 4 26 6 23 7 24 8 91 9 25 10 90 11 22 12
REMARK SMILES IDX 8 13 9 14 10 15 21 16 7 17 3 18 4 19 92 20 5 21 6 22 2 23
REMARK SMILES IDX 1 24 11 25 12 26 20 27 13 28 19 29 14 30 15 31 16 32 17 33
REMARK SMILES IDX 18 34 31 35 32 36 33 37 34 38 35 40 36 41 37 42 89 43 38 44
REMARK SMILES IDX 88 45 39 46 40 47 41 48 82 49 42 50 87 51 81 52 83 53 43 54
REMARK SMILES IDX 86 55 80 56 79 57 44 59 70 60 53 61 69 62 54 63 57 64 68 65
REMARK SMILES IDX 84 66 55 67 56 68 67 70 85 71 58 72 45 73 46 74 51 75 47 76
REMARK SMILES IDX 48 77 50 78 52 79 49 80 71 81 72 82 77 83 73 84 74 85 76 86
REMARK SMILES IDX 78 87 75 88 59 89 60 90 65 91 61 92 62 93 64 94 66 95 63 96
REMARK H PARENT 29 5 33 39 83 58 57 69
REMARK Flexibility Score: inf
ROOT
ATOM      1  C   UNL     1       3.566  -9.515  -3.081  1.00  0.00     0.118 C 
ENDROOT
BRANCH   1   2
ATOM      2  N   UNL     1       4.029  -9.439  -1.709  1.00  0.00    -0.352 N 
ATOM      3  C   UNL     1       4.481  -8.399  -0.939  1.00  0.00     0.251 C 
ATOM      4  O   UNL     1       4.770  -8.653   0.231  1.00  0.00    -0.269 OA
ATOM      5  H   UNL     1       4.015 -10.303  -1.238  1.00  0.00     0.163 HD
BRANCH   3   6
ATOM      6  C   UNL     1       4.593  -6.996  -1.428  1.00  0.00     0.039 A 
ATOM      7  C   UNL     1       4.761  -4.265  -2.168  1.00  0.00     0.060 A 
ATOM      8  C   UNL     1       4.610  -4.639  -0.830  1.00  0.00     0.029 A 
ATOM      9  C   UNL     1       4.873  -5.277  -3.124  1.00  0.00     0.029 A 
ATOM     10  C   UNL     1       4.505  -5.983  -0.463  1.00  0.00     0.016 A 
ATOM     11  C   UNL     1       4.828  -6.627  -2.754  1.00  0.00     0.016 A 
BRANCH   7  12
ATOM     12  N   UNL     1       4.824  -2.926  -2.509  1.00  0.00    -0.257 N 
ATOM     13  C   UNL     1       3.996  -2.280  -3.526  1.00  0.00     0.144 C 
ATOM     14  C   UNL     1       4.617  -0.880  -3.628  1.00  0.00     0.091 C 
ATOM     15  C   UNL     1       5.775  -1.040  -2.685  1.00  0.00     0.071 C 
ATOM     16  N   UNL     1       5.868  -2.178  -2.074  1.00  0.00    -0.176 NA
BRANCH  13  17
ATOM     17  C   UNL     1       2.535  -2.259  -3.107  1.00  0.00    -0.019 A 
ATOM     18  C   UNL     1       0.790  -1.674  -1.506  1.00  0.00     0.119 A 
ATOM     19  C   UNL     1      -0.152  -2.327  -2.299  1.00  0.00     0.046 A 
ATOM     20  C   UNL     1       2.129  -1.659  -1.898  1.00  0.00     0.052 A 
ATOM     21  C   UNL     1       0.231  -2.926  -3.498  1.00  0.00     0.004 A 
ATOM     22  C   UNL     1       1.565  -2.889  -3.904  1.00  0.00     0.006 A 
BRANCH  18  23
ATOM     23  O   UNL     1       0.312  -1.132  -0.345  1.00  0.00    -0.497 OA
ATOM     24  C   UNL     1       0.962   0.065   0.070  1.00  0.00     0.278 C 
ENDBRANCH  18  23
ENDBRANCH  13  17
BRANCH  15  25
ATOM     25  C   UNL     1       6.768   0.021  -2.511  1.00  0.00    -0.002 A 
ATOM     26  C   UNL     1       8.107  -0.269  -2.794  1.00  0.00     0.011 A 
ATOM     27  C   UNL     1       6.386   1.277  -2.037  1.00  0.00     0.011 A 
ATOM     28  C   UNL     1       9.079   0.713  -2.613  1.00  0.00     0.021 A 
ATOM     29  C   UNL     1       7.362   2.254  -1.828  1.00  0.00     0.021 A 
ATOM     30  C   UNL     1       8.701   1.964  -2.113  1.00  0.00     0.067 A 
BRANCH  30  31
ATOM     31  S   UNL     1       9.954   3.199  -1.851  1.00  0.00     0.175 S 
ATOM     32  C   UNL     1      11.023   2.479  -0.631  1.00  0.00     0.163 C 
ATOM     33  O   UNL     1      10.687   3.318  -3.095  1.00  0.00    -0.224 OA
ATOM     34  O   UNL     1       9.312   4.351  -1.246  1.00  0.00    -0.224 OA
ENDBRANCH  30  31
ENDBRANCH  15  25
ENDBRANCH   7  12
ENDBRANCH   3   6
ENDBRANCH   1   2
BRANCH   1  35
ATOM     35  C   UNL     1       4.669 -10.036  -4.003  1.00  0.00     0.042 C 
BRANCH  35  36
ATOM     36  C   UNL     1       4.949 -11.527  -3.829  1.00  0.00     0.118 C 
BRANCH  36  37
ATOM     37  N   UNL     1       3.858 -12.347  -4.335  1.00  0.00    -0.352 N 
ATOM     38  C   UNL     1       3.865 -13.335  -5.285  1.00  0.00     0.251 C 
ATOM     39  H   UNL     1       2.979 -12.164  -3.931  1.00  0.00     0.163 HD
ATOM     40  O   UNL     1       2.799 -13.753  -5.730  1.00  0.00    -0.269 OA
BRANCH  38  41
ATOM     41  C   UNL     1       5.138 -13.898  -5.787  1.00  0.00     0.039 A 
ATOM     42  C   UNL     1       5.250 -14.188  -7.150  1.00  0.00     0.014 A 
ATOM     43  C   UNL     1       6.194 -14.195  -4.920  1.00  0.00     0.014 A 
ATOM     44  C   UNL     1       6.436 -14.729  -7.652  1.00  0.00     0.010 A 
ATOM     45  C   UNL     1       7.397 -14.678  -5.431  1.00  0.00     0.010 A 
ATOM     46  C   UNL     1       7.527 -14.955  -6.800  1.00  0.00    -0.014 A 
BRANCH  46  47
ATOM     47  C   UNL     1       8.812 -15.480  -7.323  1.00  0.00     0.031 A 
ATOM     48  C   UNL     1       9.304 -16.838  -6.910  1.00  0.00     0.074 A 
ATOM     49  C   UNL     1       9.572 -14.700  -8.116  1.00  0.00     0.049 A 
ATOM     50  N   UNL     1      10.433 -17.433  -7.202  1.00  0.00    -0.248 NA
ATOM     51  C   UNL     1       8.420 -17.620  -6.032  1.00  0.00     0.031 C 
ATOM     52  C   UNL     1       9.229 -13.343  -8.544  1.00  0.00     0.029 A 
ATOM     53  N   UNL     1      10.797 -14.931  -8.686  1.00  0.00    -0.354 N 
ATOM     54  C   UNL     1      10.402 -18.649  -6.532  1.00  0.00     0.074 A 
ATOM     55  C   UNL     1       9.164 -18.687  -5.783  1.00  0.00     0.031 C 
ATOM     56  C   UNL     1      10.219 -12.863  -9.313  1.00  0.00     0.029 A 
ATOM     57  C   UNL     1      11.277 -13.865  -9.407  1.00  0.00     0.049 A 
ATOM     58  H   UNL     1      11.287 -15.780  -8.588  1.00  0.00     0.167 HD
ATOM     59  C   UNL     1      11.313 -19.652  -6.555  1.00  0.00     0.037 A 
ATOM     60  C   UNL     1      12.442 -13.707 -10.061  1.00  0.00     0.037 A 
ATOM     61  C   UNL     1      12.535 -19.619  -7.315  1.00  0.00     0.049 A 
ATOM     62  C   UNL     1      13.433 -14.835 -10.084  1.00  0.00     0.074 A 
ATOM     63  C   UNL     1      13.493 -20.609  -7.455  1.00  0.00     0.029 A 
ATOM     64  N   UNL     1      12.970 -18.534  -8.062  1.00  0.00    -0.354 N 
ATOM     65  N   UNL     1      13.361 -16.007  -9.503  1.00  0.00    -0.248 NA
ATOM     66  C   UNL     1      14.663 -14.621 -10.859  1.00  0.00     0.031 C 
ATOM     67  C   UNL     1      14.525 -20.108  -8.257  1.00  0.00     0.029 A 
ATOM     68  C   UNL     1      14.192 -18.822  -8.648  1.00  0.00     0.049 A 
ATOM     69  H   UNL     1      12.483 -17.684  -8.160  1.00  0.00     0.167 HD
ATOM     70  C   UNL     1      14.525 -16.678  -9.852  1.00  0.00     0.074 A 
ATOM     71  C   UNL     1      15.279 -15.786 -10.711  1.00  0.00     0.031 C 
ATOM     72  C   UNL     1      14.933 -17.920  -9.494  1.00  0.00     0.037 A 
BRANCH  59  73
ATOM     73  C   UNL     1      11.014 -20.868  -5.728  1.00  0.00     0.057 A 
ATOM     74  C   UNL     1       9.994 -21.764  -6.074  1.00  0.00     0.134 A 
ATOM     75  C   UNL     1      11.759 -21.153  -4.576  1.00  0.00     0.134 A 
ATOM     76  F   UNL     1       9.235 -21.543  -7.159  1.00  0.00    -0.206 F 
ATOM     77  C   UNL     1       9.701 -22.879  -5.287  1.00  0.00     0.040 A 
ATOM     78  C   UNL     1      11.493 -22.279  -3.795  1.00  0.00     0.040 A 
ATOM     79  F   UNL     1      12.755 -20.341  -4.190  1.00  0.00    -0.206 F 
ATOM     80  C   UNL     1      10.456 -23.141  -4.145  1.00  0.00     0.006 A 
ENDBRANCH  59  73
BRANCH  60  81
ATOM     81  C   UNL     1      12.719 -12.429 -10.760  1.00  0.00     0.057 A 
ATOM     82  C   UNL     1      12.674 -12.345 -12.155  1.00  0.00     0.134 A 
ATOM     83  C   UNL     1      13.005 -11.257 -10.049  1.00  0.00     0.134 A 
ATOM     84  F   UNL     1      12.420 -13.438 -12.889  1.00  0.00    -0.206 F 
ATOM     85  C   UNL     1      12.910 -11.142 -12.822  1.00  0.00     0.040 A 
ATOM     86  C   UNL     1      13.223 -10.043 -10.701  1.00  0.00     0.040 A 
ATOM     87  F   UNL     1      13.053 -11.273  -8.709  1.00  0.00    -0.206 F 
ATOM     88  C   UNL     1      13.179  -9.984 -12.093  1.00  0.00     0.006 A 
ENDBRANCH  60  81
BRANCH  72  89
ATOM     89  C   UNL     1      16.248 -18.390 -10.040  1.00  0.00     0.057 A 
ATOM     90  C   UNL     1      17.465 -17.900  -9.551  1.00  0.00     0.134 A 
ATOM     91  C   UNL     1      16.297 -19.369 -11.040  1.00  0.00     0.134 A 
ATOM     92  F   UNL     1      17.484 -16.951  -8.603  1.00  0.00    -0.206 F 
ATOM     93  C   UNL     1      18.686 -18.354 -10.051  1.00  0.00     0.040 A 
ATOM     94  C   UNL     1      17.512 -19.847 -11.533  1.00  0.00     0.040 A 
ATOM     95  F   UNL     1      15.167 -19.883 -11.547  1.00  0.00    -0.206 F 
ATOM     96  C   UNL     1      18.712 -19.336 -11.040  1.00  0.00     0.006 A 
ENDBRANCH  72  89
ENDBRANCH  46  47
ENDBRANCH  38  41
ENDBRANCH  36  37
ENDBRANCH  35  36
ENDBRANCH   1  35
TORSDOF 15
