REMARK SMILES CCC(CC)(NC(=O)CC1([NH3+])CCCC1)C(=O)NCCCNC(=O)c1ccc(-c2c3nc(c(-c4c(F)cccc4F)c4ccc([nH]4)c(-c4c(F)cccc4F)c4nc(c(-c5c(F)cccc5F)c5ccc2[nH]5)C=C4)C=C3)cc1
REMARK SMILES IDX 19 1 18 2 16 3 17 4 3 6 2 7 1 8 4 9 5 10 6 11 7 12 8 14 9 15
REMARK SMILES IDX 10 16 12 17 15 18 13 19 14 20 11 21 20 25 21 26 22 27 23 28
REMARK SMILES IDX 24 30 25 31 26 32 78 33 27 34 77 35 28 36 29 37 30 38 71 39
REMARK SMILES IDX 31 40 76 41 70 42 72 43 32 44 75 45 69 46 68 47 33 49 59 50
REMARK SMILES IDX 42 51 58 52 43 53 46 54 57 55 73 56 44 57 45 58 56 60 74 61
REMARK SMILES IDX 47 62 34 63 35 64 40 65 36 66 37 67 39 68 41 69 38 70 60 71
REMARK SMILES IDX 61 72 66 73 62 74 63 75 65 76 67 77 64 78 48 79 49 80 54 81
REMARK SMILES IDX 50 82 51 83 53 84 55 85 52 86
REMARK H PARENT 18 5 6 13 11 22 11 23 11 24 22 29 72 48 46 59
REMARK Flexibility Score: inf
ROOT
ATOM      1  C   UNL     1       2.133   4.774  -2.555  1.00  0.00     0.117 C 
ENDROOT
BRANCH   1   2
ATOM      2  N   UNL     1       2.688   3.491  -2.151  1.00  0.00    -0.354 N 
ATOM      3  C   UNL     1       2.169   2.439  -1.448  1.00  0.00     0.245 C 
ATOM      4  O   UNL     1       2.855   1.413  -1.436  1.00  0.00    -0.272 OA
ATOM      5  H   UNL     1       3.619   3.353  -2.439  1.00  0.00     0.163 HD
BRANCH   3   6
ATOM      6  C   UNL     1       0.742   2.479  -0.822  1.00  0.00     0.118 C 
BRANCH   6   7
ATOM      7  C   UNL     1       0.480   1.303   0.162  1.00  0.00     0.035 C 
ATOM      8  C   UNL     1       0.456  -0.119  -0.387  1.00  0.00     0.007 C 
ENDBRANCH   6   7
BRANCH   6   9
ATOM      9  C   UNL     1      -0.248   2.387  -2.030  1.00  0.00     0.035 C 
ATOM     10  C   UNL     1      -1.734   2.372  -1.691  1.00  0.00     0.007 C 
ENDBRANCH   6   9
BRANCH   6  11
ATOM     11  N   UNL     1       0.530   3.739  -0.051  1.00  0.00    -0.342 N 
ATOM     12  C   UNL     1       1.160   4.181   1.083  1.00  0.00     0.227 C 
ATOM     13  H   UNL     1      -0.163   4.340  -0.409  1.00  0.00     0.164 HD
ATOM     14  O   UNL     1       0.462   4.762   1.920  1.00  0.00    -0.275 OA
BRANCH  12  15
ATOM     15  C   UNL     1       2.674   4.135   1.250  1.00  0.00     0.168 C 
BRANCH  15  16
ATOM     16  C   UNL     1       3.325   3.201   2.296  1.00  0.00     0.103 C 
ATOM     17  C   UNL     1       2.373   2.439   3.235  1.00  0.00     0.069 C 
ATOM     18  C   UNL     1       4.204   2.107   1.628  1.00  0.00     0.069 C 
ATOM     19  C   UNL     1       3.024   1.077   3.455  1.00  0.00     0.007 C 
ATOM     20  C   UNL     1       3.706   0.763   2.136  1.00  0.00     0.007 C 
BRANCH  16  21
ATOM     21  N   UNL     1       4.258   4.012   3.115  1.00  0.00    -0.352 N 
ATOM     22  H   UNL     1       3.741   4.755   3.586  1.00  0.00     0.344 HD
ATOM     23  H   UNL     1       4.971   4.423   2.512  1.00  0.00     0.344 HD
ATOM     24  H   UNL     1       4.705   3.415   3.812  1.00  0.00     0.344 HD
ENDBRANCH  16  21
ENDBRANCH  15  16
ENDBRANCH  12  15
ENDBRANCH   6  11
ENDBRANCH   3   6
ENDBRANCH   1   2
BRANCH   1  25
ATOM     25  C   UNL     1       2.679   5.983  -1.804  1.00  0.00     0.042 C 
BRANCH  25  26
ATOM     26  C   UNL     1       4.194   6.043  -1.667  1.00  0.00     0.118 C 
BRANCH  26  27
ATOM     27  N   UNL     1       4.868   6.132  -2.949  1.00  0.00    -0.352 N 
ATOM     28  C   UNL     1       5.516   7.176  -3.558  1.00  0.00     0.251 C 
ATOM     29  H   UNL     1       4.857   5.299  -3.473  1.00  0.00     0.163 HD
ATOM     30  O   UNL     1       5.837   7.063  -4.738  1.00  0.00    -0.269 OA
BRANCH  28  31
ATOM     31  C   UNL     1       5.827   8.433  -2.837  1.00  0.00     0.039 A 
ATOM     32  C   UNL     1       5.761   9.634  -3.552  1.00  0.00     0.014 A 
ATOM     33  C   UNL     1       6.270   8.446  -1.512  1.00  0.00     0.014 A 
ATOM     34  C   UNL     1       6.114  10.838  -2.938  1.00  0.00     0.010 A 
ATOM     35  C   UNL     1       6.543   9.657  -0.873  1.00  0.00     0.010 A 
ATOM     36  C   UNL     1       6.498  10.863  -1.588  1.00  0.00    -0.014 A 
BRANCH  36  37
ATOM     37  C   UNL     1       6.917  12.135  -0.944  1.00  0.00     0.031 A 
ATOM     38  C   UNL     1       8.340  12.321  -0.487  1.00  0.00     0.074 A 
ATOM     39  C   UNL     1       6.020  13.123  -0.758  1.00  0.00     0.049 A 
ATOM     40  N   UNL     1       8.898  13.359   0.085  1.00  0.00    -0.248 NA
ATOM     41  C   UNL     1       9.253  11.182  -0.678  1.00  0.00     0.031 C 
ATOM     42  C   UNL     1       4.602  13.056  -1.112  1.00  0.00     0.029 A 
ATOM     43  N   UNL     1       6.172  14.379  -0.226  1.00  0.00    -0.354 N 
ATOM     44  C   UNL     1      10.215  12.992   0.335  1.00  0.00     0.074 A 
ATOM     45  C   UNL     1      10.361  11.620  -0.098  1.00  0.00     0.031 C 
ATOM     46  C   UNL     1       4.020  14.230  -0.816  1.00  0.00     0.029 A 
ATOM     47  C   UNL     1       5.017  15.122  -0.230  1.00  0.00     0.049 A 
ATOM     48  H   UNL     1       7.028  14.715   0.126  1.00  0.00     0.167 HD
ATOM     49  C   UNL     1      11.221  13.737   0.852  1.00  0.00     0.037 A 
ATOM     50  C   UNL     1       4.789  16.383   0.184  1.00  0.00     0.037 A 
ATOM     51  C   UNL     1      11.090  15.112   1.254  1.00  0.00     0.049 A 
ATOM     52  C   UNL     1       5.928  17.198   0.731  1.00  0.00     0.074 A 
ATOM     53  C   UNL     1      12.063  15.966   1.744  1.00  0.00     0.029 A 
ATOM     54  N   UNL     1       9.909  15.837   1.206  1.00  0.00    -0.354 N 
ATOM     55  N   UNL     1       7.182  16.858   0.900  1.00  0.00    -0.248 NA
ATOM     56  C   UNL     1       5.621  18.579   1.130  1.00  0.00     0.031 C 
ATOM     57  C   UNL     1      11.463  17.199   2.021  1.00  0.00     0.029 A 
ATOM     58  C   UNL     1      10.127  17.125   1.665  1.00  0.00     0.049 A 
ATOM     59  H   UNL     1       9.043  15.487   0.892  1.00  0.00     0.167 HD
ATOM     60  C   UNL     1       7.820  17.990   1.392  1.00  0.00     0.074 A 
ATOM     61  C   UNL     1       6.816  19.029   1.485  1.00  0.00     0.031 C 
ATOM     62  C   UNL     1       9.121  18.154   1.735  1.00  0.00     0.037 A 
BRANCH  49  63
ATOM     63  C   UNL     1      12.560  13.075   1.004  1.00  0.00     0.057 A 
ATOM     64  C   UNL     1      13.357  12.759  -0.105  1.00  0.00     0.134 A 
ATOM     65  C   UNL     1      13.070  12.772   2.273  1.00  0.00     0.134 A 
ATOM     66  F   UNL     1      12.921  13.011  -1.348  1.00  0.00    -0.206 F 
ATOM     67  C   UNL     1      14.600  12.140   0.041  1.00  0.00     0.040 A 
ATOM     68  C   UNL     1      14.323  12.177   2.432  1.00  0.00     0.040 A 
ATOM     69  F   UNL     1      12.363  13.053   3.377  1.00  0.00    -0.206 F 
ATOM     70  C   UNL     1      15.088  11.853   1.313  1.00  0.00     0.006 A 
ENDBRANCH  49  63
BRANCH  50  71
ATOM     71  C   UNL     1       3.433  16.972   0.055  1.00  0.00     0.057 A 
ATOM     72  C   UNL     1       3.167  17.969  -0.892  1.00  0.00     0.134 A 
ATOM     73  C   UNL     1       2.377  16.563   0.877  1.00  0.00     0.134 A 
ATOM     74  F   UNL     1       4.145  18.414  -1.695  1.00  0.00    -0.206 F 
ATOM     75  C   UNL     1       1.905  18.553  -1.003  1.00  0.00     0.040 A 
ATOM     76  C   UNL     1       1.104  17.123   0.761  1.00  0.00     0.040 A 
ATOM     77  F   UNL     1       2.567  15.608   1.798  1.00  0.00    -0.206 F 
ATOM     78  C   UNL     1       0.867  18.126  -0.177  1.00  0.00     0.006 A 
ENDBRANCH  50  71
BRANCH  62  79
ATOM     79  C   UNL     1       9.543  19.518   2.195  1.00  0.00     0.057 A 
ATOM     80  C   UNL     1       9.184  20.020   3.451  1.00  0.00     0.134 A 
ATOM     81  C   UNL     1      10.345  20.326   1.378  1.00  0.00     0.134 A 
ATOM     82  F   UNL     1       8.407  19.301   4.275  1.00  0.00    -0.206 F 
ATOM     83  C   UNL     1       9.586  21.290   3.870  1.00  0.00     0.040 A 
ATOM     84  C   UNL     1      10.773  21.586   1.796  1.00  0.00     0.040 A 
ATOM     85  F   UNL     1      10.731  19.899   0.167  1.00  0.00    -0.206 F 
ATOM     86  C   UNL     1      10.388  22.074   3.042  1.00  0.00     0.006 A 
ENDBRANCH  62  79
ENDBRANCH  36  37
ENDBRANCH  28  31
ENDBRANCH  26  27
ENDBRANCH  25  26
ENDBRANCH   1  25
TORSDOF 16
