REMARK SMILES O=C(C[C@H]1C[N@@H+]([C@@H]2CC(=O)NC2=O)CCO1)NCCCNC(=O)c1ccc(-c2c3nc(c(-c4c(F)cccc4F)c4ccc([nH]4)c(-c4c(F)cccc4F)c4nc(c(-c5c(F)cccc5F)c5ccc2[nH]5)C=C4)C=C3)cc1
REMARK SMILES IDX 19 1 18 2 17 3 1 4 2 5 3 7 4 8 5 9 16 10 6 11 15 12 14 13
REMARK SMILES IDX 7 15 8 16 12 17 9 18 11 19 13 20 10 21 20 23 21 24 22 25
REMARK SMILES IDX 23 27 24 28 25 29 77 30 26 31 76 32 27 33 28 34 29 35 70 36
REMARK SMILES IDX 30 37 75 38 69 39 71 40 31 41 74 42 68 43 67 44 32 46 58 47
REMARK SMILES IDX 41 48 57 49 42 50 45 51 56 52 72 53 43 54 44 55 55 57 73 58
REMARK SMILES IDX 46 59 33 60 34 61 39 62 35 63 36 64 38 65 40 66 37 67 59 68
REMARK SMILES IDX 60 69 65 70 61 71 62 72 64 73 66 74 63 75 47 76 48 77 53 78
REMARK SMILES IDX 49 79 50 80 52 81 54 82 51 83
REMARK H PARENT 17 6 6 14 11 22 21 26 71 45 45 56
REMARK Flexibility Score: inf
ROOT
ATOM      1  C   UNL     1       9.578   1.597  -0.114  1.00  0.00     0.042 C 
ENDROOT
BRANCH   1   2
ATOM      2  C   UNL     1       8.581   0.461   0.255  1.00  0.00     0.117 C 
BRANCH   2   3
ATOM      3  N   UNL     1       7.253   0.625  -0.321  1.00  0.00    -0.356 N 
ATOM      4  O   UNL     1       6.532  -1.534  -0.472  1.00  0.00    -0.275 OA
ATOM      5  C   UNL     1       6.315  -0.336  -0.646  1.00  0.00     0.222 C 
ATOM      6  H   UNL     1       6.985   1.554  -0.505  1.00  0.00     0.163 HD
BRANCH   5   7
ATOM      7  C   UNL     1       4.978   0.128  -1.341  1.00  0.00     0.138 C 
BRANCH   7   8
ATOM      8  C   UNL     1       4.227   1.380  -0.828  1.00  0.00     0.182 C 
ATOM      9  C   UNL     1       5.153   2.302  -0.081  1.00  0.00     0.295 C 
ATOM     10  O   UNL     1       3.598   2.184  -1.881  1.00  0.00    -0.366 OA
ATOM     11  N   UNL     1       5.863   3.261  -0.995  1.00  0.00    -0.320 N 
ATOM     12  C   UNL     1       3.426   3.596  -1.484  1.00  0.00     0.222 C 
ATOM     13  C   UNL     1       4.792   4.288  -1.121  1.00  0.00     0.291 C 
ATOM     14  H   UNL     1       6.779   3.371  -0.560  1.00  0.00     0.348 HD
BRANCH  11  15
ATOM     15  C   UNL     1       6.394   3.021  -2.436  1.00  0.00     0.284 C 
ATOM     16  C   UNL     1       5.649   3.518  -3.699  1.00  0.00     0.176 C 
ATOM     17  C   UNL     1       7.057   1.761  -2.996  1.00  0.00     0.285 C 
ATOM     18  C   UNL     1       5.825   2.446  -4.726  1.00  0.00     0.233 C 
ATOM     19  N   UNL     1       6.523   1.430  -4.193  1.00  0.00    -0.291 N 
ATOM     20  O   UNL     1       8.080   1.220  -2.617  1.00  0.00    -0.268 OA
ATOM     21  O   UNL     1       5.453   2.511  -5.888  1.00  0.00    -0.274 OA
ATOM     22  H   UNL     1       6.632   0.551  -4.622  1.00  0.00     0.173 HD
ENDBRANCH  11  15
ENDBRANCH   7   8
ENDBRANCH   5   7
ENDBRANCH   2   3
ENDBRANCH   1   2
BRANCH   1  23
ATOM     23  C   UNL     1       9.222   3.047   0.252  1.00  0.00     0.118 C 
BRANCH  23  24
ATOM     24  N   UNL     1       9.246   3.294   1.678  1.00  0.00    -0.352 N 
ATOM     25  C   UNL     1      10.004   4.167   2.417  1.00  0.00     0.251 C 
ATOM     26  H   UNL     1       8.617   2.747   2.203  1.00  0.00     0.163 HD
ATOM     27  O   UNL     1      10.005   4.061   3.642  1.00  0.00    -0.269 OA
BRANCH  25  28
ATOM     28  C   UNL     1      10.828   5.232   1.791  1.00  0.00     0.039 A 
ATOM     29  C   UNL     1      12.112   5.446   2.304  1.00  0.00     0.014 A 
ATOM     30  C   UNL     1      10.329   6.097   0.811  1.00  0.00     0.014 A 
ATOM     31  C   UNL     1      12.897   6.501   1.828  1.00  0.00     0.010 A 
ATOM     32  C   UNL     1      11.136   7.128   0.301  1.00  0.00     0.010 A 
ATOM     33  C   UNL     1      12.427   7.348   0.809  1.00  0.00    -0.014 A 
BRANCH  33  34
ATOM     34  C   UNL     1      13.308   8.433   0.282  1.00  0.00     0.031 A 
ATOM     35  C   UNL     1      12.971   9.888   0.482  1.00  0.00     0.074 A 
ATOM     36  C   UNL     1      14.439   8.103  -0.374  1.00  0.00     0.049 A 
ATOM     37  N   UNL     1      13.659  10.952   0.139  1.00  0.00    -0.248 NA
ATOM     38  C   UNL     1      11.691  10.191   1.136  1.00  0.00     0.031 C 
ATOM     39  C   UNL     1      14.869   6.736  -0.673  1.00  0.00     0.029 A 
ATOM     40  N   UNL     1      15.438   8.886  -0.900  1.00  0.00    -0.354 N 
ATOM     41  C   UNL     1      12.897  12.046   0.534  1.00  0.00     0.074 A 
ATOM     42  C   UNL     1      11.671  11.517   1.094  1.00  0.00     0.031 C 
ATOM     43  C   UNL     1      16.058   6.773  -1.293  1.00  0.00     0.029 A 
ATOM     44  C   UNL     1      16.461   8.165  -1.470  1.00  0.00     0.049 A 
ATOM     45  H   UNL     1      15.423   9.870  -0.872  1.00  0.00     0.167 HD
ATOM     46  C   UNL     1      13.197  13.367   0.457  1.00  0.00     0.037 A 
ATOM     47  C   UNL     1      17.597   8.573  -2.068  1.00  0.00     0.037 A 
ATOM     48  C   UNL     1      14.420  13.896  -0.096  1.00  0.00     0.049 A 
ATOM     49  C   UNL     1      17.901  10.043  -2.151  1.00  0.00     0.074 A 
ATOM     50  C   UNL     1      14.833  15.216  -0.175  1.00  0.00     0.029 A 
ATOM     51  N   UNL     1      15.425  13.133  -0.672  1.00  0.00    -0.354 N 
ATOM     52  N   UNL     1      17.201  11.060  -1.710  1.00  0.00    -0.248 NA
ATOM     53  C   UNL     1      19.161  10.421  -2.806  1.00  0.00     0.031 C 
ATOM     54  C   UNL     1      16.059  15.256  -0.849  1.00  0.00     0.029 A 
ATOM     55  C   UNL     1      16.443  13.956  -1.132  1.00  0.00     0.049 A 
ATOM     56  H   UNL     1      15.418  12.151  -0.744  1.00  0.00     0.167 HD
ATOM     57  C   UNL     1      17.948  12.193  -2.006  1.00  0.00     0.074 A 
ATOM     58  C   UNL     1      19.164  11.736  -2.644  1.00  0.00     0.031 C 
ATOM     59  C   UNL     1      17.651  13.495  -1.769  1.00  0.00     0.037 A 
BRANCH  46  60
ATOM     60  C   UNL     1      12.180  14.345   0.980  1.00  0.00     0.057 A 
ATOM     61  C   UNL     1      11.895  14.459   2.348  1.00  0.00     0.134 A 
ATOM     62  C   UNL     1      11.510  15.219   0.112  1.00  0.00     0.134 A 
ATOM     63  F   UNL     1      12.495  13.652   3.237  1.00  0.00    -0.206 F 
ATOM     64  C   UNL     1      10.963  15.381   2.829  1.00  0.00     0.040 A 
ATOM     65  C   UNL     1      10.599  16.166   0.584  1.00  0.00     0.040 A 
ATOM     66  F   UNL     1      11.741  15.177  -1.209  1.00  0.00    -0.206 F 
ATOM     67  C   UNL     1      10.316  16.244   1.946  1.00  0.00     0.006 A 
ENDBRANCH  46  60
BRANCH  47  68
ATOM     68  C   UNL     1      18.548   7.572  -2.619  1.00  0.00     0.057 A 
ATOM     69  C   UNL     1      19.811   7.377  -2.047  1.00  0.00     0.134 A 
ATOM     70  C   UNL     1      18.223   6.796  -3.738  1.00  0.00     0.134 A 
ATOM     71  F   UNL     1      20.191   8.104  -0.986  1.00  0.00    -0.206 F 
ATOM     72  C   UNL     1      20.724   6.466  -2.581  1.00  0.00     0.040 A 
ATOM     73  C   UNL     1      19.114   5.859  -4.264  1.00  0.00     0.040 A 
ATOM     74  F   UNL     1      17.026   6.928  -4.330  1.00  0.00    -0.206 F 
ATOM     75  C   UNL     1      20.373   5.699  -3.690  1.00  0.00     0.006 A 
ENDBRANCH  47  68
BRANCH  59  76
ATOM     76  C   UNL     1      18.681  14.515  -2.170  1.00  0.00     0.057 A 
ATOM     77  C   UNL     1      18.978  14.789  -3.512  1.00  0.00     0.134 A 
ATOM     78  C   UNL     1      19.385  15.237  -1.196  1.00  0.00     0.134 A 
ATOM     79  F   UNL     1      18.351  14.127  -4.496  1.00  0.00    -0.206 F 
ATOM     80  C   UNL     1      19.964  15.712  -3.869  1.00  0.00     0.040 A 
ATOM     81  C   UNL     1      20.348  16.186  -1.541  1.00  0.00     0.040 A 
ATOM     82  F   UNL     1      19.145  15.035   0.109  1.00  0.00    -0.206 F 
ATOM     83  C   UNL     1      20.649  16.417  -2.882  1.00  0.00     0.006 A 
ENDBRANCH  59  76
ENDBRANCH  33  34
ENDBRANCH  25  28
ENDBRANCH  23  24
ENDBRANCH   1  23
TORSDOF 12
