REMARK SMILES Cc1cc(Cl)c2c(c1)C=C(C(=O)NCCCNC(=O)c1ccc(-c3c4nc(c(-c5c(F)cccc5F)c5ccc([nH]5)c(-c5c(F)cccc5F)c5nc(c(-c6c(F)cccc6F)c6ccc3[nH]6)C=C5)C=C4)cc1)[C@@H](C(F)(F)F)O2
REMARK SMILES IDX 15 1 14 2 13 3 11 4 12 5 10 7 1 8 2 9 3 10 8 11 4 12 7 13
REMARK SMILES IDX 5 14 6 15 9 16 79 17 74 18 75 19 76 20 77 21 78 22 16 23
REMARK SMILES IDX 17 24 18 25 19 27 20 28 21 29 73 30 22 31 72 32 23 33 24 34
REMARK SMILES IDX 25 35 66 36 26 37 71 38 65 39 67 40 27 41 70 42 64 43 63 44
REMARK SMILES IDX 28 46 54 47 37 48 53 49 38 50 41 51 52 52 68 53 39 54 40 55
REMARK SMILES IDX 51 57 69 58 42 59 29 60 30 61 35 62 31 63 32 64 34 65 36 66
REMARK SMILES IDX 33 67 55 68 56 69 61 70 57 71 58 72 60 73 62 74 59 75 43 76
REMARK SMILES IDX 44 77 49 78 45 79 46 80 48 81 50 82 47 83
REMARK H PARENT 13 6 17 26 67 45 41 56
REMARK Flexibility Score: inf
ROOT
ATOM      1  C   UNL     1      -1.358   1.535   9.691  1.00  0.00     0.042 C 
ENDROOT
BRANCH   1   2
ATOM      2  C   UNL     1      -2.336   1.653   8.533  1.00  0.00     0.118 C 
BRANCH   2   3
ATOM      3  N   UNL     1      -1.939   2.689   7.592  1.00  0.00    -0.352 N 
ATOM      4  C   UNL     1      -1.441   2.750   6.335  1.00  0.00     0.251 C 
ATOM      5  O   UNL     1      -1.244   3.890   5.903  1.00  0.00    -0.270 OA
ATOM      6  H   UNL     1      -2.067   3.588   7.972  1.00  0.00     0.163 HD
BRANCH   4   7
ATOM      7  C   UNL     1      -1.128   1.569   5.480  1.00  0.00     0.067 C 
ATOM      8  C   UNL     1       0.962   0.124  -0.166  1.00  0.00     0.044 C 
ATOM      9  C   UNL     1       0.489  -0.119   1.236  1.00  0.00    -0.049 A 
ATOM     10  C   UNL     1       0.438  -1.425   1.739  1.00  0.00     0.028 A 
ATOM     11  C   UNL     1       0.159   0.953   2.078  1.00  0.00     0.015 A 
ATOM     12  C   UNL     1       0.044  -1.657   3.056  1.00  0.00     0.084 A 
ATOM     13  C   UNL     1      -0.244   0.724   3.398  1.00  0.00     0.019 A 
ATOM     14  Cl  UNL     1      -0.005  -3.285   3.631  1.00  0.00    -0.080 Cl
ATOM     15  C   UNL     1      -0.304  -0.586   3.883  1.00  0.00     0.146 A 
ATOM     16  C   UNL     1      -0.559   1.835   4.290  1.00  0.00     0.025 C 
ATOM     17  O   UNL     1      -0.646  -0.854   5.180  1.00  0.00    -0.474 OA
ATOM     18  C   UNL     1      -1.435   0.151   5.864  1.00  0.00     0.314 C 
BRANCH  18  19
ATOM     19  C   UNL     1      -2.933  -0.190   5.728  1.00  0.00     0.429 C 
ATOM     20  F   UNL     1      -3.233  -1.298   6.451  1.00  0.00    -0.167 F 
ATOM     21  F   UNL     1      -3.735   0.798   6.193  1.00  0.00    -0.167 F 
ATOM     22  F   UNL     1      -3.302  -0.422   4.449  1.00  0.00    -0.167 F 
ENDBRANCH  18  19
ENDBRANCH   4   7
ENDBRANCH   2   3
ENDBRANCH   1   2
BRANCH   1  23
ATOM     23  C   UNL     1      -1.569   2.628  10.730  1.00  0.00     0.118 C 
BRANCH  23  24
ATOM     24  N   UNL     1      -2.881   2.526  11.364  1.00  0.00    -0.352 N 
ATOM     25  C   UNL     1      -3.228   2.087  12.614  1.00  0.00     0.251 C 
ATOM     26  H   UNL     1      -3.636   2.819  10.803  1.00  0.00     0.163 HD
ATOM     27  O   UNL     1      -4.399   1.803  12.861  1.00  0.00    -0.269 OA
BRANCH  25  28
ATOM     28  C   UNL     1      -2.200   1.955  13.662  1.00  0.00     0.039 A 
ATOM     29  C   UNL     1      -2.251   0.871  14.542  1.00  0.00     0.014 A 
ATOM     30  C   UNL     1      -1.201   2.922  13.792  1.00  0.00     0.014 A 
ATOM     31  C   UNL     1      -1.259   0.728  15.513  1.00  0.00     0.010 A 
ATOM     32  C   UNL     1      -0.160   2.724  14.687  1.00  0.00     0.010 A 
ATOM     33  C   UNL     1      -0.189   1.636  15.569  1.00  0.00    -0.014 A 
BRANCH  33  34
ATOM     34  C   UNL     1       0.896   1.490  16.567  1.00  0.00     0.031 A 
ATOM     35  C   UNL     1       1.111   2.566  17.596  1.00  0.00     0.074 A 
ATOM     36  C   UNL     1       1.720   0.426  16.505  1.00  0.00     0.049 A 
ATOM     37  N   UNL     1       2.048   2.664  18.503  1.00  0.00    -0.248 NA
ATOM     38  C   UNL     1       0.166   3.697  17.589  1.00  0.00     0.031 C 
ATOM     39  C   UNL     1       1.638  -0.652  15.517  1.00  0.00     0.029 A 
ATOM     40  N   UNL     1       2.795   0.080  17.284  1.00  0.00    -0.354 N 
ATOM     41  C   UNL     1       1.813   3.865  19.158  1.00  0.00     0.074 A 
ATOM     42  C   UNL     1       0.684   4.493  18.512  1.00  0.00     0.031 C 
ATOM     43  C   UNL     1       2.602  -1.552  15.767  1.00  0.00     0.029 A 
ATOM     44  C   UNL     1       3.396  -1.096  16.903  1.00  0.00     0.049 A 
ATOM     45  H   UNL     1       3.106   0.623  18.044  1.00  0.00     0.167 HD
ATOM     46  C   UNL     1       2.463   4.381  20.226  1.00  0.00     0.037 A 
ATOM     47  C   UNL     1       4.470  -1.729  17.411  1.00  0.00     0.037 A 
ATOM     48  C   UNL     1       3.556   3.727  20.892  1.00  0.00     0.049 A 
ATOM     49  C   UNL     1       5.173  -1.131  18.599  1.00  0.00     0.074 A 
ATOM     50  C   UNL     1       4.236   4.134  22.026  1.00  0.00     0.029 A 
ATOM     51  N   UNL     1       4.124   2.529  20.488  1.00  0.00    -0.354 N 
ATOM     52  N   UNL     1       4.895  -0.029  19.254  1.00  0.00    -0.248 NA
ATOM     53  C   UNL     1       6.335  -1.863  19.124  1.00  0.00     0.031 C 
ATOM     54  C   UNL     1       5.249   3.207  22.280  1.00  0.00     0.029 A 
ATOM     55  C   UNL     1       5.165   2.195  21.337  1.00  0.00     0.049 A 
ATOM     56  H   UNL     1       3.831   1.996  19.714  1.00  0.00     0.167 HD
ATOM     57  C   UNL     1       5.830   0.052  20.278  1.00  0.00     0.074 A 
ATOM     58  C   UNL     1       6.670  -1.121  20.171  1.00  0.00     0.031 C 
ATOM     59  C   UNL     1       5.982   1.015  21.218  1.00  0.00     0.037 A 
BRANCH  46  60
ATOM     60  C   UNL     1       2.002   5.701  20.767  1.00  0.00     0.057 A 
ATOM     61  C   UNL     1       0.796   5.826  21.470  1.00  0.00     0.134 A 
ATOM     62  C   UNL     1       2.816   6.837  20.671  1.00  0.00     0.134 A 
ATOM     63  F   UNL     1      -0.035   4.779  21.586  1.00  0.00    -0.206 F 
ATOM     64  C   UNL     1       0.417   7.034  22.057  1.00  0.00     0.040 A 
ATOM     65  C   UNL     1       2.459   8.043  21.276  1.00  0.00     0.040 A 
ATOM     66  F   UNL     1       3.984   6.784  20.013  1.00  0.00    -0.206 F 
ATOM     67  C   UNL     1       1.256   8.143  21.973  1.00  0.00     0.006 A 
ENDBRANCH  46  60
BRANCH  47  68
ATOM     68  C   UNL     1       4.935  -3.007  16.812  1.00  0.00     0.057 A 
ATOM     69  C   UNL     1       4.827  -4.215  17.510  1.00  0.00     0.134 A 
ATOM     70  C   UNL     1       5.500  -3.053  15.531  1.00  0.00     0.134 A 
ATOM     71  F   UNL     1       4.310  -4.236  18.747  1.00  0.00    -0.206 F 
ATOM     72  C   UNL     1       5.281  -5.419  16.966  1.00  0.00     0.040 A 
ATOM     73  C   UNL     1       5.932  -4.253  14.964  1.00  0.00     0.040 A 
ATOM     74  F   UNL     1       5.624  -1.932  14.805  1.00  0.00    -0.206 F 
ATOM     75  C   UNL     1       5.830  -5.440  15.686  1.00  0.00     0.006 A 
ENDBRANCH  47  68
BRANCH  59  76
ATOM     76  C   UNL     1       7.084   0.840  22.221  1.00  0.00     0.057 A 
ATOM     77  C   UNL     1       8.428   1.013  21.872  1.00  0.00     0.134 A 
ATOM     78  C   UNL     1       6.789   0.587  23.567  1.00  0.00     0.134 A 
ATOM     79  F   UNL     1       8.775   1.250  20.598  1.00  0.00    -0.206 F 
ATOM     80  C   UNL     1       9.444   0.928  22.826  1.00  0.00     0.040 A 
ATOM     81  C   UNL     1       7.793   0.529  24.534  1.00  0.00     0.040 A 
ATOM     82  F   UNL     1       5.519   0.425  23.969  1.00  0.00    -0.206 F 
ATOM     83  C   UNL     1       9.125   0.698  24.163  1.00  0.00     0.006 A 
ENDBRANCH  59  76
ENDBRANCH  33  34
ENDBRANCH  25  28
ENDBRANCH  23  24
ENDBRANCH   1  23
TORSDOF 11
