REMARK SMILES Cc1ccc(Cl)c(Nc2ccccc2C(=O)N[C@@H](C)C(=O)NCCCNC(=O)c2ccc(-c3c4nc(c(-c5c(F)cccc5F)c5ccc([nH]5)c(-c5c(F)cccc5F)c5nc(c(-c6c(F)cccc6F)c6ccc3[nH]6)C=C5)C=C4)cc2)c1Cl
REMARK SMILES IDX 23 1 22 2 20 3 21 4 18 6 19 7 17 8 15 9 16 10 14 12 9 13
REMARK SMILES IDX 10 14 11 15 13 16 12 17 8 18 7 20 1 21 2 22 3 23 83 24 4 25
REMARK SMILES IDX 84 26 5 27 6 28 24 29 25 30 26 31 27 32 28 34 29 35 30 36
REMARK SMILES IDX 82 37 31 38 81 39 32 40 33 41 34 42 75 43 35 44 80 45 74 46
REMARK SMILES IDX 76 47 36 48 79 49 73 50 72 51 37 53 63 54 46 55 62 56 47 57
REMARK SMILES IDX 50 58 61 59 77 60 48 61 49 62 60 64 78 65 51 66 38 67 39 68
REMARK SMILES IDX 44 69 40 70 41 71 43 72 45 73 42 74 64 75 65 76 70 77 66 78
REMARK SMILES IDX 67 79 69 80 71 81 68 82 52 83 53 84 58 85 54 86 55 87 57 88
REMARK SMILES IDX 59 89 56 90
REMARK H PARENT 22 5 17 11 8 19 26 33 76 52 50 63
REMARK Flexibility Score: inf
ROOT
ATOM      1  C   UNL     1      -1.914   1.717   3.296  1.00  0.00     0.117 C 
ENDROOT
BRANCH   1   2
ATOM      2  N   UNL     1      -1.846   1.062   1.997  1.00  0.00    -0.354 N 
ATOM      3  C   UNL     1      -0.806   0.201   1.758  1.00  0.00     0.242 C 
ATOM      4  O   UNL     1       0.289   0.687   1.473  1.00  0.00    -0.273 OA
ATOM      5  H   UNL     1      -2.529   1.232   1.309  1.00  0.00     0.163 HD
BRANCH   3   6
ATOM      6  C   UNL     1      -1.073  -1.324   1.813  1.00  0.00     0.168 C 
ATOM      7  C   UNL     1      -2.331  -1.716   2.572  1.00  0.00     0.041 C 
BRANCH   6   8
ATOM      8  N   UNL     1       0.123  -1.881   2.429  1.00  0.00    -0.340 N 
ATOM      9  C   UNL     1       1.304  -2.236   1.819  1.00  0.00     0.254 C 
ATOM     10  O   UNL     1       2.340  -1.942   2.424  1.00  0.00    -0.269 OA
ATOM     11  H   UNL     1       0.082  -2.022   3.403  1.00  0.00     0.164 HD
BRANCH   9  12
ATOM     12  C   UNL     1       1.390  -3.208   0.688  1.00  0.00     0.063 A 
ATOM     13  C   UNL     1       0.771  -3.189  -0.577  1.00  0.00     0.051 A 
ATOM     14  C   UNL     1       0.984  -4.298  -1.435  1.00  0.00     0.027 A 
ATOM     15  C   UNL     1       1.826  -5.357  -1.097  1.00  0.00     0.002 A 
ATOM     16  C   UNL     1       2.253  -4.288   1.003  1.00  0.00     0.016 A 
ATOM     17  C   UNL     1       2.480  -5.343   0.122  1.00  0.00     0.001 A 
BRANCH  13  18
ATOM     18  N   UNL     1       0.037  -2.143  -1.165  1.00  0.00    -0.352 N 
ATOM     19  H   UNL     1      -0.835  -2.439  -1.514  1.00  0.00     0.167 HD
BRANCH  18  20
ATOM     20  C   UNL     1       0.266  -0.758  -1.369  1.00  0.00     0.077 A 
ATOM     21  C   UNL     1       2.853   2.050  -0.935  1.00  0.00     0.046 C 
ATOM     22  C   UNL     1       1.575   1.320  -1.255  1.00  0.00    -0.030 A 
ATOM     23  C   UNL     1       0.425   2.071  -1.541  1.00  0.00     0.006 A 
ATOM     24  C   UNL     1       1.502  -0.094  -1.217  1.00  0.00     0.069 A 
ATOM     25  C   UNL     1      -0.788   1.436  -1.770  1.00  0.00     0.023 A 
ATOM     26  Cl  UNL     1       2.994  -0.978  -1.102  1.00  0.00    -0.082 Cl
ATOM     27  C   UNL     1      -0.865   0.047  -1.671  1.00  0.00     0.066 A 
ATOM     28  Cl  UNL     1      -2.430  -0.674  -1.896  1.00  0.00    -0.082 Cl
ENDBRANCH  18  20
ENDBRANCH  13  18
ENDBRANCH   9  12
ENDBRANCH   6   8
ENDBRANCH   3   6
ENDBRANCH   1   2
BRANCH   1  29
ATOM     29  C   UNL     1      -0.701   2.594   3.629  1.00  0.00     0.042 C 
BRANCH  29  30
ATOM     30  C   UNL     1      -0.403   3.676   2.596  1.00  0.00     0.118 C 
BRANCH  30  31
ATOM     31  N   UNL     1      -1.495   4.635   2.485  1.00  0.00    -0.352 N 
ATOM     32  C   UNL     1      -1.664   5.841   3.110  1.00  0.00     0.251 C 
ATOM     33  H   UNL     1      -2.218   4.377   1.869  1.00  0.00     0.163 HD
ATOM     34  O   UNL     1      -2.779   6.372   3.116  1.00  0.00    -0.269 OA
BRANCH  32  35
ATOM     35  C   UNL     1      -0.532   6.509   3.780  1.00  0.00     0.039 A 
ATOM     36  C   UNL     1      -0.732   7.097   5.032  1.00  0.00     0.014 A 
ATOM     37  C   UNL     1       0.711   6.609   3.150  1.00  0.00     0.014 A 
ATOM     38  C   UNL     1       0.329   7.742   5.673  1.00  0.00     0.010 A 
ATOM     39  C   UNL     1       1.785   7.189   3.820  1.00  0.00     0.010 A 
ATOM     40  C   UNL     1       1.602   7.774   5.082  1.00  0.00    -0.014 A 
BRANCH  40  41
ATOM     41  C   UNL     1       2.750   8.433   5.755  1.00  0.00     0.031 A 
ATOM     42  C   UNL     1       3.392   9.646   5.136  1.00  0.00     0.074 A 
ATOM     43  C   UNL     1       3.255   7.905   6.886  1.00  0.00     0.049 A 
ATOM     44  N   UNL     1       4.444  10.317   5.530  1.00  0.00    -0.248 NA
ATOM     45  C   UNL     1       2.785  10.155   3.896  1.00  0.00     0.031 C 
ATOM     46  C   UNL     1       2.753   6.707   7.560  1.00  0.00     0.029 A 
ATOM     47  N   UNL     1       4.313   8.305   7.663  1.00  0.00    -0.354 N 
ATOM     48  C   UNL     1       4.639  11.308   4.576  1.00  0.00     0.074 A 
ATOM     49  C   UNL     1       3.625  11.123   3.561  1.00  0.00     0.031 C 
ATOM     50  C   UNL     1       3.488   6.481   8.661  1.00  0.00     0.029 A 
ATOM     51  C   UNL     1       4.533   7.496   8.752  1.00  0.00     0.049 A 
ATOM     52  H   UNL     1       4.863   9.096   7.460  1.00  0.00     0.167 HD
ATOM     53  C   UNL     1       5.566  12.296   4.557  1.00  0.00     0.037 A 
ATOM     54  C   UNL     1       5.473   7.564   9.713  1.00  0.00     0.037 A 
ATOM     55  C   UNL     1       6.552  12.499   5.585  1.00  0.00     0.049 A 
ATOM     56  C   UNL     1       6.483   8.678   9.675  1.00  0.00     0.074 A 
ATOM     57  C   UNL     1       7.493  13.509   5.691  1.00  0.00     0.029 A 
ATOM     58  N   UNL     1       6.723  11.675   6.688  1.00  0.00    -0.354 N 
ATOM     59  N   UNL     1       6.614   9.648   8.803  1.00  0.00    -0.248 NA
ATOM     60  C   UNL     1       7.472   8.710  10.762  1.00  0.00     0.031 C 
ATOM     61  C   UNL     1       8.257  13.276   6.839  1.00  0.00     0.029 A 
ATOM     62  C   UNL     1       7.763  12.146   7.471  1.00  0.00     0.049 A 
ATOM     63  H   UNL     1       6.184  10.875   6.884  1.00  0.00     0.167 HD
ATOM     64  C   UNL     1       7.674  10.423   9.253  1.00  0.00     0.074 A 
ATOM     65  C   UNL     1       8.146   9.816  10.480  1.00  0.00     0.031 C 
ATOM     66  C   UNL     1       8.209  11.539   8.699  1.00  0.00     0.037 A 
BRANCH  53  67
ATOM     67  C   UNL     1       5.551  13.237   3.388  1.00  0.00     0.057 A 
ATOM     68  C   UNL     1       4.530  14.180   3.210  1.00  0.00     0.134 A 
ATOM     69  C   UNL     1       6.586  13.222   2.444  1.00  0.00     0.134 A 
ATOM     70  F   UNL     1       3.502  14.239   4.071  1.00  0.00    -0.206 F 
ATOM     71  C   UNL     1       4.524  15.055   2.123  1.00  0.00     0.040 A 
ATOM     72  C   UNL     1       6.605  14.110   1.367  1.00  0.00     0.040 A 
ATOM     73  F   UNL     1       7.599  12.350   2.557  1.00  0.00    -0.206 F 
ATOM     74  C   UNL     1       5.568  15.025   1.200  1.00  0.00     0.006 A 
ENDBRANCH  53  67
BRANCH  54  75
ATOM     75  C   UNL     1       5.487   6.569  10.813  1.00  0.00     0.057 A 
ATOM     76  C   UNL     1       5.130   6.934  12.116  1.00  0.00     0.134 A 
ATOM     77  C   UNL     1       5.864   5.239  10.595  1.00  0.00     0.134 A 
ATOM     78  F   UNL     1       4.777   8.198  12.390  1.00  0.00    -0.206 F 
ATOM     79  C   UNL     1       5.168   6.018  13.169  1.00  0.00     0.040 A 
ATOM     80  C   UNL     1       5.883   4.306  11.634  1.00  0.00     0.040 A 
ATOM     81  F   UNL     1       6.210   4.825   9.367  1.00  0.00    -0.206 F 
ATOM     82  C   UNL     1       5.542   4.697  12.927  1.00  0.00     0.006 A 
ENDBRANCH  54  75
BRANCH  66  83
ATOM     83  C   UNL     1       9.330  12.203   9.442  1.00  0.00     0.057 A 
ATOM     84  C   UNL     1      10.617  11.653   9.488  1.00  0.00     0.134 A 
ATOM     85  C   UNL     1       9.126  13.428  10.089  1.00  0.00     0.134 A 
ATOM     86  F   UNL     1      10.874  10.475   8.900  1.00  0.00    -0.206 F 
ATOM     87  C   UNL     1      11.656  12.287  10.171  1.00  0.00     0.040 A 
ATOM     88  C   UNL     1      10.162  14.085  10.753  1.00  0.00     0.040 A 
ATOM     89  F   UNL     1       7.918  14.013  10.075  1.00  0.00    -0.206 F 
ATOM     90  C   UNL     1      11.431  13.510  10.800  1.00  0.00     0.006 A 
ENDBRANCH  66  83
ENDBRANCH  40  41
ENDBRANCH  32  35
ENDBRANCH  30  31
ENDBRANCH  29  30
ENDBRANCH   1  29
TORSDOF 14
