REMARK SMILES CCc1ccsc1C(=O)N(CC(=O)NCCCNC(=O)c1ccc(-c2c3nc(c(-c4c(F)cccc4F)c4ccc([nH]4)c(-c4c(F)cccc4F)c4nc(c(-c5c(F)cccc5F)c5ccc2[nH]5)C=C4)C=C3)cc1)C(C)(C)C
REMARK SMILES IDX 15 1 14 2 12 3 13 4 11 6 10 7 8 8 9 9 7 10 3 11 4 12 5 13
REMARK SMILES IDX 6 14 2 15 1 16 75 17 76 18 77 19 78 20 16 21 17 22 18 23
REMARK SMILES IDX 19 24 20 26 21 27 22 28 74 29 23 30 73 31 24 32 25 33 26 34
REMARK SMILES IDX 67 35 27 36 72 37 66 38 68 39 28 40 71 41 65 42 64 43 29 45
REMARK SMILES IDX 55 46 38 47 54 48 39 49 42 50 53 51 69 52 40 53 41 54 52 56
REMARK SMILES IDX 70 57 43 58 30 59 31 60 36 61 32 62 33 63 35 64 37 65 34 66
REMARK SMILES IDX 56 67 57 68 62 69 58 70 59 71 61 72 63 73 60 74 44 75 45 76
REMARK SMILES IDX 50 77 46 78 47 79 49 80 51 81 48 82
REMARK H PARENT 14 5 18 25 68 44 42 55
REMARK Flexibility Score: inf
ROOT
ATOM      1  C   UNL     1      -0.795   1.301   4.046  1.00  0.00     0.117 C 
ENDROOT
BRANCH   1   2
ATOM      2  N   UNL     1      -1.556   0.116   3.705  1.00  0.00    -0.354 N 
ATOM      3  C   UNL     1      -1.908  -0.414   2.503  1.00  0.00     0.239 C 
ATOM      4  O   UNL     1      -2.258  -1.601   2.514  1.00  0.00    -0.273 OA
ATOM      5  H   UNL     1      -1.876  -0.397   4.483  1.00  0.00     0.163 HD
BRANCH   3   6
ATOM      6  C   UNL     1      -1.756   0.318   1.156  1.00  0.00     0.220 C 
BRANCH   6   7
ATOM      7  N   UNL     1      -2.228   1.684   1.056  1.00  0.00    -0.324 N 
BRANCH   7   8
ATOM      8  C   UNL     1      -1.373   2.825   1.008  1.00  0.00     0.265 C 
ATOM      9  O   UNL     1      -1.970   3.912   0.996  1.00  0.00    -0.268 OA
BRANCH   8  10
ATOM     10  C   UNL     1       0.141   2.861   0.997  1.00  0.00     0.095 A 
ATOM     11  C   UNL     1       1.288   2.041   1.120  1.00  0.00    -0.025 A 
ATOM     12  C   UNL     1       2.515   2.822   1.122  1.00  0.00     0.016 A 
ATOM     13  C   UNL     1       2.330   4.167   0.991  1.00  0.00     0.066 A 
ATOM     14  S   UNL     1       0.702   4.542   0.807  1.00  0.00    -0.138 S 
BRANCH  11  15
ATOM     15  C   UNL     1       1.492   0.553   1.300  1.00  0.00     0.034 C 
ATOM     16  C   UNL     1       1.593  -0.192  -0.025  1.00  0.00     0.009 C 
ENDBRANCH  11  15
ENDBRANCH   8  10
ENDBRANCH   7   8
BRANCH   7  17
ATOM     17  C   UNL     1      -3.744   1.880   0.922  1.00  0.00     0.035 C 
ATOM     18  C   UNL     1      -4.333   2.650   2.123  1.00  0.00     0.034 C 
ATOM     19  C   UNL     1      -4.088   2.613  -0.398  1.00  0.00     0.034 C 
ATOM     20  C   UNL     1      -4.558   0.552   0.864  1.00  0.00     0.034 C 
ENDBRANCH   7  17
ENDBRANCH   6   7
ENDBRANCH   3   6
ENDBRANCH   1   2
BRANCH   1  21
ATOM     21  C   UNL     1      -1.599   2.396   4.724  1.00  0.00     0.042 C 
BRANCH  21  22
ATOM     22  C   UNL     1      -2.186   1.991   6.068  1.00  0.00     0.118 C 
BRANCH  22  23
ATOM     23  N   UNL     1      -1.163   1.821   7.090  1.00  0.00    -0.352 N 
ATOM     24  C   UNL     1      -1.050   2.415   8.321  1.00  0.00     0.251 C 
ATOM     25  H   UNL     1      -0.446   1.186   6.864  1.00  0.00     0.163 HD
ATOM     26  O   UNL     1      -0.007   2.283   8.966  1.00  0.00    -0.269 OA
BRANCH  24  27
ATOM     27  C   UNL     1      -2.156   3.224   8.875  1.00  0.00     0.039 A 
ATOM     28  C   UNL     1      -1.852   4.413   9.546  1.00  0.00     0.014 A 
ATOM     29  C   UNL     1      -3.486   2.807   8.763  1.00  0.00     0.014 A 
ATOM     30  C   UNL     1      -2.882   5.209  10.052  1.00  0.00     0.010 A 
ATOM     31  C   UNL     1      -4.514   3.638   9.201  1.00  0.00     0.010 A 
ATOM     32  C   UNL     1      -4.223   4.843   9.857  1.00  0.00    -0.014 A 
BRANCH  32  33
ATOM     33  C   UNL     1      -5.331   5.709  10.330  1.00  0.00     0.031 A 
ATOM     34  C   UNL     1      -6.277   5.225  11.392  1.00  0.00     0.074 A 
ATOM     35  C   UNL     1      -5.531   6.907   9.748  1.00  0.00     0.049 A 
ATOM     36  N   UNL     1      -7.331   5.818  11.894  1.00  0.00    -0.248 NA
ATOM     37  C   UNL     1      -6.025   3.883  11.939  1.00  0.00     0.031 C 
ATOM     38  C   UNL     1      -4.729   7.461   8.657  1.00  0.00     0.029 A 
ATOM     39  N   UNL     1      -6.484   7.866   9.983  1.00  0.00    -0.354 N 
ATOM     40  C   UNL     1      -7.877   4.916  12.799  1.00  0.00     0.074 A 
ATOM     41  C   UNL     1      -7.068   3.717  12.739  1.00  0.00     0.031 C 
ATOM     42  C   UNL     1      -5.215   8.668   8.325  1.00  0.00     0.029 A 
ATOM     43  C   UNL     1      -6.375   8.960   9.161  1.00  0.00     0.049 A 
ATOM     44  H   UNL     1      -7.178   7.778  10.675  1.00  0.00     0.167 HD
ATOM     45  C   UNL     1      -8.941   5.079  13.620  1.00  0.00     0.037 A 
ATOM     46  C   UNL     1      -7.129  10.072   9.083  1.00  0.00     0.037 A 
ATOM     47  C   UNL     1      -9.728   6.282  13.699  1.00  0.00     0.049 A 
ATOM     48  C   UNL     1      -8.283  10.249  10.027  1.00  0.00     0.074 A 
ATOM     49  C   UNL     1     -10.768   6.578  14.562  1.00  0.00     0.029 A 
ATOM     50  N   UNL     1      -9.563   7.387  12.877  1.00  0.00    -0.354 N 
ATOM     51  N   UNL     1      -8.734   9.426  10.942  1.00  0.00    -0.248 NA
ATOM     52  C   UNL     1      -9.026  11.513   9.935  1.00  0.00     0.031 C 
ATOM     53  C   UNL     1     -11.261   7.847  14.234  1.00  0.00     0.029 A 
ATOM     54  C   UNL     1     -10.500   8.357  13.194  1.00  0.00     0.049 A 
ATOM     55  H   UNL     1      -8.881   7.469  12.171  1.00  0.00     0.167 HD
ATOM     56  C   UNL     1      -9.804  10.073  11.543  1.00  0.00     0.074 A 
ATOM     57  C   UNL     1      -9.923  11.367  10.902  1.00  0.00     0.031 C 
ATOM     58  C   UNL     1     -10.616   9.635  12.537  1.00  0.00     0.037 A 
BRANCH  45  59
ATOM     59  C   UNL     1      -9.311   3.918  14.498  1.00  0.00     0.057 A 
ATOM     60  C   UNL     1      -8.506   3.517  15.574  1.00  0.00     0.134 A 
ATOM     61  C   UNL     1     -10.486   3.193  14.267  1.00  0.00     0.134 A 
ATOM     62  F   UNL     1      -7.361   4.162  15.842  1.00  0.00    -0.206 F 
ATOM     63  C   UNL     1      -8.837   2.414  16.362  1.00  0.00     0.040 A 
ATOM     64  C   UNL     1     -10.842   2.105  15.066  1.00  0.00     0.040 A 
ATOM     65  F   UNL     1     -11.306   3.527  13.259  1.00  0.00    -0.206 F 
ATOM     66  C   UNL     1     -10.010   1.706  16.111  1.00  0.00     0.006 A 
ENDBRANCH  45  59
BRANCH  46  67
ATOM     67  C   UNL     1      -6.787  11.114   8.086  1.00  0.00     0.057 A 
ATOM     68  C   UNL     1      -6.179  12.313   8.473  1.00  0.00     0.134 A 
ATOM     69  C   UNL     1      -7.021  10.917   6.720  1.00  0.00     0.134 A 
ATOM     70  F   UNL     1      -5.946  12.562   9.770  1.00  0.00    -0.206 F 
ATOM     71  C   UNL     1      -5.819  13.284   7.538  1.00  0.00     0.040 A 
ATOM     72  C   UNL     1      -6.648  11.871   5.771  1.00  0.00     0.040 A 
ATOM     73  F   UNL     1      -7.592   9.784   6.287  1.00  0.00    -0.206 F 
ATOM     74  C   UNL     1      -6.047  13.060   6.181  1.00  0.00     0.006 A 
ENDBRANCH  46  67
BRANCH  58  75
ATOM     75  C   UNL     1     -11.701  10.565  12.991  1.00  0.00     0.057 A 
ATOM     76  C   UNL     1     -12.839  10.804  12.210  1.00  0.00     0.134 A 
ATOM     77  C   UNL     1     -11.622  11.206  14.234  1.00  0.00     0.134 A 
ATOM     78  F   UNL     1     -12.969  10.231  11.004  1.00  0.00    -0.206 F 
ATOM     79  C   UNL     1     -13.851  11.664  12.641  1.00  0.00     0.040 A 
ATOM     80  C   UNL     1     -12.638  12.049  14.685  1.00  0.00     0.040 A 
ATOM     81  F   UNL     1     -10.561  11.014  15.032  1.00  0.00    -0.206 F 
ATOM     82  C   UNL     1     -13.754  12.285  13.885  1.00  0.00     0.006 A 
ENDBRANCH  58  75
ENDBRANCH  32  33
ENDBRANCH  24  27
ENDBRANCH  22  23
ENDBRANCH  21  22
ENDBRANCH   1  21
TORSDOF 15
