REMARK SMILES C[C@@H]1[C@@H](C(=O)NCCCNC(=O)c2ccc(-c3c4nc(c(-c5c(F)cccc5F)c5ccc([nH]5)c(-c5c(F)cccc5F)c5nc(c(-c6c(F)cccc6F)c6ccc3[nH]6)C=C5)C=C4)cc2)CCN1C(=O)N[C@@H](C)Cc1ccco1
REMARK SMILES IDX 7 1 6 2 4 3 5 4 3 6 1 7 2 8 69 9 67 10 68 11 70 12 71 13
REMARK SMILES IDX 72 14 73 16 74 17 75 18 76 19 77 20 80 21 78 22 79 23 8 24
REMARK SMILES IDX 9 25 10 26 11 27 12 29 13 30 14 31 66 32 15 33 65 34 16 35
REMARK SMILES IDX 17 36 18 37 59 38 19 39 64 40 58 41 60 42 20 43 63 44 57 45
REMARK SMILES IDX 56 46 21 48 47 49 30 50 46 51 31 52 34 53 45 54 61 55 32 56
REMARK SMILES IDX 33 57 44 59 62 60 35 61 22 62 23 63 28 64 24 65 25 66 27 67
REMARK SMILES IDX 29 68 26 69 48 70 49 71 54 72 50 73 51 74 53 75 55 76 52 77
REMARK SMILES IDX 36 78 37 79 42 80 38 81 39 82 41 83 43 84 40 85
REMARK H PARENT 6 5 72 15 10 28 60 47 34 58
REMARK Flexibility Score: inf
ROOT
ATOM      1  C   UNL     1      -2.836   2.749  -0.684  1.00  0.00     0.117 C 
ENDROOT
BRANCH   1   2
ATOM      2  N   UNL     1      -2.028   2.076  -1.676  1.00  0.00    -0.356 N 
ATOM      3  C   UNL     1      -0.860   1.402  -1.543  1.00  0.00     0.225 C 
ATOM      4  O   UNL     1      -0.250   1.175  -2.587  1.00  0.00    -0.275 OA
ATOM      5  H   UNL     1      -2.383   2.112  -2.594  1.00  0.00     0.163 HD
BRANCH   3   6
ATOM      6  C   UNL     1      -0.315   1.062  -0.162  1.00  0.00     0.102 C 
ATOM      7  C   UNL     1       1.848   0.209   0.825  1.00  0.00     0.032 C 
ATOM      8  C   UNL     1       0.803  -0.003  -0.275  1.00  0.00     0.096 C 
ATOM      9  N   UNL     1       0.110  -1.291  -0.117  1.00  0.00    -0.321 N 
ATOM     10  C   UNL     1      -1.310   0.371   0.772  1.00  0.00     0.037 C 
ATOM     11  C   UNL     1      -1.250  -1.076   0.339  1.00  0.00     0.122 C 
BRANCH   9  12
ATOM     12  C   UNL     1       0.459  -2.568  -0.419  1.00  0.00     0.317 C 
ATOM     13  O   UNL     1      -0.323  -3.505  -0.218  1.00  0.00    -0.249 OA
ATOM     14  N   UNL     1       1.644  -2.921  -0.933  1.00  0.00    -0.335 N 
ATOM     15  H   UNL     1       1.743  -3.900  -0.983  1.00  0.00     0.165 HD
BRANCH  14  16
ATOM     16  C   UNL     1       2.829  -2.231  -1.440  1.00  0.00     0.088 C 
ATOM     17  C   UNL     1       4.042  -2.709  -0.641  1.00  0.00     0.031 C 
BRANCH  16  18
ATOM     18  C   UNL     1       3.045  -2.483  -2.946  1.00  0.00     0.100 C 
BRANCH  18  19
ATOM     19  C   UNL     1       1.840  -2.185  -3.765  1.00  0.00     0.105 A 
ATOM     20  C   UNL     1       0.804  -2.966  -4.234  1.00  0.00     0.045 A 
ATOM     21  O   UNL     1       1.666  -0.892  -4.153  1.00  0.00    -0.469 OA
ATOM     22  C   UNL     1      -0.069  -2.095  -4.926  1.00  0.00     0.042 A 
ATOM     23  C   UNL     1       0.495  -0.844  -4.842  1.00  0.00     0.195 A 
ENDBRANCH  18  19
ENDBRANCH  16  18
ENDBRANCH  14  16
ENDBRANCH   9  12
ENDBRANCH   3   6
ENDBRANCH   1   2
BRANCH   1  24
ATOM     24  C   UNL     1      -3.113   4.190  -1.072  1.00  0.00     0.042 C 
BRANCH  24  25
ATOM     25  C   UNL     1      -3.782   4.346  -2.429  1.00  0.00     0.118 C 
BRANCH  25  26
ATOM     26  N   UNL     1      -5.096   3.721  -2.492  1.00  0.00    -0.352 N 
ATOM     27  C   UNL     1      -6.347   4.293  -2.534  1.00  0.00     0.251 C 
ATOM     28  H   UNL     1      -5.089   2.737  -2.506  1.00  0.00     0.163 HD
ATOM     29  O   UNL     1      -7.345   3.600  -2.395  1.00  0.00    -0.269 OA
BRANCH  27  30
ATOM     30  C   UNL     1      -6.476   5.755  -2.712  1.00  0.00     0.039 A 
ATOM     31  C   UNL     1      -7.395   6.456  -1.928  1.00  0.00     0.014 A 
ATOM     32  C   UNL     1      -5.676   6.435  -3.629  1.00  0.00     0.014 A 
ATOM     33  C   UNL     1      -7.441   7.849  -2.004  1.00  0.00     0.010 A 
ATOM     34  C   UNL     1      -5.635   7.822  -3.613  1.00  0.00     0.010 A 
ATOM     35  C   UNL     1      -6.525   8.546  -2.808  1.00  0.00    -0.014 A 
BRANCH  35  36
ATOM     36  C   UNL     1      -6.489  10.030  -2.840  1.00  0.00     0.031 A 
ATOM     37  C   UNL     1      -6.718  10.760  -4.137  1.00  0.00     0.074 A 
ATOM     38  C   UNL     1      -6.180  10.717  -1.723  1.00  0.00     0.049 A 
ATOM     39  N   UNL     1      -6.647  12.043  -4.388  1.00  0.00    -0.248 NA
ATOM     40  C   UNL     1      -7.034   9.937  -5.316  1.00  0.00     0.031 C 
ATOM     41  C   UNL     1      -5.883  10.126  -0.416  1.00  0.00     0.029 A 
ATOM     42  N   UNL     1      -6.056  12.067  -1.508  1.00  0.00    -0.354 N 
ATOM     43  C   UNL     1      -6.893  12.174  -5.749  1.00  0.00     0.074 A 
ATOM     44  C   UNL     1      -7.045  10.839  -6.284  1.00  0.00     0.031 C 
ATOM     45  C   UNL     1      -5.648  11.107   0.469  1.00  0.00     0.029 A 
ATOM     46  C   UNL     1      -5.729  12.393  -0.214  1.00  0.00     0.049 A 
ATOM     47  H   UNL     1      -6.190  12.739  -2.216  1.00  0.00     0.167 HD
ATOM     48  C   UNL     1      -7.013  13.305  -6.483  1.00  0.00     0.037 A 
ATOM     49  C   UNL     1      -5.513  13.594   0.355  1.00  0.00     0.037 A 
ATOM     50  C   UNL     1      -6.888  14.632  -5.943  1.00  0.00     0.049 A 
ATOM     51  C   UNL     1      -5.638  14.835  -0.485  1.00  0.00     0.074 A 
ATOM     52  C   UNL     1      -7.048  15.844  -6.590  1.00  0.00     0.029 A 
ATOM     53  N   UNL     1      -6.569  14.920  -4.624  1.00  0.00    -0.354 N 
ATOM     54  N   UNL     1      -5.940  14.947  -1.756  1.00  0.00    -0.248 NA
ATOM     55  C   UNL     1      -5.399  16.118   0.190  1.00  0.00     0.031 C 
ATOM     56  C   UNL     1      -6.776  16.866  -5.676  1.00  0.00     0.029 A 
ATOM     57  C   UNL     1      -6.504  16.291  -4.444  1.00  0.00     0.049 A 
ATOM     58  H   UNL     1      -6.412  14.249  -3.921  1.00  0.00     0.167 HD
ATOM     59  C   UNL     1      -5.958  16.310  -2.025  1.00  0.00     0.074 A 
ATOM     60  C   UNL     1      -5.651  16.985  -0.780  1.00  0.00     0.031 C 
ATOM     61  C   UNL     1      -6.207  16.947  -3.196  1.00  0.00     0.037 A 
BRANCH  48  62
ATOM     62  C   UNL     1      -7.302  13.151  -7.949  1.00  0.00     0.057 A 
ATOM     63  C   UNL     1      -8.532  12.665  -8.415  1.00  0.00     0.134 A 
ATOM     64  C   UNL     1      -6.351  13.519  -8.909  1.00  0.00     0.134 A 
ATOM     65  F   UNL     1      -9.483  12.281  -7.549  1.00  0.00    -0.206 F 
ATOM     66  C   UNL     1      -8.794  12.523  -9.778  1.00  0.00     0.040 A 
ATOM     67  C   UNL     1      -6.613  13.411 -10.276  1.00  0.00     0.040 A 
ATOM     68  F   UNL     1      -5.154  13.996  -8.535  1.00  0.00    -0.206 F 
ATOM     69  C   UNL     1      -7.835  12.905 -10.714  1.00  0.00     0.006 A 
ENDBRANCH  48  62
BRANCH  49  70
ATOM     70  C   UNL     1      -5.181  13.687   1.800  1.00  0.00     0.057 A 
ATOM     71  C   UNL     1      -6.083  14.246   2.714  1.00  0.00     0.134 A 
ATOM     72  C   UNL     1      -3.954  13.236   2.302  1.00  0.00     0.134 A 
ATOM     73  F   UNL     1      -7.268  14.712   2.292  1.00  0.00    -0.206 F 
ATOM     74  C   UNL     1      -5.769  14.375   4.068  1.00  0.00     0.040 A 
ATOM     75  C   UNL     1      -3.638  13.332   3.658  1.00  0.00     0.040 A 
ATOM     76  F   UNL     1      -3.049  12.681   1.482  1.00  0.00    -0.206 F 
ATOM     77  C   UNL     1      -4.544  13.912   4.544  1.00  0.00     0.006 A 
ENDBRANCH  49  70
BRANCH  61  78
ATOM     78  C   UNL     1      -6.202  18.448  -3.178  1.00  0.00     0.057 A 
ATOM     79  C   UNL     1      -5.020  19.185  -3.034  1.00  0.00     0.134 A 
ATOM     80  C   UNL     1      -7.394  19.164  -3.350  1.00  0.00     0.134 A 
ATOM     81  F   UNL     1      -3.846  18.561  -2.854  1.00  0.00    -0.206 F 
ATOM     82  C   UNL     1      -5.027  20.581  -3.037  1.00  0.00     0.040 A 
ATOM     83  C   UNL     1      -7.410  20.558  -3.385  1.00  0.00     0.040 A 
ATOM     84  F   UNL     1      -8.561  18.519  -3.503  1.00  0.00    -0.206 F 
ATOM     85  C   UNL     1      -6.224  21.271  -3.220  1.00  0.00     0.006 A 
ENDBRANCH  61  78
ENDBRANCH  35  36
ENDBRANCH  27  30
ENDBRANCH  25  26
ENDBRANCH  24  25
ENDBRANCH   1  24
TORSDOF 14
