REMARK SMILES C[C@H](C(=O)NCCCNC(=O)c1ccc(-c2c3nc(c(-c4c(F)cccc4F)c4ccc([nH]4)c(-c4c(F)cccc4F)c4nc(c(-c5c(F)cccc5F)c5ccc2[nH]5)C=C4)C=C3)cc1)n1ccc(C(=O)N(C)Cc2cnn(C)c2)n1
REMARK SMILES IDX 3 1 4 2 5 3 2 5 1 6 66 7 67 8 81 9 68 10 69 11 70 12 71 13
REMARK SMILES IDX 72 14 73 15 74 16 75 17 76 18 80 19 77 20 78 21 79 22 6 23
REMARK SMILES IDX 7 24 8 25 9 26 10 27 11 29 12 30 13 31 65 32 14 33 64 34
REMARK SMILES IDX 15 35 16 36 17 37 58 38 18 39 63 40 57 41 59 42 19 43 62 44
REMARK SMILES IDX 56 45 55 46 20 48 46 49 29 50 45 51 30 52 33 53 44 54 60 55
REMARK SMILES IDX 31 56 32 57 43 59 61 60 34 61 21 62 22 63 27 64 23 65 24 66
REMARK SMILES IDX 26 67 28 68 25 69 47 70 48 71 53 72 49 73 50 74 52 75 54 76
REMARK SMILES IDX 51 77 35 78 36 79 41 80 37 81 38 82 40 83 42 84 39 85
REMARK H PARENT 5 4 9 28 59 47 33 58
REMARK Flexibility Score: inf
ROOT
ATOM      1  C   UNL     1       1.083  -0.217   0.073  1.00  0.00     0.244 C 
ATOM      2  O   UNL     1       1.809  -0.037  -0.913  1.00  0.00    -0.273 OA
ATOM      3  N   UNL     1       1.022   0.805   0.975  1.00  0.00    -0.354 N 
ATOM      4  H   UNL     1       1.654   1.540   0.804  1.00  0.00     0.163 HD
ENDROOT
BRANCH   1   5
ATOM      5  C   UNL     1       0.403  -1.566   0.281  1.00  0.00     0.193 C 
ATOM      6  C   UNL     1       0.874  -2.253   1.561  1.00  0.00     0.044 C 
BRANCH   5   7
ATOM      7  N   UNL     1      -1.055  -1.552   0.162  1.00  0.00    -0.260 N 
ATOM      8  C   UNL     1      -1.855  -2.660   0.128  1.00  0.00     0.110 A 
ATOM      9  N   UNL     1      -1.756  -0.406   0.181  1.00  0.00    -0.167 NA
ATOM     10  C   UNL     1      -3.141  -2.194   0.229  1.00  0.00     0.056 A 
ATOM     11  C   UNL     1      -3.043  -0.772   0.275  1.00  0.00     0.150 A 
BRANCH  11  12
ATOM     12  C   UNL     1      -4.197   0.135   0.457  1.00  0.00     0.274 C 
ATOM     13  O   UNL     1      -5.271  -0.363   0.812  1.00  0.00    -0.267 OA
BRANCH  12  14
ATOM     14  N   UNL     1      -4.115   1.517   0.218  1.00  0.00    -0.336 N 
ATOM     15  C   UNL     1      -2.936   2.297  -0.135  1.00  0.00     0.147 C 
BRANCH  14  16
ATOM     16  C   UNL     1      -5.360   2.275   0.313  1.00  0.00     0.158 C 
BRANCH  16  17
ATOM     17  C   UNL     1      -6.091   2.249  -0.989  1.00  0.00     0.009 A 
ATOM     18  C   UNL     1      -6.491   1.117  -1.741  1.00  0.00     0.140 A 
ATOM     19  C   UNL     1      -6.592   3.313  -1.716  1.00  0.00     0.113 A 
ATOM     20  N   UNL     1      -7.175   1.438  -2.841  1.00  0.00    -0.181 NA
ATOM     21  N   UNL     1      -7.243   2.777  -2.789  1.00  0.00    -0.275 N 
ATOM     22  C   UNL     1      -8.002   3.478  -3.795  1.00  0.00     0.173 C 
ENDBRANCH  16  17
ENDBRANCH  14  16
ENDBRANCH  12  14
ENDBRANCH  11  12
ENDBRANCH   5   7
ENDBRANCH   1   5
BRANCH   3  23
ATOM     23  C   UNL     1       0.182   0.991   2.146  1.00  0.00     0.117 C 
BRANCH  23  24
ATOM     24  C   UNL     1       0.919   0.801   3.461  1.00  0.00     0.042 C 
BRANCH  24  25
ATOM     25  C   UNL     1       2.138   1.688   3.643  1.00  0.00     0.118 C 
BRANCH  25  26
ATOM     26  N   UNL     1       1.810   3.097   3.778  1.00  0.00    -0.352 N 
ATOM     27  C   UNL     1       2.092   3.978   4.791  1.00  0.00     0.251 C 
ATOM     28  H   UNL     1       1.305   3.480   3.024  1.00  0.00     0.163 HD
ATOM     29  O   UNL     1       1.601   5.107   4.760  1.00  0.00    -0.269 OA
BRANCH  27  30
ATOM     30  C   UNL     1       2.953   3.587   5.933  1.00  0.00     0.039 A 
ATOM     31  C   UNL     1       2.624   4.055   7.210  1.00  0.00     0.014 A 
ATOM     32  C   UNL     1       4.094   2.800   5.761  1.00  0.00     0.014 A 
ATOM     33  C   UNL     1       3.406   3.693   8.311  1.00  0.00     0.010 A 
ATOM     34  C   UNL     1       4.815   2.361   6.869  1.00  0.00     0.010 A 
ATOM     35  C   UNL     1       4.495   2.821   8.154  1.00  0.00    -0.014 A 
BRANCH  35  36
ATOM     36  C   UNL     1       5.342   2.426   9.309  1.00  0.00     0.031 A 
ATOM     37  C   UNL     1       6.798   2.809   9.339  1.00  0.00     0.074 A 
ATOM     38  C   UNL     1       4.824   1.684  10.306  1.00  0.00     0.049 A 
ATOM     39  N   UNL     1       7.718   2.506  10.221  1.00  0.00    -0.248 NA
ATOM     40  C   UNL     1       7.295   3.613   8.210  1.00  0.00     0.031 C 
ATOM     41  C   UNL     1       3.443   1.203  10.378  1.00  0.00     0.029 A 
ATOM     42  N   UNL     1       5.404   1.196  11.451  1.00  0.00    -0.354 N 
ATOM     43  C   UNL     1       8.898   3.062   9.743  1.00  0.00     0.074 A 
ATOM     44  C   UNL     1       8.592   3.669   8.466  1.00  0.00     0.031 C 
ATOM     45  C   UNL     1       3.278   0.510  11.516  1.00  0.00     0.029 A 
ATOM     46  C   UNL     1       4.545   0.471  12.240  1.00  0.00     0.049 A 
ATOM     47  H   UNL     1       6.348   1.352  11.684  1.00  0.00     0.167 HD
ATOM     48  C   UNL     1      10.121   3.092  10.324  1.00  0.00     0.037 A 
ATOM     49  C   UNL     1       4.755  -0.152  13.415  1.00  0.00     0.037 A 
ATOM     50  C   UNL     1      10.420   2.521  11.611  1.00  0.00     0.049 A 
ATOM     51  C   UNL     1       6.113  -0.080  14.056  1.00  0.00     0.074 A 
ATOM     52  C   UNL     1      11.617   2.537  12.306  1.00  0.00     0.029 A 
ATOM     53  N   UNL     1       9.507   1.838  12.400  1.00  0.00    -0.354 N 
ATOM     54  N   UNL     1       7.206   0.495  13.617  1.00  0.00    -0.248 NA
ATOM     55  C   UNL     1       6.262  -0.731  15.366  1.00  0.00     0.031 C 
ATOM     56  C   UNL     1      11.436   1.838  13.504  1.00  0.00     0.029 A 
ATOM     57  C   UNL     1      10.115   1.425  13.574  1.00  0.00     0.049 A 
ATOM     58  H   UNL     1       8.567   1.671  12.162  1.00  0.00     0.167 HD
ATOM     59  C   UNL     1       8.160   0.308  14.610  1.00  0.00     0.074 A 
ATOM     60  C   UNL     1       7.514  -0.427  15.677  1.00  0.00     0.031 C 
ATOM     61  C   UNL     1       9.453   0.711  14.636  1.00  0.00     0.037 A 
BRANCH  48  62
ATOM     62  C   UNL     1      11.224   3.778   9.572  1.00  0.00     0.057 A 
ATOM     63  C   UNL     1      11.245   5.169   9.401  1.00  0.00     0.134 A 
ATOM     64  C   UNL     1      12.284   3.044   9.025  1.00  0.00     0.134 A 
ATOM     65  F   UNL     1      10.252   5.929   9.887  1.00  0.00    -0.206 F 
ATOM     66  C   UNL     1      12.264   5.802   8.687  1.00  0.00     0.040 A 
ATOM     67  C   UNL     1      13.323   3.669   8.334  1.00  0.00     0.040 A 
ATOM     68  F   UNL     1      12.329   1.710   9.156  1.00  0.00    -0.206 F 
ATOM     69  C   UNL     1      13.311   5.051   8.156  1.00  0.00     0.006 A 
ENDBRANCH  48  62
BRANCH  49  70
ATOM     70  C   UNL     1       3.640  -0.867  14.084  1.00  0.00     0.057 A 
ATOM     71  C   UNL     1       3.051  -0.357  15.247  1.00  0.00     0.134 A 
ATOM     72  C   UNL     1       3.143  -2.077  13.586  1.00  0.00     0.134 A 
ATOM     73  F   UNL     1       3.497   0.790  15.781  1.00  0.00    -0.206 F 
ATOM     74  C   UNL     1       2.022  -1.033  15.903  1.00  0.00     0.040 A 
ATOM     75  C   UNL     1       2.099  -2.753  14.219  1.00  0.00     0.040 A 
ATOM     76  F   UNL     1       3.659  -2.614  12.471  1.00  0.00    -0.206 F 
ATOM     77  C   UNL     1       1.540  -2.234  15.386  1.00  0.00     0.006 A 
ENDBRANCH  49  70
BRANCH  61  78
ATOM     78  C   UNL     1      10.240   0.416  15.879  1.00  0.00     0.057 A 
ATOM     79  C   UNL     1      10.670  -0.878  16.197  1.00  0.00     0.134 A 
ATOM     80  C   UNL     1      10.598   1.451  16.753  1.00  0.00     0.134 A 
ATOM     81  F   UNL     1      10.350  -1.914  15.407  1.00  0.00    -0.206 F 
ATOM     82  C   UNL     1      11.406  -1.137  17.354  1.00  0.00     0.040 A 
ATOM     83  C   UNL     1      11.355   1.208  17.899  1.00  0.00     0.040 A 
ATOM     84  F   UNL     1      10.226   2.715  16.501  1.00  0.00    -0.206 F 
ATOM     85  C   UNL     1      11.755  -0.090  18.206  1.00  0.00     0.006 A 
ENDBRANCH  61  78
ENDBRANCH  35  36
ENDBRANCH  27  30
ENDBRANCH  25  26
ENDBRANCH  24  25
ENDBRANCH  23  24
ENDBRANCH   3  23
TORSDOF 15
