REMARK SMILES O=C(C[C@H](NC(=O)[C@]12C[C@H]3C[C@H](C[C@H](C3)C1)C2)c1cccc([N+](=O)[O-])c1)NCCCNC(=O)c1ccc(-c2c3nc(c(-c4c(F)cccc4F)c4ccc([nH]4)c(-c4c(F)cccc4F)c4nc(c(-c5c(F)cccc5F)c5ccc2[nH]5)C=C4)C=C3)cc1
REMARK SMILES IDX 28 1 27 2 1 3 2 4 3 6 4 7 18 8 19 9 26 10 20 11 22 12 21 13
REMARK SMILES IDX 23 14 24 15 25 16 5 17 6 18 7 20 8 21 9 22 16 23 17 24 10 25
REMARK SMILES IDX 14 26 12 27 11 28 15 29 13 30 29 31 30 32 31 33 32 34 33 36
REMARK SMILES IDX 34 37 35 38 87 39 36 40 86 41 37 42 38 43 39 44 80 45 40 46
REMARK SMILES IDX 85 47 79 48 81 49 41 50 84 51 78 52 77 53 42 55 68 56 51 57
REMARK SMILES IDX 67 58 52 59 55 60 66 61 82 62 53 63 54 64 65 66 83 67 56 68
REMARK SMILES IDX 43 69 44 70 49 71 45 72 46 73 48 74 50 75 47 76 69 77 70 78
REMARK SMILES IDX 75 79 71 80 72 81 74 82 76 83 73 84 57 85 58 86 63 87 59 88
REMARK SMILES IDX 60 89 62 90 64 91 61 92
REMARK H PARENT 27 5 5 19 31 35 81 54 55 65
REMARK Flexibility Score: inf
ROOT
ATOM      1  C   UNL     1       2.270  -1.115  -3.073  1.00  0.00     0.117 C 
ENDROOT
BRANCH   1   2
ATOM      2  N   UNL     1       2.876  -1.613  -1.852  1.00  0.00    -0.356 N 
ATOM      3  O   UNL     1       5.005  -1.157  -2.509  1.00  0.00    -0.275 OA
ATOM      4  C   UNL     1       4.219  -1.474  -1.616  1.00  0.00     0.222 C 
ATOM      5  H   UNL     1       2.312  -2.059  -1.180  1.00  0.00     0.163 HD
BRANCH   4   6
ATOM      6  C   UNL     1       4.734  -1.821  -0.233  1.00  0.00     0.129 C 
BRANCH   6   7
ATOM      7  C   UNL     1       3.825  -1.537   0.976  1.00  0.00     0.122 C 
BRANCH   7   8
ATOM      8  C   UNL     1       4.412  -2.079   2.287  1.00  0.00    -0.018 A 
ATOM      9  C   UNL     1       4.733  -3.448   2.387  1.00  0.00     0.006 A 
ATOM     10  C   UNL     1       4.678  -1.271   3.402  1.00  0.00     0.091 A 
ATOM     11  C   UNL     1       5.378  -3.969   3.514  1.00  0.00     0.007 A 
ATOM     12  C   UNL     1       5.391  -1.778   4.502  1.00  0.00     0.269 A 
ATOM     13  C   UNL     1       5.739  -3.129   4.564  1.00  0.00     0.085 A 
BRANCH  12  14
ATOM     14  N   UNL     1       5.837  -0.864   5.562  1.00  0.00     0.062 N 
ATOM     15  O   UNL     1       6.373  -1.361   6.563  1.00  0.00    -0.258 OA
ATOM     16  O   UNL     1       5.675   0.351   5.383  1.00  0.00    -0.258 OA
ENDBRANCH  12  14
ENDBRANCH   7   8
BRANCH   7  17
ATOM     17  N   UNL     1       3.227  -0.196   1.091  1.00  0.00    -0.348 N 
ATOM     18  C   UNL     1       3.578   1.113   1.138  1.00  0.00     0.226 C 
ATOM     19  H   UNL     1       2.248  -0.276   1.154  1.00  0.00     0.164 HD
ATOM     20  O   UNL     1       2.621   1.864   1.377  1.00  0.00    -0.274 OA
BRANCH  18  21
ATOM     21  C   UNL     1       4.975   1.710   0.873  1.00  0.00     0.050 C 
ATOM     22  C   UNL     1       6.098   1.041   1.684  1.00  0.00     0.020 C 
ATOM     23  C   UNL     1       4.987   3.222   1.276  1.00  0.00     0.020 C 
ATOM     24  C   UNL     1       5.287   1.678  -0.633  1.00  0.00     0.020 C 
ATOM     25  C   UNL     1       7.468   1.650   1.369  1.00  0.00    -0.010 C 
ATOM     26  C   UNL     1       6.358   3.867   0.983  1.00  0.00    -0.010 C 
ATOM     27  C   UNL     1       6.667   2.276  -0.935  1.00  0.00    -0.010 C 
ATOM     28  C   UNL     1       7.735   1.511  -0.137  1.00  0.00     0.007 C 
ATOM     29  C   UNL     1       7.451   3.131   1.770  1.00  0.00     0.007 C 
ATOM     30  C   UNL     1       6.670   3.752  -0.518  1.00  0.00     0.007 C 
ENDBRANCH  18  21
ENDBRANCH   7  17
ENDBRANCH   6   7
ENDBRANCH   4   6
ENDBRANCH   1   2
BRANCH   1  31
ATOM     31  C   UNL     1       2.621  -1.906  -4.329  1.00  0.00     0.042 C 
BRANCH  31  32
ATOM     32  C   UNL     1       2.380  -3.405  -4.219  1.00  0.00     0.118 C 
BRANCH  32  33
ATOM     33  N   UNL     1       0.991  -3.740  -3.941  1.00  0.00    -0.352 N 
ATOM     34  C   UNL     1       0.135  -4.580  -4.607  1.00  0.00     0.251 C 
ATOM     35  H   UNL     1       0.605  -3.295  -3.152  1.00  0.00     0.163 HD
ATOM     36  O   UNL     1      -1.052  -4.615  -4.288  1.00  0.00    -0.269 OA
BRANCH  34  37
ATOM     37  C   UNL     1       0.623  -5.421  -5.720  1.00  0.00     0.039 A 
ATOM     38  C   UNL     1      -0.156  -5.524  -6.875  1.00  0.00     0.014 A 
ATOM     39  C   UNL     1       1.833  -6.115  -5.627  1.00  0.00     0.014 A 
ATOM     40  C   UNL     1       0.309  -6.268  -7.961  1.00  0.00     0.010 A 
ATOM     41  C   UNL     1       2.332  -6.789  -6.738  1.00  0.00     0.010 A 
ATOM     42  C   UNL     1       1.575  -6.875  -7.916  1.00  0.00    -0.014 A 
BRANCH  42  43
ATOM     43  C   UNL     1       2.122  -7.601  -9.091  1.00  0.00     0.031 A 
ATOM     44  C   UNL     1       2.412  -9.074  -9.005  1.00  0.00     0.074 A 
ATOM     45  C   UNL     1       2.413  -6.920 -10.217  1.00  0.00     0.049 A 
ATOM     46  N   UNL     1       2.946  -9.865  -9.901  1.00  0.00    -0.248 NA
ATOM     47  C   UNL     1       2.081  -9.742  -7.736  1.00  0.00     0.031 C 
ATOM     48  C   UNL     1       2.220  -5.482 -10.410  1.00  0.00     0.029 A 
ATOM     49  N   UNL     1       2.942  -7.347 -11.409  1.00  0.00    -0.354 N 
ATOM     50  C   UNL     1       3.025 -11.116  -9.302  1.00  0.00     0.074 A 
ATOM     51  C   UNL     1       2.538 -10.967  -7.947  1.00  0.00     0.031 C 
ATOM     52  C   UNL     1       2.601  -5.151 -11.654  1.00  0.00     0.029 A 
ATOM     53  C   UNL     1       3.106  -6.341 -12.330  1.00  0.00     0.049 A 
ATOM     54  H   UNL     1       3.182  -8.285 -11.587  1.00  0.00     0.167 HD
ATOM     55  C   UNL     1       3.443 -12.287  -9.838  1.00  0.00     0.037 A 
ATOM     56  C   UNL     1       3.617  -6.372 -13.576  1.00  0.00     0.037 A 
ATOM     57  C   UNL     1       3.912 -12.435 -11.191  1.00  0.00     0.049 A 
ATOM     58  C   UNL     1       4.098  -7.681 -14.139  1.00  0.00     0.074 A 
ATOM     59  C   UNL     1       4.304 -13.589 -11.846  1.00  0.00     0.029 A 
ATOM     60  N   UNL     1       4.059 -11.393 -12.095  1.00  0.00    -0.354 N 
ATOM     61  N   UNL     1       4.100  -8.869 -13.586  1.00  0.00    -0.248 NA
ATOM     62  C   UNL     1       4.643  -7.653 -15.504  1.00  0.00     0.031 C 
ATOM     63  C   UNL     1       4.742 -13.238 -13.127  1.00  0.00     0.029 A 
ATOM     64  C   UNL     1       4.565 -11.874 -13.292  1.00  0.00     0.049 A 
ATOM     65  H   UNL     1       3.838 -10.451 -11.913  1.00  0.00     0.167 HD
ATOM     66  C   UNL     1       4.618  -9.733 -14.542  1.00  0.00     0.074 A 
ATOM     67  C   UNL     1       4.902  -8.935 -15.716  1.00  0.00     0.031 C 
ATOM     68  C   UNL     1       4.840 -11.068 -14.455  1.00  0.00     0.037 A 
BRANCH  55  69
ATOM     69  C   UNL     1       3.412 -13.504  -8.957  1.00  0.00     0.057 A 
ATOM     70  C   UNL     1       2.208 -14.085  -8.537  1.00  0.00     0.134 A 
ATOM     71  C   UNL     1       4.601 -14.124  -8.551  1.00  0.00     0.134 A 
ATOM     72  F   UNL     1       1.032 -13.537  -8.879  1.00  0.00    -0.206 F 
ATOM     73  C   UNL     1       2.187 -15.219  -7.722  1.00  0.00     0.040 A 
ATOM     74  C   UNL     1       4.593 -15.276  -7.763  1.00  0.00     0.040 A 
ATOM     75  F   UNL     1       5.791 -13.626  -8.922  1.00  0.00    -0.206 F 
ATOM     76  C   UNL     1       3.384 -15.822  -7.339  1.00  0.00     0.006 A 
ENDBRANCH  55  69
BRANCH  56  77
ATOM     77  C   UNL     1       3.690  -5.126 -14.383  1.00  0.00     0.057 A 
ATOM     78  C   UNL     1       2.893  -4.955 -15.521  1.00  0.00     0.134 A 
ATOM     79  C   UNL     1       4.565  -4.086 -14.047  1.00  0.00     0.134 A 
ATOM     80  F   UNL     1       2.049  -5.923 -15.906  1.00  0.00    -0.206 F 
ATOM     81  C   UNL     1       2.980  -3.806 -16.309  1.00  0.00     0.040 A 
ATOM     82  C   UNL     1       4.641  -2.919 -14.809  1.00  0.00     0.040 A 
ATOM     83  F   UNL     1       5.350  -4.184 -12.964  1.00  0.00    -0.206 F 
ATOM     84  C   UNL     1       3.853  -2.781 -15.950  1.00  0.00     0.006 A 
ENDBRANCH  56  77
BRANCH  68  85
ATOM     85  C   UNL     1       5.385 -11.756 -15.674  1.00  0.00     0.057 A 
ATOM     86  C   UNL     1       6.703 -11.562 -16.109  1.00  0.00     0.134 A 
ATOM     87  C   UNL     1       4.591 -12.653 -16.400  1.00  0.00     0.134 A 
ATOM     88  F   UNL     1       7.512 -10.706 -15.466  1.00  0.00    -0.206 F 
ATOM     89  C   UNL     1       7.202 -12.214 -17.237  1.00  0.00     0.040 A 
ATOM     90  C   UNL     1       5.089 -13.335 -17.511  1.00  0.00     0.040 A 
ATOM     91  F   UNL     1       3.324 -12.894 -16.032  1.00  0.00    -0.206 F 
ATOM     92  C   UNL     1       6.396 -13.111 -17.937  1.00  0.00     0.006 A 
ENDBRANCH  68  85
ENDBRANCH  42  43
ENDBRANCH  34  37
ENDBRANCH  32  33
ENDBRANCH  31  32
ENDBRANCH   1  31
TORSDOF 15
