REMARK SMILES CC(C)(C)OC(=O)N1CCN(c2nc3ccccc3s2)[C@H](C(=O)NCCCNC(=O)c2ccc(-c3c4nc(c(-c5c(F)cccc5F)c5ccc([nH]5)c(-c5c(F)cccc5F)c5nc(c(-c6c(F)cccc6F)c6ccc3[nH]6)C=C5)C=C4)cc2)C1
REMARK SMILES IDX 25 1 24 2 22 3 23 4 21 6 8 7 9 8 85 9 10 10 11 11 6 12 7 13
REMARK SMILES IDX 5 14 2 15 1 16 3 17 4 18 12 19 13 20 20 21 14 22 19 23 15 24
REMARK SMILES IDX 18 25 16 26 17 27 26 28 27 29 28 30 29 31 30 33 31 34 32 35
REMARK SMILES IDX 84 36 33 37 83 38 34 39 35 40 36 41 77 42 37 43 82 44 76 45
REMARK SMILES IDX 78 46 38 47 81 48 75 49 74 50 39 52 65 53 48 54 64 55 49 56
REMARK SMILES IDX 52 57 63 58 79 59 50 60 51 61 62 63 80 64 53 65 40 66 41 67
REMARK SMILES IDX 46 68 42 69 43 70 45 71 47 72 44 73 66 74 67 75 72 76 68 77
REMARK SMILES IDX 69 78 71 79 73 80 70 81 54 82 55 83 60 84 56 85 57 86 59 87
REMARK SMILES IDX 61 88 58 89
REMARK H PARENT 24 5 28 32 78 51 52 62
REMARK Flexibility Score: inf
ROOT
ATOM      1  C   UNL     1       4.740   4.144  -4.250  1.00  0.00     0.117 C 
ENDROOT
BRANCH   1   2
ATOM      2  N   UNL     1       5.176   4.653  -2.958  1.00  0.00    -0.354 N 
ATOM      3  C   UNL     1       4.483   5.198  -1.914  1.00  0.00     0.244 C 
ATOM      4  O   UNL     1       5.134   5.496  -0.907  1.00  0.00    -0.273 OA
ATOM      5  H   UNL     1       6.148   4.595  -2.809  1.00  0.00     0.163 HD
BRANCH   3   6
ATOM      6  C   UNL     1       2.958   5.396  -1.948  1.00  0.00     0.193 C 
ATOM      7  N   UNL     1       0.960   3.904  -2.600  1.00  0.00    -0.304 N 
ATOM      8  C   UNL     1       0.545   4.940  -3.541  1.00  0.00     0.144 C 
ATOM      9  C   UNL     1       2.297   3.998  -2.009  1.00  0.00     0.158 C 
ATOM     10  C   UNL     1       1.019   6.340  -3.135  1.00  0.00     0.141 C 
ATOM     11  N   UNL     1       2.487   6.347  -3.002  1.00  0.00    -0.332 N 
BRANCH   7  12
ATOM     12  C   UNL     1       0.280   2.694  -2.594  1.00  0.00     0.410 C 
ATOM     13  O   UNL     1      -0.675   2.447  -3.316  1.00  0.00    -0.224 OA
BRANCH  12  14
ATOM     14  O   UNL     1       0.822   1.829  -1.701  1.00  0.00    -0.444 OA
BRANCH  14  15
ATOM     15  C   UNL     1       0.353   0.466  -1.535  1.00  0.00     0.106 C 
ATOM     16  C   UNL     1       1.009   0.001  -0.226  1.00  0.00     0.056 C 
ATOM     17  C   UNL     1       0.867  -0.400  -2.689  1.00  0.00     0.056 C 
ATOM     18  C   UNL     1      -1.167   0.361  -1.381  1.00  0.00     0.056 C 
ENDBRANCH  14  15
ENDBRANCH  12  14
ENDBRANCH   7  12
BRANCH  11  19
ATOM     19  C   UNL     1       3.074   7.586  -3.027  1.00  0.00     0.187 A 
ATOM     20  N   UNL     1       2.585   8.669  -2.464  1.00  0.00    -0.220 NA
ATOM     21  S   UNL     1       4.519   7.857  -3.922  1.00  0.00    -0.097 S 
ATOM     22  C   UNL     1       3.424   9.761  -2.688  1.00  0.00     0.084 A 
ATOM     23  C   UNL     1       4.539   9.499  -3.479  1.00  0.00     0.056 A 
ATOM     24  C   UNL     1       3.253  11.075  -2.204  1.00  0.00     0.030 A 
ATOM     25  C   UNL     1       5.483  10.482  -3.818  1.00  0.00     0.021 A 
ATOM     26  C   UNL     1       4.191  12.067  -2.528  1.00  0.00     0.002 A 
ATOM     27  C   UNL     1       5.291  11.772  -3.327  1.00  0.00     0.002 A 
ENDBRANCH  11  19
ENDBRANCH   3   6
ENDBRANCH   1   2
BRANCH   1  28
ATOM     28  C   UNL     1       5.336   4.858  -5.462  1.00  0.00     0.042 C 
BRANCH  28  29
ATOM     29  C   UNL     1       6.787   5.302  -5.325  1.00  0.00     0.118 C 
BRANCH  29  30
ATOM     30  N   UNL     1       7.717   4.208  -5.547  1.00  0.00    -0.352 N 
ATOM     31  C   UNL     1       8.615   4.046  -6.575  1.00  0.00     0.251 C 
ATOM     32  H   UNL     1       7.702   3.490  -4.874  1.00  0.00     0.163 HD
ATOM     33  O   UNL     1       9.164   2.963  -6.750  1.00  0.00    -0.269 OA
BRANCH  31  34
ATOM     34  C   UNL     1       8.907   5.178  -7.483  1.00  0.00     0.039 A 
ATOM     35  C   UNL     1       8.929   4.955  -8.862  1.00  0.00     0.014 A 
ATOM     36  C   UNL     1       9.179   6.451  -6.974  1.00  0.00     0.014 A 
ATOM     37  C   UNL     1       9.179   6.020  -9.733  1.00  0.00     0.010 A 
ATOM     38  C   UNL     1       9.355   7.524  -7.844  1.00  0.00     0.010 A 
ATOM     39  C   UNL     1       9.374   7.318  -9.232  1.00  0.00    -0.014 A 
BRANCH  39  40
ATOM     40  C   UNL     1       9.646   8.465 -10.136  1.00  0.00     0.031 A 
ATOM     41  C   UNL     1      10.969   9.179 -10.060  1.00  0.00     0.074 A 
ATOM     42  C   UNL     1       8.693   8.907 -10.979  1.00  0.00     0.049 A 
ATOM     43  N   UNL     1      11.367  10.258 -10.687  1.00  0.00    -0.248 NA
ATOM     44  C   UNL     1      11.967   8.623  -9.133  1.00  0.00     0.031 C 
ATOM     45  C   UNL     1       7.355   8.332 -11.123  1.00  0.00     0.029 A 
ATOM     46  N   UNL     1       8.701   9.955 -11.866  1.00  0.00    -0.354 N 
ATOM     47  C   UNL     1      12.645  10.522 -10.209  1.00  0.00     0.074 A 
ATOM     48  C   UNL     1      12.938   9.520  -9.208  1.00  0.00     0.031 C 
ATOM     49  C   UNL     1       6.678   9.022 -12.057  1.00  0.00     0.029 A 
ATOM     50  C   UNL     1       7.520  10.107 -12.551  1.00  0.00     0.049 A 
ATOM     51  H   UNL     1       9.480  10.542 -11.998  1.00  0.00     0.167 HD
ATOM     52  C   UNL     1      13.507  11.496 -10.586  1.00  0.00     0.037 A 
ATOM     53  C   UNL     1       7.155  11.024 -13.468  1.00  0.00     0.037 A 
ATOM     54  C   UNL     1      13.235  12.466 -11.613  1.00  0.00     0.049 A 
ATOM     55  C   UNL     1       8.135  12.087 -13.881  1.00  0.00     0.074 A 
ATOM     56  C   UNL     1      14.069  13.451 -12.112  1.00  0.00     0.029 A 
ATOM     57  N   UNL     1      12.038  12.567 -12.304  1.00  0.00    -0.354 N 
ATOM     58  N   UNL     1       9.359  12.292 -13.459  1.00  0.00    -0.248 NA
ATOM     59  C   UNL     1       7.684  13.044 -14.902  1.00  0.00     0.031 C 
ATOM     60  C   UNL     1      13.364  14.170 -13.083  1.00  0.00     0.029 A 
ATOM     61  C   UNL     1      12.105  13.607 -13.216  1.00  0.00     0.049 A 
ATOM     62  H   UNL     1      11.255  11.985 -12.167  1.00  0.00     0.167 HD
ATOM     63  C   UNL     1       9.833  13.381 -14.179  1.00  0.00     0.074 A 
ATOM     64  C   UNL     1       8.769  13.786 -15.074  1.00  0.00     0.031 C 
ATOM     65  C   UNL     1      11.041  13.990 -14.107  1.00  0.00     0.037 A 
BRANCH  52  66
ATOM     66  C   UNL     1      14.832  11.553  -9.884  1.00  0.00     0.057 A 
ATOM     67  C   UNL     1      15.824  10.588 -10.100  1.00  0.00     0.134 A 
ATOM     68  C   UNL     1      15.129  12.598  -9.001  1.00  0.00     0.134 A 
ATOM     69  F   UNL     1      15.598   9.553 -10.924  1.00  0.00    -0.206 F 
ATOM     70  C   UNL     1      17.053  10.644  -9.441  1.00  0.00     0.040 A 
ATOM     71  C   UNL     1      16.365  12.680  -8.356  1.00  0.00     0.040 A 
ATOM     72  F   UNL     1      14.226  13.559  -8.753  1.00  0.00    -0.206 F 
ATOM     73  C   UNL     1      17.328  11.696  -8.571  1.00  0.00     0.006 A 
ENDBRANCH  52  66
BRANCH  53  74
ATOM     74  C   UNL     1       5.805  10.964 -14.080  1.00  0.00     0.057 A 
ATOM     75  C   UNL     1       5.636  10.573 -15.414  1.00  0.00     0.134 A 
ATOM     76  C   UNL     1       4.656  11.303 -13.356  1.00  0.00     0.134 A 
ATOM     77  F   UNL     1       6.702  10.257 -16.164  1.00  0.00    -0.206 F 
ATOM     78  C   UNL     1       4.376  10.537 -16.012  1.00  0.00     0.040 A 
ATOM     79  C   UNL     1       3.387  11.250 -13.935  1.00  0.00     0.040 A 
ATOM     80  F   UNL     1       4.751  11.680 -12.073  1.00  0.00    -0.206 F 
ATOM     81  C   UNL     1       3.245  10.872 -15.269  1.00  0.00     0.006 A 
ENDBRANCH  53  74
BRANCH  65  82
ATOM     82  C   UNL     1      11.290  15.136 -15.041  1.00  0.00     0.057 A 
ATOM     83  C   UNL     1      10.703  16.391 -14.843  1.00  0.00     0.134 A 
ATOM     84  C   UNL     1      12.161  14.991 -16.129  1.00  0.00     0.134 A 
ATOM     85  F   UNL     1       9.850  16.590 -13.827  1.00  0.00    -0.206 F 
ATOM     86  C   UNL     1      10.960  17.459 -15.705  1.00  0.00     0.040 A 
ATOM     87  C   UNL     1      12.443  16.057 -16.983  1.00  0.00     0.040 A 
ATOM     88  F   UNL     1      12.761  13.815 -16.369  1.00  0.00    -0.206 F 
ATOM     89  C   UNL     1      11.838  17.294 -16.775  1.00  0.00     0.006 A 
ENDBRANCH  65  82
ENDBRANCH  39  40
ENDBRANCH  31  34
ENDBRANCH  29  30
ENDBRANCH  28  29
ENDBRANCH   1  28
TORSDOF 14
