REMARK SMILES O=C(NCCCNC(=O)c1ccc(-n2cc(CSc3nc4ccccc4c(=O)n3-c3ccccc3)nn2)cc1)c1ccc(-c2c3nc(c(-c4c(F)cccc4F)c4ccc([nH]4)c(-c4c(F)cccc4F)c4nc(c(-c5c(F)cccc5F)c5ccc2[nH]5)C=C4)C=C3)cc1
REMARK SMILES IDX 7 1 8 2 9 3 6 5 5 6 4 7 3 8 1 9 2 10 40 12 41 13 93 14 42 15
REMARK SMILES IDX 92 16 43 17 44 18 45 19 86 20 46 21 91 22 85 23 87 24 47 25
REMARK SMILES IDX 90 26 84 27 83 28 48 30 74 31 57 32 73 33 58 34 61 35 72 36
REMARK SMILES IDX 88 37 59 38 60 39 71 41 89 42 62 43 49 44 50 45 55 46 51 47
REMARK SMILES IDX 52 48 54 49 56 50 53 51 75 52 76 53 81 54 77 55 78 56 80 57
REMARK SMILES IDX 82 58 79 59 63 60 64 61 69 62 65 63 66 64 68 65 70 66 67 67
REMARK SMILES IDX 10 68 11 69 39 70 12 71 38 72 13 73 14 74 15 75 37 76 16 77
REMARK SMILES IDX 36 78 17 79 18 80 19 81 20 82 29 83 21 84 27 85 22 86 26 87
REMARK SMILES IDX 28 88 23 89 25 90 24 91 30 92 31 93 35 94 32 95 34 96 33 97
REMARK H PARENT 7 4 3 11 87 29 61 40
REMARK Flexibility Score: inf
ROOT
ATOM      1  N   UNL     1       4.864   3.726   1.646  1.00  0.00    -0.352 N 
ATOM      2  C   UNL     1       5.726   4.747   1.978  1.00  0.00     0.251 C 
ATOM      3  O   UNL     1       6.139   4.860   3.119  1.00  0.00    -0.269 OA
ATOM      4  H   UNL     1       4.575   3.166   2.402  1.00  0.00     0.163 HD
ENDROOT
BRANCH   1   5
ATOM      5  C   UNL     1       4.311   3.342   0.356  1.00  0.00     0.118 C 
BRANCH   5   6
ATOM      6  C   UNL     1       4.899   2.046  -0.201  1.00  0.00     0.042 C 
BRANCH   6   7
ATOM      7  C   UNL     1       4.575   0.796   0.614  1.00  0.00     0.118 C 
BRANCH   7   8
ATOM      8  N   UNL     1       3.159   0.591   0.854  1.00  0.00    -0.352 N 
ATOM      9  O   UNL     1       1.041   0.002   0.769  1.00  0.00    -0.269 OA
ATOM     10  C   UNL     1       2.112   0.055   0.158  1.00  0.00     0.251 C 
ATOM     11  H   UNL     1       2.884   0.919   1.740  1.00  0.00     0.163 HD
BRANCH  10  12
ATOM     12  C   UNL     1       2.147  -0.426  -1.253  1.00  0.00     0.039 A 
ATOM     13  C   UNL     1       3.277  -0.515  -2.067  1.00  0.00     0.014 A 
ATOM     14  C   UNL     1       0.907  -0.815  -1.798  1.00  0.00     0.014 A 
ATOM     15  C   UNL     1       3.162  -0.932  -3.397  1.00  0.00     0.010 A 
ATOM     16  C   UNL     1       0.790  -1.247  -3.119  1.00  0.00     0.010 A 
ATOM     17  C   UNL     1       1.918  -1.283  -3.933  1.00  0.00    -0.014 A 
BRANCH  17  18
ATOM     18  C   UNL     1       1.861  -1.763  -5.317  1.00  0.00     0.031 A 
ATOM     19  C   UNL     1       2.581  -3.040  -5.620  1.00  0.00     0.074 A 
ATOM     20  C   UNL     1       1.080  -1.229  -6.279  1.00  0.00     0.049 A 
ATOM     21  N   UNL     1       3.508  -3.260  -6.499  1.00  0.00    -0.248 NA
ATOM     22  C   UNL     1       2.220  -4.222  -4.824  1.00  0.00     0.031 C 
ATOM     23  C   UNL     1       0.039  -0.208  -6.145  1.00  0.00     0.029 A 
ATOM     24  N   UNL     1       1.006  -1.579  -7.597  1.00  0.00    -0.354 N 
ATOM     25  C   UNL     1       3.756  -4.634  -6.471  1.00  0.00     0.074 A 
ATOM     26  C   UNL     1       2.987  -5.165  -5.373  1.00  0.00     0.031 C 
ATOM     27  C   UNL     1      -0.689  -0.163  -7.285  1.00  0.00     0.029 A 
ATOM     28  C   UNL     1      -0.081  -1.044  -8.269  1.00  0.00     0.049 A 
ATOM     29  H   UNL     1       1.669  -2.161  -8.033  1.00  0.00     0.167 HD
ATOM     30  C   UNL     1       4.475  -5.280  -7.432  1.00  0.00     0.037 A 
ATOM     31  C   UNL     1      -0.484  -1.338  -9.528  1.00  0.00     0.037 A 
ATOM     32  C   UNL     1       5.276  -4.381  -8.213  1.00  0.00     0.049 A 
ATOM     33  C   UNL     1       0.651  -1.955 -10.250  1.00  0.00     0.074 A 
ATOM     34  C   UNL     1       6.311  -3.507  -7.939  1.00  0.00     0.029 A 
ATOM     35  N   UNL     1       4.871  -4.072  -9.486  1.00  0.00    -0.354 N 
ATOM     36  N   UNL     1       1.723  -1.319 -10.629  1.00  0.00    -0.248 NA
ATOM     37  C   UNL     1       0.752  -3.406 -10.255  1.00  0.00     0.031 C 
ATOM     38  C   UNL     1       6.124  -2.418  -8.840  1.00  0.00     0.029 A 
ATOM     39  C   UNL     1       4.999  -2.713  -9.611  1.00  0.00     0.049 A 
ATOM     40  H   UNL     1       4.552  -4.701 -10.173  1.00  0.00     0.167 HD
ATOM     41  C   UNL     1       2.743  -2.251 -10.523  1.00  0.00     0.074 A 
ATOM     42  C   UNL     1       2.070  -3.540 -10.407  1.00  0.00     0.031 C 
ATOM     43  C   UNL     1       4.028  -1.869 -10.264  1.00  0.00     0.037 A 
BRANCH  30  44
ATOM     44  C   UNL     1       4.275  -6.719  -7.828  1.00  0.00     0.057 A 
ATOM     45  C   UNL     1       5.246  -7.386  -8.596  1.00  0.00     0.134 A 
ATOM     46  C   UNL     1       3.043  -7.389  -7.702  1.00  0.00     0.134 A 
ATOM     47  F   UNL     1       6.448  -6.833  -8.820  1.00  0.00    -0.206 F 
ATOM     48  C   UNL     1       4.997  -8.616  -9.220  1.00  0.00     0.040 A 
ATOM     49  C   UNL     1       2.798  -8.639  -8.282  1.00  0.00     0.040 A 
ATOM     50  F   UNL     1       1.992  -6.825  -7.092  1.00  0.00    -0.206 F 
ATOM     51  C   UNL     1       3.768  -9.246  -9.064  1.00  0.00     0.006 A 
ENDBRANCH  30  44
BRANCH  31  52
ATOM     52  C   UNL     1      -1.854  -1.345 -10.081  1.00  0.00     0.057 A 
ATOM     53  C   UNL     1      -2.087  -1.275 -11.461  1.00  0.00     0.134 A 
ATOM     54  C   UNL     1      -2.957  -1.692  -9.282  1.00  0.00     0.134 A 
ATOM     55  F   UNL     1      -1.086  -0.994 -12.308  1.00  0.00    -0.206 F 
ATOM     56  C   UNL     1      -3.342  -1.553 -12.018  1.00  0.00     0.040 A 
ATOM     57  C   UNL     1      -4.216  -1.964  -9.824  1.00  0.00     0.040 A 
ATOM     58  F   UNL     1      -2.824  -1.865  -7.959  1.00  0.00    -0.206 F 
ATOM     59  C   UNL     1      -4.409  -1.909 -11.198  1.00  0.00     0.006 A 
ENDBRANCH  31  52
BRANCH  43  60
ATOM     60  C   UNL     1       4.362  -0.408 -10.375  1.00  0.00     0.057 A 
ATOM     61  C   UNL     1       3.791   0.583  -9.562  1.00  0.00     0.134 A 
ATOM     62  C   UNL     1       5.401  -0.009 -11.224  1.00  0.00     0.134 A 
ATOM     63  F   UNL     1       2.868   0.278  -8.642  1.00  0.00    -0.206 F 
ATOM     64  C   UNL     1       4.199   1.919  -9.631  1.00  0.00     0.040 A 
ATOM     65  C   UNL     1       5.842   1.316 -11.277  1.00  0.00     0.040 A 
ATOM     66  F   UNL     1       6.038  -0.912 -11.985  1.00  0.00    -0.206 F 
ATOM     67  C   UNL     1       5.232   2.288 -10.487  1.00  0.00     0.006 A 
ENDBRANCH  43  60
ENDBRANCH  17  18
ENDBRANCH  10  12
ENDBRANCH   7   8
ENDBRANCH   6   7
ENDBRANCH   5   6
ENDBRANCH   1   5
BRANCH   2  68
ATOM     68  C   UNL     1       6.192   5.683   0.931  1.00  0.00     0.039 A 
ATOM     69  C   UNL     1       7.571   5.805   0.721  1.00  0.00     0.016 A 
ATOM     70  C   UNL     1       5.286   6.435   0.177  1.00  0.00     0.016 A 
ATOM     71  C   UNL     1       8.050   6.587  -0.332  1.00  0.00     0.029 A 
ATOM     72  C   UNL     1       5.759   7.244  -0.856  1.00  0.00     0.029 A 
ATOM     73  C   UNL     1       7.137   7.281  -1.126  1.00  0.00     0.066 A 
BRANCH  73  74
ATOM     74  N   UNL     1       7.610   8.098  -2.165  1.00  0.00    -0.220 N 
ATOM     75  C   UNL     1       7.343   9.430  -2.301  1.00  0.00     0.141 A 
ATOM     76  N   UNL     1       8.121   7.614  -3.313  1.00  0.00    -0.062 NA
ATOM     77  C   UNL     1       7.628   9.748  -3.604  1.00  0.00     0.093 A 
ATOM     78  N   UNL     1       8.107   8.602  -4.207  1.00  0.00    -0.134 NA
BRANCH  77  79
ATOM     79  C   UNL     1       7.224  10.915  -4.429  1.00  0.00     0.138 C 
BRANCH  79  80
ATOM     80  S   UNL     1       7.764  12.603  -4.189  1.00  0.00    -0.081 SA
BRANCH  80  81
ATOM     81  C   UNL     1       8.403  12.915  -2.602  1.00  0.00     0.176 A 
ATOM     82  N   UNL     1       9.487  13.634  -2.664  1.00  0.00    -0.223 NA
ATOM     83  N   UNL     1       7.860  12.505  -1.391  1.00  0.00    -0.255 N 
ATOM     84  C   UNL     1      10.176  13.919  -1.484  1.00  0.00     0.079 A 
ATOM     85  C   UNL     1       8.827  12.223  -0.413  1.00  0.00     0.266 A 
ATOM     86  C   UNL     1      11.142  14.924  -1.438  1.00  0.00     0.029 A 
ATOM     87  C   UNL     1       9.976  13.135  -0.360  1.00  0.00     0.066 A 
ATOM     88  O   UNL     1       8.821  11.266   0.360  1.00  0.00    -0.268 OA
ATOM     89  C   UNL     1      11.929  15.093  -0.293  1.00  0.00     0.002 A 
ATOM     90  C   UNL     1      10.787  13.253   0.773  1.00  0.00     0.016 A 
ATOM     91  C   UNL     1      11.773  14.237   0.800  1.00  0.00     0.001 A 
BRANCH  83  92
ATOM     92  C   UNL     1       6.462  12.246  -1.073  1.00  0.00     0.051 A 
ATOM     93  C   UNL     1       6.091  11.867   0.237  1.00  0.00     0.027 A 
ATOM     94  C   UNL     1       5.413  12.301  -1.999  1.00  0.00     0.027 A 
ATOM     95  C   UNL     1       4.823  11.363   0.544  1.00  0.00     0.002 A 
ATOM     96  C   UNL     1       4.149  11.760  -1.713  1.00  0.00     0.002 A 
ATOM     97  C   UNL     1       3.864  11.260  -0.450  1.00  0.00     0.000 A 
ENDBRANCH  83  92
ENDBRANCH  80  81
ENDBRANCH  79  80
ENDBRANCH  77  79
ENDBRANCH  73  74
ENDBRANCH   2  68
TORSDOF 15
