REMARK SMILES O=C(Cc1cccc(-c2ccn(C(F)F)c(=O)c2)c1)NCCCNC(=O)c1ccc(-c2c3nc(c(-c4c(F)cccc4F)c4ccc([nH]4)c(-c4c(F)cccc4F)c4nc(c(-c5c(F)cccc5F)c5ccc2[nH]5)C=C4)C=C3)cc1
REMARK SMILES IDX 21 1 20 2 1 3 2 4 3 6 4 7 5 8 19 9 6 10 8 11 7 12 9 13 10 14
REMARK SMILES IDX 18 15 11 16 16 17 12 18 17 19 13 20 14 21 15 22 22 23 23 24
REMARK SMILES IDX 24 25 25 26 26 28 27 29 28 30 80 31 29 32 79 33 30 34 31 35
REMARK SMILES IDX 32 36 73 37 33 38 78 39 72 40 74 41 34 42 77 43 71 44 70 45
REMARK SMILES IDX 35 47 61 48 44 49 60 50 45 51 48 52 59 53 75 54 46 55 47 56
REMARK SMILES IDX 58 58 76 59 49 60 36 61 37 62 42 63 38 64 39 65 41 66 43 67
REMARK SMILES IDX 40 68 62 69 63 70 68 71 64 72 65 73 67 74 69 75 66 76 50 77
REMARK SMILES IDX 51 78 56 79 52 80 53 81 55 82 57 83 54 84
REMARK H PARENT 20 5 24 27 74 46 48 57
REMARK Flexibility Score: inf
ROOT
ATOM      1  C   UNL     1       2.086  -2.495   0.147  1.00  0.00     0.117 C 
ENDROOT
BRANCH   1   2
ATOM      2  N   UNL     1       2.754  -1.259  -0.200  1.00  0.00    -0.356 N 
ATOM      3  O   UNL     1       1.048   0.130   0.472  1.00  0.00    -0.275 OA
ATOM      4  C   UNL     1       2.198  -0.026   0.077  1.00  0.00     0.224 C 
ATOM      5  H   UNL     1       3.631  -1.299  -0.646  1.00  0.00     0.163 HD
BRANCH   4   6
ATOM      6  C   UNL     1       3.173   1.126  -0.101  1.00  0.00     0.135 C 
BRANCH   6   7
ATOM      7  C   UNL     1       3.940   1.451   1.162  1.00  0.00    -0.038 A 
ATOM      8  C   UNL     1       4.573   0.458   1.926  1.00  0.00     0.004 A 
ATOM      9  C   UNL     1       4.066   2.787   1.569  1.00  0.00     0.013 A 
ATOM     10  C   UNL     1       5.279   0.785   3.083  1.00  0.00     0.001 A 
ATOM     11  C   UNL     1       4.778   3.125   2.730  1.00  0.00    -0.018 A 
ATOM     12  C   UNL     1       5.378   2.113   3.488  1.00  0.00     0.009 A 
BRANCH  11  13
ATOM     13  C   UNL     1       4.864   4.537   3.143  1.00  0.00    -0.011 A 
ATOM     14  C   UNL     1       3.689   5.328   3.451  1.00  0.00     0.027 A 
ATOM     15  C   UNL     1       6.077   5.113   3.204  1.00  0.00     0.080 A 
ATOM     16  C   UNL     1       3.807   6.621   3.774  1.00  0.00     0.095 A 
ATOM     17  C   UNL     1       6.224   6.548   3.574  1.00  0.00     0.255 A 
ATOM     18  N   UNL     1       5.046   7.229   3.832  1.00  0.00    -0.258 N 
ATOM     19  O   UNL     1       7.353   7.026   3.618  1.00  0.00    -0.269 OA
BRANCH  18  20
ATOM     20  C   UNL     1       5.159   8.626   4.162  1.00  0.00     0.451 C 
ATOM     21  F   UNL     1       5.917   8.808   5.270  1.00  0.00    -0.185 F 
ATOM     22  F   UNL     1       5.726   9.320   3.145  1.00  0.00    -0.185 F 
ENDBRANCH  18  20
ENDBRANCH  11  13
ENDBRANCH   6   7
ENDBRANCH   4   6
ENDBRANCH   1   2
BRANCH   1  23
ATOM     23  C   UNL     1       2.397  -3.625  -0.824  1.00  0.00     0.042 C 
BRANCH  23  24
ATOM     24  C   UNL     1       3.874  -3.982  -0.950  1.00  0.00     0.118 C 
BRANCH  24  25
ATOM     25  N   UNL     1       4.453  -4.541   0.263  1.00  0.00    -0.352 N 
ATOM     26  C   UNL     1       5.186  -5.696   0.421  1.00  0.00     0.251 C 
ATOM     27  H   UNL     1       4.299  -4.022   1.084  1.00  0.00     0.163 HD
ATOM     28  O   UNL     1       5.519  -6.068   1.542  1.00  0.00    -0.269 OA
BRANCH  26  29
ATOM     29  C   UNL     1       5.533  -6.513  -0.762  1.00  0.00     0.039 A 
ATOM     30  C   UNL     1       5.248  -7.881  -0.740  1.00  0.00     0.014 A 
ATOM     31  C   UNL     1       6.091  -5.929  -1.902  1.00  0.00     0.014 A 
ATOM     32  C   UNL     1       5.432  -8.645  -1.895  1.00  0.00     0.010 A 
ATOM     33  C   UNL     1       6.210  -6.676  -3.071  1.00  0.00     0.010 A 
ATOM     34  C   UNL     1       5.863  -8.037  -3.085  1.00  0.00    -0.014 A 
BRANCH  34  35
ATOM     35  C   UNL     1       5.915  -8.791  -4.364  1.00  0.00     0.031 A 
ATOM     36  C   UNL     1       7.224  -9.010  -5.066  1.00  0.00     0.074 A 
ATOM     37  C   UNL     1       4.768  -9.204  -4.938  1.00  0.00     0.049 A 
ATOM     38  N   UNL     1       7.454  -9.548  -6.237  1.00  0.00    -0.248 NA
ATOM     39  C   UNL     1       8.433  -8.539  -4.372  1.00  0.00     0.031 C 
ATOM     40  C   UNL     1       3.426  -9.015  -4.383  1.00  0.00     0.029 A 
ATOM     41  N   UNL     1       4.545  -9.852  -6.127  1.00  0.00    -0.354 N 
ATOM     42  C   UNL     1       8.827  -9.468  -6.427  1.00  0.00     0.074 A 
ATOM     43  C   UNL     1       9.374  -8.790  -5.271  1.00  0.00     0.031 C 
ATOM     44  C   UNL     1       2.523  -9.549  -5.221  1.00  0.00     0.029 A 
ATOM     45  C   UNL     1       3.215 -10.080  -6.391  1.00  0.00     0.049 A 
ATOM     46  H   UNL     1       5.269 -10.129  -6.734  1.00  0.00     0.167 HD
ATOM     47  C   UNL     1       9.567  -9.933  -7.462  1.00  0.00     0.037 A 
ATOM     48  C   UNL     1       2.619 -10.639  -7.461  1.00  0.00     0.037 A 
ATOM     49  C   UNL     1       9.027 -10.629  -8.600  1.00  0.00     0.049 A 
ATOM     50  C   UNL     1       3.461 -11.132  -8.603  1.00  0.00     0.074 A 
ATOM     51  C   UNL     1       9.706 -11.197  -9.664  1.00  0.00     0.029 A 
ATOM     52  N   UNL     1       7.677 -10.849  -8.825  1.00  0.00    -0.354 N 
ATOM     53  N   UNL     1       4.764 -11.105  -8.739  1.00  0.00    -0.248 NA
ATOM     54  C   UNL     1       2.749 -11.731  -9.741  1.00  0.00     0.031 C 
ATOM     55  C   UNL     1       8.764 -11.725 -10.553  1.00  0.00     0.029 A 
ATOM     56  C   UNL     1       7.500 -11.521 -10.023  1.00  0.00     0.049 A 
ATOM     57  H   UNL     1       6.951 -10.568  -8.222  1.00  0.00     0.167 HD
ATOM     58  C   UNL     1       5.030 -11.702  -9.965  1.00  0.00     0.074 A 
ATOM     59  C   UNL     1       3.754 -12.093 -10.527  1.00  0.00     0.031 C 
ATOM     60  C   UNL     1       6.225 -11.905 -10.570  1.00  0.00     0.037 A 
BRANCH  47  61
ATOM     61  C   UNL     1      11.049  -9.706  -7.407  1.00  0.00     0.057 A 
ATOM     62  C   UNL     1      11.870 -10.409  -6.516  1.00  0.00     0.134 A 
ATOM     63  C   UNL     1      11.667  -8.803  -8.281  1.00  0.00     0.134 A 
ATOM     64  F   UNL     1      11.338 -11.280  -5.645  1.00  0.00    -0.206 F 
ATOM     65  C   UNL     1      13.250 -10.204  -6.479  1.00  0.00     0.040 A 
ATOM     66  C   UNL     1      13.049  -8.608  -8.271  1.00  0.00     0.040 A 
ATOM     67  F   UNL     1      10.939  -8.102  -9.164  1.00  0.00    -0.206 F 
ATOM     68  C   UNL     1      13.844  -9.305  -7.363  1.00  0.00     0.006 A 
ENDBRANCH  47  61
BRANCH  48  69
ATOM     69  C   UNL     1       1.141 -10.771  -7.501  1.00  0.00     0.057 A 
ATOM     70  C   UNL     1       0.527 -12.024  -7.383  1.00  0.00     0.134 A 
ATOM     71  C   UNL     1       0.310  -9.658  -7.667  1.00  0.00     0.134 A 
ATOM     72  F   UNL     1       1.273 -13.130  -7.243  1.00  0.00    -0.206 F 
ATOM     73  C   UNL     1      -0.859 -12.167  -7.444  1.00  0.00     0.040 A 
ATOM     74  C   UNL     1      -1.080  -9.783  -7.707  1.00  0.00     0.040 A 
ATOM     75  F   UNL     1       0.837  -8.430  -7.780  1.00  0.00    -0.206 F 
ATOM     76  C   UNL     1      -1.667 -11.043  -7.602  1.00  0.00     0.006 A 
ENDBRANCH  48  69
BRANCH  60  77
ATOM     77  C   UNL     1       6.211 -12.601 -11.899  1.00  0.00     0.057 A 
ATOM     78  C   UNL     1       5.782 -11.954 -13.064  1.00  0.00     0.134 A 
ATOM     79  C   UNL     1       6.667 -13.920 -12.020  1.00  0.00     0.134 A 
ATOM     80  F   UNL     1       5.319 -10.695 -13.012  1.00  0.00    -0.206 F 
ATOM     81  C   UNL     1       5.791 -12.600 -14.302  1.00  0.00     0.040 A 
ATOM     82  C   UNL     1       6.703 -14.568 -13.255  1.00  0.00     0.040 A 
ATOM     83  F   UNL     1       7.097 -14.593 -10.943  1.00  0.00    -0.206 F 
ATOM     84  C   UNL     1       6.259 -13.909 -14.400  1.00  0.00     0.006 A 
ENDBRANCH  60  77
ENDBRANCH  34  35
ENDBRANCH  26  29
ENDBRANCH  24  25
ENDBRANCH  23  24
ENDBRANCH   1  23
TORSDOF 13
