REMARK SMILES O=C(NCCCNC(=O)c1ccc(-n2cc(CSc3nc4ccccc4c(=O)n3-c3ccc(Cl)cc3)nn2)cc1)c1ccc(-c2c3nc(c(-c4c(F)cccc4F)c4ccc([nH]4)c(-c4c(F)cccc4F)c4nc(c(-c5c(F)cccc5F)c5ccc2[nH]5)C=C4)C=C3)cc1
REMARK SMILES IDX 7 1 8 2 9 3 6 5 5 6 4 7 3 8 1 9 2 10 41 12 42 13 94 14 43 15
REMARK SMILES IDX 93 16 44 17 45 18 46 19 87 20 47 21 92 22 86 23 88 24 48 25
REMARK SMILES IDX 91 26 85 27 84 28 49 30 75 31 58 32 74 33 59 34 62 35 73 36
REMARK SMILES IDX 89 37 60 38 61 39 72 41 90 42 63 43 50 44 51 45 56 46 52 47
REMARK SMILES IDX 53 48 55 49 57 50 54 51 76 52 77 53 82 54 78 55 79 56 81 57
REMARK SMILES IDX 83 58 80 59 64 60 65 61 70 62 66 63 67 64 69 65 71 66 68 67
REMARK SMILES IDX 10 68 11 69 40 70 12 71 39 72 13 73 14 74 15 75 38 76 16 77
REMARK SMILES IDX 37 78 17 79 18 80 19 81 20 82 29 83 21 84 27 85 22 86 26 87
REMARK SMILES IDX 28 88 23 89 25 90 24 91 30 92 31 93 36 94 32 95 35 96 33 97
REMARK SMILES IDX 34 98
REMARK H PARENT 7 4 3 11 88 29 62 40
REMARK Flexibility Score: inf
ROOT
ATOM      1  N   UNL     1       4.868   4.150  -0.536  1.00  0.00    -0.352 N 
ATOM      2  C   UNL     1       5.782   5.163  -0.721  1.00  0.00     0.251 C 
ATOM      3  O   UNL     1       6.187   5.808   0.225  1.00  0.00    -0.269 OA
ATOM      4  H   UNL     1       4.537   4.057   0.386  1.00  0.00     0.163 HD
ENDROOT
BRANCH   1   5
ATOM      5  C   UNL     1       4.314   3.196  -1.482  1.00  0.00     0.118 C 
BRANCH   5   6
ATOM      6  C   UNL     1       4.890   1.788  -1.333  1.00  0.00     0.042 C 
BRANCH   6   7
ATOM      7  C   UNL     1       4.568   1.096  -0.009  1.00  0.00     0.118 C 
BRANCH   7   8
ATOM      8  N   UNL     1       3.159   1.087   0.336  1.00  0.00    -0.352 N 
ATOM      9  O   UNL     1       1.034   0.603   0.629  1.00  0.00    -0.269 OA
ATOM     10  C   UNL     1       2.077   0.307   0.039  1.00  0.00     0.251 C 
ATOM     11  H   UNL     1       2.922   1.831   0.935  1.00  0.00     0.163 HD
BRANCH  10  12
ATOM     12  C   UNL     1       2.043  -0.823  -0.934  1.00  0.00     0.039 A 
ATOM     13  C   UNL     1       3.122  -1.314  -1.669  1.00  0.00     0.014 A 
ATOM     14  C   UNL     1       0.783  -1.428  -1.127  1.00  0.00     0.014 A 
ATOM     15  C   UNL     1       2.939  -2.347  -2.597  1.00  0.00     0.010 A 
ATOM     16  C   UNL     1       0.599  -2.466  -2.040  1.00  0.00     0.010 A 
ATOM     17  C   UNL     1       1.675  -2.915  -2.799  1.00  0.00    -0.014 A 
BRANCH  17  18
ATOM     18  C   UNL     1       1.546  -4.024  -3.752  1.00  0.00     0.031 A 
ATOM     19  C   UNL     1       2.267  -5.292  -3.423  1.00  0.00     0.074 A 
ATOM     20  C   UNL     1       0.698  -4.037  -4.801  1.00  0.00     0.049 A 
ATOM     21  N   UNL     1       3.151  -5.927  -4.127  1.00  0.00    -0.248 NA
ATOM     22  C   UNL     1       1.958  -5.932  -2.136  1.00  0.00     0.031 C 
ATOM     23  C   UNL     1      -0.361  -3.080  -5.128  1.00  0.00     0.029 A 
ATOM     24  N   UNL     1       0.556  -5.000  -5.763  1.00  0.00    -0.354 N 
ATOM     25  C   UNL     1       3.413  -7.119  -3.448  1.00  0.00     0.074 A 
ATOM     26  C   UNL     1       2.705  -7.036  -2.195  1.00  0.00     0.031 C 
ATOM     27  C   UNL     1      -1.157  -3.608  -6.085  1.00  0.00     0.029 A 
ATOM     28  C   UNL     1      -0.587  -4.868  -6.535  1.00  0.00     0.049 A 
ATOM     29  H   UNL     1       1.209  -5.724  -5.895  1.00  0.00     0.167 HD
ATOM     30  C   UNL     1       4.083  -8.161  -4.016  1.00  0.00     0.037 A 
ATOM     31  C   UNL     1      -1.061  -5.750  -7.446  1.00  0.00     0.037 A 
ATOM     32  C   UNL     1       4.810  -7.767  -5.189  1.00  0.00     0.049 A 
ATOM     33  C   UNL     1       0.043  -6.653  -7.843  1.00  0.00     0.074 A 
ATOM     34  C   UNL     1       5.833  -6.880  -5.458  1.00  0.00     0.029 A 
ATOM     35  N   UNL     1       4.327  -8.150  -6.414  1.00  0.00    -0.354 N 
ATOM     36  N   UNL     1       1.067  -6.303  -8.568  1.00  0.00    -0.248 NA
ATOM     37  C   UNL     1       0.176  -7.924  -7.147  1.00  0.00     0.031 C 
ATOM     38  C   UNL     1       5.581  -6.412  -6.781  1.00  0.00     0.029 A 
ATOM     39  C   UNL     1       4.425  -7.053  -7.228  1.00  0.00     0.049 A 
ATOM     40  H   UNL     1       3.980  -9.037  -6.660  1.00  0.00     0.167 HD
ATOM     41  C   UNL     1       2.111  -7.088  -8.107  1.00  0.00     0.074 A 
ATOM     42  C   UNL     1       1.478  -8.148  -7.333  1.00  0.00     0.031 C 
ATOM     43  C   UNL     1       3.403  -6.652  -8.164  1.00  0.00     0.037 A 
BRANCH  30  44
ATOM     44  C   UNL     1       3.884  -9.616  -3.671  1.00  0.00     0.057 A 
ATOM     45  C   UNL     1       4.805 -10.579  -4.129  1.00  0.00     0.134 A 
ATOM     46  C   UNL     1       2.681 -10.134  -3.156  1.00  0.00     0.134 A 
ATOM     47  F   UNL     1       5.978 -10.210  -4.666  1.00  0.00    -0.206 F 
ATOM     48  C   UNL     1       4.525 -11.951  -4.127  1.00  0.00     0.040 A 
ATOM     49  C   UNL     1       2.411 -11.507  -3.103  1.00  0.00     0.040 A 
ATOM     50  F   UNL     1       1.676  -9.338  -2.771  1.00  0.00    -0.206 F 
ATOM     51  C   UNL     1       3.321 -12.419  -3.616  1.00  0.00     0.006 A 
ENDBRANCH  30  44
BRANCH  31  52
ATOM     52  C   UNL     1      -2.461  -6.015  -7.841  1.00  0.00     0.057 A 
ATOM     53  C   UNL     1      -2.772  -6.651  -9.050  1.00  0.00     0.134 A 
ATOM     54  C   UNL     1      -3.513  -5.888  -6.918  1.00  0.00     0.134 A 
ATOM     55  F   UNL     1      -1.825  -6.857  -9.976  1.00  0.00    -0.206 F 
ATOM     56  C   UNL     1      -4.054  -7.148  -9.320  1.00  0.00     0.040 A 
ATOM     57  C   UNL     1      -4.799  -6.372  -7.178  1.00  0.00     0.040 A 
ATOM     58  F   UNL     1      -3.305  -5.369  -5.699  1.00  0.00    -0.206 F 
ATOM     59  C   UNL     1      -5.070  -7.017  -8.378  1.00  0.00     0.006 A 
ENDBRANCH  31  52
BRANCH  43  60
ATOM     60  C   UNL     1       3.711  -5.459  -9.019  1.00  0.00     0.057 A 
ATOM     61  C   UNL     1       3.213  -4.173  -8.764  1.00  0.00     0.134 A 
ATOM     62  C   UNL     1       4.677  -5.580 -10.024  1.00  0.00     0.134 A 
ATOM     63  F   UNL     1       2.363  -3.946  -7.754  1.00  0.00    -0.206 F 
ATOM     64  C   UNL     1       3.631  -3.064  -9.505  1.00  0.00     0.040 A 
ATOM     65  C   UNL     1       5.127  -4.475 -10.749  1.00  0.00     0.040 A 
ATOM     66  F   UNL     1       5.242  -6.772 -10.280  1.00  0.00    -0.206 F 
ATOM     67  C   UNL     1       4.598  -3.213 -10.496  1.00  0.00     0.006 A 
ENDBRANCH  43  60
ENDBRANCH  17  18
ENDBRANCH  10  12
ENDBRANCH   7   8
ENDBRANCH   6   7
ENDBRANCH   5   6
ENDBRANCH   1   5
BRANCH   2  68
ATOM     68  C   UNL     1       6.294   5.454  -2.079  1.00  0.00     0.039 A 
ATOM     69  C   UNL     1       7.675   5.406  -2.300  1.00  0.00     0.016 A 
ATOM     70  C   UNL     1       5.427   5.829  -3.106  1.00  0.00     0.016 A 
ATOM     71  C   UNL     1       8.190   5.663  -3.575  1.00  0.00     0.029 A 
ATOM     72  C   UNL     1       5.939   6.111  -4.373  1.00  0.00     0.029 A 
ATOM     73  C   UNL     1       7.323   6.025  -4.612  1.00  0.00     0.066 A 
BRANCH  73  74
ATOM     74  N   UNL     1       7.841   6.338  -5.892  1.00  0.00    -0.220 N 
ATOM     75  C   UNL     1       7.214   7.044  -6.885  1.00  0.00     0.141 A 
ATOM     76  N   UNL     1       9.055   5.934  -6.335  1.00  0.00    -0.062 NA
ATOM     77  C   UNL     1       8.090   7.065  -7.945  1.00  0.00     0.093 A 
ATOM     78  N   UNL     1       9.196   6.336  -7.597  1.00  0.00    -0.134 NA
BRANCH  77  79
ATOM     79  C   UNL     1       7.852   7.547  -9.324  1.00  0.00     0.138 C 
BRANCH  79  80
ATOM     80  S   UNL     1       8.251   9.217  -9.849  1.00  0.00    -0.081 SA
BRANCH  80  81
ATOM     81  C   UNL     1       8.771  10.184  -8.495  1.00  0.00     0.176 A 
ATOM     82  N   UNL     1       9.890  10.796  -8.746  1.00  0.00    -0.223 NA
ATOM     83  N   UNL     1       8.079  10.345  -7.296  1.00  0.00    -0.255 N 
ATOM     84  C   UNL     1      10.465  11.585  -7.748  1.00  0.00     0.079 A 
ATOM     85  C   UNL     1       8.911  10.578  -6.188  1.00  0.00     0.266 A 
ATOM     86  C   UNL     1      11.482  12.492  -8.051  1.00  0.00     0.029 A 
ATOM     87  C   UNL     1      10.091  11.419  -6.426  1.00  0.00     0.066 A 
ATOM     88  O   UNL     1       8.759  10.121  -5.056  1.00  0.00    -0.268 OA
ATOM     89  C   UNL     1      12.142  13.181  -7.028  1.00  0.00     0.002 A 
ATOM     90  C   UNL     1      10.768  12.067  -5.387  1.00  0.00     0.016 A 
ATOM     91  C   UNL     1      11.804  12.948  -5.694  1.00  0.00     0.001 A 
BRANCH  83  92
ATOM     92  C   UNL     1       6.644  10.217  -7.067  1.00  0.00     0.051 A 
ATOM     93  C   UNL     1       6.101  10.465  -5.786  1.00  0.00     0.028 A 
ATOM     94  C   UNL     1       5.705   9.872  -8.050  1.00  0.00     0.028 A 
ATOM     95  C   UNL     1       4.775  10.157  -5.453  1.00  0.00     0.022 A 
ATOM     96  C   UNL     1       4.383   9.520  -7.723  1.00  0.00     0.022 A 
ATOM     97  C   UNL     1       3.937   9.623  -6.414  1.00  0.00     0.041 A 
ATOM     98  Cl  UNL     1       2.365   9.085  -5.987  1.00  0.00    -0.084 Cl
ENDBRANCH  83  92
ENDBRANCH  80  81
ENDBRANCH  79  80
ENDBRANCH  77  79
ENDBRANCH  73  74
ENDBRANCH   2  68
TORSDOF 15
