REMARK SMILES Cc1nc(N2CCCC[C@H]2C(=O)NCCCNC(=O)c2ccc(-c3c4nc(c(-c5c(F)cccc5F)c5ccc([nH]5)c(-c5c(F)cccc5F)c5nc(c(-c6c(F)cccc6F)c6ccc3[nH]6)C=C5)C=C4)cc2)c2oc3ccccc3c2n1
REMARK SMILES IDX 15 1 14 2 13 3 11 4 12 5 10 7 5 8 6 9 7 10 9 11 8 12 4 13
REMARK SMILES IDX 1 14 2 15 3 16 83 17 82 18 74 19 81 20 75 21 76 22 80 23
REMARK SMILES IDX 77 24 79 25 78 26 16 27 17 28 18 29 19 31 20 32 21 33 73 34
REMARK SMILES IDX 22 35 72 36 23 37 24 38 25 39 66 40 26 41 71 42 65 43 67 44
REMARK SMILES IDX 27 45 70 46 64 47 63 48 28 50 54 51 37 52 53 53 38 54 41 55
REMARK SMILES IDX 52 56 68 57 39 58 40 59 51 61 69 62 42 63 29 64 30 65 35 66
REMARK SMILES IDX 31 67 32 68 34 69 36 70 33 71 55 72 56 73 61 74 57 75 58 76
REMARK SMILES IDX 60 77 62 78 59 79 43 80 44 81 49 82 45 83 46 84 48 85 50 86
REMARK SMILES IDX 47 87
REMARK H PARENT 13 6 17 30 67 49 41 60
REMARK Flexibility Score: inf
ROOT
ATOM      1  C   UNL     1      -2.562  -6.718  -4.151  1.00  0.00     0.042 C 
ENDROOT
BRANCH   1   2
ATOM      2  C   UNL     1      -2.349  -5.660  -3.063  1.00  0.00     0.117 C 
BRANCH   2   3
ATOM      3  N   UNL     1      -1.066  -4.999  -3.215  1.00  0.00    -0.354 N 
ATOM      4  C   UNL     1      -0.669  -3.822  -3.771  1.00  0.00     0.242 C 
ATOM      5  O   UNL     1       0.552  -3.735  -3.949  1.00  0.00    -0.273 OA
ATOM      6  H   UNL     1      -0.320  -5.514  -2.831  1.00  0.00     0.163 HD
BRANCH   4   7
ATOM      7  C   UNL     1      -1.659  -2.664  -4.083  1.00  0.00     0.173 C 
ATOM      8  N   UNL     1      -0.953  -1.470  -4.590  1.00  0.00    -0.341 N 
ATOM      9  C   UNL     1      -0.346  -1.556  -5.917  1.00  0.00     0.119 C 
ATOM     10  C   UNL     1      -1.445  -1.812  -6.937  1.00  0.00     0.022 C 
ATOM     11  C   UNL     1      -2.765  -2.971  -5.113  1.00  0.00     0.035 C 
ATOM     12  C   UNL     1      -2.257  -3.047  -6.556  1.00  0.00     0.004 C 
BRANCH   8  13
ATOM     13  C   UNL     1      -0.549  -0.468  -3.735  1.00  0.00     0.176 A 
ATOM     14  C   UNL     1       0.627  -0.100  -0.253  1.00  0.00     0.090 C 
ATOM     15  C   UNL     1       0.181   0.282  -1.632  1.00  0.00     0.128 A 
ATOM     16  N   UNL     1      -0.266  -0.720  -2.431  1.00  0.00    -0.212 NA
ATOM     17  N   UNL     1       0.325   1.583  -1.964  1.00  0.00    -0.229 NA
ATOM     18  C   UNL     1      -0.028   1.850  -3.242  1.00  0.00     0.123 A 
ATOM     19  C   UNL     1      -0.443   0.868  -4.122  1.00  0.00     0.196 A 
ATOM     20  C   UNL     1      -0.075   3.078  -3.957  1.00  0.00     0.047 A 
ATOM     21  O   UNL     1      -0.749   1.414  -5.335  1.00  0.00    -0.450 OA
ATOM     22  C   UNL     1      -0.528   2.751  -5.231  1.00  0.00     0.137 A 
ATOM     23  C   UNL     1       0.200   4.429  -3.674  1.00  0.00     0.014 A 
ATOM     24  C   UNL     1      -0.733   3.674  -6.253  1.00  0.00     0.048 A 
ATOM     25  C   UNL     1       0.001   5.383  -4.684  1.00  0.00     0.001 A 
ATOM     26  C   UNL     1      -0.459   5.010  -5.950  1.00  0.00     0.004 A 
ENDBRANCH   8  13
ENDBRANCH   4   7
ENDBRANCH   2   3
ENDBRANCH   1   2
BRANCH   1  27
ATOM     27  C   UNL     1      -1.362  -7.642  -4.383  1.00  0.00     0.118 C 
BRANCH  27  28
ATOM     28  N   UNL     1      -1.101  -8.579  -3.296  1.00  0.00    -0.352 N 
ATOM     29  C   UNL     1      -1.350  -9.937  -3.225  1.00  0.00     0.251 C 
ATOM     30  H   UNL     1      -0.688  -8.186  -2.493  1.00  0.00     0.163 HD
ATOM     31  O   UNL     1      -1.085 -10.581  -2.229  1.00  0.00    -0.269 OA
BRANCH  29  32
ATOM     32  C   UNL     1      -2.016 -10.576  -4.375  1.00  0.00     0.039 A 
ATOM     33  C   UNL     1      -1.413 -10.549  -5.635  1.00  0.00     0.014 A 
ATOM     34  C   UNL     1      -3.320 -11.041  -4.202  1.00  0.00     0.014 A 
ATOM     35  C   UNL     1      -2.195 -10.787  -6.756  1.00  0.00     0.010 A 
ATOM     36  C   UNL     1      -4.088 -11.328  -5.325  1.00  0.00     0.010 A 
ATOM     37  C   UNL     1      -3.547 -11.119  -6.601  1.00  0.00    -0.014 A 
BRANCH  37  38
ATOM     38  C   UNL     1      -4.384 -11.130  -7.808  1.00  0.00     0.031 A 
ATOM     39  C   UNL     1      -4.977 -12.441  -8.175  1.00  0.00     0.074 A 
ATOM     40  C   UNL     1      -5.045 -10.016  -8.189  1.00  0.00     0.049 A 
ATOM     41  N   UNL     1      -6.044 -12.910  -7.600  1.00  0.00    -0.248 NA
ATOM     42  C   UNL     1      -4.294 -13.393  -9.046  1.00  0.00     0.031 C 
ATOM     43  C   UNL     1      -5.466  -8.950  -7.267  1.00  0.00     0.029 A 
ATOM     44  N   UNL     1      -5.674  -9.708  -9.370  1.00  0.00    -0.354 N 
ATOM     45  C   UNL     1      -6.151 -14.234  -7.972  1.00  0.00     0.074 A 
ATOM     46  C   UNL     1      -5.056 -14.486  -8.886  1.00  0.00     0.031 C 
ATOM     47  C   UNL     1      -6.431  -8.222  -7.862  1.00  0.00     0.029 A 
ATOM     48  C   UNL     1      -6.564  -8.646  -9.250  1.00  0.00     0.049 A 
ATOM     49  H   UNL     1      -5.512 -10.189 -10.214  1.00  0.00     0.167 HD
ATOM     50  C   UNL     1      -7.117 -15.061  -7.499  1.00  0.00     0.037 A 
ATOM     51  C   UNL     1      -7.684  -8.466  -9.998  1.00  0.00     0.037 A 
ATOM     52  C   UNL     1      -8.071 -14.477  -6.607  1.00  0.00     0.049 A 
ATOM     53  C   UNL     1      -8.541  -9.617  -9.551  1.00  0.00     0.074 A 
ATOM     54  C   UNL     1      -8.213 -14.322  -5.245  1.00  0.00     0.029 A 
ATOM     55  N   UNL     1      -9.137 -13.802  -7.153  1.00  0.00    -0.354 N 
ATOM     56  N   UNL     1      -9.275  -9.643  -8.471  1.00  0.00    -0.248 NA
ATOM     57  C   UNL     1      -8.312 -10.929 -10.161  1.00  0.00     0.031 C 
ATOM     58  C   UNL     1      -9.092 -13.206  -5.075  1.00  0.00     0.029 A 
ATOM     59  C   UNL     1      -9.373 -12.715  -6.348  1.00  0.00     0.049 A 
ATOM     60  H   UNL     1      -9.635 -14.050  -7.965  1.00  0.00     0.167 HD
ATOM     61  C   UNL     1      -9.365 -10.990  -8.116  1.00  0.00     0.074 A 
ATOM     62  C   UNL     1      -8.786 -11.730  -9.217  1.00  0.00     0.031 C 
ATOM     63  C   UNL     1      -9.721 -11.413  -6.868  1.00  0.00     0.037 A 
BRANCH  50  64
ATOM     64  C   UNL     1      -7.290 -16.449  -7.949  1.00  0.00     0.057 A 
ATOM     65  C   UNL     1      -6.650 -17.518  -7.322  1.00  0.00     0.134 A 
ATOM     66  C   UNL     1      -8.262 -16.732  -8.914  1.00  0.00     0.134 A 
ATOM     67  F   UNL     1      -5.718 -17.300  -6.383  1.00  0.00    -0.206 F 
ATOM     68  C   UNL     1      -6.992 -18.837  -7.627  1.00  0.00     0.040 A 
ATOM     69  C   UNL     1      -8.615 -18.042  -9.226  1.00  0.00     0.040 A 
ATOM     70  F   UNL     1      -8.911 -15.730  -9.531  1.00  0.00    -0.206 F 
ATOM     71  C   UNL     1      -7.987 -19.099  -8.572  1.00  0.00     0.006 A 
ENDBRANCH  50  64
BRANCH  51  72
ATOM     72  C   UNL     1      -7.429  -8.107 -11.425  1.00  0.00     0.057 A 
ATOM     73  C   UNL     1      -7.983  -8.737 -12.545  1.00  0.00     0.134 A 
ATOM     74  C   UNL     1      -6.567  -7.025 -11.698  1.00  0.00     0.134 A 
ATOM     75  F   UNL     1      -8.909  -9.696 -12.421  1.00  0.00    -0.206 F 
ATOM     76  C   UNL     1      -7.599  -8.405 -13.851  1.00  0.00     0.040 A 
ATOM     77  C   UNL     1      -6.190  -6.669 -12.995  1.00  0.00     0.040 A 
ATOM     78  F   UNL     1      -6.068  -6.283 -10.695  1.00  0.00    -0.206 F 
ATOM     79  C   UNL     1      -6.687  -7.380 -14.079  1.00  0.00     0.006 A 
ENDBRANCH  51  72
BRANCH  63  80
ATOM     80  C   UNL     1     -10.228 -10.350  -5.957  1.00  0.00     0.057 A 
ATOM     81  C   UNL     1      -9.471  -9.870  -4.881  1.00  0.00     0.134 A 
ATOM     82  C   UNL     1     -11.500  -9.799  -6.150  1.00  0.00     0.134 A 
ATOM     83  F   UNL     1      -8.232 -10.332  -4.646  1.00  0.00    -0.206 F 
ATOM     84  C   UNL     1      -9.976  -8.907  -4.005  1.00  0.00     0.040 A 
ATOM     85  C   UNL     1     -12.006  -8.818  -5.296  1.00  0.00     0.040 A 
ATOM     86  F   UNL     1     -12.278 -10.220  -7.160  1.00  0.00    -0.206 F 
ATOM     87  C   UNL     1     -11.247  -8.377  -4.213  1.00  0.00     0.006 A 
ENDBRANCH  63  80
ENDBRANCH  37  38
ENDBRANCH  29  32
ENDBRANCH  27  28
ENDBRANCH   1  27
TORSDOF 11
