REMARK SMILES Cc1c(Cl)cccc1NC(=O)C[C@](C)(C(=O)NCCCNC(=O)c1ccc(-c2c3nc(c(-c4c(F)cccc4F)c4ccc([nH]4)c(-c4c(F)cccc4F)c4nc(c(-c5c(F)cccc5F)c5ccc2[nH]5)C=C4)C=C3)cc1)c1ccccc1
REMARK SMILES IDX 18 1 17 2 15 3 16 4 13 6 14 7 12 8 10 9 9 10 11 12 8 13 1 14
REMARK SMILES IDX 2 15 3 16 4 17 5 18 7 19 6 20 78 21 79 22 83 23 80 24 82 25
REMARK SMILES IDX 81 26 19 27 20 28 21 29 22 30 23 32 24 33 25 34 77 35 26 36
REMARK SMILES IDX 76 37 27 38 28 39 29 40 70 41 30 42 75 43 69 44 71 45 31 46
REMARK SMILES IDX 74 47 68 48 67 49 32 51 58 52 41 53 57 54 42 55 45 56 56 57
REMARK SMILES IDX 72 58 43 59 44 60 55 62 73 63 46 64 33 65 34 66 39 67 35 68
REMARK SMILES IDX 36 69 38 70 40 71 37 72 59 73 60 74 65 75 61 76 62 77 64 78
REMARK SMILES IDX 66 79 63 80 47 81 48 82 53 83 49 84 50 85 52 86 54 87 51 88
REMARK H PARENT 17 5 9 11 21 31 71 50 45 61
REMARK Flexibility Score: inf
ROOT
ATOM      1  C   UNL     1      -4.279  -2.218   1.627  1.00  0.00     0.117 C 
ENDROOT
BRANCH   1   2
ATOM      2  N   UNL     1      -5.141  -1.460  -0.121  1.00  0.00    -0.355 N 
ATOM      3  C   UNL     1      -5.171  -0.599  -1.272  1.00  0.00     0.230 C 
ATOM      4  O   UNL     1      -6.168  -0.884  -1.962  1.00  0.00    -0.274 OA
ATOM      5  H   UNL     1      -5.981  -1.968  -0.197  1.00  0.00     0.163 HD
BRANCH   3   6
ATOM      6  C   UNL     1      -4.225   0.649  -1.707  1.00  0.00     0.080 C 
ATOM      7  C   UNL     1      -4.556   1.818  -0.703  1.00  0.00     0.027 C 
BRANCH   6   8
ATOM      8  C   UNL     1      -2.683   0.372  -1.835  1.00  0.00     0.121 C 
BRANCH   8   9
ATOM      9  C   UNL     1      -2.197  -1.025  -2.171  1.00  0.00     0.225 C 
ATOM     10  N   UNL     1      -2.318  -2.043  -1.273  1.00  0.00    -0.326 N 
ATOM     11  H   UNL     1      -1.736  -2.830  -1.380  1.00  0.00     0.169 HD
ATOM     12  O   UNL     1      -1.643  -1.265  -3.246  1.00  0.00    -0.275 OA
BRANCH  10  13
ATOM     13  C   UNL     1      -3.218  -2.027  -0.216  1.00  0.00     0.045 A 
ATOM     14  C   UNL     1      -3.942  -4.786  -0.553  1.00  0.00     0.048 C 
ATOM     15  C   UNL     1      -4.401  -3.399  -0.195  1.00  0.00    -0.009 A 
ATOM     16  C   UNL     1      -5.963  -3.225   0.701  1.00  0.00     0.046 A 
ATOM     17  Cl  UNL     1      -7.029  -4.561   0.888  1.00  0.00    -0.084 Cl
ATOM     18  C   UNL     1      -6.372  -1.678   1.516  1.00  0.00     0.021 A 
ATOM     19  C   UNL     1      -3.574  -0.492   0.721  1.00  0.00     0.026 A 
ATOM     20  C   UNL     1      -5.193  -0.302   1.525  1.00  0.00     0.004 A 
ENDBRANCH  10  13
ENDBRANCH   8   9
ENDBRANCH   6   8
BRANCH   6  21
ATOM     21  C   UNL     1      -4.573   1.341  -3.091  1.00  0.00    -0.032 A 
ATOM     22  C   UNL     1      -4.093   2.666  -3.315  1.00  0.00     0.005 A 
ATOM     23  C   UNL     1      -5.315   0.763  -4.122  1.00  0.00     0.005 A 
ATOM     24  C   UNL     1      -4.447   3.415  -4.433  1.00  0.00     0.000 A 
ATOM     25  C   UNL     1      -5.660   1.513  -5.258  1.00  0.00     0.000 A 
ATOM     26  C   UNL     1      -5.250   2.839  -5.402  1.00  0.00     0.000 A 
ENDBRANCH   6  21
ENDBRANCH   3   6
ENDBRANCH   1   2
BRANCH   1  27
ATOM     27  C   UNL     1      -4.440  -1.818   3.275  1.00  0.00     0.042 C 
BRANCH  27  28
ATOM     28  C   UNL     1      -4.918  -3.020   4.068  1.00  0.00     0.118 C 
BRANCH  28  29
ATOM     29  N   UNL     1      -4.131  -4.233   3.881  1.00  0.00    -0.352 N 
ATOM     30  C   UNL     1      -4.412  -5.454   4.448  1.00  0.00     0.251 C 
ATOM     31  H   UNL     1      -3.336  -4.173   3.303  1.00  0.00     0.163 HD
ATOM     32  O   UNL     1      -3.777  -6.465   4.193  1.00  0.00    -0.269 OA
BRANCH  30  33
ATOM     33  C   UNL     1      -5.449  -5.425   5.486  1.00  0.00     0.039 A 
ATOM     34  C   UNL     1      -4.996  -5.326   6.801  1.00  0.00     0.014 A 
ATOM     35  C   UNL     1      -6.762  -5.112   5.128  1.00  0.00     0.014 A 
ATOM     36  C   UNL     1      -5.870  -4.869   7.774  1.00  0.00     0.010 A 
ATOM     37  C   UNL     1      -7.588  -4.536   6.081  1.00  0.00     0.010 A 
ATOM     38  C   UNL     1      -7.159  -4.442   7.415  1.00  0.00    -0.014 A 
BRANCH  38  39
ATOM     39  C   UNL     1      -8.094  -3.998   8.469  1.00  0.00     0.031 A 
ATOM     40  C   UNL     1      -9.315  -4.829   8.734  1.00  0.00     0.074 A 
ATOM     41  C   UNL     1      -7.816  -2.904   9.203  1.00  0.00     0.049 A 
ATOM     42  N   UNL     1     -10.221  -4.689   9.664  1.00  0.00    -0.248 NA
ATOM     43  C   UNL     1      -9.568  -5.956   7.818  1.00  0.00     0.031 C 
ATOM     44  C   UNL     1      -6.675  -2.008   8.996  1.00  0.00     0.029 A 
ATOM     45  N   UNL     1      -8.460  -2.373  10.290  1.00  0.00    -0.354 N 
ATOM     46  C   UNL     1     -11.142  -5.704   9.438  1.00  0.00     0.074 A 
ATOM     47  C   UNL     1     -10.740  -6.396   8.239  1.00  0.00     0.031 C 
ATOM     48  C   UNL     1      -6.673  -1.069   9.957  1.00  0.00     0.029 A 
ATOM     49  C   UNL     1      -7.829  -1.275  10.824  1.00  0.00     0.049 A 
ATOM     50  H   UNL     1      -9.296  -2.743  10.654  1.00  0.00     0.167 HD
ATOM     51  C   UNL     1     -12.207  -6.054  10.190  1.00  0.00     0.037 A 
ATOM     52  C   UNL     1      -8.151  -0.529  11.898  1.00  0.00     0.037 A 
ATOM     53  C   UNL     1     -12.581  -5.367  11.393  1.00  0.00     0.049 A 
ATOM     54  C   UNL     1      -9.359  -0.925  12.706  1.00  0.00     0.074 A 
ATOM     55  C   UNL     1     -13.616  -5.654  12.262  1.00  0.00     0.029 A 
ATOM     56  N   UNL     1     -11.931  -4.246  11.890  1.00  0.00    -0.354 N 
ATOM     57  N   UNL     1     -10.180  -1.934  12.527  1.00  0.00    -0.248 NA
ATOM     58  C   UNL     1      -9.681  -0.089  13.869  1.00  0.00     0.031 C 
ATOM     59  C   UNL     1     -13.638  -4.662  13.246  1.00  0.00     0.029 A 
ATOM     60  C   UNL     1     -12.568  -3.805  13.036  1.00  0.00     0.049 A 
ATOM     61  H   UNL     1     -11.137  -3.827  11.487  1.00  0.00     0.167 HD
ATOM     62  C   UNL     1     -11.096  -1.871  13.568  1.00  0.00     0.074 A 
ATOM     63  C   UNL     1     -10.715  -0.737  14.386  1.00  0.00     0.031 C 
ATOM     64  C   UNL     1     -12.159  -2.673  13.829  1.00  0.00     0.037 A 
BRANCH  51  65
ATOM     65  C   UNL     1     -13.037  -7.211   9.718  1.00  0.00     0.057 A 
ATOM     66  C   UNL     1     -12.548  -8.525   9.698  1.00  0.00     0.134 A 
ATOM     67  C   UNL     1     -14.350  -7.006   9.277  1.00  0.00     0.134 A 
ATOM     68  F   UNL     1     -11.289  -8.789  10.082  1.00  0.00    -0.206 F 
ATOM     69  C   UNL     1     -13.324  -9.587   9.232  1.00  0.00     0.040 A 
ATOM     70  C   UNL     1     -15.148  -8.065   8.842  1.00  0.00     0.040 A 
ATOM     71  F   UNL     1     -14.880  -5.774   9.262  1.00  0.00    -0.206 F 
ATOM     72  C   UNL     1     -14.632  -9.359   8.811  1.00  0.00     0.006 A 
ENDBRANCH  51  65
BRANCH  52  73
ATOM     73  C   UNL     1      -7.327   0.651  12.274  1.00  0.00     0.057 A 
ATOM     74  C   UNL     1      -6.605   0.692  13.473  1.00  0.00     0.134 A 
ATOM     75  C   UNL     1      -7.260   1.782  11.449  1.00  0.00     0.134 A 
ATOM     76  F   UNL     1      -6.635  -0.350  14.316  1.00  0.00    -0.206 F 
ATOM     77  C   UNL     1      -5.875   1.822  13.852  1.00  0.00     0.040 A 
ATOM     78  C   UNL     1      -6.509   2.905  11.800  1.00  0.00     0.040 A 
ATOM     79  F   UNL     1      -7.918   1.807  10.280  1.00  0.00    -0.206 F 
ATOM     80  C   UNL     1      -5.823   2.931  13.011  1.00  0.00     0.006 A 
ENDBRANCH  52  73
BRANCH  64  81
ATOM     81  C   UNL     1     -12.957  -2.374  15.065  1.00  0.00     0.057 A 
ATOM     82  C   UNL     1     -13.760  -1.232  15.173  1.00  0.00     0.134 A 
ATOM     83  C   UNL     1     -12.956  -3.270  16.142  1.00  0.00     0.134 A 
ATOM     84  F   UNL     1     -13.800  -0.330  14.180  1.00  0.00    -0.206 F 
ATOM     85  C   UNL     1     -14.506  -0.974  16.323  1.00  0.00     0.040 A 
ATOM     86  C   UNL     1     -13.728  -3.043  17.280  1.00  0.00     0.040 A 
ATOM     87  F   UNL     1     -12.222  -4.392  16.095  1.00  0.00    -0.206 F 
ATOM     88  C   UNL     1     -14.498  -1.886  17.377  1.00  0.00     0.006 A 
ENDBRANCH  64  81
ENDBRANCH  38  39
ENDBRANCH  30  33
ENDBRANCH  28  29
ENDBRANCH  27  28
ENDBRANCH   1  27
TORSDOF 14
