REMARK SMILES O=C(COc1ccc(Cl)c2ccccc12)N[C@@H](Cc1c[nH]c2ccccc12)C(=O)NCCCNC(=O)c1ccc(-c2c3nc(c(-c4c(F)cccc4F)c4ccc([nH]4)c(-c4c(F)cccc4F)c4nc(c(-c5c(F)cccc5F)c5ccc2[nH]5)C=C4)C=C3)cc1
REMARK SMILES IDX 31 1 30 2 28 3 29 4 17 6 16 7 1 8 2 9 3 11 4 12 5 13 6 14
REMARK SMILES IDX 15 15 7 16 10 17 14 18 8 19 11 20 13 21 9 22 12 23 18 24
REMARK SMILES IDX 19 25 20 26 27 27 21 28 22 29 26 30 23 32 25 33 24 34 32 35
REMARK SMILES IDX 33 36 34 37 35 38 36 40 37 41 38 42 90 43 39 44 89 45 40 46
REMARK SMILES IDX 41 47 42 48 83 49 43 50 88 51 82 52 84 53 44 54 87 55 81 56
REMARK SMILES IDX 80 57 45 59 71 60 54 61 70 62 55 63 58 64 69 65 85 66 56 67
REMARK SMILES IDX 57 68 68 70 86 71 59 72 46 73 47 74 52 75 48 76 49 77 51 78
REMARK SMILES IDX 53 79 50 80 72 81 73 82 78 83 74 84 75 85 77 86 79 87 76 88
REMARK SMILES IDX 60 89 61 90 66 91 62 92 63 93 65 94 67 95 64 96
REMARK H PARENT 30 5 16 10 21 31 34 39 84 58 58 69
REMARK Flexibility Score: inf
ROOT
ATOM      1  C   UNL     1       5.010   2.509   1.812  1.00  0.00     0.117 C 
ENDROOT
BRANCH   1   2
ATOM      2  N   UNL     1       3.724   3.112   1.530  1.00  0.00    -0.354 N 
ATOM      3  C   UNL     1       2.483   2.688   1.920  1.00  0.00     0.242 C 
ATOM      4  O   UNL     1       1.615   3.560   2.035  1.00  0.00    -0.273 OA
ATOM      5  H   UNL     1       3.746   3.933   0.988  1.00  0.00     0.163 HD
BRANCH   3   6
ATOM      6  C   UNL     1       2.173   1.212   2.272  1.00  0.00     0.175 C 
BRANCH   6   7
ATOM      7  N   UNL     1       2.753   0.296   1.280  1.00  0.00    -0.341 N 
ATOM      8  O   UNL     1       0.771  -0.271   0.268  1.00  0.00    -0.271 OA
ATOM      9  C   UNL     1       1.997  -0.216   0.245  1.00  0.00     0.258 C 
ATOM     10  H   UNL     1       3.702   0.043   1.355  1.00  0.00     0.164 HD
BRANCH   9  11
ATOM     11  C   UNL     1       2.811  -0.681  -0.967  1.00  0.00     0.329 C 
BRANCH  11  12
ATOM     12  O   UNL     1       3.696   0.321  -1.483  1.00  0.00    -0.483 OA
BRANCH  12  13
ATOM     13  C   UNL     1       3.083   1.149  -2.401  1.00  0.00     0.128 A 
ATOM     14  C   UNL     1       2.109   2.051  -1.968  1.00  0.00     0.048 A 
ATOM     15  C   UNL     1       3.521   1.147  -3.749  1.00  0.00     0.025 A 
ATOM     16  C   UNL     1       1.516   2.925  -2.871  1.00  0.00     0.025 A 
ATOM     17  C   UNL     1       2.921   2.045  -4.675  1.00  0.00     0.004 A 
ATOM     18  C   UNL     1       4.536   0.279  -4.209  1.00  0.00     0.012 A 
ATOM     19  C   UNL     1       1.911   2.922  -4.209  1.00  0.00     0.049 A 
ATOM     20  C   UNL     1       3.368   2.025  -6.019  1.00  0.00     0.010 A 
ATOM     21  C   UNL     1       4.958   0.285  -5.540  1.00  0.00     0.001 A 
ATOM     22  Cl  UNL     1       1.115   4.056  -5.253  1.00  0.00    -0.084 Cl
ATOM     23  C   UNL     1       4.373   1.158  -6.446  1.00  0.00     0.001 A 
ENDBRANCH  12  13
ENDBRANCH  11  12
ENDBRANCH   9  11
ENDBRANCH   6   7
BRANCH   6  24
ATOM     24  C   UNL     1       2.388   0.847   3.753  1.00  0.00     0.072 C 
BRANCH  24  25
ATOM     25  C   UNL     1       3.787   0.914   4.286  1.00  0.00    -0.020 A 
ATOM     26  C   UNL     1       4.353   1.976   4.971  1.00  0.00     0.087 A 
ATOM     27  C   UNL     1       4.797  -0.098   4.196  1.00  0.00     0.003 A 
ATOM     28  N   UNL     1       5.675   1.691   5.197  1.00  0.00    -0.361 N 
ATOM     29  C   UNL     1       5.979   0.444   4.705  1.00  0.00     0.046 A 
ATOM     30  C   UNL     1       4.826  -1.412   3.686  1.00  0.00     0.010 A 
ATOM     31  H   UNL     1       6.313   2.292   5.646  1.00  0.00     0.166 HD
ATOM     32  C   UNL     1       7.200  -0.238   4.675  1.00  0.00     0.026 A 
ATOM     33  C   UNL     1       6.032  -2.121   3.680  1.00  0.00     0.001 A 
ATOM     34  C   UNL     1       7.204  -1.534   4.153  1.00  0.00     0.002 A 
ENDBRANCH  24  25
ENDBRANCH   6  24
ENDBRANCH   3   6
ENDBRANCH   1   2
BRANCH   1  35
ATOM     35  C   UNL     1       6.062   2.735   0.749  1.00  0.00     0.042 C 
BRANCH  35  36
ATOM     36  C   UNL     1       6.638   4.141   0.781  1.00  0.00     0.118 C 
BRANCH  36  37
ATOM     37  N   UNL     1       7.318   4.456   2.040  1.00  0.00    -0.352 N 
ATOM     38  C   UNL     1       8.653   4.621   2.335  1.00  0.00     0.251 C 
ATOM     39  H   UNL     1       6.715   4.569   2.810  1.00  0.00     0.163 HD
ATOM     40  O   UNL     1       9.017   4.670   3.502  1.00  0.00    -0.269 OA
BRANCH  38  41
ATOM     41  C   UNL     1       9.643   4.712   1.240  1.00  0.00     0.039 A 
ATOM     42  C   UNL     1      10.883   4.083   1.376  1.00  0.00     0.014 A 
ATOM     43  C   UNL     1       9.338   5.403   0.069  1.00  0.00     0.014 A 
ATOM     44  C   UNL     1      11.765   4.055   0.292  1.00  0.00     0.010 A 
ATOM     45  C   UNL     1      10.152   5.264  -1.044  1.00  0.00     0.010 A 
ATOM     46  C   UNL     1      11.378   4.591  -0.947  1.00  0.00    -0.014 A 
BRANCH  46  47
ATOM     47  C   UNL     1      12.224   4.473  -2.161  1.00  0.00     0.031 A 
ATOM     48  C   UNL     1      12.660   5.715  -2.892  1.00  0.00     0.074 A 
ATOM     49  C   UNL     1      12.501   3.256  -2.669  1.00  0.00     0.049 A 
ATOM     50  N   UNL     1      13.266   5.827  -4.047  1.00  0.00    -0.248 NA
ATOM     51  C   UNL     1      12.328   7.004  -2.263  1.00  0.00     0.031 C 
ATOM     52  C   UNL     1      12.075   1.977  -2.095  1.00  0.00     0.029 A 
ATOM     53  N   UNL     1      13.194   2.897  -3.797  1.00  0.00    -0.354 N 
ATOM     54  C   UNL     1      13.354   7.191  -4.294  1.00  0.00     0.074 A 
ATOM     55  C   UNL     1      12.686   7.865  -3.204  1.00  0.00     0.031 C 
ATOM     56  C   UNL     1      12.541   0.975  -2.858  1.00  0.00     0.029 A 
ATOM     57  C   UNL     1      13.259   1.538  -3.995  1.00  0.00     0.049 A 
ATOM     58  H   UNL     1      13.607   3.550  -4.407  1.00  0.00     0.167 HD
ATOM     59  C   UNL     1      13.965   7.828  -5.320  1.00  0.00     0.037 A 
ATOM     60  C   UNL     1      13.829   0.829  -4.987  1.00  0.00     0.037 A 
ATOM     61  C   UNL     1      14.672   7.156  -6.377  1.00  0.00     0.049 A 
ATOM     62  C   UNL     1      14.531   1.557  -6.097  1.00  0.00     0.074 A 
ATOM     63  C   UNL     1      15.386   7.708  -7.425  1.00  0.00     0.029 A 
ATOM     64  N   UNL     1      14.761   5.779  -6.511  1.00  0.00    -0.354 N 
ATOM     65  N   UNL     1      14.662   2.848  -6.286  1.00  0.00    -0.248 NA
ATOM     66  C   UNL     1      15.172   0.731  -7.130  1.00  0.00     0.031 C 
ATOM     67  C   UNL     1      15.883   6.664  -8.211  1.00  0.00     0.029 A 
ATOM     68  C   UNL     1      15.512   5.462  -7.630  1.00  0.00     0.049 A 
ATOM     69  H   UNL     1      14.352   5.123  -5.901  1.00  0.00     0.167 HD
ATOM     70  C   UNL     1      15.419   2.990  -7.441  1.00  0.00     0.074 A 
ATOM     71  C   UNL     1      15.731   1.652  -7.902  1.00  0.00     0.031 C 
ATOM     72  C   UNL     1      15.819   4.124  -8.065  1.00  0.00     0.037 A 
BRANCH  59  73
ATOM     73  C   UNL     1      13.909   9.328  -5.332  1.00  0.00     0.057 A 
ATOM     74  C   UNL     1      14.606  10.100  -4.392  1.00  0.00     0.134 A 
ATOM     75  C   UNL     1      13.164  10.011  -6.301  1.00  0.00     0.134 A 
ATOM     76  F   UNL     1      15.326   9.508  -3.427  1.00  0.00    -0.206 F 
ATOM     77  C   UNL     1      14.538  11.494  -4.395  1.00  0.00     0.040 A 
ATOM     78  C   UNL     1      13.112  11.406  -6.333  1.00  0.00     0.040 A 
ATOM     79  F   UNL     1      12.477   9.335  -7.235  1.00  0.00    -0.206 F 
ATOM     80  C   UNL     1      13.794  12.151  -5.373  1.00  0.00     0.006 A 
ENDBRANCH  59  73
BRANCH  60  81
ATOM     81  C   UNL     1      13.789  -0.655  -4.957  1.00  0.00     0.057 A 
ATOM     82  C   UNL     1      14.945  -1.398  -4.692  1.00  0.00     0.134 A 
ATOM     83  C   UNL     1      12.605  -1.365  -5.190  1.00  0.00     0.134 A 
ATOM     84  F   UNL     1      16.113  -0.775  -4.476  1.00  0.00    -0.206 F 
ATOM     85  C   UNL     1      14.931  -2.794  -4.679  1.00  0.00     0.040 A 
ATOM     86  C   UNL     1      12.572  -2.760  -5.157  1.00  0.00     0.040 A 
ATOM     87  F   UNL     1      11.461  -0.711  -5.439  1.00  0.00    -0.206 F 
ATOM     88  C   UNL     1      13.740  -3.479  -4.908  1.00  0.00     0.006 A 
ENDBRANCH  60  81
BRANCH  72  89
ATOM     89  C   UNL     1      16.668   3.967  -9.291  1.00  0.00     0.057 A 
ATOM     90  C   UNL     1      16.131   3.536 -10.510  1.00  0.00     0.134 A 
ATOM     91  C   UNL     1      18.029   4.295  -9.260  1.00  0.00     0.134 A 
ATOM     92  F   UNL     1      14.836   3.195 -10.600  1.00  0.00    -0.206 F 
ATOM     93  C   UNL     1      16.924   3.418 -11.652  1.00  0.00     0.040 A 
ATOM     94  C   UNL     1      18.826   4.204 -10.401  1.00  0.00     0.040 A 
ATOM     95  F   UNL     1      18.601   4.722  -8.124  1.00  0.00    -0.206 F 
ATOM     96  C   UNL     1      18.274   3.759 -11.601  1.00  0.00     0.006 A 
ENDBRANCH  72  89
ENDBRANCH  46  47
ENDBRANCH  38  41
ENDBRANCH  36  37
ENDBRANCH  35  36
ENDBRANCH   1  35
TORSDOF 16
