REMARK SMILES O=C(NCCCNC(=O)C1(CCc2ccc3c(c2)CCO3)CCCCCC1)c1ccc(-c2c3nc(c(-c4c(F)cccc4F)c4ccc([nH]4)c(-c4c(F)cccc4F)c4nc(c(-c5c(F)cccc5F)c5ccc2[nH]5)C=C4)C=C3)cc1
REMARK SMILES IDX 6 1 5 2 4 3 3 4 1 5 2 6 28 8 29 9 81 10 30 11 80 12 31 13
REMARK SMILES IDX 32 14 33 15 74 16 34 17 79 18 73 19 75 20 35 21 78 22 72 23
REMARK SMILES IDX 71 24 36 26 62 27 45 28 61 29 46 30 49 31 60 32 76 33 47 34
REMARK SMILES IDX 48 35 59 37 77 38 50 39 37 40 38 41 43 42 39 43 40 44 42 45
REMARK SMILES IDX 44 46 41 47 63 48 64 49 69 50 65 51 66 52 68 53 70 54 67 55
REMARK SMILES IDX 51 56 52 57 57 58 53 59 54 60 56 61 58 62 55 63 7 64 8 65
REMARK SMILES IDX 9 67 10 68 11 69 12 70 13 71 14 72 18 73 15 74 17 75 16 76
REMARK SMILES IDX 19 77 21 78 20 79 22 80 23 81 24 82 25 83 27 85 26 86
REMARK H PARENT 3 7 75 25 49 36 7 66
REMARK Flexibility Score: 100.00
ROOT
ATOM      1  C   UNL     1       4.497  -0.866   3.423  1.00  0.00     0.117 C 
ENDROOT
BRANCH   1   2
ATOM      2  C   UNL     1       4.814  -0.106   2.146  1.00  0.00     0.042 C 
BRANCH   2   3
ATOM      3  C   UNL     1       4.439  -0.882   0.896  1.00  0.00     0.118 C 
BRANCH   3   4
ATOM      4  N   UNL     1       2.998  -0.921   0.692  1.00  0.00    -0.352 N 
ATOM      5  O   UNL     1       0.997  -0.141   0.004  1.00  0.00    -0.269 OA
ATOM      6  C   UNL     1       2.213  -0.153  -0.134  1.00  0.00     0.251 C 
ATOM      7  H   UNL     1       2.516  -1.595   1.224  1.00  0.00     0.163 HD
BRANCH   6   8
ATOM      8  C   UNL     1       2.851   0.676  -1.178  1.00  0.00     0.039 A 
ATOM      9  C   UNL     1       3.900   0.164  -1.945  1.00  0.00     0.014 A 
ATOM     10  C   UNL     1       2.382   1.972  -1.404  1.00  0.00     0.014 A 
ATOM     11  C   UNL     1       4.591   0.994  -2.814  1.00  0.00     0.010 A 
ATOM     12  C   UNL     1       3.002   2.768  -2.368  1.00  0.00     0.010 A 
ATOM     13  C   UNL     1       4.127   2.292  -3.062  1.00  0.00    -0.014 A 
BRANCH  13  14
ATOM     14  C   UNL     1       4.766   3.108  -4.120  1.00  0.00     0.031 A 
ATOM     15  C   UNL     1       5.412   4.421  -3.796  1.00  0.00     0.074 A 
ATOM     16  C   UNL     1       4.721   2.663  -5.390  1.00  0.00     0.049 A 
ATOM     17  N   UNL     1       5.913   5.315  -4.609  1.00  0.00    -0.248 NA
ATOM     18  C   UNL     1       5.493   4.786  -2.374  1.00  0.00     0.031 C 
ATOM     19  C   UNL     1       4.116   1.398  -5.818  1.00  0.00     0.029 A 
ATOM     20  N   UNL     1       5.175   3.224  -6.554  1.00  0.00    -0.354 N 
ATOM     21  C   UNL     1       6.340   6.362  -3.803  1.00  0.00     0.074 A 
ATOM     22  C   UNL     1       6.020   6.000  -2.438  1.00  0.00     0.031 C 
ATOM     23  C   UNL     1       4.245   1.275  -7.144  1.00  0.00     0.029 A 
ATOM     24  C   UNL     1       4.866   2.484  -7.669  1.00  0.00     0.049 A 
ATOM     25  H   UNL     1       5.672   4.073  -6.588  1.00  0.00     0.167 HD
ATOM     26  C   UNL     1       6.942   7.518  -4.176  1.00  0.00     0.037 A 
ATOM     27  C   UNL     1       5.016   2.766  -8.975  1.00  0.00     0.037 A 
ATOM     28  C   UNL     1       7.254   7.856  -5.541  1.00  0.00     0.049 A 
ATOM     29  C   UNL     1       5.643   4.068  -9.368  1.00  0.00     0.074 A 
ATOM     30  C   UNL     1       7.901   8.979  -6.025  1.00  0.00     0.029 A 
ATOM     31  N   UNL     1       6.925   7.079  -6.644  1.00  0.00    -0.354 N 
ATOM     32  N   UNL     1       6.074   5.037  -8.598  1.00  0.00    -0.248 NA
ATOM     33  C   UNL     1       5.804   4.320 -10.804  1.00  0.00     0.031 C 
ATOM     34  C   UNL     1       7.908   8.911  -7.422  1.00  0.00     0.029 A 
ATOM     35  C   UNL     1       7.325   7.714  -7.808  1.00  0.00     0.049 A 
ATOM     36  H   UNL     1       6.473   6.205  -6.604  1.00  0.00     0.167 HD
ATOM     37  C   UNL     1       6.581   6.005  -9.452  1.00  0.00     0.074 A 
ATOM     38  C   UNL     1       6.405   5.503 -10.800  1.00  0.00     0.031 C 
ATOM     39  C   UNL     1       7.147   7.197  -9.143  1.00  0.00     0.037 A 
BRANCH  26  40
ATOM     40  C   UNL     1       7.256   8.514  -3.095  1.00  0.00     0.057 A 
ATOM     41  C   UNL     1       8.232   8.278  -2.118  1.00  0.00     0.134 A 
ATOM     42  C   UNL     1       6.570   9.735  -3.035  1.00  0.00     0.134 A 
ATOM     43  F   UNL     1       8.921   7.127  -2.109  1.00  0.00    -0.206 F 
ATOM     44  C   UNL     1       8.485   9.199  -1.099  1.00  0.00     0.040 A 
ATOM     45  C   UNL     1       6.836  10.677  -2.040  1.00  0.00     0.040 A 
ATOM     46  F   UNL     1       5.630  10.034  -3.944  1.00  0.00    -0.206 F 
ATOM     47  C   UNL     1       7.788  10.405  -1.060  1.00  0.00     0.006 A 
ENDBRANCH  26  40
BRANCH  27  48
ATOM     48  C   UNL     1       4.531   1.791  -9.981  1.00  0.00     0.057 A 
ATOM     49  C   UNL     1       5.423   1.027 -10.739  1.00  0.00     0.134 A 
ATOM     50  C   UNL     1       3.162   1.547 -10.153  1.00  0.00     0.134 A 
ATOM     51  F   UNL     1       6.745   1.221 -10.624  1.00  0.00    -0.206 F 
ATOM     52  C   UNL     1       4.972   0.055 -11.633  1.00  0.00     0.040 A 
ATOM     53  C   UNL     1       2.698   0.560 -11.023  1.00  0.00     0.040 A 
ATOM     54  F   UNL     1       2.257   2.235  -9.440  1.00  0.00    -0.206 F 
ATOM     55  C   UNL     1       3.606  -0.188 -11.768  1.00  0.00     0.006 A 
ENDBRANCH  27  48
BRANCH  39  56
ATOM     56  C   UNL     1       7.662   8.030 -10.280  1.00  0.00     0.057 A 
ATOM     57  C   UNL     1       6.804   8.726 -11.139  1.00  0.00     0.134 A 
ATOM     58  C   UNL     1       9.041   8.195 -10.465  1.00  0.00     0.134 A 
ATOM     59  F   UNL     1       5.474   8.597 -11.024  1.00  0.00    -0.206 F 
ATOM     60  C   UNL     1       7.301   9.555 -12.146  1.00  0.00     0.040 A 
ATOM     61  C   UNL     1       9.549   9.041 -11.450  1.00  0.00     0.040 A 
ATOM     62  F   UNL     1       9.916   7.558  -9.671  1.00  0.00    -0.206 F 
ATOM     63  C   UNL     1       8.677   9.723 -12.295  1.00  0.00     0.006 A 
ENDBRANCH  39  56
ENDBRANCH  13  14
ENDBRANCH   6   8
ENDBRANCH   3   4
ENDBRANCH   2   3
ENDBRANCH   1   2
BRANCH   1  64
ATOM     64  N   UNL     1       5.346  -2.035   3.554  1.00  0.00    -0.356 N 
ATOM     65  C   UNL     1       6.151  -2.522   4.522  1.00  0.00     0.226 C 
ATOM     66  H   UNL     1       5.332  -2.604   2.752  1.00  0.00     0.163 HD
ATOM     67  O   UNL     1       6.913  -3.418   4.133  1.00  0.00    -0.274 OA
BRANCH  65  68
ATOM     68  C   UNL     1       6.242  -1.986   5.971  1.00  0.00     0.049 C 
BRANCH  68  69
ATOM     69  C   UNL     1       6.648  -3.221   6.888  1.00  0.00     0.021 C 
BRANCH  69  70
ATOM     70  C   UNL     1       5.596  -4.306   7.261  1.00  0.00     0.036 C 
BRANCH  70  71
ATOM     71  C   UNL     1       5.133  -5.237   6.165  1.00  0.00    -0.047 A 
ATOM     72  C   UNL     1       4.276  -4.790   5.135  1.00  0.00     0.007 A 
ATOM     73  C   UNL     1       5.553  -6.577   6.165  1.00  0.00     0.011 A 
ATOM     74  C   UNL     1       3.987  -5.595   4.028  1.00  0.00     0.047 A 
ATOM     75  C   UNL     1       5.215  -7.378   5.090  1.00  0.00    -0.002 A 
ATOM     76  C   UNL     1       4.493  -6.873   4.020  1.00  0.00     0.122 A 
ATOM     77  C   UNL     1       5.456  -8.819   4.857  1.00  0.00     0.081 C 
ATOM     78  O   UNL     1       4.332  -7.774   2.997  1.00  0.00    -0.493 OA
ATOM     79  C   UNL     1       5.279  -8.818   3.340  1.00  0.00     0.234 C 
ENDBRANCH  70  71
ENDBRANCH  69  70
ENDBRANCH  68  69
BRANCH  68  80
ATOM     80  C   UNL     1       7.491  -1.040   5.941  1.00  0.00     0.017 C 
BRANCH  80  81
ATOM     81  C   UNL     1       7.312   0.347   5.321  1.00  0.00     0.001 C 
BRANCH  81  82
ATOM     82  C   UNL     1       6.793   1.399   6.292  1.00  0.00     0.000 C 
BRANCH  82  83
ATOM     83  C   UNL     1       5.392   1.164   6.841  1.00  0.00     0.000 CG0
ATOM     84  G   UNL     1       5.194  -0.174   7.544  1.00  0.00     0.000 G0
ENDBRANCH  82  83
ENDBRANCH  81  82
ENDBRANCH  80  81
ENDBRANCH  68  80
BRANCH  68  85
ATOM     85  C   UNL     1       4.971  -1.341   6.581  1.00  0.00     0.017 C 
BRANCH  85  86
ATOM     86  C   UNL     1       5.194  -0.174   7.544  1.00  0.00     0.001 CG0
ATOM     87  G   UNL     1       5.392   1.164   6.841  1.00  0.00     0.000 G0
ENDBRANCH  85  86
ENDBRANCH  68  85
ENDBRANCH  65  68
ENDBRANCH   1  64
TORSDOF 13
