REMARK SMILES COc1cccc(/C=C(/C#N)c2ccc(Br)cc2)c1O[C@@H](C)C(=O)NCCCNC(=O)c1ccc(-c2c3nc(c(-c4c(F)cccc4F)c4ccc([nH]4)c(-c4c(F)cccc4F)c4nc(c(-c5c(F)cccc5F)c5ccc2[nH]5)C=C4)C=C3)cc1
REMARK SMILES IDX 26 1 25 2 23 3 24 4 21 6 22 7 20 8 19 9 3 10 4 11 5 12 7 13
REMARK SMILES IDX 6 14 2 15 1 16 8 17 9 18 10 19 11 20 12 21 13 22 18 23 14 24
REMARK SMILES IDX 17 25 15 26 16 27 27 28 28 29 29 30 30 31 31 33 32 34 33 35
REMARK SMILES IDX 85 36 34 37 84 38 35 39 36 40 37 41 78 42 38 43 83 44 77 45
REMARK SMILES IDX 79 46 39 47 82 48 76 49 75 50 40 52 66 53 49 54 65 55 50 56
REMARK SMILES IDX 53 57 64 58 80 59 51 60 52 61 63 63 81 64 54 65 41 66 42 67
REMARK SMILES IDX 47 68 43 69 44 70 46 71 48 72 45 73 67 74 68 75 73 76 69 77
REMARK SMILES IDX 70 78 72 79 74 80 71 81 55 82 56 83 61 84 57 85 58 86 60 87
REMARK SMILES IDX 62 88 59 89
REMARK H PARENT 25 5 29 32 79 51 53 62
REMARK Flexibility Score: inf
ROOT
ATOM      1  C   UNL     1       0.435   1.187  -2.053  1.00  0.00     0.118 C 
ENDROOT
BRANCH   1   2
ATOM      2  N   UNL     1       1.642   0.396  -2.142  1.00  0.00    -0.353 N 
ATOM      3  C   UNL     1       2.470  -0.148  -1.218  1.00  0.00     0.260 C 
ATOM      4  O   UNL     1       2.976  -1.220  -1.596  1.00  0.00    -0.271 OA
ATOM      5  H   UNL     1       1.920   0.215  -3.068  1.00  0.00     0.163 HD
BRANCH   3   6
ATOM      6  C   UNL     1       2.931   0.441   0.181  1.00  0.00     0.259 C 
ATOM      7  C   UNL     1       2.814  -0.630   1.285  1.00  0.00     0.064 C 
BRANCH   6   8
ATOM      8  O   UNL     1       3.004   1.707   0.800  1.00  0.00    -0.476 OA
BRANCH   8   9
ATOM      9  C   UNL     1       1.977   2.594   0.716  1.00  0.00     0.169 A 
ATOM     10  C   UNL     1       0.655   2.284   1.076  1.00  0.00     0.161 A 
ATOM     11  C   UNL     1      -0.346   3.245   0.925  1.00  0.00     0.050 A 
ATOM     12  C   UNL     1      -0.037   4.491   0.382  1.00  0.00     0.005 A 
ATOM     13  C   UNL     1       2.329   3.921   0.360  1.00  0.00     0.022 A 
ATOM     14  C   UNL     1       1.289   4.816   0.083  1.00  0.00     0.012 A 
BRANCH  10  15
ATOM     15  O   UNL     1       0.388   1.118   1.739  1.00  0.00    -0.493 OA
ATOM     16  C   UNL     1      -0.552   0.241   1.123  1.00  0.00     0.278 C 
ENDBRANCH  10  15
BRANCH  13  17
ATOM     17  C   UNL     1       3.766   4.336   0.371  1.00  0.00     0.032 C 
ATOM     18  C   UNL     1       4.341   5.530   0.661  1.00  0.00     0.060 C 
BRANCH  18  19
ATOM     19  C   UNL     1       5.774   5.601   0.742  1.00  0.00     0.100 C 
ATOM     20  N   UNL     1       6.929   5.667   0.818  1.00  0.00    -0.192 NA
ENDBRANCH  18  19
BRANCH  18  21
ATOM     21  C   UNL     1       3.595   6.788   0.879  1.00  0.00    -0.008 A 
ATOM     22  C   UNL     1       3.784   7.859  -0.011  1.00  0.00     0.010 A 
ATOM     23  C   UNL     1       2.631   6.910   1.892  1.00  0.00     0.010 A 
ATOM     24  C   UNL     1       2.961   8.985   0.049  1.00  0.00     0.016 A 
ATOM     25  C   UNL     1       1.789   8.025   1.933  1.00  0.00     0.016 A 
ATOM     26  C   UNL     1       1.948   9.049   1.003  1.00  0.00     0.018 A 
ATOM     27  Br  UNL     1       0.762  10.519   1.014  1.00  0.00    -0.051 Br
ENDBRANCH  18  21
ENDBRANCH  13  17
ENDBRANCH   8   9
ENDBRANCH   6   8
ENDBRANCH   3   6
ENDBRANCH   1   2
BRANCH   1  28
ATOM     28  C   UNL     1       0.561   2.579  -2.636  1.00  0.00     0.042 C 
BRANCH  28  29
ATOM     29  C   UNL     1      -0.355   2.834  -3.821  1.00  0.00     0.118 C 
BRANCH  29  30
ATOM     30  N   UNL     1      -1.779   2.842  -3.473  1.00  0.00    -0.352 N 
ATOM     31  C   UNL     1      -2.726   3.842  -3.548  1.00  0.00     0.251 C 
ATOM     32  H   UNL     1      -2.119   1.986  -3.126  1.00  0.00     0.163 HD
ATOM     33  O   UNL     1      -3.840   3.661  -3.063  1.00  0.00    -0.269 OA
BRANCH  31  34
ATOM     34  C   UNL     1      -2.404   5.143  -4.178  1.00  0.00     0.039 A 
ATOM     35  C   UNL     1      -2.930   6.330  -3.655  1.00  0.00     0.014 A 
ATOM     36  C   UNL     1      -1.566   5.196  -5.288  1.00  0.00     0.014 A 
ATOM     37  C   UNL     1      -2.530   7.563  -4.184  1.00  0.00     0.010 A 
ATOM     38  C   UNL     1      -1.052   6.411  -5.706  1.00  0.00     0.010 A 
ATOM     39  C   UNL     1      -1.545   7.614  -5.181  1.00  0.00    -0.014 A 
BRANCH  39  40
ATOM     40  C   UNL     1      -1.036   8.881  -5.770  1.00  0.00     0.031 A 
ATOM     41  C   UNL     1      -1.113   9.066  -7.266  1.00  0.00     0.074 A 
ATOM     42  C   UNL     1      -0.396   9.789  -5.007  1.00  0.00     0.049 A 
ATOM     43  N   UNL     1      -0.519   9.949  -8.026  1.00  0.00    -0.248 NA
ATOM     44  C   UNL     1      -1.921   8.084  -8.014  1.00  0.00     0.031 C 
ATOM     45  C   UNL     1      -0.219   9.713  -3.556  1.00  0.00     0.029 A 
ATOM     46  N   UNL     1       0.255  10.947  -5.357  1.00  0.00    -0.354 N 
ATOM     47  C   UNL     1      -0.840   9.596  -9.331  1.00  0.00     0.074 A 
ATOM     48  C   UNL     1      -1.624   8.385  -9.268  1.00  0.00     0.031 C 
ATOM     49  C   UNL     1       0.477  10.784  -3.141  1.00  0.00     0.029 A 
ATOM     50  C   UNL     1       0.848  11.591  -4.297  1.00  0.00     0.049 A 
ATOM     51  H   UNL     1       0.293  11.284  -6.282  1.00  0.00     0.167 HD
ATOM     52  C   UNL     1      -0.531  10.239 -10.480  1.00  0.00     0.037 A 
ATOM     53  C   UNL     1       1.623  12.692  -4.264  1.00  0.00     0.037 A 
ATOM     54  C   UNL     1       0.190  11.480 -10.529  1.00  0.00     0.049 A 
ATOM     55  C   UNL     1       1.940  13.399  -5.556  1.00  0.00     0.074 A 
ATOM     56  C   UNL     1       0.484  12.260 -11.633  1.00  0.00     0.029 A 
ATOM     57  N   UNL     1       0.720  12.127  -9.424  1.00  0.00    -0.354 N 
ATOM     58  N   UNL     1       1.587  13.082  -6.779  1.00  0.00    -0.248 NA
ATOM     59  C   UNL     1       2.759  14.616  -5.466  1.00  0.00     0.031 C 
ATOM     60  C   UNL     1       1.238  13.354 -11.201  1.00  0.00     0.029 A 
ATOM     61  C   UNL     1       1.353  13.290  -9.822  1.00  0.00     0.049 A 
ATOM     62  H   UNL     1       0.654  11.807  -8.495  1.00  0.00     0.167 HD
ATOM     63  C   UNL     1       2.095  14.086  -7.593  1.00  0.00     0.074 A 
ATOM     64  C   UNL     1       2.784  15.019  -6.728  1.00  0.00     0.031 C 
ATOM     65  C   UNL     1       1.997  14.225  -8.937  1.00  0.00     0.037 A 
BRANCH  52  66
ATOM     66  C   UNL     1      -0.985   9.630 -11.775  1.00  0.00     0.057 A 
ATOM     67  C   UNL     1      -2.337   9.573 -12.137  1.00  0.00     0.134 A 
ATOM     68  C   UNL     1      -0.049   9.147 -12.700  1.00  0.00     0.134 A 
ATOM     69  F   UNL     1      -3.286  10.005 -11.293  1.00  0.00    -0.206 F 
ATOM     70  C   UNL     1      -2.744   9.042 -13.362  1.00  0.00     0.040 A 
ATOM     71  C   UNL     1      -0.441   8.644 -13.941  1.00  0.00     0.040 A 
ATOM     72  F   UNL     1       1.263   9.174 -12.420  1.00  0.00    -0.206 F 
ATOM     73  C   UNL     1      -1.793   8.586 -14.273  1.00  0.00     0.006 A 
ENDBRANCH  52  66
BRANCH  53  74
ATOM     74  C   UNL     1       2.156  13.207  -2.974  1.00  0.00     0.057 A 
ATOM     75  C   UNL     1       1.726  14.433  -2.452  1.00  0.00     0.134 A 
ATOM     76  C   UNL     1       3.133  12.511  -2.252  1.00  0.00     0.134 A 
ATOM     77  F   UNL     1       0.806  15.159  -3.105  1.00  0.00    -0.206 F 
ATOM     78  C   UNL     1       2.272  14.965  -1.282  1.00  0.00     0.040 A 
ATOM     79  C   UNL     1       3.665  13.015  -1.064  1.00  0.00     0.040 A 
ATOM     80  F   UNL     1       3.580  11.323  -2.688  1.00  0.00    -0.206 F 
ATOM     81  C   UNL     1       3.243  14.252  -0.582  1.00  0.00     0.006 A 
ENDBRANCH  53  74
BRANCH  65  82
ATOM     82  C   UNL     1       2.567  15.467  -9.554  1.00  0.00     0.057 A 
ATOM     83  C   UNL     1       3.945  15.669  -9.688  1.00  0.00     0.134 A 
ATOM     84  C   UNL     1       1.712  16.433 -10.102  1.00  0.00     0.134 A 
ATOM     85  F   UNL     1       4.816  14.786  -9.176  1.00  0.00    -0.206 F 
ATOM     86  C   UNL     1       4.453  16.796 -10.335  1.00  0.00     0.040 A 
ATOM     87  C   UNL     1       2.207  17.547 -10.777  1.00  0.00     0.040 A 
ATOM     88  F   UNL     1       0.380  16.291 -10.017  1.00  0.00    -0.206 F 
ATOM     89  C   UNL     1       3.583  17.733 -10.892  1.00  0.00     0.006 A 
ENDBRANCH  65  82
ENDBRANCH  39  40
ENDBRANCH  31  34
ENDBRANCH  29  30
ENDBRANCH  28  29
ENDBRANCH   1  28
TORSDOF 16
