REMARK SMILES C[C@@H]1C[NH+](CC2(C(=O)NCCCNC(=O)c3ccc(-c4c5nc(c(-c6c(F)cccc6F)c6ccc([nH]6)c(-c6c(F)cccc6F)c6nc(c(-c7c(F)cccc7F)c7ccc4[nH]7)C=C6)C=C5)cc3)CCCC2)C[C@H]1C
REMARK SMILES IDX 11 1 10 2 9 3 7 4 8 5 6 7 70 8 73 9 71 10 72 11 5 12 4 13
REMARK SMILES IDX 1 14 2 15 3 16 75 17 74 18 76 19 12 21 13 22 14 23 15 25
REMARK SMILES IDX 16 26 17 27 69 28 18 29 68 30 19 31 20 32 21 33 62 34 22 35
REMARK SMILES IDX 67 36 61 37 63 38 23 39 66 40 60 41 59 42 24 44 50 45 33 46
REMARK SMILES IDX 49 47 34 48 37 49 48 50 64 51 35 52 36 53 47 55 65 56 38 57
REMARK SMILES IDX 25 58 26 59 31 60 27 61 28 62 30 63 32 64 29 65 51 66 52 67
REMARK SMILES IDX 57 68 53 69 54 70 56 71 58 72 55 73 39 74 40 75 45 76 41 77
REMARK SMILES IDX 42 78 44 79 46 80 43 81
REMARK H PARENT 9 6 4 20 13 24 63 43 37 54
REMARK Flexibility Score: inf
ROOT
ATOM      1  C   UNL     1       0.973   2.790  -7.399  1.00  0.00     0.042 C 
ENDROOT
BRANCH   1   2
ATOM      2  C   UNL     1       2.018   2.978  -6.316  1.00  0.00     0.117 C 
BRANCH   2   3
ATOM      3  N   UNL     1       1.835   4.192  -5.556  1.00  0.00    -0.355 N 
ATOM      4  C   UNL     1       1.432   4.403  -4.271  1.00  0.00     0.231 C 
ATOM      5  O   UNL     1       1.454   5.584  -3.911  1.00  0.00    -0.274 OA
ATOM      6  H   UNL     1       2.037   5.016  -6.056  1.00  0.00     0.163 HD
BRANCH   4   7
ATOM      7  C   UNL     1       0.959   3.252  -3.322  1.00  0.00     0.098 C 
ATOM      8  C   UNL     1       2.066   2.185  -3.198  1.00  0.00     0.023 C 
ATOM      9  C   UNL     1      -0.250   2.550  -3.962  1.00  0.00     0.023 C 
ATOM     10  C   UNL     1       1.516   0.849  -3.698  1.00  0.00     0.001 C 
ATOM     11  C   UNL     1       0.077   1.073  -4.129  1.00  0.00     0.001 C 
BRANCH   7  12
ATOM     12  C   UNL     1       0.608   3.968  -1.952  1.00  0.00     0.279 C 
BRANCH  12  13
ATOM     13  N   UNL     1       0.135   3.334  -0.718  1.00  0.00    -0.334 N 
ATOM     14  C   UNL     1       0.857  -0.074   0.540  1.00  0.00     0.014 C 
ATOM     15  C   UNL     1       0.319   1.064  -0.303  1.00  0.00     0.049 C 
ATOM     16  C   UNL     1       0.998   2.394  -0.025  1.00  0.00     0.265 C 
ATOM     17  C   UNL     1      -1.153   1.419  -0.095  1.00  0.00     0.049 C 
ATOM     18  C   UNL     1      -1.243   2.859  -0.631  1.00  0.00     0.265 C 
ATOM     19  C   UNL     1      -2.122   0.467  -0.779  1.00  0.00     0.014 C 
ATOM     20  H   UNL     1       0.179   4.221  -0.216  1.00  0.00     0.348 HD
ENDBRANCH  12  13
ENDBRANCH   7  12
ENDBRANCH   4   7
ENDBRANCH   2   3
ENDBRANCH   1   2
BRANCH   1  21
ATOM     21  C   UNL     1       1.375   3.463  -8.695  1.00  0.00     0.118 C 
BRANCH  21  22
ATOM     22  N   UNL     1       2.578   2.865  -9.268  1.00  0.00    -0.352 N 
ATOM     23  C   UNL     1       2.750   2.136 -10.417  1.00  0.00     0.251 C 
ATOM     24  H   UNL     1       3.400   3.009  -8.744  1.00  0.00     0.163 HD
ATOM     25  O   UNL     1       3.785   1.506 -10.592  1.00  0.00    -0.269 OA
BRANCH  23  26
ATOM     26  C   UNL     1       1.680   2.107 -11.433  1.00  0.00     0.039 A 
ATOM     27  C   UNL     1       1.434   0.925 -12.134  1.00  0.00     0.014 A 
ATOM     28  C   UNL     1       0.924   3.250 -11.697  1.00  0.00     0.014 A 
ATOM     29  C   UNL     1       0.386   0.878 -13.053  1.00  0.00     0.010 A 
ATOM     30  C   UNL     1      -0.195   3.165 -12.509  1.00  0.00     0.010 A 
ATOM     31  C   UNL     1      -0.462   1.986 -13.216  1.00  0.00    -0.014 A 
BRANCH  31  32
ATOM     32  C   UNL     1      -1.616   1.954 -14.145  1.00  0.00     0.031 A 
ATOM     33  C   UNL     1      -1.685   2.943 -15.279  1.00  0.00     0.074 A 
ATOM     34  C   UNL     1      -2.631   1.099 -13.916  1.00  0.00     0.049 A 
ATOM     35  N   UNL     1      -2.650   3.147 -16.138  1.00  0.00    -0.248 NA
ATOM     36  C   UNL     1      -0.537   3.853 -15.445  1.00  0.00     0.031 C 
ATOM     37  C   UNL     1      -2.706   0.145 -12.807  1.00  0.00     0.029 A 
ATOM     38  N   UNL     1      -3.806   0.905 -14.597  1.00  0.00    -0.354 N 
ATOM     39  C   UNL     1      -2.239   4.221 -16.917  1.00  0.00     0.074 A 
ATOM     40  C   UNL     1      -0.966   4.664 -16.399  1.00  0.00     0.031 C 
ATOM     41  C   UNL     1      -3.852  -0.547 -12.897  1.00  0.00     0.029 A 
ATOM     42  C   UNL     1      -4.613  -0.058 -14.041  1.00  0.00     0.049 A 
ATOM     43  H   UNL     1      -4.048   1.409 -15.408  1.00  0.00     0.167 HD
ATOM     44  C   UNL     1      -2.858   4.771 -17.987  1.00  0.00     0.037 A 
ATOM     45  C   UNL     1      -5.835  -0.486 -14.408  1.00  0.00     0.037 A 
ATOM     46  C   UNL     1      -4.097   4.286 -18.530  1.00  0.00     0.049 A 
ATOM     47  C   UNL     1      -6.482   0.122 -15.623  1.00  0.00     0.074 A 
ATOM     48  C   UNL     1      -4.758   4.704 -19.671  1.00  0.00     0.029 A 
ATOM     49  N   UNL     1      -4.861   3.273 -17.970  1.00  0.00    -0.354 N 
ATOM     50  N   UNL     1      -6.036   1.071 -16.410  1.00  0.00    -0.248 NA
ATOM     51  C   UNL     1      -7.798  -0.407 -16.007  1.00  0.00     0.031 C 
ATOM     52  C   UNL     1      -5.950   3.983 -19.771  1.00  0.00     0.029 A 
ATOM     53  C   UNL     1      -6.003   3.074 -18.726  1.00  0.00     0.049 A 
ATOM     54  H   UNL     1      -4.626   2.772 -17.156  1.00  0.00     0.167 HD
ATOM     55  C   UNL     1      -6.999   1.231 -17.397  1.00  0.00     0.074 A 
ATOM     56  C   UNL     1      -8.044   0.268 -17.120  1.00  0.00     0.031 C 
ATOM     57  C   UNL     1      -7.022   2.099 -18.438  1.00  0.00     0.037 A 
BRANCH  44  58
ATOM     58  C   UNL     1      -2.208   5.950 -18.650  1.00  0.00     0.057 A 
ATOM     59  C   UNL     1      -1.028   5.827 -19.395  1.00  0.00     0.134 A 
ATOM     60  C   UNL     1      -2.808   7.214 -18.596  1.00  0.00     0.134 A 
ATOM     61  F   UNL     1      -0.394   4.647 -19.476  1.00  0.00    -0.206 F 
ATOM     62  C   UNL     1      -0.461   6.921 -20.051  1.00  0.00     0.040 A 
ATOM     63  C   UNL     1      -2.267   8.309 -19.270  1.00  0.00     0.040 A 
ATOM     64  F   UNL     1      -3.941   7.402 -17.901  1.00  0.00    -0.206 F 
ATOM     65  C   UNL     1      -1.088   8.165 -19.999  1.00  0.00     0.006 A 
ENDBRANCH  44  58
BRANCH  45  66
ATOM     66  C   UNL     1      -6.528  -1.544 -13.628  1.00  0.00     0.057 A 
ATOM     67  C   UNL     1      -6.768  -2.810 -14.174  1.00  0.00     0.134 A 
ATOM     68  C   UNL     1      -6.998  -1.304 -12.331  1.00  0.00     0.134 A 
ATOM     69  F   UNL     1      -6.356  -3.098 -15.417  1.00  0.00    -0.206 F 
ATOM     70  C   UNL     1      -7.481  -3.786 -13.475  1.00  0.00     0.040 A 
ATOM     71  C   UNL     1      -7.686  -2.280 -11.608  1.00  0.00     0.040 A 
ATOM     72  F   UNL     1      -6.790  -0.116 -11.743  1.00  0.00    -0.206 F 
ATOM     73  C   UNL     1      -7.941  -3.522 -12.187  1.00  0.00     0.006 A 
ENDBRANCH  45  66
BRANCH  57  74
ATOM     74  C   UNL     1      -8.189   2.016 -19.377  1.00  0.00     0.057 A 
ATOM     75  C   UNL     1      -9.470   2.440 -19.005  1.00  0.00     0.134 A 
ATOM     76  C   UNL     1      -8.015   1.547 -20.686  1.00  0.00     0.134 A 
ATOM     77  F   UNL     1      -9.705   2.888 -17.762  1.00  0.00    -0.206 F 
ATOM     78  C   UNL     1     -10.544   2.376 -19.894  1.00  0.00     0.040 A 
ATOM     79  C   UNL     1      -9.073   1.509 -21.593  1.00  0.00     0.040 A 
ATOM     80  F   UNL     1      -6.809   1.138 -21.109  1.00  0.00    -0.206 F 
ATOM     81  C   UNL     1     -10.344   1.918 -21.195  1.00  0.00     0.006 A 
ENDBRANCH  57  74
ENDBRANCH  31  32
ENDBRANCH  23  26
ENDBRANCH  21  22
ENDBRANCH   1  21
TORSDOF 12
