REMARK SMILES C[C@]([NH2+]Cc1noc(C2CC2)n1)(C(=O)NCCCNC(=O)c1ccc(-c2c3nc(c(-c4c(F)cccc4F)c4ccc([nH]4)c(-c4c(F)cccc4F)c4nc(c(-c5c(F)cccc5F)c5ccc2[nH]5)C=C4)C=C3)cc1)C(F)(F)F
REMARK SMILES IDX 16 1 15 2 13 3 14 4 2 6 1 7 76 8 77 9 78 10 79 11 3 12 4 15
REMARK SMILES IDX 5 16 6 17 12 18 7 19 8 20 9 21 10 22 11 23 17 24 18 25 19 26
REMARK SMILES IDX 20 27 21 29 22 30 23 31 75 32 24 33 74 34 25 35 26 36 27 37
REMARK SMILES IDX 68 38 28 39 73 40 67 41 69 42 29 43 72 44 66 45 65 46 30 48
REMARK SMILES IDX 56 49 39 50 55 51 40 52 43 53 54 54 70 55 41 56 42 57 53 59
REMARK SMILES IDX 71 60 44 61 31 62 32 63 37 64 33 65 34 66 36 67 38 68 35 69
REMARK SMILES IDX 57 70 58 71 63 72 59 73 60 74 62 75 64 76 61 77 45 78 46 79
REMARK SMILES IDX 51 80 47 81 48 82 50 83 52 84 49 85
REMARK H PARENT 15 5 3 13 3 14 19 28 69 47 43 58
REMARK Flexibility Score: inf
ROOT
ATOM      1  C   UNL     1      -1.107   0.435   2.324  1.00  0.00     0.118 C 
ENDROOT
BRANCH   1   2
ATOM      2  N   UNL     1      -1.543  -0.464   1.269  1.00  0.00    -0.350 N 
ATOM      3  C   UNL     1      -0.854  -1.288   0.420  1.00  0.00     0.290 C 
ATOM      4  O   UNL     1      -1.548  -1.929  -0.371  1.00  0.00    -0.267 OA
ATOM      5  H   UNL     1      -2.519  -0.484   1.141  1.00  0.00     0.163 HD
BRANCH   3   6
ATOM      6  C   UNL     1       0.684  -1.418   0.502  1.00  0.00     0.268 C 
ATOM      7  C   UNL     1       1.030  -2.120   1.837  1.00  0.00     0.101 C 
BRANCH   6   8
ATOM      8  C   UNL     1       1.101  -2.401  -0.634  1.00  0.00     0.453 C 
ATOM      9  F   UNL     1       0.792  -1.951  -1.870  1.00  0.00    -0.164 F 
ATOM     10  F   UNL     1       2.451  -2.583  -0.612  1.00  0.00    -0.164 F 
ATOM     11  F   UNL     1       0.559  -3.633  -0.484  1.00  0.00    -0.164 F 
ENDBRANCH   6   8
BRANCH   6  12
ATOM     12  N   UNL     1       1.303  -0.061   0.291  1.00  0.00    -0.320 N 
ATOM     13  H   UNL     1       0.586   0.641   0.472  1.00  0.00     0.347 HD
ATOM     14  H   UNL     1       1.652  -0.065  -0.668  1.00  0.00     0.347 HD
BRANCH  12  15
ATOM     15  C   UNL     1       2.459   0.255   1.127  1.00  0.00     0.344 C 
BRANCH  15  16
ATOM     16  C   UNL     1       3.139   1.538   0.750  1.00  0.00     0.226 A 
ATOM     17  N   UNL     1       4.128   2.019   1.517  1.00  0.00    -0.056 NA
ATOM     18  N   UNL     1       2.903   2.262  -0.398  1.00  0.00    -0.190 NA
ATOM     19  O   UNL     1       4.638   3.069   0.762  1.00  0.00    -0.339 OA
ATOM     20  C   UNL     1       3.882   3.144  -0.375  1.00  0.00     0.229 A 
BRANCH  20  21
ATOM     21  C   UNL     1       4.227   4.114  -1.496  1.00  0.00     0.079 C 
ATOM     22  C   UNL     1       3.768   3.779  -2.902  1.00  0.00     0.014 C 
ATOM     23  C   UNL     1       3.144   4.920  -2.173  1.00  0.00     0.014 C 
ENDBRANCH  20  21
ENDBRANCH  15  16
ENDBRANCH  12  15
ENDBRANCH   6  12
ENDBRANCH   3   6
ENDBRANCH   1   2
BRANCH   1  24
ATOM     24  C   UNL     1      -1.423   1.888   1.997  1.00  0.00     0.042 C 
BRANCH  24  25
ATOM     25  C   UNL     1      -2.914   2.203   2.020  1.00  0.00     0.118 C 
BRANCH  25  26
ATOM     26  N   UNL     1      -3.495   2.042   3.347  1.00  0.00    -0.352 N 
ATOM     27  C   UNL     1      -4.027   2.975   4.200  1.00  0.00     0.251 C 
ATOM     28  H   UNL     1      -3.507   1.117   3.684  1.00  0.00     0.163 HD
ATOM     29  O   UNL     1      -4.261   2.667   5.368  1.00  0.00    -0.269 OA
BRANCH  27  30
ATOM     30  C   UNL     1      -4.300   4.348   3.732  1.00  0.00     0.039 A 
ATOM     31  C   UNL     1      -3.987   5.424   4.567  1.00  0.00     0.014 A 
ATOM     32  C   UNL     1      -4.874   4.578   2.479  1.00  0.00     0.014 A 
ATOM     33  C   UNL     1      -4.170   6.730   4.110  1.00  0.00     0.010 A 
ATOM     34  C   UNL     1      -4.975   5.877   1.992  1.00  0.00     0.010 A 
ATOM     35  C   UNL     1      -4.619   6.966   2.800  1.00  0.00    -0.014 A 
BRANCH  35  36
ATOM     36  C   UNL     1      -4.695   8.341   2.245  1.00  0.00     0.031 A 
ATOM     37  C   UNL     1      -6.014   8.914   1.811  1.00  0.00     0.074 A 
ATOM     38  C   UNL     1      -3.559   9.040   2.057  1.00  0.00     0.049 A 
ATOM     39  N   UNL     1      -6.266  10.054   1.220  1.00  0.00    -0.248 NA
ATOM     40  C   UNL     1      -7.207   8.085   2.050  1.00  0.00     0.031 C 
ATOM     41  C   UNL     1      -2.212   8.576   2.398  1.00  0.00     0.029 A 
ATOM     42  N   UNL     1      -3.353  10.286   1.520  1.00  0.00    -0.354 N 
ATOM     43  C   UNL     1      -7.638  10.075   1.008  1.00  0.00     0.074 A 
ATOM     44  C   UNL     1      -8.159   8.812   1.484  1.00  0.00     0.031 C 
ATOM     45  C   UNL     1      -1.324   9.530   2.080  1.00  0.00     0.029 A 
ATOM     46  C   UNL     1      -2.029  10.652   1.470  1.00  0.00     0.049 A 
ATOM     47  H   UNL     1      -4.083  10.863   1.200  1.00  0.00     0.167 HD
ATOM     48  C   UNL     1      -8.397  11.066   0.482  1.00  0.00     0.037 A 
ATOM     49  C   UNL     1      -1.447  11.759   0.972  1.00  0.00     0.037 A 
ATOM     50  C   UNL     1      -7.875  12.325   0.019  1.00  0.00     0.049 A 
ATOM     51  C   UNL     1      -2.309  12.829   0.361  1.00  0.00     0.074 A 
ATOM     52  C   UNL     1      -8.568  13.416  -0.476  1.00  0.00     0.029 A 
ATOM     53  N   UNL     1      -6.529  12.659  -0.014  1.00  0.00    -0.354 N 
ATOM     54  N   UNL     1      -3.613  12.866   0.231  1.00  0.00    -0.248 NA
ATOM     55  C   UNL     1      -1.618  14.011  -0.171  1.00  0.00     0.031 C 
ATOM     56  C   UNL     1      -7.638  14.386  -0.863  1.00  0.00     0.029 A 
ATOM     57  C   UNL     1      -6.369  13.926  -0.554  1.00  0.00     0.049 A 
ATOM     58  H   UNL     1      -5.795  12.082   0.299  1.00  0.00     0.167 HD
ATOM     59  C   UNL     1      -3.901  14.082  -0.375  1.00  0.00     0.074 A 
ATOM     60  C   UNL     1      -2.636  14.761  -0.567  1.00  0.00     0.031 C 
ATOM     61  C   UNL     1      -5.103  14.589  -0.742  1.00  0.00     0.037 A 
BRANCH  48  62
ATOM     62  C   UNL     1      -9.876  10.825   0.374  1.00  0.00     0.057 A 
ATOM     63  C   UNL     1     -10.700  10.755   1.506  1.00  0.00     0.134 A 
ATOM     64  C   UNL     1     -10.491  10.699  -0.878  1.00  0.00     0.134 A 
ATOM     65  F   UNL     1     -10.175  10.856   2.736  1.00  0.00    -0.206 F 
ATOM     66  C   UNL     1     -12.075  10.542   1.397  1.00  0.00     0.040 A 
ATOM     67  C   UNL     1     -11.870  10.516  -1.001  1.00  0.00     0.040 A 
ATOM     68  F   UNL     1      -9.764  10.763  -2.004  1.00  0.00    -0.206 F 
ATOM     69  C   UNL     1     -12.665  10.430   0.140  1.00  0.00     0.006 A 
ENDBRANCH  48  62
BRANCH  49  70
ATOM     70  C   UNL     1       0.029  11.915   1.032  1.00  0.00     0.057 A 
ATOM     71  C   UNL     1       0.620  12.883   1.853  1.00  0.00     0.134 A 
ATOM     72  C   UNL     1       0.883  11.114   0.264  1.00  0.00     0.134 A 
ATOM     73  F   UNL     1      -0.146  13.694   2.597  1.00  0.00    -0.206 F 
ATOM     74  C   UNL     1       2.003  13.063   1.893  1.00  0.00     0.040 A 
ATOM     75  C   UNL     1       2.270  11.263   0.317  1.00  0.00     0.040 A 
ATOM     76  F   UNL     1       0.382  10.162  -0.537  1.00  0.00    -0.206 F 
ATOM     77  C   UNL     1       2.833  12.247   1.127  1.00  0.00     0.006 A 
ENDBRANCH  49  70
BRANCH  61  78
ATOM     78  C   UNL     1      -5.110  15.955  -1.366  1.00  0.00     0.057 A 
ATOM     79  C   UNL     1      -4.617  16.181  -2.657  1.00  0.00     0.134 A 
ATOM     80  C   UNL     1      -5.649  17.051  -0.680  1.00  0.00     0.134 A 
ATOM     81  F   UNL     1      -4.074  15.177  -3.363  1.00  0.00    -0.206 F 
ATOM     82  C   UNL     1      -4.636  17.452  -3.234  1.00  0.00     0.040 A 
ATOM     83  C   UNL     1      -5.702  18.320  -1.257  1.00  0.00     0.040 A 
ATOM     84  F   UNL     1      -6.147  16.903   0.557  1.00  0.00    -0.206 F 
ATOM     85  C   UNL     1      -5.188  18.524  -2.536  1.00  0.00     0.006 A 
ENDBRANCH  61  78
ENDBRANCH  35  36
ENDBRANCH  27  30
ENDBRANCH  25  26
ENDBRANCH  24  25
ENDBRANCH   1  24
TORSDOF 15
