REMARK SMILES O=C(NCCCNC(=O)c1nnn(-c2cccc(C(F)(F)F)c2)c1[C@@H]1COc2ccccc2O1)c1ccc(-c2c3nc(c(-c4c(F)cccc4F)c4ccc([nH]4)c(-c4c(F)cccc4F)c4nc(c(-c5c(F)cccc5F)c5ccc2[nH]5)C=C4)C=C3)cc1
REMARK SMILES IDX 5 1 4 2 3 3 1 4 2 5 35 7 36 8 88 9 37 10 87 11 38 12 39 13
REMARK SMILES IDX 40 14 81 15 41 16 86 17 80 18 82 19 42 20 85 21 79 22 78 23
REMARK SMILES IDX 43 25 69 26 52 27 68 28 53 29 56 30 67 31 83 32 54 33 55 34
REMARK SMILES IDX 66 36 84 37 57 38 44 39 45 40 50 41 46 42 47 43 49 44 51 45
REMARK SMILES IDX 48 46 70 47 71 48 76 49 72 50 73 51 75 52 77 53 74 54 58 55
REMARK SMILES IDX 59 56 64 57 60 58 61 59 63 60 65 61 62 62 6 63 7 64 8 65
REMARK SMILES IDX 9 67 10 68 11 69 24 70 12 71 13 72 25 73 26 74 34 75 27 76
REMARK SMILES IDX 33 77 28 78 32 79 29 80 31 81 30 82 14 83 15 84 23 85 16 86
REMARK SMILES IDX 18 87 17 88 19 89 20 90 21 91 22 92
REMARK H PARENT 3 6 82 24 56 35 7 66
REMARK Flexibility Score: inf
ROOT
ATOM      1  C   UNL     1       5.066  -0.669   2.014  1.00  0.00     0.042 C 
ENDROOT
BRANCH   1   2
ATOM      2  C   UNL     1       4.817  -1.004   0.545  1.00  0.00     0.118 C 
BRANCH   2   3
ATOM      3  N   UNL     1       3.414  -1.186   0.214  1.00  0.00    -0.352 N 
ATOM      4  O   UNL     1       1.268  -0.957  -0.217  1.00  0.00    -0.269 OA
ATOM      5  C   UNL     1       2.326  -0.376   0.040  1.00  0.00     0.251 C 
ATOM      6  H   UNL     1       3.189  -2.135   0.081  1.00  0.00     0.163 HD
BRANCH   5   7
ATOM      7  C   UNL     1       2.306   1.111   0.152  1.00  0.00     0.039 A 
ATOM      8  C   UNL     1       3.424   1.942   0.226  1.00  0.00     0.014 A 
ATOM      9  C   UNL     1       1.031   1.715   0.131  1.00  0.00     0.014 A 
ATOM     10  C   UNL     1       3.273   3.333   0.291  1.00  0.00     0.010 A 
ATOM     11  C   UNL     1       0.877   3.100   0.181  1.00  0.00     0.010 A 
ATOM     12  C   UNL     1       2.002   3.918   0.266  1.00  0.00    -0.014 A 
BRANCH  12  13
ATOM     13  C   UNL     1       1.899   5.381   0.215  1.00  0.00     0.031 A 
ATOM     14  C   UNL     1       2.369   6.056  -1.036  1.00  0.00     0.074 A 
ATOM     15  C   UNL     1       1.234   6.132   1.116  1.00  0.00     0.049 A 
ATOM     16  N   UNL     1       3.238   7.010  -1.164  1.00  0.00    -0.248 NA
ATOM     17  C   UNL     1       1.780   5.612  -2.309  1.00  0.00     0.031 C 
ATOM     18  C   UNL     1       0.381   5.676   2.214  1.00  0.00     0.029 A 
ATOM     19  N   UNL     1       1.100   7.493   1.157  1.00  0.00    -0.354 N 
ATOM     20  C   UNL     1       3.209   7.390  -2.507  1.00  0.00     0.074 A 
ATOM     21  C   UNL     1       2.346   6.450  -3.178  1.00  0.00     0.031 C 
ATOM     22  C   UNL     1      -0.333   6.723   2.682  1.00  0.00     0.029 A 
ATOM     23  C   UNL     1       0.099   7.937   2.005  1.00  0.00     0.049 A 
ATOM     24  H   UNL     1       1.666   8.103   0.630  1.00  0.00     0.167 HD
ATOM     25  C   UNL     1       3.781   8.537  -2.969  1.00  0.00     0.037 A 
ATOM     26  C   UNL     1      -0.386   9.197   2.110  1.00  0.00     0.037 A 
ATOM     27  C   UNL     1       4.712   9.106  -2.037  1.00  0.00     0.049 A 
ATOM     28  C   UNL     1       0.597  10.134   1.517  1.00  0.00     0.074 A 
ATOM     29  C   UNL     1       5.884   8.688  -1.438  1.00  0.00     0.029 A 
ATOM     30  N   UNL     1       4.355  10.253  -1.376  1.00  0.00    -0.354 N 
ATOM     31  N   UNL     1       1.741  10.453   2.051  1.00  0.00    -0.248 NA
ATOM     32  C   UNL     1       0.433  10.514   0.122  1.00  0.00     0.031 C 
ATOM     33  C   UNL     1       5.898   9.321  -0.161  1.00  0.00     0.029 A 
ATOM     34  C   UNL     1       4.731  10.079  -0.071  1.00  0.00     0.049 A 
ATOM     35  H   UNL     1       3.916  11.044  -1.763  1.00  0.00     0.167 HD
ATOM     36  C   UNL     1       2.577  10.697   0.975  1.00  0.00     0.074 A 
ATOM     37  C   UNL     1       1.689  10.856  -0.169  1.00  0.00     0.031 C 
ATOM     38  C   UNL     1       3.920  10.467   1.058  1.00  0.00     0.037 A 
BRANCH  25  39
ATOM     39  C   UNL     1       3.311   9.309  -4.174  1.00  0.00     0.057 A 
ATOM     40  C   UNL     1       4.146  10.278  -4.762  1.00  0.00     0.134 A 
ATOM     41  C   UNL     1       1.970   9.331  -4.600  1.00  0.00     0.134 A 
ATOM     42  F   UNL     1       5.437  10.379  -4.409  1.00  0.00    -0.206 F 
ATOM     43  C   UNL     1       3.670  11.225  -5.677  1.00  0.00     0.040 A 
ATOM     44  C   UNL     1       1.494  10.241  -5.549  1.00  0.00     0.040 A 
ATOM     45  F   UNL     1       1.043   8.536  -4.047  1.00  0.00    -0.206 F 
ATOM     46  C   UNL     1       2.339  11.209  -6.073  1.00  0.00     0.006 A 
ENDBRANCH  25  39
BRANCH  26  47
ATOM     47  C   UNL     1      -1.734   9.644   2.520  1.00  0.00     0.057 A 
ATOM     48  C   UNL     1      -1.967  10.953   2.963  1.00  0.00     0.134 A 
ATOM     49  C   UNL     1      -2.876   8.868   2.256  1.00  0.00     0.134 A 
ATOM     50  F   UNL     1      -0.944  11.787   3.197  1.00  0.00    -0.206 F 
ATOM     51  C   UNL     1      -3.261  11.465   3.125  1.00  0.00     0.040 A 
ATOM     52  C   UNL     1      -4.173   9.362   2.425  1.00  0.00     0.040 A 
ATOM     53  F   UNL     1      -2.771   7.633   1.745  1.00  0.00    -0.206 F 
ATOM     54  C   UNL     1      -4.369  10.670   2.850  1.00  0.00     0.006 A 
ENDBRANCH  26  47
BRANCH  38  55
ATOM     55  C   UNL     1       4.520  10.280   2.419  1.00  0.00     0.057 A 
ATOM     56  C   UNL     1       4.186   9.222   3.276  1.00  0.00     0.134 A 
ATOM     57  C   UNL     1       5.573  11.112   2.814  1.00  0.00     0.134 A 
ATOM     58  F   UNL     1       3.267   8.310   2.928  1.00  0.00    -0.206 F 
ATOM     59  C   UNL     1       4.837   9.035   4.499  1.00  0.00     0.040 A 
ATOM     60  C   UNL     1       6.254  10.915   4.018  1.00  0.00     0.040 A 
ATOM     61  F   UNL     1       5.989  12.106   2.013  1.00  0.00    -0.206 F 
ATOM     62  C   UNL     1       5.878   9.881   4.870  1.00  0.00     0.006 A 
ENDBRANCH  38  55
ENDBRANCH  12  13
ENDBRANCH   5   7
ENDBRANCH   2   3
ENDBRANCH   1   2
BRANCH   1  63
ATOM     63  C   UNL     1       4.474  -1.693   2.983  1.00  0.00     0.118 C 
BRANCH  63  64
ATOM     64  N   UNL     1       5.406  -2.715   3.411  1.00  0.00    -0.351 N 
ATOM     65  C   UNL     1       6.069  -3.135   4.540  1.00  0.00     0.273 C 
ATOM     66  H   UNL     1       5.640  -3.294   2.650  1.00  0.00     0.163 HD
ATOM     67  O   UNL     1       6.722  -4.158   4.326  1.00  0.00    -0.267 OA
BRANCH  65  68
ATOM     68  C   UNL     1       6.106  -2.526   5.886  1.00  0.00     0.178 A 
ATOM     69  N   UNL     1       7.132  -2.980   6.704  1.00  0.00    -0.124 NA
ATOM     70  C   UNL     1       5.410  -1.548   6.607  1.00  0.00     0.122 A 
ATOM     71  N   UNL     1       7.131  -2.303   7.835  1.00  0.00    -0.061 NA
ATOM     72  N   UNL     1       6.035  -1.531   7.850  1.00  0.00    -0.213 N 
BRANCH  70  73
ATOM     73  C   UNL     1       4.403  -0.536   6.173  1.00  0.00     0.262 C 
ATOM     74  C   UNL     1       5.103   0.634   5.457  1.00  0.00     0.281 C 
ATOM     75  O   UNL     1       3.490  -0.135   7.200  1.00  0.00    -0.477 OA
ATOM     76  O   UNL     1       5.632   1.578   6.394  1.00  0.00    -0.485 OA
ATOM     77  C   UNL     1       3.511   1.205   7.483  1.00  0.00     0.162 A 
ATOM     78  C   UNL     1       4.593   2.028   7.165  1.00  0.00     0.161 A 
ATOM     79  C   UNL     1       2.428   1.723   8.185  1.00  0.00     0.050 A 
ATOM     80  C   UNL     1       4.645   3.338   7.626  1.00  0.00     0.050 A 
ATOM     81  C   UNL     1       2.448   3.054   8.601  1.00  0.00     0.004 A 
ATOM     82  C   UNL     1       3.564   3.854   8.341  1.00  0.00     0.004 A 
ENDBRANCH  70  73
BRANCH  72  83
ATOM     83  C   UNL     1       5.710  -0.824   9.022  1.00  0.00     0.067 A 
ATOM     84  C   UNL     1       6.587   0.159   9.489  1.00  0.00     0.028 A 
ATOM     85  C   UNL     1       4.496  -1.076   9.671  1.00  0.00     0.041 A 
ATOM     86  C   UNL     1       6.192   0.968  10.554  1.00  0.00     0.003 A 
ATOM     87  C   UNL     1       4.107  -0.279  10.758  1.00  0.00     0.058 A 
ATOM     88  C   UNL     1       4.956   0.760  11.174  1.00  0.00     0.013 A 
BRANCH  87  89
ATOM     89  C   UNL     1       2.770  -0.485  11.424  1.00  0.00     0.416 C 
ATOM     90  F   UNL     1       2.847  -0.449  12.784  1.00  0.00    -0.166 F 
ATOM     91  F   UNL     1       1.859   0.468  11.078  1.00  0.00    -0.166 F 
ATOM     92  F   UNL     1       2.189  -1.679  11.117  1.00  0.00    -0.166 F 
ENDBRANCH  87  89
ENDBRANCH  72  83
ENDBRANCH  65  68
ENDBRANCH  63  64
ENDBRANCH   1  63
TORSDOF 13
