REMARK SMILES CN(C)C(=O)CC(C)(C)CC(=O)NCCCNC(=O)c1ccc(-c2c3nc(c(-c4c(F)cccc4F)c4ccc([nH]4)c(-c4c(F)cccc4F)c4nc(c(-c5c(F)cccc5F)c5ccc2[nH]5)C=C4)C=C3)cc1
REMARK SMILES IDX 14 1 13 2 11 3 12 4 10 6 7 7 8 8 9 9 6 10 4 11 1 12 2 13
REMARK SMILES IDX 3 14 5 15 15 16 16 17 17 18 18 19 19 21 20 22 21 23 73 24
REMARK SMILES IDX 22 25 72 26 23 27 24 28 25 29 66 30 26 31 71 32 65 33 67 34
REMARK SMILES IDX 27 35 70 36 64 37 63 38 28 40 54 41 37 42 53 43 38 44 41 45
REMARK SMILES IDX 52 46 68 47 39 48 40 49 51 51 69 52 42 53 29 54 30 55 35 56
REMARK SMILES IDX 31 57 32 58 34 59 36 60 33 61 55 62 56 63 61 64 57 65 58 66
REMARK SMILES IDX 60 67 62 68 59 69 43 70 44 71 49 72 45 73 46 74 48 75 50 76
REMARK SMILES IDX 47 77
REMARK H PARENT 13 5 17 20 67 39 41 50
REMARK Flexibility Score: inf
ROOT
ATOM      1  C   UNL     1       2.252  -7.650  -1.170  1.00  0.00     0.117 C 
ENDROOT
BRANCH   1   2
ATOM      2  N   UNL     1       2.628  -6.478  -1.939  1.00  0.00    -0.356 N 
ATOM      3  C   UNL     1       2.557  -5.152  -1.650  1.00  0.00     0.220 C 
ATOM      4  O   UNL     1       2.837  -4.369  -2.557  1.00  0.00    -0.275 OA
ATOM      5  H   UNL     1       3.002  -6.679  -2.827  1.00  0.00     0.163 HD
BRANCH   3   6
ATOM      6  C   UNL     1       2.191  -4.671  -0.257  1.00  0.00     0.107 C 
BRANCH   6   7
ATOM      7  C   UNL     1       0.720  -4.240  -0.008  1.00  0.00    -0.018 C 
ATOM      8  C   UNL     1       0.623  -3.817   1.473  1.00  0.00     0.012 C 
ATOM      9  C   UNL     1      -0.255  -5.414  -0.191  1.00  0.00     0.012 C 
BRANCH   7  10
ATOM     10  C   UNL     1       0.253  -3.119  -0.975  1.00  0.00     0.107 C 
BRANCH  10  11
ATOM     11  C   UNL     1       0.924  -1.769  -0.788  1.00  0.00     0.222 C 
ATOM     12  C   UNL     1       1.038   0.431   0.240  1.00  0.00     0.146 C 
ATOM     13  N   UNL     1       0.351  -0.838   0.066  1.00  0.00    -0.349 N 
ATOM     14  C   UNL     1      -0.913  -0.968   0.775  1.00  0.00     0.146 C 
ATOM     15  O   UNL     1       1.975  -1.530  -1.387  1.00  0.00    -0.275 OA
ENDBRANCH  10  11
ENDBRANCH   7  10
ENDBRANCH   6   7
ENDBRANCH   3   6
ENDBRANCH   1   2
BRANCH   1  16
ATOM     16  C   UNL     1       0.982  -8.289  -1.726  1.00  0.00     0.042 C 
BRANCH  16  17
ATOM     17  C   UNL     1       1.148  -8.867  -3.125  1.00  0.00     0.118 C 
BRANCH  17  18
ATOM     18  N   UNL     1       1.724 -10.199  -3.092  1.00  0.00    -0.352 N 
ATOM     19  C   UNL     1       1.138 -11.408  -3.381  1.00  0.00     0.251 C 
ATOM     20  H   UNL     1       2.670 -10.242  -2.826  1.00  0.00     0.163 HD
ATOM     21  O   UNL     1       1.704 -12.447  -3.055  1.00  0.00    -0.269 OA
BRANCH  19  22
ATOM     22  C   UNL     1      -0.175 -11.469  -4.066  1.00  0.00     0.039 A 
ATOM     23  C   UNL     1      -1.097 -12.441  -3.666  1.00  0.00     0.014 A 
ATOM     24  C   UNL     1      -0.484 -10.618  -5.132  1.00  0.00     0.014 A 
ATOM     25  C   UNL     1      -2.337 -12.531  -4.305  1.00  0.00     0.010 A 
ATOM     26  C   UNL     1      -1.752 -10.652  -5.709  1.00  0.00     0.010 A 
ATOM     27  C   UNL     1      -2.684 -11.623  -5.318  1.00  0.00    -0.014 A 
BRANCH  27  28
ATOM     28  C   UNL     1      -3.996 -11.707  -6.013  1.00  0.00     0.031 A 
ATOM     29  C   UNL     1      -4.050 -12.015  -7.486  1.00  0.00     0.074 A 
ATOM     30  C   UNL     1      -5.135 -11.463  -5.336  1.00  0.00     0.049 A 
ATOM     31  N   UNL     1      -5.086 -12.066  -8.285  1.00  0.00    -0.248 NA
ATOM     32  C   UNL     1      -2.765 -12.273  -8.157  1.00  0.00     0.031 C 
ATOM     33  C   UNL     1      -5.220 -11.113  -3.917  1.00  0.00     0.029 A 
ATOM     34  N   UNL     1      -6.442 -11.466  -5.755  1.00  0.00    -0.354 N 
ATOM     35  C   UNL     1      -4.577 -12.340  -9.548  1.00  0.00     0.074 A 
ATOM     36  C   UNL     1      -3.138 -12.393  -9.422  1.00  0.00     0.031 C 
ATOM     37  C   UNL     1      -6.511 -10.960  -3.578  1.00  0.00     0.029 A 
ATOM     38  C   UNL     1      -7.341 -11.165  -4.761  1.00  0.00     0.049 A 
ATOM     39  H   UNL     1      -6.710 -11.666  -6.681  1.00  0.00     0.167 HD
ATOM     40  C   UNL     1      -5.247 -12.554 -10.706  1.00  0.00     0.037 A 
ATOM     41  C   UNL     1      -8.683 -11.062  -4.800  1.00  0.00     0.037 A 
ATOM     42  C   UNL     1      -6.681 -12.541 -10.825  1.00  0.00     0.049 A 
ATOM     43  C   UNL     1      -9.405 -11.313  -6.095  1.00  0.00     0.074 A 
ATOM     44  C   UNL     1      -7.456 -12.805 -11.942  1.00  0.00     0.029 A 
ATOM     45  N   UNL     1      -7.556 -12.255  -9.789  1.00  0.00    -0.354 N 
ATOM     46  N   UNL     1      -8.912 -11.627  -7.269  1.00  0.00    -0.248 NA
ATOM     47  C   UNL     1     -10.871 -11.202  -6.069  1.00  0.00     0.031 C 
ATOM     48  C   UNL     1      -8.800 -12.645 -11.588  1.00  0.00     0.029 A 
ATOM     49  C   UNL     1      -8.862 -12.322 -10.243  1.00  0.00     0.049 A 
ATOM     50  H   UNL     1      -7.288 -12.037  -8.867  1.00  0.00     0.167 HD
ATOM     51  C   UNL     1     -10.005 -11.777  -8.112  1.00  0.00     0.074 A 
ATOM     52  C   UNL     1     -11.188 -11.533  -7.313  1.00  0.00     0.031 C 
ATOM     53  C   UNL     1     -10.028 -12.088  -9.431  1.00  0.00     0.037 A 
BRANCH  40  54
ATOM     54  C   UNL     1      -4.434 -12.833 -11.935  1.00  0.00     0.057 A 
ATOM     55  C   UNL     1      -3.754 -14.046 -12.110  1.00  0.00     0.134 A 
ATOM     56  C   UNL     1      -4.360 -11.896 -12.973  1.00  0.00     0.134 A 
ATOM     57  F   UNL     1      -3.775 -14.981 -11.147  1.00  0.00    -0.206 F 
ATOM     58  C   UNL     1      -3.009 -14.307 -13.261  1.00  0.00     0.040 A 
ATOM     59  C   UNL     1      -3.639 -12.156 -14.141  1.00  0.00     0.040 A 
ATOM     60  F   UNL     1      -4.993 -10.717 -12.874  1.00  0.00    -0.206 F 
ATOM     61  C   UNL     1      -2.956 -13.362 -14.284  1.00  0.00     0.006 A 
ENDBRANCH  40  54
BRANCH  41  62
ATOM     62  C   UNL     1      -9.440 -10.729  -3.567  1.00  0.00     0.057 A 
ATOM     63  C   UNL     1     -10.239 -11.686  -2.931  1.00  0.00     0.134 A 
ATOM     64  C   UNL     1      -9.397  -9.447  -3.006  1.00  0.00     0.134 A 
ATOM     65  F   UNL     1     -10.335 -12.926  -3.434  1.00  0.00    -0.206 F 
ATOM     66  C   UNL     1     -10.984 -11.377  -1.792  1.00  0.00     0.040 A 
ATOM     67  C   UNL     1     -10.119  -9.131  -1.853  1.00  0.00     0.040 A 
ATOM     68  F   UNL     1      -8.646  -8.488  -3.564  1.00  0.00    -0.206 F 
ATOM     69  C   UNL     1     -10.921 -10.096  -1.248  1.00  0.00     0.006 A 
ENDBRANCH  41  62
BRANCH  53  70
ATOM     70  C   UNL     1     -11.372 -12.218 -10.082  1.00  0.00     0.057 A 
ATOM     71  C   UNL     1     -12.159 -11.099 -10.380  1.00  0.00     0.134 A 
ATOM     72  C   UNL     1     -11.865 -13.475 -10.453  1.00  0.00     0.134 A 
ATOM     73  F   UNL     1     -11.748  -9.868 -10.039  1.00  0.00    -0.206 F 
ATOM     74  C   UNL     1     -13.400 -11.227 -11.006  1.00  0.00     0.040 A 
ATOM     75  C   UNL     1     -13.093 -13.615 -11.101  1.00  0.00     0.040 A 
ATOM     76  F   UNL     1     -11.156 -14.586 -10.203  1.00  0.00    -0.206 F 
ATOM     77  C   UNL     1     -13.866 -12.488 -11.374  1.00  0.00     0.006 A 
ENDBRANCH  53  70
ENDBRANCH  27  28
ENDBRANCH  19  22
ENDBRANCH  17  18
ENDBRANCH  16  17
ENDBRANCH   1  16
TORSDOF 13
