REMARK SMILES O=C(C[C@@H](C(=O)NCCCNC(=O)c1ccc(-c2c3nc(c(-c4c(F)cccc4F)c4ccc([nH]4)c(-c4c(F)cccc4F)c4nc(c(-c5c(F)cccc5F)c5ccc2[nH]5)C=C4)C=C3)cc1)c1ccccc1)Nc1cc(C(F)(F)F)ccc1-n1cncn1
REMARK SMILES IDX 8 1 7 2 5 3 6 4 4 6 3 7 2 8 1 9 74 10 75 12 76 13 84 14
REMARK SMILES IDX 77 15 83 16 82 17 85 18 86 19 89 20 87 21 88 22 78 23 79 24
REMARK SMILES IDX 80 25 81 26 68 27 69 28 73 29 70 30 72 31 71 32 9 33 10 34
REMARK SMILES IDX 11 35 12 36 13 38 14 39 15 40 67 41 16 42 66 43 17 44 18 45
REMARK SMILES IDX 19 46 60 47 20 48 65 49 59 50 61 51 21 52 64 53 58 54 57 55
REMARK SMILES IDX 22 57 48 58 31 59 47 60 32 61 35 62 46 63 62 64 33 65 34 66
REMARK SMILES IDX 45 68 63 69 36 70 23 71 24 72 29 73 25 74 26 75 28 76 30 77
REMARK SMILES IDX 27 78 49 79 50 80 55 81 51 82 52 83 54 84 56 85 53 86 37 87
REMARK SMILES IDX 38 88 43 89 39 90 40 91 42 92 44 93 41 94
REMARK H PARENT 7 5 74 11 11 37 61 56 35 67
REMARK Flexibility Score: inf
ROOT
ATOM      1  C   UNL     1       3.907   0.658   3.267  1.00  0.00     0.117 C 
ENDROOT
BRANCH   1   2
ATOM      2  N   UNL     1       4.988   0.771   2.259  1.00  0.00    -0.355 N 
ATOM      3  C   UNL     1       4.961   0.966   0.899  1.00  0.00     0.228 C 
ATOM      4  O   UNL     1       5.777   0.297   0.251  1.00  0.00    -0.274 OA
ATOM      5  H   UNL     1       5.894   0.690   2.635  1.00  0.00     0.163 HD
BRANCH   3   6
ATOM      6  C   UNL     1       3.997   1.943   0.172  1.00  0.00     0.118 C 
BRANCH   6   7
ATOM      7  C   UNL     1       3.221   1.256  -0.967  1.00  0.00     0.118 C 
BRANCH   7   8
ATOM      8  C   UNL     1       2.377   0.132  -0.473  1.00  0.00     0.225 C 
ATOM      9  O   UNL     1       1.310   0.310   0.134  1.00  0.00    -0.275 OA
ATOM     10  N   UNL     1       2.976  -1.078  -0.689  1.00  0.00    -0.324 N 
ATOM     11  H   UNL     1       3.814  -1.096  -1.204  1.00  0.00     0.170 HD
BRANCH  10  12
ATOM     12  C   UNL     1       2.466  -2.286  -0.220  1.00  0.00     0.067 A 
ATOM     13  C   UNL     1       3.362  -2.929   0.598  1.00  0.00     0.041 A 
ATOM     14  C   UNL     1       1.206  -2.835  -0.418  1.00  0.00     0.090 A 
ATOM     15  C   UNL     1       3.192  -4.219   1.036  1.00  0.00     0.058 A 
ATOM     16  C   UNL     1       0.880  -4.022   0.246  1.00  0.00     0.031 A 
ATOM     17  C   UNL     1       1.903  -4.747   0.899  1.00  0.00     0.015 A 
BRANCH  14  18
ATOM     18  N   UNL     1       0.328  -2.278  -1.363  1.00  0.00    -0.219 N 
ATOM     19  C   UNL     1       0.668  -1.782  -2.600  1.00  0.00     0.226 A 
ATOM     20  N   UNL     1      -1.012  -2.203  -1.203  1.00  0.00    -0.155 NA
ATOM     21  N   UNL     1      -0.366  -1.203  -3.159  1.00  0.00    -0.223 NA
ATOM     22  C   UNL     1      -1.351  -1.431  -2.241  1.00  0.00     0.246 A 
ENDBRANCH  14  18
BRANCH  15  23
ATOM     23  C   UNL     1       4.470  -4.752   1.636  1.00  0.00     0.416 C 
ATOM     24  F   UNL     1       5.577  -4.188   1.052  1.00  0.00    -0.166 F 
ATOM     25  F   UNL     1       4.616  -4.406   2.940  1.00  0.00    -0.166 F 
ATOM     26  F   UNL     1       4.676  -6.085   1.542  1.00  0.00    -0.166 F 
ENDBRANCH  15  23
ENDBRANCH  10  12
ENDBRANCH   7   8
ENDBRANCH   6   7
BRANCH   6  27
ATOM     27  C   UNL     1       4.746   3.090  -0.546  1.00  0.00    -0.035 A 
ATOM     28  C   UNL     1       5.790   2.837  -1.463  1.00  0.00     0.004 A 
ATOM     29  C   UNL     1       4.276   4.408  -0.444  1.00  0.00     0.004 A 
ATOM     30  C   UNL     1       6.353   3.862  -2.230  1.00  0.00     0.000 A 
ATOM     31  C   UNL     1       4.845   5.435  -1.209  1.00  0.00     0.000 A 
ATOM     32  C   UNL     1       5.884   5.163  -2.098  1.00  0.00     0.000 A 
ENDBRANCH   6  27
ENDBRANCH   3   6
ENDBRANCH   1   2
BRANCH   1  33
ATOM     33  C   UNL     1       3.177  -0.735   3.225  1.00  0.00     0.042 C 
BRANCH  33  34
ATOM     34  C   UNL     1       3.509  -1.934   4.211  1.00  0.00     0.118 C 
BRANCH  34  35
ATOM     35  N   UNL     1       2.310  -2.767   4.676  1.00  0.00    -0.352 N 
ATOM     36  C   UNL     1       1.647  -3.985   4.861  1.00  0.00     0.251 C 
ATOM     37  H   UNL     1       1.678  -2.098   5.027  1.00  0.00     0.163 HD
ATOM     38  O   UNL     1       0.705  -3.842   5.664  1.00  0.00    -0.269 OA
BRANCH  36  39
ATOM     39  C   UNL     1       1.702  -5.402   4.271  1.00  0.00     0.039 A 
ATOM     40  C   UNL     1       0.492  -6.155   4.245  1.00  0.00     0.014 A 
ATOM     41  C   UNL     1       2.776  -6.129   3.793  1.00  0.00     0.014 A 
ATOM     42  C   UNL     1       0.323  -7.403   3.551  1.00  0.00     0.010 A 
ATOM     43  C   UNL     1       2.594  -7.308   2.988  1.00  0.00     0.010 A 
ATOM     44  C   UNL     1       1.355  -7.946   2.785  1.00  0.00    -0.014 A 
BRANCH  44  45
ATOM     45  C   UNL     1       1.212  -9.089   1.771  1.00  0.00     0.031 A 
ATOM     46  C   UNL     1       2.202 -10.254   1.752  1.00  0.00     0.074 A 
ATOM     47  C   UNL     1       0.367  -9.018   0.707  1.00  0.00     0.049 A 
ATOM     48  N   UNL     1       2.363 -11.219   0.871  1.00  0.00    -0.248 NA
ATOM     49  C   UNL     1       3.194 -10.282   2.834  1.00  0.00     0.031 C 
ATOM     50  C   UNL     1      -0.568  -7.928   0.429  1.00  0.00     0.029 A 
ATOM     51  N   UNL     1       0.204  -9.856  -0.389  1.00  0.00    -0.354 N 
ATOM     52  C   UNL     1       3.498 -11.924   1.272  1.00  0.00     0.074 A 
ATOM     53  C   UNL     1       4.038 -11.208   2.407  1.00  0.00     0.031 C 
ATOM     54  C   UNL     1      -1.174  -8.142  -0.754  1.00  0.00     0.029 A 
ATOM     55  C   UNL     1      -0.695  -9.396  -1.333  1.00  0.00     0.049 A 
ATOM     56  H   UNL     1       0.690 -10.707  -0.486  1.00  0.00     0.167 HD
ATOM     57  C   UNL     1       4.036 -13.078   0.794  1.00  0.00     0.037 A 
ATOM     58  C   UNL     1      -1.107  -9.912  -2.515  1.00  0.00     0.037 A 
ATOM     59  C   UNL     1       3.513 -13.829  -0.319  1.00  0.00     0.049 A 
ATOM     60  C   UNL     1      -0.570 -11.239  -3.005  1.00  0.00     0.074 A 
ATOM     61  C   UNL     1       3.903 -15.074  -0.787  1.00  0.00     0.029 A 
ATOM     62  N   UNL     1       2.494 -13.395  -1.149  1.00  0.00    -0.354 N 
ATOM     63  N   UNL     1       0.376 -11.987  -2.492  1.00  0.00    -0.248 NA
ATOM     64  C   UNL     1      -1.182 -11.809  -4.220  1.00  0.00     0.031 C 
ATOM     65  C   UNL     1       3.147 -15.374  -1.926  1.00  0.00     0.029 A 
ATOM     66  C   UNL     1       2.249 -14.341  -2.132  1.00  0.00     0.049 A 
ATOM     67  H   UNL     1       2.014 -12.540  -1.055  1.00  0.00     0.167 HD
ATOM     68  C   UNL     1       0.430 -13.133  -3.282  1.00  0.00     0.074 A 
ATOM     69  C   UNL     1      -0.571 -12.983  -4.313  1.00  0.00     0.031 C 
ATOM     70  C   UNL     1       1.235 -14.216  -3.147  1.00  0.00     0.037 A 
BRANCH  57  71
ATOM     71  C   UNL     1       5.237 -13.639   1.520  1.00  0.00     0.057 A 
ATOM     72  C   UNL     1       5.150 -14.068   2.854  1.00  0.00     0.134 A 
ATOM     73  C   UNL     1       6.478 -13.788   0.886  1.00  0.00     0.134 A 
ATOM     74  F   UNL     1       3.992 -13.967   3.526  1.00  0.00    -0.206 F 
ATOM     75  C   UNL     1       6.257 -14.562   3.545  1.00  0.00     0.040 A 
ATOM     76  C   UNL     1       7.585 -14.320   1.555  1.00  0.00     0.040 A 
ATOM     77  F   UNL     1       6.639 -13.429  -0.397  1.00  0.00    -0.206 F 
ATOM     78  C   UNL     1       7.480 -14.694   2.893  1.00  0.00     0.006 A 
ENDBRANCH  57  71
BRANCH  58  79
ATOM     79  C   UNL     1      -2.188  -9.237  -3.295  1.00  0.00     0.057 A 
ATOM     80  C   UNL     1      -3.484  -9.774  -3.315  1.00  0.00     0.134 A 
ATOM     81  C   UNL     1      -1.970  -8.074  -4.043  1.00  0.00     0.134 A 
ATOM     82  F   UNL     1      -3.751 -10.908  -2.651  1.00  0.00    -0.206 F 
ATOM     83  C   UNL     1      -4.516  -9.191  -4.054  1.00  0.00     0.040 A 
ATOM     84  C   UNL     1      -3.001  -7.466  -4.769  1.00  0.00     0.040 A 
ATOM     85  F   UNL     1      -0.754  -7.509  -4.078  1.00  0.00    -0.206 F 
ATOM     86  C   UNL     1      -4.277  -8.027  -4.778  1.00  0.00     0.006 A 
ENDBRANCH  58  79
BRANCH  70  87
ATOM     87  C   UNL     1       1.033 -15.373  -4.084  1.00  0.00     0.057 A 
ATOM     88  C   UNL     1       1.406 -15.321  -5.433  1.00  0.00     0.134 A 
ATOM     89  C   UNL     1       0.516 -16.586  -3.606  1.00  0.00     0.134 A 
ATOM     90  F   UNL     1       1.901 -14.191  -5.959  1.00  0.00    -0.206 F 
ATOM     91  C   UNL     1       1.256 -16.426  -6.275  1.00  0.00     0.040 A 
ATOM     92  C   UNL     1       0.386 -17.704  -4.431  1.00  0.00     0.040 A 
ATOM     93  F   UNL     1       0.147 -16.709  -2.322  1.00  0.00    -0.206 F 
ATOM     94  C   UNL     1       0.753 -17.625  -5.772  1.00  0.00     0.006 A 
ENDBRANCH  70  87
ENDBRANCH  44  45
ENDBRANCH  36  39
ENDBRANCH  34  35
ENDBRANCH  33  34
ENDBRANCH   1  33
TORSDOF 16
