REMARK SMILES CCC(CC)(CC(=O)Nc1cccc(C#N)c1)C(=O)NCCCNC(=O)c1ccc(-c2c3nc(c(-c4c(F)cccc4F)c4ccc([nH]4)c(-c4c(F)cccc4F)c4nc(c(-c5c(F)cccc5F)c5ccc2[nH]5)C=C4)C=C3)cc1
REMARK SMILES IDX 21 1 20 2 18 3 19 4 3 6 2 7 1 8 4 9 5 10 6 11 7 12 8 13 9 14
REMARK SMILES IDX 10 16 11 17 17 18 12 19 14 20 13 21 15 22 16 23 22 24 23 25
REMARK SMILES IDX 24 26 25 27 26 29 27 30 28 31 80 32 29 33 79 34 30 35 31 36
REMARK SMILES IDX 32 37 73 38 33 39 78 40 72 41 74 42 34 43 77 44 71 45 70 46
REMARK SMILES IDX 35 48 61 49 44 50 60 51 45 52 48 53 59 54 75 55 46 56 47 57
REMARK SMILES IDX 58 59 76 60 49 61 36 62 37 63 42 64 38 65 39 66 41 67 43 68
REMARK SMILES IDX 40 69 62 70 63 71 68 72 64 73 65 74 67 75 69 76 66 77 50 78
REMARK SMILES IDX 51 79 56 80 52 81 53 82 55 83 57 84 54 85
REMARK H PARENT 20 5 9 15 24 28 74 47 48 58
REMARK Flexibility Score: inf
ROOT
ATOM      1  C   UNL     1       2.526  -4.489   2.813  1.00  0.00     0.117 C 
ENDROOT
BRANCH   1   2
ATOM      2  N   UNL     1       3.128  -3.442   2.017  1.00  0.00    -0.356 N 
ATOM      3  C   UNL     1       2.621  -2.540   1.151  1.00  0.00     0.226 C 
ATOM      4  O   UNL     1       3.460  -1.962   0.452  1.00  0.00    -0.274 OA
ATOM      5  H   UNL     1       4.104  -3.375   2.128  1.00  0.00     0.163 HD
BRANCH   3   6
ATOM      6  C   UNL     1       1.113  -2.237   1.032  1.00  0.00     0.057 C 
BRANCH   6   7
ATOM      7  C   UNL     1       0.997  -0.887   0.296  1.00  0.00     0.014 C 
ATOM      8  C   UNL     1       1.490   0.391   0.952  1.00  0.00     0.005 C 
ENDBRANCH   6   7
BRANCH   6   9
ATOM      9  C   UNL     1       0.428  -2.066   2.425  1.00  0.00     0.014 C 
ATOM     10  C   UNL     1      -1.095  -1.990   2.409  1.00  0.00     0.005 C 
ENDBRANCH   6   9
BRANCH   6  11
ATOM     11  C   UNL     1       0.412  -3.307   0.131  1.00  0.00     0.117 C 
BRANCH  11  12
ATOM     12  C   UNL     1       1.019  -3.672  -1.240  1.00  0.00     0.225 C 
ATOM     13  O   UNL     1       1.922  -4.513  -1.302  1.00  0.00    -0.275 OA
ATOM     14  N   UNL     1       0.438  -3.250  -2.423  1.00  0.00    -0.326 N 
ATOM     15  H   UNL     1       0.653  -3.799  -3.212  1.00  0.00     0.169 HD
BRANCH  14  16
ATOM     16  C   UNL     1      -0.411  -2.160  -2.671  1.00  0.00     0.042 A 
ATOM     17  C   UNL     1       0.044  -0.856  -2.504  1.00  0.00     0.026 A 
ATOM     18  C   UNL     1      -1.668  -2.340  -3.239  1.00  0.00     0.045 A 
ATOM     19  C   UNL     1      -0.832   0.228  -2.524  1.00  0.00     0.004 A 
ATOM     20  C   UNL     1      -2.528  -1.236  -3.382  1.00  0.00     0.054 A 
ATOM     21  C   UNL     1      -2.142   0.028  -2.925  1.00  0.00     0.019 A 
BRANCH  20  22
ATOM     22  C   UNL     1      -3.793  -1.369  -4.047  1.00  0.00     0.099 C 
ATOM     23  N   UNL     1      -4.794  -1.435  -4.621  1.00  0.00    -0.192 NA
ENDBRANCH  20  22
ENDBRANCH  14  16
ENDBRANCH  11  12
ENDBRANCH   6  11
ENDBRANCH   3   6
ENDBRANCH   1   2
BRANCH   1  24
ATOM     24  C   UNL     1       3.056  -5.855   2.424  1.00  0.00     0.042 C 
BRANCH  24  25
ATOM     25  C   UNL     1       4.571  -5.961   2.467  1.00  0.00     0.118 C 
BRANCH  25  26
ATOM     26  N   UNL     1       5.119  -5.652   3.783  1.00  0.00    -0.352 N 
ATOM     27  C   UNL     1       5.658  -6.489   4.728  1.00  0.00     0.251 C 
ATOM     28  H   UNL     1       5.098  -4.699   4.031  1.00  0.00     0.163 HD
ATOM     29  O   UNL     1       5.851  -6.089   5.872  1.00  0.00    -0.269 OA
BRANCH  27  30
ATOM     30  C   UNL     1       5.976  -7.883   4.365  1.00  0.00     0.039 A 
ATOM     31  C   UNL     1       5.629  -8.911   5.242  1.00  0.00     0.014 A 
ATOM     32  C   UNL     1       6.588  -8.173   3.144  1.00  0.00     0.014 A 
ATOM     33  C   UNL     1       5.813 -10.237   4.850  1.00  0.00     0.010 A 
ATOM     34  C   UNL     1       6.666  -9.488   2.710  1.00  0.00     0.010 A 
ATOM     35  C   UNL     1       6.280 -10.534   3.559  1.00  0.00    -0.014 A 
BRANCH  35  36
ATOM     36  C   UNL     1       6.357 -11.931   3.068  1.00  0.00     0.031 A 
ATOM     37  C   UNL     1       7.679 -12.515   2.658  1.00  0.00     0.074 A 
ATOM     38  C   UNL     1       5.224 -12.645   2.923  1.00  0.00     0.049 A 
ATOM     39  N   UNL     1       7.938 -13.687   2.135  1.00  0.00    -0.248 NA
ATOM     40  C   UNL     1       8.866 -11.662   2.835  1.00  0.00     0.031 C 
ATOM     41  C   UNL     1       3.876 -12.168   3.242  1.00  0.00     0.029 A 
ATOM     42  N   UNL     1       5.022 -13.920   2.458  1.00  0.00    -0.354 N 
ATOM     43  C   UNL     1       9.309 -13.706   1.915  1.00  0.00     0.074 A 
ATOM     44  C   UNL     1       9.819 -12.410   2.302  1.00  0.00     0.031 C 
ATOM     45  C   UNL     1       2.993 -13.147   2.992  1.00  0.00     0.029 A 
ATOM     46  C   UNL     1       3.701 -14.298   2.443  1.00  0.00     0.049 A 
ATOM     47  H   UNL     1       5.755 -14.508   2.164  1.00  0.00     0.167 HD
ATOM     48  C   UNL     1      10.076 -14.722   1.453  1.00  0.00     0.037 A 
ATOM     49  C   UNL     1       3.124 -15.437   2.017  1.00  0.00     0.037 A 
ATOM     50  C   UNL     1       9.559 -16.011   1.073  1.00  0.00     0.049 A 
ATOM     51  C   UNL     1       3.994 -16.532   1.465  1.00  0.00     0.074 A 
ATOM     52  C   UNL     1      10.258 -17.125   0.643  1.00  0.00     0.029 A 
ATOM     53  N   UNL     1       8.215 -16.354   1.066  1.00  0.00    -0.354 N 
ATOM     54  N   UNL     1       5.299 -16.567   1.334  1.00  0.00    -0.248 NA
ATOM     55  C   UNL     1       3.312 -17.749   1.004  1.00  0.00     0.031 C 
ATOM     56  C   UNL     1       9.333 -18.118   0.308  1.00  0.00     0.029 A 
ATOM     57  C   UNL     1       8.061 -17.650   0.599  1.00  0.00     0.049 A 
ATOM     58  H   UNL     1       7.480 -15.764   1.349  1.00  0.00     0.167 HD
ATOM     59  C   UNL     1       5.595 -17.815   0.800  1.00  0.00     0.074 A 
ATOM     60  C   UNL     1       4.335 -18.515   0.655  1.00  0.00     0.031 C 
ATOM     61  C   UNL     1       6.800 -18.334   0.458  1.00  0.00     0.037 A 
BRANCH  48  62
ATOM     62  C   UNL     1      11.552 -14.476   1.324  1.00  0.00     0.057 A 
ATOM     63  C   UNL     1      12.376 -14.298   2.444  1.00  0.00     0.134 A 
ATOM     64  C   UNL     1      12.165 -14.452   0.065  1.00  0.00     0.134 A 
ATOM     65  F   UNL     1      11.855 -14.298   3.680  1.00  0.00    -0.206 F 
ATOM     66  C   UNL     1      13.749 -14.077   2.314  1.00  0.00     0.040 A 
ATOM     67  C   UNL     1      13.541 -14.265  -0.076  1.00  0.00     0.040 A 
ATOM     68  F   UNL     1      11.438 -14.621  -1.051  1.00  0.00    -0.206 F 
ATOM     69  C   UNL     1      14.336 -14.069   1.051  1.00  0.00     0.006 A 
ENDBRANCH  48  62
BRANCH  49  70
ATOM     70  C   UNL     1       1.649 -15.601   2.093  1.00  0.00     0.057 A 
ATOM     71  C   UNL     1       1.069 -16.543   2.950  1.00  0.00     0.134 A 
ATOM     72  C   UNL     1       0.785 -14.834   1.301  1.00  0.00     0.134 A 
ATOM     73  F   UNL     1       1.843 -17.321   3.721  1.00  0.00    -0.206 F 
ATOM     74  C   UNL     1      -0.313 -16.736   2.999  1.00  0.00     0.040 A 
ATOM     75  C   UNL     1      -0.600 -14.993   1.363  1.00  0.00     0.040 A 
ATOM     76  F   UNL     1       1.275 -13.907   0.465  1.00  0.00    -0.206 F 
ATOM     77  C   UNL     1      -1.152 -15.955   2.207  1.00  0.00     0.006 A 
ENDBRANCH  49  70
BRANCH  61  78
ATOM     78  C   UNL     1       6.817 -19.736  -0.081  1.00  0.00     0.057 A 
ATOM     79  C   UNL     1       6.294 -20.054  -1.341  1.00  0.00     0.134 A 
ATOM     80  C   UNL     1       7.398 -20.776   0.657  1.00  0.00     0.134 A 
ATOM     81  F   UNL     1       5.713 -19.108  -2.095  1.00  0.00    -0.206 F 
ATOM     82  C   UNL     1       6.322 -21.359  -1.834  1.00  0.00     0.040 A 
ATOM     83  C   UNL     1       7.463 -22.078   0.160  1.00  0.00     0.040 A 
ATOM     84  F   UNL     1       7.928 -20.541   1.867  1.00  0.00    -0.206 F 
ATOM     85  C   UNL     1       6.915 -22.374  -1.086  1.00  0.00     0.006 A 
ENDBRANCH  61  78
ENDBRANCH  35  36
ENDBRANCH  27  30
ENDBRANCH  25  26
ENDBRANCH  24  25
ENDBRANCH   1  24
TORSDOF 16
