REMARK SMILES C[C@@H](C(=O)NCCCNC(=O)c1ccc(-c2c3nc(c(-c4c(F)cccc4F)c4ccc([nH]4)c(-c4c(F)cccc4F)c4nc(c(-c5c(F)cccc5F)c5ccc2[nH]5)C=C4)C=C3)cc1)c1ccc(C[C@H]2CCC[C@@H]2O)cc1F
REMARK SMILES IDX 6 1 5 2 3 3 4 4 2 6 1 7 66 8 67 9 78 10 68 11 77 12 79 13
REMARK SMILES IDX 69 14 70 15 71 16 72 17 75 18 73 19 74 20 76 21 7 23 8 24
REMARK SMILES IDX 9 25 10 26 11 28 12 29 13 30 65 31 14 32 64 33 15 34 16 35
REMARK SMILES IDX 17 36 58 37 18 38 63 39 57 40 59 41 19 42 62 43 56 44 55 45
REMARK SMILES IDX 20 47 46 48 29 49 45 50 30 51 33 52 44 53 60 54 31 55 32 56
REMARK SMILES IDX 43 58 61 59 34 60 21 61 22 62 27 63 23 64 24 65 26 66 28 67
REMARK SMILES IDX 25 68 47 69 48 70 53 71 49 72 50 73 52 74 54 75 51 76 35 77
REMARK SMILES IDX 36 78 41 79 37 80 38 81 40 82 42 83 39 84
REMARK H PARENT 5 5 76 22 9 27 59 46 33 57
REMARK Flexibility Score: inf
ROOT
ATOM      1  C   UNL     1       3.398  -1.685  -1.216  1.00  0.00     0.117 C 
ENDROOT
BRANCH   1   2
ATOM      2  N   UNL     1       2.352  -2.584  -0.763  1.00  0.00    -0.356 N 
ATOM      3  C   UNL     1       1.103  -2.267  -0.303  1.00  0.00     0.227 C 
ATOM      4  O   UNL     1       0.615  -3.016   0.543  1.00  0.00    -0.274 OA
ATOM      5  H   UNL     1       2.569  -3.544  -0.791  1.00  0.00     0.163 HD
BRANCH   3   6
ATOM      6  C   UNL     1       0.437  -0.975  -0.791  1.00  0.00     0.108 C 
ATOM      7  C   UNL     1       0.795   0.101   0.251  1.00  0.00     0.023 C 
BRANCH   6   8
ATOM      8  C   UNL     1      -1.074  -1.026  -1.011  1.00  0.00    -0.000 A 
ATOM      9  C   UNL     1      -1.773   0.176  -1.226  1.00  0.00     0.008 A 
ATOM     10  C   UNL     1      -1.832  -2.200  -1.022  1.00  0.00     0.127 A 
ATOM     11  C   UNL     1      -3.168   0.214  -1.247  1.00  0.00     0.004 A 
ATOM     12  C   UNL     1      -3.228  -2.165  -0.992  1.00  0.00     0.043 A 
ATOM     13  F   UNL     1      -1.250  -3.404  -1.068  1.00  0.00    -0.207 F 
ATOM     14  C   UNL     1      -3.910  -0.946  -1.026  1.00  0.00    -0.045 A 
BRANCH  14  15
ATOM     15  C   UNL     1      -5.399  -0.888  -0.792  1.00  0.00     0.041 C 
BRANCH  15  16
ATOM     16  C   UNL     1      -5.838  -0.346   0.586  1.00  0.00     0.022 C 
ATOM     17  C   UNL     1      -5.237  -1.058   1.812  1.00  0.00     0.007 C 
ATOM     18  C   UNL     1      -5.575   1.142   0.846  1.00  0.00     0.117 C 
ATOM     19  C   UNL     1      -5.014   0.027   2.871  1.00  0.00     0.003 C 
ATOM     20  C   UNL     1      -5.739   1.258   2.353  1.00  0.00     0.032 C 
BRANCH  18  21
ATOM     21  O   UNL     1      -6.504   1.974   0.177  1.00  0.00    -0.393 OA
ATOM     22  H   UNL     1      -7.404   1.743   0.456  1.00  0.00     0.210 HD
ENDBRANCH  18  21
ENDBRANCH  15  16
ENDBRANCH  14  15
ENDBRANCH   6   8
ENDBRANCH   3   6
ENDBRANCH   1   2
BRANCH   1  23
ATOM     23  C   UNL     1       4.325  -1.297  -0.061  1.00  0.00     0.042 C 
BRANCH  23  24
ATOM     24  C   UNL     1       5.075  -2.469   0.563  1.00  0.00     0.118 C 
BRANCH  24  25
ATOM     25  N   UNL     1       6.030  -3.068  -0.354  1.00  0.00    -0.352 N 
ATOM     26  C   UNL     1       7.377  -3.273  -0.204  1.00  0.00     0.251 C 
ATOM     27  H   UNL     1       5.653  -3.373  -1.211  1.00  0.00     0.163 HD
ATOM     28  O   UNL     1       8.048  -3.620  -1.177  1.00  0.00    -0.269 OA
BRANCH  26  29
ATOM     29  C   UNL     1       8.036  -3.063   1.103  1.00  0.00     0.039 A 
ATOM     30  C   UNL     1       9.289  -2.444   1.129  1.00  0.00     0.014 A 
ATOM     31  C   UNL     1       7.452  -3.505   2.294  1.00  0.00     0.014 A 
ATOM     32  C   UNL     1       9.932  -2.226   2.349  1.00  0.00     0.010 A 
ATOM     33  C   UNL     1       8.061  -3.222   3.515  1.00  0.00     0.010 A 
ATOM     34  C   UNL     1       9.312  -2.588   3.555  1.00  0.00    -0.014 A 
BRANCH  34  35
ATOM     35  C   UNL     1       9.964  -2.319   4.862  1.00  0.00     0.031 A 
ATOM     36  C   UNL     1      10.388  -3.458   5.748  1.00  0.00     0.074 A 
ATOM     37  C   UNL     1      10.130  -1.047   5.274  1.00  0.00     0.049 A 
ATOM     38  N   UNL     1      10.930  -3.421   6.940  1.00  0.00    -0.248 NA
ATOM     39  C   UNL     1      10.152  -4.817   5.239  1.00  0.00     0.031 C 
ATOM     40  C   UNL     1       9.723   0.144   4.527  1.00  0.00     0.029 A 
ATOM     41  N   UNL     1      10.679  -0.545   6.427  1.00  0.00    -0.354 N 
ATOM     42  C   UNL     1      11.082  -4.746   7.328  1.00  0.00     0.074 A 
ATOM     43  C   UNL     1      10.532  -5.562   6.267  1.00  0.00     0.031 C 
ATOM     44  C   UNL     1      10.059   1.238   5.229  1.00  0.00     0.029 A 
ATOM     45  C   UNL     1      10.670   0.827   6.489  1.00  0.00     0.049 A 
ATOM     46  H   UNL     1      11.044  -1.114   7.142  1.00  0.00     0.167 HD
ATOM     47  C   UNL     1      11.649  -5.240   8.454  1.00  0.00     0.037 A 
ATOM     48  C   UNL     1      11.104   1.660   7.454  1.00  0.00     0.037 A 
ATOM     49  C   UNL     1      12.219  -4.428   9.498  1.00  0.00     0.049 A 
ATOM     50  C   UNL     1      11.724   1.087   8.697  1.00  0.00     0.074 A 
ATOM     51  C   UNL     1      12.871  -4.836  10.649  1.00  0.00     0.029 A 
ATOM     52  N   UNL     1      12.201  -3.042   9.518  1.00  0.00    -0.354 N 
ATOM     53  N   UNL     1      11.925  -0.168   9.018  1.00  0.00    -0.248 NA
ATOM     54  C   UNL     1      12.184   2.047   9.710  1.00  0.00     0.031 C 
ATOM     55  C   UNL     1      13.211  -3.696  11.386  1.00  0.00     0.029 A 
ATOM     56  C   UNL     1      12.812  -2.578  10.672  1.00  0.00     0.049 A 
ATOM     57  H   UNL     1      11.812  -2.472   8.816  1.00  0.00     0.167 HD
ATOM     58  C   UNL     1      12.560  -0.147  10.253  1.00  0.00     0.074 A 
ATOM     59  C   UNL     1      12.723   1.245  10.617  1.00  0.00     0.031 C 
ATOM     60  C   UNL     1      12.973  -1.189  11.017  1.00  0.00     0.037 A 
BRANCH  47  61
ATOM     61  C   UNL     1      11.681  -6.733   8.616  1.00  0.00     0.057 A 
ATOM     62  C   UNL     1      12.508  -7.544   7.828  1.00  0.00     0.134 A 
ATOM     63  C   UNL     1      10.899  -7.364   9.591  1.00  0.00     0.134 A 
ATOM     64  F   UNL     1      13.275  -7.005   6.868  1.00  0.00    -0.206 F 
ATOM     65  C   UNL     1      12.535  -8.931   7.984  1.00  0.00     0.040 A 
ATOM     66  C   UNL     1      10.937  -8.747   9.776  1.00  0.00     0.040 A 
ATOM     67  F   UNL     1      10.089  -6.647  10.385  1.00  0.00    -0.206 F 
ATOM     68  C   UNL     1      11.752  -9.536   8.966  1.00  0.00     0.006 A 
ENDBRANCH  47  61
BRANCH  48  69
ATOM     69  C   UNL     1      10.992   3.129   7.272  1.00  0.00     0.057 A 
ATOM     70  C   UNL     1      12.131   3.918   7.070  1.00  0.00     0.134 A 
ATOM     71  C   UNL     1       9.754   3.780   7.306  1.00  0.00     0.134 A 
ATOM     72  F   UNL     1      13.347   3.353   7.047  1.00  0.00    -0.206 F 
ATOM     73  C   UNL     1      12.045   5.303   6.926  1.00  0.00     0.040 A 
ATOM     74  C   UNL     1       9.650   5.162   7.139  1.00  0.00     0.040 A 
ATOM     75  F   UNL     1       8.624   3.080   7.489  1.00  0.00    -0.206 F 
ATOM     76  C   UNL     1      10.800   5.929   6.957  1.00  0.00     0.006 A 
ENDBRANCH  48  69
BRANCH  60  77
ATOM     77  C   UNL     1      13.674  -0.860  12.302  1.00  0.00     0.057 A 
ATOM     78  C   UNL     1      12.988  -0.348  13.411  1.00  0.00     0.134 A 
ATOM     79  C   UNL     1      15.049  -1.089  12.441  1.00  0.00     0.134 A 
ATOM     80  F   UNL     1      11.673  -0.093  13.338  1.00  0.00    -0.206 F 
ATOM     81  C   UNL     1      13.649  -0.053  14.604  1.00  0.00     0.040 A 
ATOM     82  C   UNL     1      15.716  -0.823  13.638  1.00  0.00     0.040 A 
ATOM     83  F   UNL     1      15.764  -1.586  11.421  1.00  0.00    -0.206 F 
ATOM     84  C   UNL     1      15.016  -0.297  14.722  1.00  0.00     0.006 A 
ENDBRANCH  60  77
ENDBRANCH  34  35
ENDBRANCH  26  29
ENDBRANCH  24  25
ENDBRANCH  23  24
ENDBRANCH   1  23
TORSDOF 14
