REMARK SMILES Cc1cccc(CC(=O)N2CCC3(CCC(=O)N([C@H](C)C(=O)NCCCNC(=O)c4ccc(-c5c6nc(c(-c7c(F)cccc7F)c7ccc([nH]7)c(-c7c(F)cccc7F)c7nc(c(-c8c(F)cccc8F)c8ccc5[nH]8)C=C7)C=C6)cc4)C3)CC2)c1
REMARK SMILES IDX 24 1 23 2 21 3 22 4 19 6 20 7 18 8 8 9 9 10 10 11 11 12
REMARK SMILES IDX 86 13 12 14 85 15 13 16 14 17 84 18 15 19 16 20 17 21 7 22
REMARK SMILES IDX 6 23 1 24 2 25 3 26 87 27 4 28 5 29 25 30 26 31 27 32 28 33
REMARK SMILES IDX 29 35 30 36 31 37 83 38 32 39 82 40 33 41 34 42 35 43 76 44
REMARK SMILES IDX 36 45 81 46 75 47 77 48 37 49 80 50 74 51 73 52 38 54 64 55
REMARK SMILES IDX 47 56 63 57 48 58 51 59 62 60 78 61 49 62 50 63 61 65 79 66
REMARK SMILES IDX 52 67 39 68 40 69 45 70 41 71 42 72 44 73 46 74 43 75 65 76
REMARK SMILES IDX 66 77 71 78 67 79 68 80 70 81 72 82 69 83 53 84 54 85 59 86
REMARK SMILES IDX 55 87 56 88 58 89 60 90 57 91
REMARK H PARENT 23 5 27 34 77 53 51 64
REMARK Flexibility Score: inf
ROOT
ATOM      1  C   UNL     1      -1.057   5.707  -8.742  1.00  0.00     0.117 C 
ENDROOT
BRANCH   1   2
ATOM      2  N   UNL     1      -1.483   6.573  -7.657  1.00  0.00    -0.354 N 
ATOM      3  C   UNL     1      -0.718   7.252  -6.746  1.00  0.00     0.242 C 
ATOM      4  O   UNL     1      -1.282   8.085  -6.030  1.00  0.00    -0.273 OA
ATOM      5  H   UNL     1      -2.456   6.689  -7.564  1.00  0.00     0.163 HD
BRANCH   3   6
ATOM      6  C   UNL     1       0.783   6.919  -6.532  1.00  0.00     0.171 C 
ATOM      7  C   UNL     1       0.964   5.450  -6.129  1.00  0.00     0.042 C 
BRANCH   6   8
ATOM      8  N   UNL     1       1.771   7.340  -7.548  1.00  0.00    -0.330 N 
ATOM      9  C   UNL     1       7.941   5.242  -6.960  1.00  0.00     0.226 C 
ATOM     10  O   UNL     1       8.114   4.043  -6.704  1.00  0.00    -0.275 OA
ATOM     11  N   UNL     1       6.839   5.646  -7.700  1.00  0.00    -0.342 N 
ATOM     12  C   UNL     1       5.686   4.758  -7.829  1.00  0.00     0.120 C 
ATOM     13  C   UNL     1       6.689   6.897  -8.422  1.00  0.00     0.120 C 
ATOM     14  C   UNL     1       4.410   5.476  -7.352  1.00  0.00     0.030 C 
ATOM     15  C   UNL     1       5.545   7.687  -7.813  1.00  0.00     0.030 C 
ATOM     16  C   UNL     1       4.216   6.904  -7.949  1.00  0.00    -0.008 C 
ATOM     17  C   UNL     1       3.843   6.863  -9.455  1.00  0.00     0.019 C 
ATOM     18  C   UNL     1       3.130   7.667  -7.150  1.00  0.00     0.127 C 
ATOM     19  C   UNL     1       2.396   6.518  -9.710  1.00  0.00     0.101 C 
ATOM     20  C   UNL     1       1.486   7.400  -8.896  1.00  0.00     0.223 C 
ATOM     21  O   UNL     1       0.512   7.958  -9.383  1.00  0.00    -0.275 OA
BRANCH   9  22
ATOM     22  C   UNL     1       8.827   6.267  -6.249  1.00  0.00     0.135 C 
BRANCH  22  23
ATOM     23  C   UNL     1       9.389   7.425  -7.031  1.00  0.00    -0.038 A 
ATOM     24  C   UNL     1       8.862  11.202  -7.239  1.00  0.00     0.044 C 
ATOM     25  C   UNL     1       9.370   9.819  -7.519  1.00  0.00    -0.051 A 
ATOM     26  C   UNL     1      10.195   9.583  -8.624  1.00  0.00     0.003 A 
ATOM     27  C   UNL     1       8.993   8.739  -6.713  1.00  0.00     0.007 A 
ATOM     28  C   UNL     1      10.638   8.291  -8.916  1.00  0.00     0.001 A 
ATOM     29  C   UNL     1      10.240   7.214  -8.122  1.00  0.00     0.004 A 
ENDBRANCH  22  23
ENDBRANCH   9  22
ENDBRANCH   6   8
ENDBRANCH   3   6
ENDBRANCH   1   2
BRANCH   1  30
ATOM     30  C   UNL     1      -1.680   4.330  -8.708  1.00  0.00     0.042 C 
BRANCH  30  31
ATOM     31  C   UNL     1      -2.926   4.254  -9.566  1.00  0.00     0.118 C 
BRANCH  31  32
ATOM     32  N   UNL     1      -2.667   4.101 -11.001  1.00  0.00    -0.352 N 
ATOM     33  C   UNL     1      -3.593   4.052 -12.035  1.00  0.00     0.251 C 
ATOM     34  H   UNL     1      -1.722   4.022 -11.263  1.00  0.00     0.163 HD
ATOM     35  O   UNL     1      -3.239   3.995 -13.202  1.00  0.00    -0.269 OA
BRANCH  33  36
ATOM     36  C   UNL     1      -5.024   4.212 -11.686  1.00  0.00     0.039 A 
ATOM     37  C   UNL     1      -5.699   5.308 -12.228  1.00  0.00     0.014 A 
ATOM     38  C   UNL     1      -5.539   3.526 -10.591  1.00  0.00     0.014 A 
ATOM     39  C   UNL     1      -6.723   5.890 -11.490  1.00  0.00     0.010 A 
ATOM     40  C   UNL     1      -6.461   4.178  -9.796  1.00  0.00     0.010 A 
ATOM     41  C   UNL     1      -6.992   5.406 -10.211  1.00  0.00    -0.014 A 
BRANCH  41  42
ATOM     42  C   UNL     1      -7.686   6.198  -9.199  1.00  0.00     0.031 A 
ATOM     43  C   UNL     1      -9.004   5.766  -8.686  1.00  0.00     0.074 A 
ATOM     44  C   UNL     1      -7.104   7.308  -8.684  1.00  0.00     0.049 A 
ATOM     45  N   UNL     1      -9.803   6.544  -8.038  1.00  0.00    -0.248 NA
ATOM     46  C   UNL     1      -9.570   4.439  -8.925  1.00  0.00     0.031 C 
ATOM     47  C   UNL     1      -7.516   8.058  -7.497  1.00  0.00     0.029 A 
ATOM     48  N   UNL     1      -6.153   8.140  -9.299  1.00  0.00    -0.354 N 
ATOM     49  C   UNL     1     -10.798   5.764  -7.514  1.00  0.00     0.074 A 
ATOM     50  C   UNL     1     -10.693   4.503  -8.202  1.00  0.00     0.031 C 
ATOM     51  C   UNL     1      -7.101   9.326  -7.621  1.00  0.00     0.029 A 
ATOM     52  C   UNL     1      -6.515   9.463  -8.941  1.00  0.00     0.049 A 
ATOM     53  H   UNL     1      -5.394   7.862  -9.861  1.00  0.00     0.167 HD
ATOM     54  C   UNL     1     -11.515   6.233  -6.459  1.00  0.00     0.037 A 
ATOM     55  C   UNL     1      -6.896  10.371  -9.884  1.00  0.00     0.037 A 
ATOM     56  C   UNL     1     -11.373   7.679  -6.306  1.00  0.00     0.049 A 
ATOM     57  C   UNL     1      -8.315  10.882  -9.740  1.00  0.00     0.074 A 
ATOM     58  C   UNL     1     -10.793   8.532  -5.386  1.00  0.00     0.029 A 
ATOM     59  N   UNL     1     -11.735   8.471  -7.384  1.00  0.00    -0.354 N 
ATOM     60  N   UNL     1      -9.136  10.534  -8.786  1.00  0.00    -0.248 NA
ATOM     61  C   UNL     1      -8.956  11.751 -10.732  1.00  0.00     0.031 C 
ATOM     62  C   UNL     1     -10.733   9.836  -5.976  1.00  0.00     0.029 A 
ATOM     63  C   UNL     1     -11.312   9.773  -7.232  1.00  0.00     0.049 A 
ATOM     64  H   UNL     1     -12.236   8.143  -8.165  1.00  0.00     0.167 HD
ATOM     65  C   UNL     1     -10.386  11.013  -9.073  1.00  0.00     0.074 A 
ATOM     66  C   UNL     1     -10.222  11.792 -10.285  1.00  0.00     0.031 C 
ATOM     67  C   UNL     1     -11.491  10.690  -8.345  1.00  0.00     0.037 A 
BRANCH  54  68
ATOM     68  C   UNL     1     -12.276   5.353  -5.504  1.00  0.00     0.057 A 
ATOM     69  C   UNL     1     -13.191   5.911  -4.595  1.00  0.00     0.134 A 
ATOM     70  C   UNL     1     -12.057   3.968  -5.342  1.00  0.00     0.134 A 
ATOM     71  F   UNL     1     -13.468   7.223  -4.605  1.00  0.00    -0.206 F 
ATOM     72  C   UNL     1     -13.851   5.149  -3.620  1.00  0.00     0.040 A 
ATOM     73  C   UNL     1     -12.753   3.186  -4.413  1.00  0.00     0.040 A 
ATOM     74  F   UNL     1     -11.114   3.308  -6.026  1.00  0.00    -0.206 F 
ATOM     75  C   UNL     1     -13.648   3.778  -3.538  1.00  0.00     0.006 A 
ENDBRANCH  54  68
BRANCH  55  76
ATOM     76  C   UNL     1      -6.170  10.205 -11.169  1.00  0.00     0.057 A 
ATOM     77  C   UNL     1      -4.779  10.411 -11.183  1.00  0.00     0.134 A 
ATOM     78  C   UNL     1      -6.723   9.517 -12.250  1.00  0.00     0.134 A 
ATOM     79  F   UNL     1      -4.186  11.073 -10.176  1.00  0.00    -0.206 F 
ATOM     80  C   UNL     1      -3.961   9.853 -12.166  1.00  0.00     0.040 A 
ATOM     81  C   UNL     1      -5.915   8.967 -13.251  1.00  0.00     0.040 A 
ATOM     82  F   UNL     1      -8.039   9.259 -12.295  1.00  0.00    -0.206 F 
ATOM     83  C   UNL     1      -4.528   9.099 -13.188  1.00  0.00     0.006 A 
ENDBRANCH  55  76
BRANCH  67  84
ATOM     84  C   UNL     1     -12.854  11.210  -8.683  1.00  0.00     0.057 A 
ATOM     85  C   UNL     1     -13.109  12.581  -8.818  1.00  0.00     0.134 A 
ATOM     86  C   UNL     1     -13.971  10.360  -8.763  1.00  0.00     0.134 A 
ATOM     87  F   UNL     1     -12.111  13.475  -8.744  1.00  0.00    -0.206 F 
ATOM     88  C   UNL     1     -14.401  13.078  -9.020  1.00  0.00     0.040 A 
ATOM     89  C   UNL     1     -15.271  10.846  -8.924  1.00  0.00     0.040 A 
ATOM     90  F   UNL     1     -13.837   9.026  -8.707  1.00  0.00    -0.206 F 
ATOM     91  C   UNL     1     -15.489  12.211  -9.055  1.00  0.00     0.006 A 
ENDBRANCH  67  84
ENDBRANCH  41  42
ENDBRANCH  33  36
ENDBRANCH  31  32
ENDBRANCH  30  31
ENDBRANCH   1  30
TORSDOF 13
