REMARK SMILES Cc1cc(C(=O)N[C@@H](C)C(=O)NCCCNC(=O)c2ccc(-c3c4nc(c(-c5c(F)cccc5F)c5ccc([nH]5)c(-c5c(F)cccc5F)c5nc(c(-c6c(F)cccc6F)c6ccc3[nH]6)C=C5)C=C4)cc2)cc(C)c1OC(F)F
REMARK SMILES IDX 13 1 12 2 10 3 11 4 8 6 9 7 7 8 5 9 6 10 4 12 1 13 2 14 3 15
REMARK SMILES IDX 76 16 74 17 73 18 75 19 77 20 78 21 79 22 80 23 14 24 15 25
REMARK SMILES IDX 16 26 17 27 18 29 19 30 20 31 72 32 21 33 71 34 22 35 23 36
REMARK SMILES IDX 24 37 65 38 25 39 70 40 64 41 66 42 26 43 69 44 63 45 62 46
REMARK SMILES IDX 27 48 53 49 36 50 52 51 37 52 40 53 51 54 67 55 38 56 39 57
REMARK SMILES IDX 50 59 68 60 41 61 28 62 29 63 34 64 30 65 31 66 33 67 35 68
REMARK SMILES IDX 32 69 54 70 55 71 60 72 56 73 57 74 59 75 61 76 58 77 42 78
REMARK SMILES IDX 43 79 48 80 44 81 45 82 47 83 49 84 46 85
REMARK H PARENT 12 5 7 11 16 28 66 47 40 58
REMARK Flexibility Score: inf
ROOT
ATOM      1  C   UNL     1      -6.771  -0.593  -0.340  1.00  0.00     0.117 C 
ENDROOT
BRANCH   1   2
ATOM      2  N   UNL     1      -5.854  -1.480  -1.031  1.00  0.00    -0.354 N 
ATOM      3  C   UNL     1      -4.593  -1.887  -0.708  1.00  0.00     0.242 C 
ATOM      4  O   UNL     1      -4.042  -2.687  -1.471  1.00  0.00    -0.273 OA
ATOM      5  H   UNL     1      -6.200  -1.851  -1.875  1.00  0.00     0.163 HD
BRANCH   3   6
ATOM      6  C   UNL     1      -3.853  -1.343   0.530  1.00  0.00     0.168 C 
ATOM      7  C   UNL     1      -4.537  -1.657   1.854  1.00  0.00     0.041 C 
BRANCH   6   8
ATOM      8  N   UNL     1      -3.563   0.075   0.310  1.00  0.00    -0.341 N 
ATOM      9  C   UNL     1      -2.442   0.737  -0.138  1.00  0.00     0.251 C 
ATOM     10  O   UNL     1      -2.557   1.943  -0.365  1.00  0.00    -0.269 OA
ATOM     11  H   UNL     1      -4.317   0.672   0.524  1.00  0.00     0.164 HD
BRANCH   9  12
ATOM     12  C   UNL     1      -1.095   0.104  -0.252  1.00  0.00     0.040 A 
ATOM     13  C   UNL     1       2.408   1.441   0.203  1.00  0.00     0.048 C 
ATOM     14  C   UNL     1       1.352   0.386   0.022  1.00  0.00    -0.008 A 
ATOM     15  C   UNL     1       0.031   0.908  -0.039  1.00  0.00     0.021 A 
ATOM     16  C   UNL     1       1.515  -1.008  -0.028  1.00  0.00     0.131 A 
ATOM     17  C   UNL     1       0.386  -1.812  -0.322  1.00  0.00    -0.008 A 
ATOM     18  C   UNL     1      -0.877  -1.233  -0.526  1.00  0.00     0.021 A 
ATOM     19  C   UNL     1       0.433  -3.322  -0.326  1.00  0.00     0.048 C 
BRANCH  16  20
ATOM     20  O   UNL     1       2.615  -1.763   0.245  1.00  0.00    -0.434 OA
BRANCH  20  21
ATOM     21  C   UNL     1       3.943  -1.318   0.073  1.00  0.00     0.542 C 
ATOM     22  F   UNL     1       4.075  -0.623  -1.079  1.00  0.00    -0.167 F 
ATOM     23  F   UNL     1       4.299  -0.538   1.120  1.00  0.00    -0.167 F 
ENDBRANCH  20  21
ENDBRANCH  16  20
ENDBRANCH   9  12
ENDBRANCH   6   8
ENDBRANCH   3   6
ENDBRANCH   1   2
BRANCH   1  24
ATOM     24  C   UNL     1      -7.268   0.550  -1.211  1.00  0.00     0.042 C 
BRANCH  24  25
ATOM     25  C   UNL     1      -8.079   0.113  -2.423  1.00  0.00     0.118 C 
BRANCH  25  26
ATOM     26  N   UNL     1      -9.292  -0.610  -2.063  1.00  0.00    -0.352 N 
ATOM     27  C   UNL     1     -10.613  -0.238  -2.141  1.00  0.00     0.251 C 
ATOM     28  H   UNL     1      -9.140  -1.514  -1.706  1.00  0.00     0.163 HD
ATOM     29  O   UNL     1     -11.470  -0.925  -1.599  1.00  0.00    -0.269 OA
BRANCH  27  30
ATOM     30  C   UNL     1     -11.002   1.003  -2.847  1.00  0.00     0.039 A 
ATOM     31  C   UNL     1     -11.957   1.841  -2.264  1.00  0.00     0.014 A 
ATOM     32  C   UNL     1     -10.434   1.341  -4.076  1.00  0.00     0.014 A 
ATOM     33  C   UNL     1     -12.264   3.064  -2.865  1.00  0.00     0.010 A 
ATOM     34  C   UNL     1     -10.674   2.596  -4.628  1.00  0.00     0.010 A 
ATOM     35  C   UNL     1     -11.581   3.477  -4.020  1.00  0.00    -0.014 A 
BRANCH  35  36
ATOM     36  C   UNL     1     -11.764   4.839  -4.584  1.00  0.00     0.031 A 
ATOM     37  C   UNL     1     -12.296   5.021  -5.979  1.00  0.00     0.074 A 
ATOM     38  C   UNL     1     -11.360   5.909  -3.869  1.00  0.00     0.049 A 
ATOM     39  N   UNL     1     -12.417   6.120  -6.679  1.00  0.00    -0.248 NA
ATOM     40  C   UNL     1     -12.729   3.806  -6.689  1.00  0.00     0.031 C 
ATOM     41  C   UNL     1     -10.781   5.860  -2.524  1.00  0.00     0.029 A 
ATOM     42  N   UNL     1     -11.353   7.246  -4.182  1.00  0.00    -0.354 N 
ATOM     43  C   UNL     1     -12.922   5.729  -7.913  1.00  0.00     0.074 A 
ATOM     44  C   UNL     1     -13.046   4.288  -7.882  1.00  0.00     0.031 C 
ATOM     45  C   UNL     1     -10.486   7.107  -2.125  1.00  0.00     0.029 A 
ATOM     46  C   UNL     1     -10.806   8.039  -3.200  1.00  0.00     0.049 A 
ATOM     47  H   UNL     1     -11.706   7.603  -5.029  1.00  0.00     0.167 HD
ATOM     48  C   UNL     1     -13.264   6.505  -8.968  1.00  0.00     0.037 A 
ATOM     49  C   UNL     1     -10.566   9.364  -3.178  1.00  0.00     0.037 A 
ATOM     50  C   UNL     1     -13.161   7.941  -8.985  1.00  0.00     0.049 A 
ATOM     51  C   UNL     1     -10.936  10.195  -4.376  1.00  0.00     0.074 A 
ATOM     52  C   UNL     1     -13.553   8.819  -9.981  1.00  0.00     0.029 A 
ATOM     53  N   UNL     1     -12.619   8.709  -7.966  1.00  0.00    -0.354 N 
ATOM     54  N   UNL     1     -11.490   9.821  -5.504  1.00  0.00    -0.248 NA
ATOM     55  C   UNL     1     -10.649  11.635  -4.298  1.00  0.00     0.031 C 
ATOM     56  C   UNL     1     -13.195  10.112  -9.590  1.00  0.00     0.029 A 
ATOM     57  C   UNL     1     -12.635  10.047  -8.325  1.00  0.00     0.049 A 
ATOM     58  H   UNL     1     -12.275   8.355  -7.114  1.00  0.00     0.167 HD
ATOM     59  C   UNL     1     -11.641  10.979  -6.256  1.00  0.00     0.074 A 
ATOM     60  C   UNL     1     -11.143  12.071  -5.448  1.00  0.00     0.031 C 
ATOM     61  C   UNL     1     -12.142  11.125  -7.507  1.00  0.00     0.037 A 
BRANCH  48  62
ATOM     62  C   UNL     1     -13.788   5.827 -10.200  1.00  0.00     0.057 A 
ATOM     63  C   UNL     1     -15.061   5.243 -10.239  1.00  0.00     0.134 A 
ATOM     64  C   UNL     1     -13.043   5.831 -11.387  1.00  0.00     0.134 A 
ATOM     65  F   UNL     1     -15.822   5.197  -9.135  1.00  0.00    -0.206 F 
ATOM     66  C   UNL     1     -15.569   4.677 -11.410  1.00  0.00     0.040 A 
ATOM     67  C   UNL     1     -13.551   5.293 -12.570  1.00  0.00     0.040 A 
ATOM     68  F   UNL     1     -11.820   6.380 -11.421  1.00  0.00    -0.206 F 
ATOM     69  C   UNL     1     -14.818   4.712 -12.583  1.00  0.00     0.006 A 
ENDBRANCH  48  62
BRANCH  49  70
ATOM     70  C   UNL     1      -9.925   9.994  -1.994  1.00  0.00     0.057 A 
ATOM     71  C   UNL     1     -10.620  10.908  -1.194  1.00  0.00     0.134 A 
ATOM     72  C   UNL     1      -8.590   9.732  -1.660  1.00  0.00     0.134 A 
ATOM     73  F   UNL     1     -11.895  11.216  -1.473  1.00  0.00    -0.206 F 
ATOM     74  C   UNL     1     -10.004  11.565  -0.127  1.00  0.00     0.040 A 
ATOM     75  C   UNL     1      -7.971  10.357  -0.576  1.00  0.00     0.040 A 
ATOM     76  F   UNL     1      -7.869   8.861  -2.380  1.00  0.00    -0.206 F 
ATOM     77  C   UNL     1      -8.675  11.287   0.186  1.00  0.00     0.006 A 
ENDBRANCH  49  70
BRANCH  61  78
ATOM     78  C   UNL     1     -12.205  12.517  -8.064  1.00  0.00     0.057 A 
ATOM     79  C   UNL     1     -11.052  13.217  -8.441  1.00  0.00     0.134 A 
ATOM     80  C   UNL     1     -13.439  13.152  -8.258  1.00  0.00     0.134 A 
ATOM     81  F   UNL     1      -9.838  12.671  -8.268  1.00  0.00    -0.206 F 
ATOM     82  C   UNL     1     -11.121  14.508  -8.967  1.00  0.00     0.040 A 
ATOM     83  C   UNL     1     -13.523  14.430  -8.812  1.00  0.00     0.040 A 
ATOM     84  F   UNL     1     -14.583  12.535  -7.928  1.00  0.00    -0.206 F 
ATOM     85  C   UNL     1     -12.361  15.114  -9.161  1.00  0.00     0.006 A 
ENDBRANCH  61  78
ENDBRANCH  35  36
ENDBRANCH  27  30
ENDBRANCH  25  26
ENDBRANCH  24  25
ENDBRANCH   1  24
TORSDOF 14
