REMARK SMILES CC[C@H](C)[C@H](NC(=O)N1CCc2cc(OC)c(OC)cc2[C@@H]1c1ccc(F)cc1)C(=O)NCCCNC(=O)c1ccc(-c2c3nc(c(-c4c(F)cccc4F)c4ccc([nH]4)c(-c4c(F)cccc4F)c4nc(c(-c5c(F)cccc5F)c5ccc2[nH]5)C=C4)C=C3)cc1
REMARK SMILES IDX 33 1 32 2 30 3 31 4 5 6 3 7 4 8 2 9 1 10 6 11 7 12 8 14 9 15
REMARK SMILES IDX 10 16 22 17 11 18 21 19 12 20 20 21 13 22 17 23 14 24 23 25
REMARK SMILES IDX 24 26 29 27 25 28 28 29 26 30 27 31 18 32 19 33 15 34 16 35
REMARK SMILES IDX 34 36 35 37 36 38 37 39 38 41 39 42 40 43 92 44 41 45 91 46
REMARK SMILES IDX 42 47 43 48 44 49 85 50 45 51 90 52 84 53 86 54 46 55 89 56
REMARK SMILES IDX 83 57 82 58 47 60 73 61 56 62 72 63 57 64 60 65 71 66 87 67
REMARK SMILES IDX 58 68 59 69 70 71 88 72 61 73 48 74 49 75 54 76 50 77 51 78
REMARK SMILES IDX 53 79 55 80 52 81 74 82 75 83 80 84 76 85 77 86 79 87 81 88
REMARK SMILES IDX 78 89 62 90 63 91 68 92 64 93 65 94 67 95 69 96 66 97
REMARK H PARENT 32 5 6 13 36 40 86 59 60 70
REMARK Flexibility Score: inf
ROOT
ATOM      1  C   UNL     1       3.493   4.245  -0.141  1.00  0.00     0.117 C 
ENDROOT
BRANCH   1   2
ATOM      2  N   UNL     1       2.271   4.966  -0.438  1.00  0.00    -0.354 N 
ATOM      3  C   UNL     1       1.016   4.847   0.078  1.00  0.00     0.242 C 
ATOM      4  O   UNL     1       0.233   5.774  -0.164  1.00  0.00    -0.273 OA
ATOM      5  H   UNL     1       2.364   5.661  -1.129  1.00  0.00     0.163 HD
BRANCH   3   6
ATOM      6  C   UNL     1       0.575   3.687   1.003  1.00  0.00     0.176 C 
BRANCH   6   7
ATOM      7  C   UNL     1       1.025   3.883   2.493  1.00  0.00     0.018 C 
ATOM      8  C   UNL     1      -0.024   3.271   3.431  1.00  0.00     0.010 C 
BRANCH   7   9
ATOM      9  C   UNL     1       2.426   3.355   2.862  1.00  0.00     0.002 C 
ATOM     10  C   UNL     1       2.831   3.570   4.317  1.00  0.00     0.004 C 
ENDBRANCH   7   9
ENDBRANCH   6   7
BRANCH   6  11
ATOM     11  N   UNL     1       0.873   2.378   0.426  1.00  0.00    -0.326 N 
ATOM     12  C   UNL     1       0.123   1.409  -0.137  1.00  0.00     0.318 C 
ATOM     13  H   UNL     1       1.831   2.155   0.454  1.00  0.00     0.166 HD
ATOM     14  O   UNL     1       0.698   0.331  -0.308  1.00  0.00    -0.249 OA
BRANCH  12  15
ATOM     15  N   UNL     1      -1.208   1.581  -0.401  1.00  0.00    -0.313 N 
ATOM     16  C   UNL     1      -1.765   2.723  -1.145  1.00  0.00     0.127 C 
ATOM     17  C   UNL     1      -2.048   0.361  -0.302  1.00  0.00     0.148 C 
ATOM     18  C   UNL     1      -3.293   2.845  -1.035  1.00  0.00     0.057 C 
ATOM     19  C   UNL     1      -3.257   0.365  -1.236  1.00  0.00    -0.014 A 
ATOM     20  C   UNL     1      -3.921   1.563  -1.510  1.00  0.00    -0.037 A 
ATOM     21  C   UNL     1      -3.760  -0.836  -1.771  1.00  0.00     0.057 A 
ATOM     22  C   UNL     1      -5.131   1.533  -2.209  1.00  0.00     0.054 A 
ATOM     23  C   UNL     1      -4.950  -0.871  -2.514  1.00  0.00     0.161 A 
ATOM     24  C   UNL     1      -5.662   0.327  -2.702  1.00  0.00     0.161 A 
BRANCH  17  25
ATOM     25  C   UNL     1      -2.494   0.128   1.157  1.00  0.00    -0.021 A 
ATOM     26  C   UNL     1      -2.919  -1.145   1.578  1.00  0.00     0.009 A 
ATOM     27  C   UNL     1      -2.516   1.172   2.101  1.00  0.00     0.009 A 
ATOM     28  C   UNL     1      -3.334  -1.363   2.895  1.00  0.00     0.039 A 
ATOM     29  C   UNL     1      -2.905   0.951   3.422  1.00  0.00     0.039 A 
ATOM     30  C   UNL     1      -3.311  -0.316   3.807  1.00  0.00     0.123 A 
ATOM     31  F   UNL     1      -3.688  -0.530   5.074  1.00  0.00    -0.207 F 
ENDBRANCH  17  25
BRANCH  23  32
ATOM     32  O   UNL     1      -5.458  -2.026  -3.045  1.00  0.00    -0.493 OA
ATOM     33  C   UNL     1      -4.650  -3.196  -3.020  1.00  0.00     0.278 C 
ENDBRANCH  23  32
BRANCH  24  34
ATOM     34  O   UNL     1      -6.859   0.518  -3.346  1.00  0.00    -0.493 OA
ATOM     35  C   UNL     1      -7.575  -0.614  -3.820  1.00  0.00     0.278 C 
ENDBRANCH  24  34
ENDBRANCH  12  15
ENDBRANCH   6  11
ENDBRANCH   3   6
ENDBRANCH   1   2
BRANCH   1  36
ATOM     36  C   UNL     1       4.391   4.027  -1.345  1.00  0.00     0.042 C 
BRANCH  36  37
ATOM     37  C   UNL     1       5.023   5.311  -1.865  1.00  0.00     0.118 C 
BRANCH  37  38
ATOM     38  N   UNL     1       5.976   5.904  -0.931  1.00  0.00    -0.352 N 
ATOM     39  C   UNL     1       7.352   5.846  -0.870  1.00  0.00     0.251 C 
ATOM     40  H   UNL     1       5.562   6.440  -0.217  1.00  0.00     0.163 HD
ATOM     41  O   UNL     1       7.934   6.281   0.111  1.00  0.00    -0.269 OA
BRANCH  39  42
ATOM     42  C   UNL     1       8.125   5.221  -1.968  1.00  0.00     0.039 A 
ATOM     43  C   UNL     1       9.201   4.386  -1.653  1.00  0.00     0.014 A 
ATOM     44  C   UNL     1       7.790   5.445  -3.301  1.00  0.00     0.014 A 
ATOM     45  C   UNL     1       9.851   3.679  -2.669  1.00  0.00     0.010 A 
ATOM     46  C   UNL     1       8.358   4.661  -4.296  1.00  0.00     0.010 A 
ATOM     47  C   UNL     1       9.384   3.754  -3.990  1.00  0.00    -0.014 A 
BRANCH  47  48
ATOM     48  C   UNL     1       9.908   2.877  -5.070  1.00  0.00     0.031 A 
ATOM     49  C   UNL     1      10.486   3.483  -6.319  1.00  0.00     0.074 A 
ATOM     50  C   UNL     1       9.739   1.541  -4.982  1.00  0.00     0.049 A 
ATOM     51  N   UNL     1      10.804   2.901  -7.447  1.00  0.00    -0.248 NA
ATOM     52  C   UNL     1      10.699   4.940  -6.316  1.00  0.00     0.031 C 
ATOM     53  C   UNL     1       9.138   0.833  -3.849  1.00  0.00     0.029 A 
ATOM     54  N   UNL     1      10.032   0.540  -5.876  1.00  0.00    -0.354 N 
ATOM     55  C   UNL     1      11.217   3.921  -8.294  1.00  0.00     0.074 A 
ATOM     56  C   UNL     1      11.078   5.162  -7.567  1.00  0.00     0.031 C 
ATOM     57  C   UNL     1       9.119  -0.484  -4.110  1.00  0.00     0.029 A 
ATOM     58  C   UNL     1       9.655  -0.711  -5.447  1.00  0.00     0.049 A 
ATOM     59  H   UNL     1      10.470   0.703  -6.743  1.00  0.00     0.167 HD
ATOM     60  C   UNL     1      11.689   3.824  -9.558  1.00  0.00     0.037 A 
ATOM     61  C   UNL     1       9.709  -1.906  -6.068  1.00  0.00     0.037 A 
ATOM     62  C   UNL     1      11.893   2.582 -10.252  1.00  0.00     0.049 A 
ATOM     63  C   UNL     1      10.256  -1.985  -7.465  1.00  0.00     0.074 A 
ATOM     64  C   UNL     1      12.471   2.379 -11.492  1.00  0.00     0.029 A 
ATOM     65  N   UNL     1      11.534   1.336  -9.764  1.00  0.00    -0.354 N 
ATOM     66  N   UNL     1      10.704  -1.018  -8.227  1.00  0.00    -0.248 NA
ATOM     67  C   UNL     1      10.300  -3.314  -8.093  1.00  0.00     0.031 C 
ATOM     68  C   UNL     1      12.428   1.012 -11.773  1.00  0.00     0.029 A 
ATOM     69  C   UNL     1      11.857   0.361 -10.692  1.00  0.00     0.049 A 
ATOM     70  H   UNL     1      11.114   1.169  -8.890  1.00  0.00     0.167 HD
ATOM     71  C   UNL     1      11.095  -1.621  -9.415  1.00  0.00     0.074 A 
ATOM     72  C   UNL     1      10.845  -3.039  -9.270  1.00  0.00     0.031 C 
ATOM     73  C   UNL     1      11.610  -1.047 -10.527  1.00  0.00     0.037 A 
BRANCH  60  74
ATOM     74  C   UNL     1      12.055   5.087 -10.277  1.00  0.00     0.057 A 
ATOM     75  C   UNL     1      11.291   5.535 -11.362  1.00  0.00     0.134 A 
ATOM     76  C   UNL     1      13.222   5.795  -9.967  1.00  0.00     0.134 A 
ATOM     77  F   UNL     1      10.166   4.896 -11.714  1.00  0.00    -0.206 F 
ATOM     78  C   UNL     1      11.687   6.634 -12.126  1.00  0.00     0.040 A 
ATOM     79  C   UNL     1      13.617   6.908 -10.710  1.00  0.00     0.040 A 
ATOM     80  F   UNL     1      13.991   5.419  -8.934  1.00  0.00    -0.206 F 
ATOM     81  C   UNL     1      12.855   7.322 -11.801  1.00  0.00     0.006 A 
ENDBRANCH  60  74
BRANCH  61  82
ATOM     82  C   UNL     1       9.225  -3.124  -5.371  1.00  0.00     0.057 A 
ATOM     83  C   UNL     1       7.863  -3.338  -5.128  1.00  0.00     0.134 A 
ATOM     84  C   UNL     1      10.122  -4.100  -4.921  1.00  0.00     0.134 A 
ATOM     85  F   UNL     1       6.954  -2.437  -5.528  1.00  0.00    -0.206 F 
ATOM     86  C   UNL     1       7.410  -4.473  -4.452  1.00  0.00     0.040 A 
ATOM     87  C   UNL     1       9.681  -5.251  -4.264  1.00  0.00     0.040 A 
ATOM     88  F   UNL     1      11.437  -3.960  -5.142  1.00  0.00    -0.206 F 
ATOM     89  C   UNL     1       8.321  -5.436  -4.022  1.00  0.00     0.006 A 
ENDBRANCH  61  82
BRANCH  73  90
ATOM     90  C   UNL     1      11.954  -1.938 -11.680  1.00  0.00     0.057 A 
ATOM     91  C   UNL     1      13.291  -2.204 -12.003  1.00  0.00     0.134 A 
ATOM     92  C   UNL     1      10.965  -2.434 -12.537  1.00  0.00     0.134 A 
ATOM     93  F   UNL     1      14.284  -1.745 -11.226  1.00  0.00    -0.206 F 
ATOM     94  C   UNL     1      13.633  -2.911 -13.155  1.00  0.00     0.040 A 
ATOM     95  C   UNL     1      11.295  -3.160 -13.681  1.00  0.00     0.040 A 
ATOM     96  F   UNL     1       9.668  -2.218 -12.274  1.00  0.00    -0.206 F 
ATOM     97  C   UNL     1      12.633  -3.389 -13.999  1.00  0.00     0.006 A 
ENDBRANCH  73  90
ENDBRANCH  47  48
ENDBRANCH  39  42
ENDBRANCH  37  38
ENDBRANCH  36  37
ENDBRANCH   1  36
TORSDOF 17
