REMARK SMILES CCc1cc(OC(F)(F)F)cc2c1O[C@@H](C(F)(F)F)C(C(=O)NCCCNC(=O)c1ccc(-c3c4nc(c(-c5c(F)cccc5F)c5ccc([nH]5)c(-c5c(F)cccc5F)c5nc(c(-c6c(F)cccc6F)c6ccc3[nH]6)C=C5)C=C4)cc1)=C2
REMARK SMILES IDX 25 1 24 2 23 3 21 4 22 5 20 7 3 8 4 9 13 10 5 11 12 12 14 13
REMARK SMILES IDX 11 14 84 15 15 16 2 17 1 18 6 19 7 20 8 21 9 22 10 23 16 24
REMARK SMILES IDX 17 25 18 26 19 27 26 28 27 29 28 30 29 32 30 33 31 34 83 35
REMARK SMILES IDX 32 36 82 37 33 38 34 39 35 40 76 41 36 42 81 43 75 44 77 45
REMARK SMILES IDX 37 46 80 47 74 48 73 49 38 51 64 52 47 53 63 54 48 55 51 56
REMARK SMILES IDX 62 57 78 58 49 59 50 60 61 62 79 63 52 64 39 65 40 66 45 67
REMARK SMILES IDX 41 68 42 69 44 70 46 71 43 72 65 73 66 74 71 75 67 76 68 77
REMARK SMILES IDX 70 78 72 79 69 80 53 81 54 82 59 83 55 84 56 85 58 86 60 87
REMARK SMILES IDX 57 88
REMARK H PARENT 23 6 27 31 77 50 51 61
REMARK Flexibility Score: inf
ROOT
ATOM      1  C   UNL     1       0.163   9.574   0.932  1.00  0.00     0.042 C 
ENDROOT
BRANCH   1   2
ATOM      2  C   UNL     1       0.323   8.739   2.206  1.00  0.00     0.118 C 
BRANCH   2   3
ATOM      3  N   UNL     1      -0.962   8.204   2.629  1.00  0.00    -0.352 N 
ATOM      4  C   UNL     1      -1.604   7.030   2.397  1.00  0.00     0.251 C 
ATOM      5  O   UNL     1      -2.770   6.932   2.772  1.00  0.00    -0.270 OA
ATOM      6  H   UNL     1      -1.473   8.821   3.202  1.00  0.00     0.163 HD
BRANCH   4   7
ATOM      7  C   UNL     1      -0.944   5.849   1.781  1.00  0.00     0.067 C 
ATOM      8  C   UNL     1       0.925   2.350   0.352  1.00  0.00    -0.002 A 
ATOM      9  C   UNL     1       1.920   2.480  -0.636  1.00  0.00     0.054 A 
ATOM     10  C   UNL     1       0.283   3.514   0.818  1.00  0.00     0.131 A 
ATOM     11  C   UNL     1       2.245   3.728  -1.172  1.00  0.00     0.130 A 
ATOM     12  C   UNL     1       0.593   4.760   0.277  1.00  0.00     0.021 A 
ATOM     13  O   UNL     1      -0.591   3.373   1.857  1.00  0.00    -0.475 OA
ATOM     14  C   UNL     1       1.569   4.861  -0.718  1.00  0.00     0.058 A 
ATOM     15  C   UNL     1      -0.037   5.959   0.801  1.00  0.00     0.025 C 
ATOM     16  C   UNL     1      -1.472   4.481   2.201  1.00  0.00     0.314 C 
BRANCH   8  17
ATOM     17  C   UNL     1       0.560   1.009   0.960  1.00  0.00     0.036 C 
ATOM     18  C   UNL     1       0.963  -0.231   0.169  1.00  0.00     0.009 C 
ENDBRANCH   8  17
BRANCH  11  19
ATOM     19  O   UNL     1       3.196   3.989  -2.117  1.00  0.00    -0.406 OA
BRANCH  19  20
ATOM     20  C   UNL     1       3.923   2.896  -2.651  1.00  0.00     0.573 C 
ATOM     21  F   UNL     1       4.624   2.260  -1.689  1.00  0.00    -0.132 F 
ATOM     22  F   UNL     1       3.100   2.020  -3.265  1.00  0.00    -0.132 F 
ATOM     23  F   UNL     1       4.797   3.366  -3.567  1.00  0.00    -0.132 F 
ENDBRANCH  19  20
ENDBRANCH  11  19
BRANCH  16  24
ATOM     24  C   UNL     1      -1.841   4.314   3.695  1.00  0.00     0.429 C 
ATOM     25  F   UNL     1      -3.088   4.747   3.980  1.00  0.00    -0.167 F 
ATOM     26  F   UNL     1      -1.823   3.001   4.055  1.00  0.00    -0.167 F 
ATOM     27  F   UNL     1      -0.973   4.953   4.513  1.00  0.00    -0.167 F 
ENDBRANCH  16  24
ENDBRANCH   4   7
ENDBRANCH   2   3
ENDBRANCH   1   2
BRANCH   1  28
ATOM     28  C   UNL     1      -0.505  10.926   1.179  1.00  0.00     0.118 C 
BRANCH  28  29
ATOM     29  N   UNL     1       0.373  11.840   1.897  1.00  0.00    -0.352 N 
ATOM     30  C   UNL     1       0.901  13.044   1.502  1.00  0.00     0.251 C 
ATOM     31  H   UNL     1       0.626  11.551   2.803  1.00  0.00     0.163 HD
ATOM     32  O   UNL     1       1.814  13.550   2.147  1.00  0.00    -0.269 OA
BRANCH  30  33
ATOM     33  C   UNL     1       0.385  13.729   0.298  1.00  0.00     0.039 A 
ATOM     34  C   UNL     1       1.293  14.306  -0.595  1.00  0.00     0.014 A 
ATOM     35  C   UNL     1      -0.989  13.828   0.064  1.00  0.00     0.014 A 
ATOM     36  C   UNL     1       0.825  14.917  -1.761  1.00  0.00     0.010 A 
ATOM     37  C   UNL     1      -1.450  14.382  -1.127  1.00  0.00     0.010 A 
ATOM     38  C   UNL     1      -0.547  14.923  -2.054  1.00  0.00    -0.014 A 
BRANCH  38  39
ATOM     39  C   UNL     1      -1.063  15.455  -3.340  1.00  0.00     0.031 A 
ATOM     40  C   UNL     1      -1.959  16.659  -3.360  1.00  0.00     0.074 A 
ATOM     41  C   UNL     1      -0.791  14.794  -4.482  1.00  0.00     0.049 A 
ATOM     42  N   UNL     1      -2.592  17.202  -4.369  1.00  0.00    -0.248 NA
ATOM     43  C   UNL     1      -2.193  17.327  -2.071  1.00  0.00     0.031 C 
ATOM     44  C   UNL     1       0.046  13.598  -4.588  1.00  0.00     0.029 A 
ATOM     45  N   UNL     1      -1.203  15.028  -5.770  1.00  0.00    -0.354 N 
ATOM     46  C   UNL     1      -3.306  18.268  -3.837  1.00  0.00     0.074 A 
ATOM     47  C   UNL     1      -3.068  18.263  -2.409  1.00  0.00     0.031 C 
ATOM     48  C   UNL     1       0.104  13.216  -5.874  1.00  0.00     0.029 A 
ATOM     49  C   UNL     1      -0.728  14.109  -6.673  1.00  0.00     0.049 A 
ATOM     50  H   UNL     1      -1.783  15.782  -6.022  1.00  0.00     0.167 HD
ATOM     51  C   UNL     1      -4.074  19.179  -4.482  1.00  0.00     0.037 A 
ATOM     52  C   UNL     1      -0.951  13.990  -7.995  1.00  0.00     0.037 A 
ATOM     53  C   UNL     1      -4.304  19.181  -5.904  1.00  0.00     0.049 A 
ATOM     54  C   UNL     1      -1.856  14.975  -8.679  1.00  0.00     0.074 A 
ATOM     55  C   UNL     1      -5.026  20.087  -6.661  1.00  0.00     0.029 A 
ATOM     56  N   UNL     1      -3.825  18.219  -6.782  1.00  0.00    -0.354 N 
ATOM     57  N   UNL     1      -2.480  16.011  -8.174  1.00  0.00    -0.248 NA
ATOM     58  C   UNL     1      -2.094  14.768 -10.114  1.00  0.00     0.031 C 
ATOM     59  C   UNL     1      -5.024  19.647  -7.989  1.00  0.00     0.029 A 
ATOM     60  C   UNL     1      -4.261  18.492  -8.068  1.00  0.00     0.049 A 
ATOM     61  H   UNL     1      -3.257  17.456  -6.528  1.00  0.00     0.167 HD
ATOM     62  C   UNL     1      -3.163  16.596  -9.232  1.00  0.00     0.074 A 
ATOM     63  C   UNL     1      -2.868  15.804 -10.409  1.00  0.00     0.031 C 
ATOM     64  C   UNL     1      -3.960  17.693  -9.229  1.00  0.00     0.037 A 
BRANCH  51  65
ATOM     65  C   UNL     1      -4.726  20.243  -3.645  1.00  0.00     0.057 A 
ATOM     66  C   UNL     1      -3.981  21.253  -3.022  1.00  0.00     0.134 A 
ATOM     67  C   UNL     1      -6.115  20.263  -3.465  1.00  0.00     0.134 A 
ATOM     68  F   UNL     1      -2.645  21.287  -3.145  1.00  0.00    -0.206 F 
ATOM     69  C   UNL     1      -4.588  22.221  -2.219  1.00  0.00     0.040 A 
ATOM     70  C   UNL     1      -6.737  21.242  -2.688  1.00  0.00     0.040 A 
ATOM     71  F   UNL     1      -6.891  19.331  -4.039  1.00  0.00    -0.206 F 
ATOM     72  C   UNL     1      -5.971  22.219  -2.054  1.00  0.00     0.006 A 
ENDBRANCH  51  65
BRANCH  52  73
ATOM     73  C   UNL     1      -0.284  12.910  -8.763  1.00  0.00     0.057 A 
ATOM     74  C   UNL     1       0.741  13.206  -9.669  1.00  0.00     0.134 A 
ATOM     75  C   UNL     1      -0.639  11.565  -8.606  1.00  0.00     0.134 A 
ATOM     76  F   UNL     1       1.113  14.478  -9.875  1.00  0.00    -0.206 F 
ATOM     77  C   UNL     1       1.383  12.204 -10.399  1.00  0.00     0.040 A 
ATOM     78  C   UNL     1       0.010  10.551  -9.313  1.00  0.00     0.040 A 
ATOM     79  F   UNL     1      -1.609  11.215  -7.748  1.00  0.00    -0.206 F 
ATOM     80  C   UNL     1       1.022  10.871 -10.216  1.00  0.00     0.006 A 
ENDBRANCH  52  73
BRANCH  64  81
ATOM     81  C   UNL     1      -4.549  18.116 -10.543  1.00  0.00     0.057 A 
ATOM     82  C   UNL     1      -5.593  17.404 -11.147  1.00  0.00     0.134 A 
ATOM     83  C   UNL     1      -4.096  19.273 -11.189  1.00  0.00     0.134 A 
ATOM     84  F   UNL     1      -6.061  16.277 -10.588  1.00  0.00    -0.206 F 
ATOM     85  C   UNL     1      -6.155  17.820 -12.355  1.00  0.00     0.040 A 
ATOM     86  C   UNL     1      -4.667  19.713 -12.383  1.00  0.00     0.040 A 
ATOM     87  F   UNL     1      -3.103  20.004 -10.660  1.00  0.00    -0.206 F 
ATOM     88  C   UNL     1      -5.697  18.983 -12.972  1.00  0.00     0.006 A 
ENDBRANCH  64  81
ENDBRANCH  38  39
ENDBRANCH  30  33
ENDBRANCH  28  29
ENDBRANCH   1  28
TORSDOF 14
