REMARK SMILES CCOc1c(Br)cc(CNc2cccc(C(=O)NCCCNC(=O)c3ccc(-c4c5nc(c(-c6c(F)cccc6F)c6ccc([nH]6)c(-c6c(F)cccc6F)c6nc(c(-c7c(F)cccc7F)c7ccc4[nH]7)C=C6)C=C5)cc3)c2C)cc1OC
REMARK SMILES IDX 16 1 17 2 18 3 15 5 11 6 12 7 79 8 13 9 80 10 14 11 10 12
REMARK SMILES IDX 9 14 8 15 4 16 5 17 82 18 6 19 7 20 81 21 3 22 2 23 1 24
REMARK SMILES IDX 83 25 84 26 19 27 20 28 21 29 22 30 23 31 24 33 25 34 26 35
REMARK SMILES IDX 78 36 27 37 77 38 28 39 29 40 30 41 71 42 31 43 76 44 70 45
REMARK SMILES IDX 72 46 32 47 75 48 69 49 68 50 33 52 59 53 42 54 58 55 43 56
REMARK SMILES IDX 46 57 57 58 73 59 44 60 45 61 56 63 74 64 47 65 34 66 35 67
REMARK SMILES IDX 40 68 36 69 37 70 39 71 41 72 38 73 60 74 61 75 66 76 62 77
REMARK SMILES IDX 63 78 65 79 67 80 64 81 48 82 49 83 54 84 50 85 51 86 53 87
REMARK SMILES IDX 55 88 52 89
REMARK H PARENT 18 4 10 13 22 32 72 51 46 62
REMARK Flexibility Score: inf
ROOT
ATOM      1  C   UNL     1       9.290   1.771  -0.781  1.00  0.00     0.251 C 
ATOM      2  O   UNL     1       8.849   1.905  -1.923  1.00  0.00    -0.269 OA
ATOM      3  N   UNL     1       9.927   2.887  -0.279  1.00  0.00    -0.352 N 
ATOM      4  H   UNL     1       9.824   3.678  -0.856  1.00  0.00     0.163 HD
ENDROOT
BRANCH   1   5
ATOM      5  C   UNL     1       9.138   0.454  -0.054  1.00  0.00     0.044 A 
ATOM      6  C   UNL     1       8.067  -1.751   0.270  1.00  0.00     0.038 A 
ATOM      7  C   UNL     1       9.012  -2.048   1.257  1.00  0.00     0.026 A 
ATOM      8  C   UNL     1       8.111  -0.480  -0.383  1.00  0.00    -0.015 A 
ATOM      9  C   UNL     1      10.002  -1.145   1.589  1.00  0.00     0.003 A 
ATOM     10  C   UNL     1       7.036  -0.203  -1.414  1.00  0.00     0.047 C 
ATOM     11  C   UNL     1      10.063   0.078   0.930  1.00  0.00     0.014 A 
BRANCH   6  12
ATOM     12  N   UNL     1       7.069  -2.672  -0.023  1.00  0.00    -0.381 N 
ATOM     13  H   UNL     1       6.803  -2.793  -0.963  1.00  0.00     0.160 HD
BRANCH  12  14
ATOM     14  C   UNL     1       6.404  -3.464   0.994  1.00  0.00     0.149 C 
BRANCH  14  15
ATOM     15  C   UNL     1       4.941  -3.095   1.008  1.00  0.00    -0.024 A 
ATOM     16  C   UNL     1       2.219  -2.350   0.937  1.00  0.00     0.175 A 
ATOM     17  C   UNL     1       3.188  -1.483   1.471  1.00  0.00     0.064 A 
ATOM     18  C   UNL     1       2.607  -3.630   0.510  1.00  0.00     0.162 A 
ATOM     19  Br  UNL     1       2.741   0.205   2.222  1.00  0.00    -0.047 Br
ATOM     20  C   UNL     1       4.537  -1.844   1.486  1.00  0.00     0.025 A 
ATOM     21  C   UNL     1       3.967  -3.979   0.531  1.00  0.00     0.056 A 
BRANCH  16  22
ATOM     22  O   UNL     1       0.914  -1.929   0.903  1.00  0.00    -0.489 OA
BRANCH  22  23
ATOM     23  C   UNL     1       0.503  -1.526  -0.413  1.00  0.00     0.226 C 
ATOM     24  C   UNL     1       0.464  -0.013  -0.530  1.00  0.00     0.049 C 
ENDBRANCH  22  23
ENDBRANCH  16  22
BRANCH  18  25
ATOM     25  O   UNL     1       1.821  -4.636   0.017  1.00  0.00    -0.493 OA
ATOM     26  C   UNL     1       0.458  -4.680   0.412  1.00  0.00     0.278 C 
ENDBRANCH  18  25
ENDBRANCH  14  15
ENDBRANCH  12  14
ENDBRANCH   6  12
ENDBRANCH   1   5
BRANCH   3  27
ATOM     27  C   UNL     1      10.718   3.157   0.913  1.00  0.00     0.118 C 
BRANCH  27  28
ATOM     28  C   UNL     1      12.168   2.692   0.729  1.00  0.00     0.042 C 
BRANCH  28  29
ATOM     29  C   UNL     1      13.095   3.755   0.165  1.00  0.00     0.118 C 
BRANCH  29  30
ATOM     30  N   UNL     1      13.907   4.424   1.175  1.00  0.00    -0.352 N 
ATOM     31  C   UNL     1      14.770   5.503   1.029  1.00  0.00     0.251 C 
ATOM     32  H   UNL     1      13.833   4.061   2.087  1.00  0.00     0.163 HD
ATOM     33  O   UNL     1      15.369   5.951   1.978  1.00  0.00    -0.269 OA
BRANCH  31  34
ATOM     34  C   UNL     1      14.832   6.175  -0.294  1.00  0.00     0.039 A 
ATOM     35  C   UNL     1      14.606   7.554  -0.327  1.00  0.00     0.014 A 
ATOM     36  C   UNL     1      14.856   5.429  -1.468  1.00  0.00     0.014 A 
ATOM     37  C   UNL     1      14.140   8.133  -1.503  1.00  0.00     0.010 A 
ATOM     38  C   UNL     1      14.297   5.976  -2.604  1.00  0.00     0.010 A 
ATOM     39  C   UNL     1      13.874   7.309  -2.596  1.00  0.00    -0.014 A 
BRANCH  39  40
ATOM     40  C   UNL     1      13.042   7.730  -3.716  1.00  0.00     0.031 A 
ATOM     41  C   UNL     1      13.649   8.039  -5.024  1.00  0.00     0.074 A 
ATOM     42  C   UNL     1      11.699   7.768  -3.562  1.00  0.00     0.049 A 
ATOM     43  N   UNL     1      13.123   8.825  -5.901  1.00  0.00    -0.248 NA
ATOM     44  C   UNL     1      14.940   7.501  -5.434  1.00  0.00     0.031 C 
ATOM     45  C   UNL     1      10.691   7.920  -4.607  1.00  0.00     0.029 A 
ATOM     46  N   UNL     1      10.978   7.880  -2.364  1.00  0.00    -0.354 N 
ATOM     47  C   UNL     1      13.839   8.692  -7.068  1.00  0.00     0.074 A 
ATOM     48  C   UNL     1      14.995   7.902  -6.708  1.00  0.00     0.031 C 
ATOM     49  C   UNL     1       9.564   8.392  -4.053  1.00  0.00     0.029 A 
ATOM     50  C   UNL     1       9.856   8.685  -2.660  1.00  0.00     0.049 A 
ATOM     51  H   UNL     1      11.207   7.480  -1.494  1.00  0.00     0.167 HD
ATOM     52  C   UNL     1      13.307   9.152  -8.238  1.00  0.00     0.037 A 
ATOM     53  C   UNL     1       9.669   9.894  -2.058  1.00  0.00     0.037 A 
ATOM     54  C   UNL     1      12.016   9.795  -8.012  1.00  0.00     0.049 A 
ATOM     55  C   UNL     1       9.630  11.057  -3.021  1.00  0.00     0.074 A 
ATOM     56  C   UNL     1      10.714   9.331  -8.110  1.00  0.00     0.029 A 
ATOM     57  N   UNL     1      11.956  10.992  -7.309  1.00  0.00    -0.354 N 
ATOM     58  N   UNL     1      10.060  10.992  -4.251  1.00  0.00    -0.248 NA
ATOM     59  C   UNL     1       9.134  12.389  -2.678  1.00  0.00     0.031 C 
ATOM     60  C   UNL     1       9.874  10.224  -7.403  1.00  0.00     0.029 A 
ATOM     61  C   UNL     1      10.661  11.244  -6.899  1.00  0.00     0.049 A 
ATOM     62  H   UNL     1      12.727  11.577  -7.128  1.00  0.00     0.167 HD
ATOM     63  C   UNL     1       9.933  12.218  -4.849  1.00  0.00     0.074 A 
ATOM     64  C   UNL     1       9.332  13.056  -3.830  1.00  0.00     0.031 C 
ATOM     65  C   UNL     1      10.346  12.438  -6.131  1.00  0.00     0.037 A 
BRANCH  52  66
ATOM     66  C   UNL     1      13.812   8.737  -9.601  1.00  0.00     0.057 A 
ATOM     67  C   UNL     1      12.928   8.591 -10.689  1.00  0.00     0.134 A 
ATOM     68  C   UNL     1      15.146   8.411  -9.894  1.00  0.00     0.134 A 
ATOM     69  F   UNL     1      11.647   8.975 -10.616  1.00  0.00    -0.206 F 
ATOM     70  C   UNL     1      13.313   8.038 -11.917  1.00  0.00     0.040 A 
ATOM     71  C   UNL     1      15.537   7.805 -11.098  1.00  0.00     0.040 A 
ATOM     72  F   UNL     1      16.140   8.711  -9.048  1.00  0.00    -0.206 F 
ATOM     73  C   UNL     1      14.613   7.599 -12.111  1.00  0.00     0.006 A 
ENDBRANCH  52  66
BRANCH  53  74
ATOM     74  C   UNL     1      10.185   9.939  -0.665  1.00  0.00     0.057 A 
ATOM     75  C   UNL     1       9.576   9.114   0.298  1.00  0.00     0.134 A 
ATOM     76  C   UNL     1      11.451  10.445  -0.359  1.00  0.00     0.134 A 
ATOM     77  F   UNL     1       8.359   8.596   0.068  1.00  0.00    -0.206 F 
ATOM     78  C   UNL     1      10.243   8.712   1.458  1.00  0.00     0.040 A 
ATOM     79  C   UNL     1      12.125  10.058   0.806  1.00  0.00     0.040 A 
ATOM     80  F   UNL     1      12.105  11.222  -1.234  1.00  0.00    -0.206 F 
ATOM     81  C   UNL     1      11.539   9.158   1.697  1.00  0.00     0.006 A 
ENDBRANCH  53  74
BRANCH  65  82
ATOM     82  C   UNL     1      10.434  13.774  -6.821  1.00  0.00     0.057 A 
ATOM     83  C   UNL     1      10.753  14.973  -6.171  1.00  0.00     0.134 A 
ATOM     84  C   UNL     1      10.364  13.850  -8.231  1.00  0.00     0.134 A 
ATOM     85  F   UNL     1      10.937  15.022  -4.845  1.00  0.00    -0.206 F 
ATOM     86  C   UNL     1      10.954  16.171  -6.870  1.00  0.00     0.040 A 
ATOM     87  C   UNL     1      10.613  15.027  -8.941  1.00  0.00     0.040 A 
ATOM     88  F   UNL     1      10.073  12.776  -8.980  1.00  0.00    -0.206 F 
ATOM     89  C   UNL     1      10.901  16.198  -8.259  1.00  0.00     0.006 A 
ENDBRANCH  65  82
ENDBRANCH  39  40
ENDBRANCH  31  34
ENDBRANCH  29  30
ENDBRANCH  28  29
ENDBRANCH  27  28
ENDBRANCH   3  27
TORSDOF 16
