REMARK SMILES Cc1ccccc1N(CCC(=O)NCCCNC(=O)c1ccc(-c2c3nc(c(-c4c(F)cccc4F)c4ccc([nH]4)c(-c4c(F)cccc4F)c4nc(c(-c5c(F)cccc5F)c5ccc2[nH]5)C=C4)C=C3)cc1)[C@@H](C)[C@@H](C)O
REMARK SMILES IDX 11 1 12 2 13 3 10 5 9 6 8 7 7 8 1 9 2 10 3 11 4 12 6 13 5 14
REMARK SMILES IDX 74 15 75 16 76 17 77 18 78 19 14 21 15 22 16 23 17 24 18 25
REMARK SMILES IDX 19 27 20 28 21 29 73 30 22 31 72 32 23 33 24 34 25 35 66 36
REMARK SMILES IDX 26 37 71 38 65 39 67 40 27 41 70 42 64 43 63 44 28 46 54 47
REMARK SMILES IDX 37 48 53 49 38 50 41 51 52 52 68 53 39 54 40 55 51 57 69 58
REMARK SMILES IDX 42 59 29 60 30 61 35 62 31 63 32 64 34 65 36 66 33 67 55 68
REMARK SMILES IDX 56 69 61 70 57 71 58 72 60 73 62 74 59 75 43 76 44 77 49 78
REMARK SMILES IDX 45 79 46 80 48 81 50 82 47 83
REMARK H PARENT 13 4 78 20 17 26 67 45 41 56
REMARK Flexibility Score: inf
ROOT
ATOM      1  C   UNL     1       1.609   4.825   0.991  1.00  0.00     0.221 C 
ATOM      2  O   UNL     1       1.346   5.823   0.313  1.00  0.00    -0.275 OA
ATOM      3  N   UNL     1       2.897   4.694   1.420  1.00  0.00    -0.356 N 
ATOM      4  H   UNL     1       3.452   5.483   1.227  1.00  0.00     0.163 HD
ENDROOT
BRANCH   1   5
ATOM      5  C   UNL     1       0.517   3.823   1.341  1.00  0.00     0.121 C 
BRANCH   5   6
ATOM      6  C   UNL     1      -0.226   3.274   0.092  1.00  0.00     0.127 C 
BRANCH   6   7
ATOM      7  N   UNL     1       0.180   1.876  -0.298  1.00  0.00    -0.366 N 
BRANCH   7   8
ATOM      8  C   UNL     1      -0.678   0.764  -0.366  1.00  0.00     0.040 A 
ATOM      9  C   UNL     1       0.988  -1.282  -0.966  1.00  0.00     0.046 C 
ATOM     10  C   UNL     1      -0.328  -0.615  -0.593  1.00  0.00    -0.028 A 
ATOM     11  C   UNL     1      -1.314  -1.637  -0.467  1.00  0.00     0.005 A 
ATOM     12  C   UNL     1      -2.638  -1.367  -0.189  1.00  0.00     0.000 A 
ATOM     13  C   UNL     1      -2.065   0.973  -0.154  1.00  0.00     0.026 A 
ATOM     14  C   UNL     1      -3.019  -0.052  -0.059  1.00  0.00     0.002 A 
ENDBRANCH   7   8
BRANCH   7  15
ATOM     15  C   UNL     1       1.621   1.759  -0.497  1.00  0.00     0.107 C 
ATOM     16  C   UNL     1       2.198   0.879   0.618  1.00  0.00     0.034 C 
BRANCH  15  17
ATOM     17  C   UNL     1       2.062   1.585  -1.980  1.00  0.00     0.133 C 
ATOM     18  C   UNL     1       1.664   2.770  -2.861  1.00  0.00     0.040 C 
BRANCH  17  19
ATOM     19  O   UNL     1       3.488   1.467  -2.067  1.00  0.00    -0.391 OA
ATOM     20  H   UNL     1       3.900   2.284  -1.746  1.00  0.00     0.211 HD
ENDBRANCH  17  19
ENDBRANCH  15  17
ENDBRANCH   7  15
ENDBRANCH   6   7
ENDBRANCH   5   6
ENDBRANCH   1   5
BRANCH   3  21
ATOM     21  C   UNL     1       3.629   3.627   2.109  1.00  0.00     0.117 C 
BRANCH  21  22
ATOM     22  C   UNL     1       4.571   2.905   1.130  1.00  0.00     0.042 C 
BRANCH  22  23
ATOM     23  C   UNL     1       5.477   1.823   1.733  1.00  0.00     0.118 C 
BRANCH  23  24
ATOM     24  N   UNL     1       4.991   0.436   1.793  1.00  0.00    -0.352 N 
ATOM     25  C   UNL     1       5.458  -0.686   1.119  1.00  0.00     0.251 C 
ATOM     26  H   UNL     1       4.228   0.280   2.395  1.00  0.00     0.163 HD
ATOM     27  O   UNL     1       5.021  -1.788   1.314  1.00  0.00    -0.269 OA
BRANCH  25  28
ATOM     28  C   UNL     1       6.547  -0.469   0.127  1.00  0.00     0.039 A 
ATOM     29  C   UNL     1       7.854  -0.390   0.615  1.00  0.00     0.014 A 
ATOM     30  C   UNL     1       6.186   0.111  -1.090  1.00  0.00     0.014 A 
ATOM     31  C   UNL     1       8.717   0.532   0.035  1.00  0.00     0.010 A 
ATOM     32  C   UNL     1       7.041   1.046  -1.650  1.00  0.00     0.010 A 
ATOM     33  C   UNL     1       8.250   1.344  -1.006  1.00  0.00    -0.014 A 
BRANCH  33  34
ATOM     34  C   UNL     1       8.826   2.676  -1.217  1.00  0.00     0.031 A 
ATOM     35  C   UNL     1       9.762   2.958  -2.315  1.00  0.00     0.074 A 
ATOM     36  C   UNL     1       8.569   3.673  -0.336  1.00  0.00     0.049 A 
ATOM     37  N   UNL     1      10.787   3.733  -2.180  1.00  0.00    -0.248 NA
ATOM     38  C   UNL     1       9.627   2.382  -3.644  1.00  0.00     0.031 C 
ATOM     39  C   UNL     1       8.930   5.083  -0.451  1.00  0.00     0.029 A 
ATOM     40  N   UNL     1       8.053   3.566   0.965  1.00  0.00    -0.354 N 
ATOM     41  C   UNL     1      11.291   3.969  -3.435  1.00  0.00     0.074 A 
ATOM     42  C   UNL     1      10.582   3.049  -4.303  1.00  0.00     0.031 C 
ATOM     43  C   UNL     1       8.924   5.630   0.776  1.00  0.00     0.029 A 
ATOM     44  C   UNL     1       8.656   4.570   1.735  1.00  0.00     0.049 A 
ATOM     45  H   UNL     1       7.391   2.909   1.278  1.00  0.00     0.167 HD
ATOM     46  C   UNL     1      12.147   5.011  -3.642  1.00  0.00     0.037 A 
ATOM     47  C   UNL     1       9.335   4.316   2.885  1.00  0.00     0.037 A 
ATOM     48  C   UNL     1      12.352   5.804  -2.432  1.00  0.00     0.049 A 
ATOM     49  C   UNL     1      10.741   4.839   2.860  1.00  0.00     0.074 A 
ATOM     50  C   UNL     1      11.770   6.984  -1.994  1.00  0.00     0.029 A 
ATOM     51  N   UNL     1      13.042   5.281  -1.344  1.00  0.00    -0.354 N 
ATOM     52  N   UNL     1      11.338   5.216   1.768  1.00  0.00    -0.248 NA
ATOM     53  C   UNL     1      11.608   4.908   4.030  1.00  0.00     0.031 C 
ATOM     54  C   UNL     1      12.105   7.168  -0.634  1.00  0.00     0.029 A 
ATOM     55  C   UNL     1      12.895   6.102  -0.240  1.00  0.00     0.049 A 
ATOM     56  H   UNL     1      13.562   4.445  -1.358  1.00  0.00     0.167 HD
ATOM     57  C   UNL     1      12.648   5.491   2.040  1.00  0.00     0.074 A 
ATOM     58  C   UNL     1      12.759   5.330   3.477  1.00  0.00     0.031 C 
ATOM     59  C   UNL     1      13.522   5.782   1.035  1.00  0.00     0.037 A 
BRANCH  46  60
ATOM     60  C   UNL     1      12.527   5.487  -5.024  1.00  0.00     0.057 A 
ATOM     61  C   UNL     1      12.714   6.853  -5.312  1.00  0.00     0.134 A 
ATOM     62  C   UNL     1      12.688   4.632  -6.127  1.00  0.00     0.134 A 
ATOM     63  F   UNL     1      12.722   7.786  -4.352  1.00  0.00    -0.206 F 
ATOM     64  C   UNL     1      12.901   7.338  -6.612  1.00  0.00     0.040 A 
ATOM     65  C   UNL     1      12.824   5.104  -7.440  1.00  0.00     0.040 A 
ATOM     66  F   UNL     1      12.748   3.301  -5.969  1.00  0.00    -0.206 F 
ATOM     67  C   UNL     1      12.911   6.466  -7.689  1.00  0.00     0.006 A 
ENDBRANCH  46  60
BRANCH  47  68
ATOM     68  C   UNL     1       8.921   3.113   3.646  1.00  0.00     0.057 A 
ATOM     69  C   UNL     1       7.738   3.131   4.398  1.00  0.00     0.134 A 
ATOM     70  C   UNL     1       9.530   1.870   3.450  1.00  0.00     0.134 A 
ATOM     71  F   UNL     1       7.073   4.282   4.585  1.00  0.00    -0.206 F 
ATOM     72  C   UNL     1       7.157   1.957   4.892  1.00  0.00     0.040 A 
ATOM     73  C   UNL     1       8.948   0.687   3.919  1.00  0.00     0.040 A 
ATOM     74  F   UNL     1      10.656   1.771   2.728  1.00  0.00    -0.206 F 
ATOM     75  C   UNL     1       7.744   0.725   4.619  1.00  0.00     0.006 A 
ENDBRANCH  47  68
BRANCH  59  76
ATOM     76  C   UNL     1      15.016   5.882   1.175  1.00  0.00     0.057 A 
ATOM     77  C   UNL     1      15.771   5.179   2.125  1.00  0.00     0.134 A 
ATOM     78  C   UNL     1      15.770   6.617   0.233  1.00  0.00     0.134 A 
ATOM     79  F   UNL     1      15.196   4.349   3.006  1.00  0.00    -0.206 F 
ATOM     80  C   UNL     1      17.168   5.253   2.178  1.00  0.00     0.040 A 
ATOM     81  C   UNL     1      17.166   6.653   0.243  1.00  0.00     0.040 A 
ATOM     82  F   UNL     1      15.182   7.314  -0.751  1.00  0.00    -0.206 F 
ATOM     83  C   UNL     1      17.872   5.982   1.229  1.00  0.00     0.006 A 
ENDBRANCH  59  76
ENDBRANCH  33  34
ENDBRANCH  25  28
ENDBRANCH  23  24
ENDBRANCH  22  23
ENDBRANCH  21  22
ENDBRANCH   3  21
TORSDOF 16
