REMARK SMILES O=C(NCCCNC(=O)[C@@H](Cc1cccc(F)c1)[C@H]1CCOC2(CCC2)C1)c1ccc(-c2c3nc(c(-c4c(F)cccc4F)c4ccc([nH]4)c(-c4c(F)cccc4F)c4nc(c(-c5c(F)cccc5F)c5ccc2[nH]5)C=C4)C=C3)cc1
REMARK SMILES IDX 5 1 4 2 3 3 1 4 2 5 28 7 29 8 81 9 30 10 80 11 31 12 32 13
REMARK SMILES IDX 33 14 74 15 34 16 79 17 73 18 75 19 35 20 78 21 72 22 71 23
REMARK SMILES IDX 36 25 62 26 45 27 61 28 46 29 49 30 60 31 76 32 47 33 48 34
REMARK SMILES IDX 59 36 77 37 50 38 37 39 38 40 43 41 39 42 40 43 42 44 44 45
REMARK SMILES IDX 41 46 63 47 64 48 69 49 65 50 66 51 68 52 70 53 67 54 51 55
REMARK SMILES IDX 52 56 57 57 53 58 54 59 56 60 58 61 55 62 6 63 7 64 8 65
REMARK SMILES IDX 9 67 10 68 11 69 12 70 13 71 18 72 14 73 16 74 15 75 17 76
REMARK SMILES IDX 19 77 20 78 27 79 21 80 23 81 22 82 24 83 26 84 25 85
REMARK H PARENT 3 6 75 24 49 35 7 66
REMARK Flexibility Score: inf
ROOT
ATOM      1  C   UNL     1       1.026   8.177   3.511  1.00  0.00     0.042 C 
ENDROOT
BRANCH   1   2
ATOM      2  C   UNL     1      -0.372   7.989   2.946  1.00  0.00     0.118 C 
BRANCH   2   3
ATOM      3  N   UNL     1      -1.283   7.449   3.936  1.00  0.00    -0.352 N 
ATOM      4  O   UNL     1      -2.439   7.257   5.832  1.00  0.00    -0.269 OA
ATOM      5  C   UNL     1      -1.909   8.018   5.017  1.00  0.00     0.251 C 
ATOM      6  H   UNL     1      -1.492   6.495   3.809  1.00  0.00     0.163 HD
BRANCH   5   7
ATOM      7  C   UNL     1      -1.985   9.487   5.258  1.00  0.00     0.039 A 
ATOM      8  C   UNL     1      -2.038  10.432   4.234  1.00  0.00     0.014 A 
ATOM      9  C   UNL     1      -2.185   9.925   6.578  1.00  0.00     0.014 A 
ATOM     10  C   UNL     1      -2.238  11.786   4.518  1.00  0.00     0.010 A 
ATOM     11  C   UNL     1      -2.487  11.265   6.857  1.00  0.00     0.010 A 
ATOM     12  C   UNL     1      -2.541  12.206   5.822  1.00  0.00    -0.014 A 
BRANCH  12  13
ATOM     13  C   UNL     1      -3.102  13.568   6.036  1.00  0.00     0.031 A 
ATOM     14  C   UNL     1      -2.400  14.595   6.875  1.00  0.00     0.074 A 
ATOM     15  C   UNL     1      -4.288  13.866   5.462  1.00  0.00     0.049 A 
ATOM     16  N   UNL     1      -2.781  15.815   7.161  1.00  0.00    -0.248 NA
ATOM     17  C   UNL     1      -1.115  14.211   7.476  1.00  0.00     0.031 C 
ATOM     18  C   UNL     1      -5.087  12.938   4.655  1.00  0.00     0.029 A 
ATOM     19  N   UNL     1      -5.026  15.023   5.455  1.00  0.00    -0.354 N 
ATOM     20  C   UNL     1      -1.796  16.340   7.986  1.00  0.00     0.074 A 
ATOM     21  C   UNL     1      -0.803  15.302   8.167  1.00  0.00     0.031 C 
ATOM     22  C   UNL     1      -6.174  13.573   4.196  1.00  0.00     0.029 A 
ATOM     23  C   UNL     1      -6.192  14.928   4.731  1.00  0.00     0.049 A 
ATOM     24  H   UNL     1      -4.748  15.843   5.924  1.00  0.00     0.167 HD
ATOM     25  C   UNL     1      -1.731  17.576   8.533  1.00  0.00     0.037 A 
ATOM     26  C   UNL     1      -7.185  15.817   4.537  1.00  0.00     0.037 A 
ATOM     27  C   UNL     1      -2.708  18.615   8.327  1.00  0.00     0.049 A 
ATOM     28  C   UNL     1      -7.093  17.168   5.178  1.00  0.00     0.074 A 
ATOM     29  C   UNL     1      -2.676  19.923   8.780  1.00  0.00     0.029 A 
ATOM     30  N   UNL     1      -3.890  18.464   7.621  1.00  0.00    -0.354 N 
ATOM     31  N   UNL     1      -6.126  17.663   5.910  1.00  0.00    -0.248 NA
ATOM     32  C   UNL     1      -8.232  18.077   4.988  1.00  0.00     0.031 C 
ATOM     33  C   UNL     1      -3.860  20.552   8.387  1.00  0.00     0.029 A 
ATOM     34  C   UNL     1      -4.613  19.646   7.658  1.00  0.00     0.049 A 
ATOM     35  H   UNL     1      -4.175  17.641   7.162  1.00  0.00     0.167 HD
ATOM     36  C   UNL     1      -6.540  18.936   6.273  1.00  0.00     0.074 A 
ATOM     37  C   UNL     1      -7.834  19.150   5.659  1.00  0.00     0.031 C 
ATOM     38  C   UNL     1      -5.905  19.840   7.054  1.00  0.00     0.037 A 
BRANCH  25  39
ATOM     39  C   UNL     1      -0.564  17.903   9.416  1.00  0.00     0.057 A 
ATOM     40  C   UNL     1      -0.735  18.030  10.800  1.00  0.00     0.134 A 
ATOM     41  C   UNL     1       0.691  18.221   8.884  1.00  0.00     0.134 A 
ATOM     42  F   UNL     1      -1.918  17.751  11.369  1.00  0.00    -0.206 F 
ATOM     43  C   UNL     1       0.297  18.483  11.623  1.00  0.00     0.040 A 
ATOM     44  C   UNL     1       1.735  18.660   9.699  1.00  0.00     0.040 A 
ATOM     45  F   UNL     1       0.916  18.117   7.566  1.00  0.00    -0.206 F 
ATOM     46  C   UNL     1       1.536  18.804  11.072  1.00  0.00     0.006 A 
ENDBRANCH  25  39
BRANCH  26  47
ATOM     47  C   UNL     1      -8.366  15.432   3.725  1.00  0.00     0.057 A 
ATOM     48  C   UNL     1      -9.282  14.476   4.184  1.00  0.00     0.134 A 
ATOM     49  C   UNL     1      -8.592  15.987   2.461  1.00  0.00     0.134 A 
ATOM     50  F   UNL     1      -9.117  13.903   5.385  1.00  0.00    -0.206 F 
ATOM     51  C   UNL     1     -10.365  14.068   3.406  1.00  0.00     0.040 A 
ATOM     52  C   UNL     1      -9.686  15.607   1.683  1.00  0.00     0.040 A 
ATOM     53  F   UNL     1      -7.761  16.921   1.976  1.00  0.00    -0.206 F 
ATOM     54  C   UNL     1     -10.572  14.637   2.151  1.00  0.00     0.006 A 
ENDBRANCH  26  47
BRANCH  38  55
ATOM     55  C   UNL     1      -6.601  21.141   7.309  1.00  0.00     0.057 A 
ATOM     56  C   UNL     1      -6.166  22.322   6.696  1.00  0.00     0.134 A 
ATOM     57  C   UNL     1      -7.655  21.232   8.226  1.00  0.00     0.134 A 
ATOM     58  F   UNL     1      -5.156  22.299   5.813  1.00  0.00    -0.206 F 
ATOM     59  C   UNL     1      -6.745  23.554   7.001  1.00  0.00     0.040 A 
ATOM     60  C   UNL     1      -8.254  22.456   8.525  1.00  0.00     0.040 A 
ATOM     61  F   UNL     1      -8.123  20.132   8.835  1.00  0.00    -0.206 F 
ATOM     62  C   UNL     1      -7.791  23.623   7.918  1.00  0.00     0.006 A 
ENDBRANCH  38  55
ENDBRANCH  12  13
ENDBRANCH   5   7
ENDBRANCH   2   3
ENDBRANCH   1   2
BRANCH   1  63
ATOM     63  C   UNL     1       1.928   6.973   3.274  1.00  0.00     0.117 C 
BRANCH  63  64
ATOM     64  N   UNL     1       2.545   7.050   1.965  1.00  0.00    -0.356 N 
ATOM     65  C   UNL     1       3.845   7.126   1.596  1.00  0.00     0.223 C 
ATOM     66  H   UNL     1       1.908   7.045   1.214  1.00  0.00     0.163 HD
ATOM     67  O   UNL     1       4.056   7.327   0.394  1.00  0.00    -0.275 OA
BRANCH  65  68
ATOM     68  C   UNL     1       5.031   6.980   2.560  1.00  0.00     0.086 C 
BRANCH  68  69
ATOM     69  C   UNL     1       5.490   8.329   3.192  1.00  0.00     0.049 C 
BRANCH  69  70
ATOM     70  C   UNL     1       4.637   9.084   4.191  1.00  0.00    -0.044 A 
ATOM     71  C   UNL     1       3.742  10.077   3.766  1.00  0.00     0.004 A 
ATOM     72  C   UNL     1       4.769   8.886   5.572  1.00  0.00     0.043 A 
ATOM     73  C   UNL     1       2.941  10.775   4.686  1.00  0.00     0.003 A 
ATOM     74  C   UNL     1       3.947   9.552   6.477  1.00  0.00     0.123 A 
ATOM     75  C   UNL     1       3.021  10.486   6.045  1.00  0.00     0.039 A 
ATOM     76  F   UNL     1       4.059   9.284   7.784  1.00  0.00    -0.207 F 
ENDBRANCH  69  70
ENDBRANCH  68  69
BRANCH  68  77
ATOM     77  C   UNL     1       5.197   5.638   3.366  1.00  0.00     0.007 C 
ATOM     78  C   UNL     1       5.118   5.770   4.892  1.00  0.00     0.033 C 
ATOM     79  C   UNL     1       4.341   4.464   2.837  1.00  0.00     0.040 C 
ATOM     80  C   UNL     1       5.195   4.452   5.642  1.00  0.00     0.161 C 
ATOM     81  C   UNL     1       4.563   3.201   3.672  1.00  0.00     0.069 C 
ATOM     82  O   UNL     1       4.307   3.511   5.064  1.00  0.00    -0.375 OA
ATOM     83  C   UNL     1       3.779   1.949   3.169  1.00  0.00     0.035 C 
ATOM     84  C   UNL     1       5.853   2.368   3.384  1.00  0.00     0.035 C 
ATOM     85  C   UNL     1       4.994   1.107   3.609  1.00  0.00     0.006 C 
ENDBRANCH  68  77
ENDBRANCH  65  68
ENDBRANCH  63  64
ENDBRANCH   1  63
TORSDOF 13
