REMARK SMILES C[C@H](C[N@H+](C)[C@H]1CC[C@H]([NH3+])CC1)C(=O)NCCCNC(=O)c1ccc(-c2c3nc(c(-c4c(F)cccc4F)c4ccc([nH]4)c(-c4c(F)cccc4F)c4nc(c(-c5c(F)cccc5F)c5ccc2[nH]5)C=C4)C=C3)cc1
REMARK SMILES IDX 16 1 15 2 13 3 14 4 2 6 1 7 3 8 4 9 5 10 6 12 7 13 12 14
REMARK SMILES IDX 8 15 11 16 9 17 10 18 17 22 18 23 19 24 20 25 21 27 22 28
REMARK SMILES IDX 23 29 75 30 24 31 74 32 25 33 26 34 27 35 68 36 28 37 73 38
REMARK SMILES IDX 67 39 69 40 29 41 72 42 66 43 65 44 30 46 56 47 39 48 55 49
REMARK SMILES IDX 40 50 43 51 54 52 70 53 41 54 42 55 53 57 71 58 44 59 31 60
REMARK SMILES IDX 32 61 37 62 33 63 34 64 36 65 38 66 35 67 57 68 58 69 63 70
REMARK SMILES IDX 59 71 60 72 62 73 64 74 61 75 45 76 46 77 51 78 47 79 48 80
REMARK SMILES IDX 50 81 52 82 49 83
REMARK H PARENT 15 5 4 11 10 19 10 20 10 21 19 26 69 45 43 56
REMARK Flexibility Score: inf
ROOT
ATOM      1  C   UNL     1      -1.234   0.978   2.240  1.00  0.00     0.117 C 
ENDROOT
BRANCH   1   2
ATOM      2  N   UNL     1      -1.784  -0.169   1.540  1.00  0.00    -0.356 N 
ATOM      3  C   UNL     1      -1.170  -1.198   0.901  1.00  0.00     0.228 C 
ATOM      4  O   UNL     1      -1.884  -1.992   0.285  1.00  0.00    -0.275 OA
ATOM      5  H   UNL     1      -2.768  -0.208   1.526  1.00  0.00     0.163 HD
BRANCH   3   6
ATOM      6  C   UNL     1       0.336  -1.383   0.951  1.00  0.00     0.130 C 
ATOM      7  C   UNL     1       0.822  -1.600   2.389  1.00  0.00     0.024 C 
BRANCH   6   8
ATOM      8  C   UNL     1       1.070  -0.288   0.146  1.00  0.00     0.275 C 
BRANCH   8   9
ATOM      9  N   UNL     1       2.548  -0.357   0.175  1.00  0.00    -0.334 N 
ATOM     10  C   UNL     1       3.125   0.767  -0.564  1.00  0.00     0.332 C 
ATOM     11  H   UNL     1       2.846  -0.259   1.146  1.00  0.00     0.348 HD
BRANCH   9  12
ATOM     12  C   UNL     1       3.083  -1.677  -0.211  1.00  0.00     0.184 C 
ATOM     13  C   UNL     1       4.575  -1.827   0.141  1.00  0.00     0.071 C 
ATOM     14  C   UNL     1       2.827  -2.090  -1.671  1.00  0.00     0.071 C 
ATOM     15  C   UNL     1       5.032  -3.270  -0.088  1.00  0.00     0.071 C 
ATOM     16  C   UNL     1       3.288  -3.528  -1.911  1.00  0.00     0.071 C 
ATOM     17  C   UNL     1       4.760  -3.717  -1.530  1.00  0.00     0.181 C 
BRANCH  17  18
ATOM     18  N   UNL     1       5.131  -5.119  -1.708  1.00  0.00    -0.355 N 
ATOM     19  H   UNL     1       4.561  -5.702  -1.095  1.00  0.00     0.344 HD
ATOM     20  H   UNL     1       6.116  -5.242  -1.475  1.00  0.00     0.344 HD
ATOM     21  H   UNL     1       4.974  -5.391  -2.679  1.00  0.00     0.344 HD
ENDBRANCH  17  18
ENDBRANCH   9  12
ENDBRANCH   8   9
ENDBRANCH   6   8
ENDBRANCH   3   6
ENDBRANCH   1   2
BRANCH   1  22
ATOM     22  C   UNL     1      -1.533   2.270   1.494  1.00  0.00     0.042 C 
BRANCH  22  23
ATOM     23  C   UNL     1      -3.023   2.568   1.392  1.00  0.00     0.118 C 
BRANCH  23  24
ATOM     24  N   UNL     1      -3.646   2.722   2.701  1.00  0.00    -0.352 N 
ATOM     25  C   UNL     1      -4.182   3.838   3.291  1.00  0.00     0.251 C 
ATOM     26  H   UNL     1      -3.688   1.902   3.243  1.00  0.00     0.163 HD
ATOM     27  O   UNL     1      -4.443   3.836   4.491  1.00  0.00    -0.269 OA
BRANCH  25  28
ATOM     28  C   UNL     1      -4.427   5.046   2.481  1.00  0.00     0.039 A 
ATOM     29  C   UNL     1      -4.069   6.293   2.995  1.00  0.00     0.014 A 
ATOM     30  C   UNL     1      -5.000   4.942   1.211  1.00  0.00     0.014 A 
ATOM     31  C   UNL     1      -4.210   7.430   2.199  1.00  0.00     0.010 A 
ATOM     32  C   UNL     1      -5.055   6.060   0.388  1.00  0.00     0.010 A 
ATOM     33  C   UNL     1      -4.658   7.314   0.873  1.00  0.00    -0.014 A 
BRANCH  33  34
ATOM     34  C   UNL     1      -4.702   8.488  -0.033  1.00  0.00     0.031 A 
ATOM     35  C   UNL     1      -6.012   8.952  -0.604  1.00  0.00     0.074 A 
ATOM     36  C   UNL     1      -3.551   9.083  -0.401  1.00  0.00     0.049 A 
ATOM     37  N   UNL     1      -6.242   9.899  -1.478  1.00  0.00    -0.248 NA
ATOM     38  C   UNL     1      -7.220   8.242  -0.155  1.00  0.00     0.031 C 
ATOM     39  C   UNL     1      -2.213   8.692   0.051  1.00  0.00     0.029 A 
ATOM     40  N   UNL     1      -3.320  10.135  -1.250  1.00  0.00    -0.354 N 
ATOM     41  C   UNL     1      -7.615   9.890  -1.690  1.00  0.00     0.074 A 
ATOM     42  C   UNL     1      -8.159   8.808  -0.898  1.00  0.00     0.031 C 
ATOM     43  C   UNL     1      -1.305   9.507  -0.508  1.00  0.00     0.029 A 
ATOM     44  C   UNL     1      -1.989  10.445  -1.393  1.00  0.00     0.049 A 
ATOM     45  H   UNL     1      -4.039  10.621  -1.714  1.00  0.00     0.167 HD
ATOM     46  C   UNL     1      -8.356  10.722  -2.458  1.00  0.00     0.037 A 
ATOM     47  C   UNL     1      -1.386  11.370  -2.162  1.00  0.00     0.037 A 
ATOM     48  C   UNL     1      -7.810  11.805  -3.234  1.00  0.00     0.049 A 
ATOM     49  C   UNL     1      -2.230  12.262  -3.030  1.00  0.00     0.074 A 
ATOM     50  C   UNL     1      -8.482  12.742  -3.998  1.00  0.00     0.029 A 
ATOM     51  N   UNL     1      -6.457  12.090  -3.350  1.00  0.00    -0.354 N 
ATOM     52  N   UNL     1      -3.534  12.290  -3.166  1.00  0.00    -0.248 NA
ATOM     53  C   UNL     1      -1.519  13.250  -3.852  1.00  0.00     0.031 C 
ATOM     54  C   UNL     1      -7.534  13.558  -4.623  1.00  0.00     0.029 A 
ATOM     55  C   UNL     1      -6.273  13.167  -4.201  1.00  0.00     0.049 A 
ATOM     56  H   UNL     1      -5.735  11.599  -2.896  1.00  0.00     0.167 HD
ATOM     57  C   UNL     1      -3.801  13.313  -4.067  1.00  0.00     0.074 A 
ATOM     58  C   UNL     1      -2.524  13.893  -4.429  1.00  0.00     0.031 C 
ATOM     59  C   UNL     1      -4.995  13.733  -4.553  1.00  0.00     0.037 A 
BRANCH  46  60
ATOM     60  C   UNL     1      -9.840  10.492  -2.498  1.00  0.00     0.057 A 
ATOM     61  C   UNL     1     -10.658  10.736  -1.387  1.00  0.00     0.134 A 
ATOM     62  C   UNL     1     -10.463  10.053  -3.673  1.00  0.00     0.134 A 
ATOM     63  F   UNL     1     -10.124  11.147  -0.226  1.00  0.00    -0.206 F 
ATOM     64  C   UNL     1     -12.037  10.526  -1.434  1.00  0.00     0.040 A 
ATOM     65  C   UNL     1     -11.845   9.868  -3.742  1.00  0.00     0.040 A 
ATOM     66  F   UNL     1      -9.742   9.805  -4.777  1.00  0.00    -0.206 F 
ATOM     67  C   UNL     1     -12.635  10.098  -2.617  1.00  0.00     0.006 A 
ENDBRANCH  46  60
BRANCH  47  68
ATOM     68  C   UNL     1       0.093  11.507  -2.143  1.00  0.00     0.057 A 
ATOM     69  C   UNL     1       0.706  12.643  -1.602  1.00  0.00     0.134 A 
ATOM     70  C   UNL     1       0.928  10.516  -2.674  1.00  0.00     0.134 A 
ATOM     71  F   UNL     1      -0.040  13.636  -1.095  1.00  0.00    -0.206 F 
ATOM     72  C   UNL     1       2.093  12.800  -1.610  1.00  0.00     0.040 A 
ATOM     73  C   UNL     1       2.317  10.647  -2.663  1.00  0.00     0.040 A 
ATOM     74  F   UNL     1       0.404   9.399  -3.199  1.00  0.00    -0.206 F 
ATOM     75  C   UNL     1       2.903  11.797  -2.137  1.00  0.00     0.006 A 
ENDBRANCH  47  68
BRANCH  59  76
ATOM     76  C   UNL     1      -4.978  14.890  -5.509  1.00  0.00     0.057 A 
ATOM     77  C   UNL     1      -4.489  14.765  -6.815  1.00  0.00     0.134 A 
ATOM     78  C   UNL     1      -5.492  16.137  -5.128  1.00  0.00     0.134 A 
ATOM     79  F   UNL     1      -3.969  13.602  -7.238  1.00  0.00    -0.206 F 
ATOM     80  C   UNL     1      -4.489  15.843  -7.701  1.00  0.00     0.040 A 
ATOM     81  C   UNL     1      -5.526  17.214  -6.015  1.00  0.00     0.040 A 
ATOM     82  F   UNL     1      -5.984  16.324  -3.895  1.00  0.00    -0.206 F 
ATOM     83  C   UNL     1      -5.017  17.070  -7.303  1.00  0.00     0.006 A 
ENDBRANCH  59  76
ENDBRANCH  33  34
ENDBRANCH  25  28
ENDBRANCH  23  24
ENDBRANCH  22  23
ENDBRANCH   1  22
TORSDOF 14
