REMARK SMILES [NH3+]C[C@H]1C[C@]1(C(=O)NCCCNC(=O)c1ccc(-c2c3nc(c(-c4c(F)cccc4F)c4ccc([nH]4)c(-c4c(F)cccc4F)c4nc(c(-c5c(F)cccc5F)c5ccc2[nH]5)C=C4)C=C3)cc1)c1ccccc1
REMARK SMILES IDX 10 1 9 2 8 3 6 4 7 5 5 7 3 8 4 9 2 10 1 11 69 15 70 16 74 17
REMARK SMILES IDX 71 18 73 19 72 20 11 21 12 22 13 23 14 25 15 26 16 27 68 28
REMARK SMILES IDX 17 29 67 30 18 31 19 32 20 33 61 34 21 35 66 36 60 37 62 38
REMARK SMILES IDX 22 39 65 40 59 41 58 42 23 44 49 45 32 46 48 47 33 48 36 49
REMARK SMILES IDX 47 50 63 51 34 52 35 53 46 55 64 56 37 57 24 58 25 59 30 60
REMARK SMILES IDX 26 61 27 62 29 63 31 64 28 65 50 66 51 67 56 68 52 69 53 70
REMARK SMILES IDX 55 71 57 72 54 73 38 74 39 75 44 76 40 77 41 78 43 79 45 80
REMARK SMILES IDX 42 81
REMARK H PARENT 8 6 1 12 1 13 1 14 12 24 62 43 36 54
REMARK Flexibility Score: inf
ROOT
ATOM      1  C   UNL     1       4.598  -2.636   0.622  1.00  0.00     0.042 C 
ENDROOT
BRANCH   1   2
ATOM      2  C   UNL     1       4.029  -3.330  -0.615  1.00  0.00     0.117 C 
BRANCH   2   3
ATOM      3  N   UNL     1       3.111  -4.397  -0.264  1.00  0.00    -0.355 N 
ATOM      4  C   UNL     1       1.786  -4.703  -0.380  1.00  0.00     0.231 C 
ATOM      5  O   UNL     1       1.519  -5.799   0.126  1.00  0.00    -0.274 OA
ATOM      6  H   UNL     1       3.590  -5.122   0.199  1.00  0.00     0.163 HD
BRANCH   4   7
ATOM      7  C   UNL     1       0.675  -3.916  -1.079  1.00  0.00     0.083 C 
ATOM      8  C   UNL     1       0.479  -2.386  -1.110  1.00  0.00     0.065 C 
ATOM      9  C   UNL     1       1.087  -3.075  -2.296  1.00  0.00     0.033 C 
BRANCH   8  10
ATOM     10  C   UNL     1       1.159  -1.417  -0.226  1.00  0.00     0.263 C 
BRANCH  10  11
ATOM     11  N   UNL     1       0.499  -1.419   1.070  1.00  0.00    -0.357 N 
ATOM     12  H   UNL     1       0.962  -0.752   1.688  1.00  0.00     0.344 HD
ATOM     13  H   UNL     1       0.552  -2.353   1.477  1.00  0.00     0.344 HD
ATOM     14  H   UNL     1      -0.479  -1.153   0.954  1.00  0.00     0.344 HD
ENDBRANCH  10  11
ENDBRANCH   8  10
BRANCH   7  15
ATOM     15  C   UNL     1      -0.737  -4.608  -1.034  1.00  0.00    -0.032 A 
ATOM     16  C   UNL     1      -1.254  -5.105   0.184  1.00  0.00     0.005 A 
ATOM     17  C   UNL     1      -1.580  -4.720  -2.155  1.00  0.00     0.005 A 
ATOM     18  C   UNL     1      -2.508  -5.715   0.271  1.00  0.00     0.000 A 
ATOM     19  C   UNL     1      -2.853  -5.297  -2.068  1.00  0.00     0.000 A 
ATOM     20  C   UNL     1      -3.312  -5.806  -0.858  1.00  0.00     0.000 A 
ENDBRANCH   7  15
ENDBRANCH   4   7
ENDBRANCH   2   3
ENDBRANCH   1   2
BRANCH   1  21
ATOM     21  C   UNL     1       5.267  -3.561   1.631  1.00  0.00     0.118 C 
BRANCH  21  22
ATOM     22  N   UNL     1       6.429  -4.247   1.090  1.00  0.00    -0.352 N 
ATOM     23  C   UNL     1       7.756  -4.135   1.409  1.00  0.00     0.251 C 
ATOM     24  H   UNL     1       6.229  -4.897   0.378  1.00  0.00     0.163 HD
ATOM     25  O   UNL     1       8.595  -4.681   0.688  1.00  0.00    -0.269 OA
BRANCH  23  26
ATOM     26  C   UNL     1       8.205  -3.359   2.586  1.00  0.00     0.039 A 
ATOM     27  C   UNL     1       9.387  -2.619   2.489  1.00  0.00     0.014 A 
ATOM     28  C   UNL     1       7.511  -3.395   3.798  1.00  0.00     0.014 A 
ATOM     29  C   UNL     1       9.846  -1.889   3.588  1.00  0.00     0.010 A 
ATOM     30  C   UNL     1       7.913  -2.588   4.860  1.00  0.00     0.010 A 
ATOM     31  C   UNL     1       9.102  -1.849   4.778  1.00  0.00    -0.014 A 
BRANCH  31  32
ATOM     32  C   UNL     1       9.586  -1.086   5.957  1.00  0.00     0.031 A 
ATOM     33  C   UNL     1       9.931  -1.805   7.235  1.00  0.00     0.074 A 
ATOM     34  C   UNL     1       9.688   0.256   5.892  1.00  0.00     0.049 A 
ATOM     35  N   UNL     1      10.370  -1.316   8.368  1.00  0.00    -0.248 NA
ATOM     36  C   UNL     1       9.727  -3.263   7.254  1.00  0.00     0.031 C 
ATOM     37  C   UNL     1       9.331   1.078   4.734  1.00  0.00     0.029 A 
ATOM     38  N   UNL     1      10.128   1.165   6.821  1.00  0.00    -0.354 N 
ATOM     39  C   UNL     1      10.470  -2.399   9.234  1.00  0.00     0.074 A 
ATOM     40  C   UNL     1       9.992  -3.559   8.517  1.00  0.00     0.031 C 
ATOM     41  C   UNL     1       9.607   2.364   5.007  1.00  0.00     0.029 A 
ATOM     42  C   UNL     1      10.132   2.460   6.365  1.00  0.00     0.049 A 
ATOM     43  H   UNL     1      10.414   0.912   7.729  1.00  0.00     0.167 HD
ATOM     44  C   UNL     1      10.944  -2.432  10.502  1.00  0.00     0.037 A 
ATOM     45  C   UNL     1      10.529   3.595   6.970  1.00  0.00     0.037 A 
ATOM     46  C   UNL     1      11.461  -1.285  11.200  1.00  0.00     0.049 A 
ATOM     47  C   UNL     1      11.084   3.528   8.366  1.00  0.00     0.074 A 
ATOM     48  C   UNL     1      12.032  -1.225  12.459  1.00  0.00     0.029 A 
ATOM     49  N   UNL     1      11.473   0.006  10.693  1.00  0.00    -0.354 N 
ATOM     50  N   UNL     1      11.247   2.486   9.144  1.00  0.00    -0.248 NA
ATOM     51  C   UNL     1      11.524   4.798   8.962  1.00  0.00     0.031 C 
ATOM     52  C   UNL     1      12.356   0.110  12.729  1.00  0.00     0.029 A 
ATOM     53  C   UNL     1      12.029   0.872  11.620  1.00  0.00     0.049 A 
ATOM     54  H   UNL     1      11.137   0.267   9.806  1.00  0.00     0.167 HD
ATOM     55  C   UNL     1      11.842   2.965  10.303  1.00  0.00     0.074 A 
ATOM     56  C   UNL     1      12.020   4.391  10.122  1.00  0.00     0.031 C 
ATOM     57  C   UNL     1      12.212   2.287  11.417  1.00  0.00     0.037 A 
BRANCH  44  58
ATOM     58  C   UNL     1      10.928  -3.755  11.212  1.00  0.00     0.057 A 
ATOM     59  C   UNL     1      11.779  -4.806  10.840  1.00  0.00     0.134 A 
ATOM     60  C   UNL     1      10.064  -3.978  12.291  1.00  0.00     0.134 A 
ATOM     61  F   UNL     1      12.622  -4.664   9.806  1.00  0.00    -0.206 F 
ATOM     62  C   UNL     1      11.747  -6.039  11.493  1.00  0.00     0.040 A 
ATOM     63  C   UNL     1      10.044  -5.197  12.971  1.00  0.00     0.040 A 
ATOM     64  F   UNL     1       9.228  -3.014  12.704  1.00  0.00    -0.206 F 
ATOM     65  C   UNL     1      10.881  -6.235  12.567  1.00  0.00     0.006 A 
ENDBRANCH  44  58
BRANCH  45  66
ATOM     66  C   UNL     1      10.473   4.887   6.241  1.00  0.00     0.057 A 
ATOM     67  C   UNL     1      11.646   5.525   5.819  1.00  0.00     0.134 A 
ATOM     68  C   UNL     1       9.257   5.519   5.958  1.00  0.00     0.134 A 
ATOM     69  F   UNL     1      12.842   4.976   6.077  1.00  0.00    -0.206 F 
ATOM     70  C   UNL     1      11.614   6.755   5.162  1.00  0.00     0.040 A 
ATOM     71  C   UNL     1       9.209   6.739   5.280  1.00  0.00     0.040 A 
ATOM     72  F   UNL     1       8.098   4.956   6.328  1.00  0.00    -0.206 F 
ATOM     73  C   UNL     1      10.392   7.364   4.887  1.00  0.00     0.006 A 
ENDBRANCH  45  66
BRANCH  57  74
ATOM     74  C   UNL     1      12.890   3.071  12.502  1.00  0.00     0.057 A 
ATOM     75  C   UNL     1      12.195   3.984  13.304  1.00  0.00     0.134 A 
ATOM     76  C   UNL     1      14.255   2.891  12.758  1.00  0.00     0.134 A 
ATOM     77  F   UNL     1      10.888   4.210  13.101  1.00  0.00    -0.206 F 
ATOM     78  C   UNL     1      12.841   4.715  14.303  1.00  0.00     0.040 A 
ATOM     79  C   UNL     1      14.906   3.596  13.772  1.00  0.00     0.040 A 
ATOM     80  F   UNL     1      14.977   2.024  12.033  1.00  0.00    -0.206 F 
ATOM     81  C   UNL     1      14.199   4.517  14.542  1.00  0.00     0.006 A 
ENDBRANCH  57  74
ENDBRANCH  31  32
ENDBRANCH  23  26
ENDBRANCH  21  22
ENDBRANCH   1  21
TORSDOF 13
