REMARK SMILES CSCC[C@H](NC(=O)Cc1c(C)c2ccc(O)cc2oc1=O)C(=O)NCCCNC(=O)c1ccc(-c2c3nc(c(-c4c(F)cccc4F)c4ccc([nH]4)c(-c4c(F)cccc4F)c4nc(c(-c5c(F)cccc5F)c5ccc2[nH]5)C=C4)C=C3)cc1
REMARK SMILES IDX 26 1 25 2 23 3 24 4 5 6 4 7 3 8 2 9 1 10 6 11 7 12 8 14 9 15
REMARK SMILES IDX 10 16 11 17 21 18 12 19 13 20 20 21 22 22 14 23 19 24 15 25
REMARK SMILES IDX 18 26 16 27 17 28 27 30 28 31 29 32 30 33 31 35 32 36 33 37
REMARK SMILES IDX 85 38 34 39 84 40 35 41 36 42 37 43 78 44 38 45 83 46 77 47
REMARK SMILES IDX 79 48 39 49 82 50 76 51 75 52 40 54 66 55 49 56 65 57 50 58
REMARK SMILES IDX 53 59 64 60 80 61 51 62 52 63 63 65 81 66 54 67 41 68 42 69
REMARK SMILES IDX 47 70 43 71 44 72 46 73 48 74 45 75 67 76 68 77 73 78 69 79
REMARK SMILES IDX 70 80 72 81 74 82 71 83 55 84 56 85 61 86 57 87 58 88 60 89
REMARK SMILES IDX 62 90 59 91
REMARK H PARENT 25 5 6 13 17 29 29 34 79 53 53 64
REMARK Flexibility Score: inf
ROOT
ATOM      1  C   UNL     1       1.480  -4.966   2.918  1.00  0.00     0.117 C 
ENDROOT
BRANCH   1   2
ATOM      2  N   UNL     1       0.373  -5.022   1.975  1.00  0.00    -0.354 N 
ATOM      3  C   UNL     1      -0.064  -4.103   1.067  1.00  0.00     0.242 C 
ATOM      4  O   UNL     1      -1.007  -4.422   0.340  1.00  0.00    -0.273 OA
ATOM      5  H   UNL     1      -0.144  -5.859   1.996  1.00  0.00     0.163 HD
BRANCH   3   6
ATOM      6  C   UNL     1       0.603  -2.721   0.954  1.00  0.00     0.172 C 
BRANCH   6   7
ATOM      7  C   UNL     1       2.091  -2.787   0.566  1.00  0.00     0.046 C 
BRANCH   7   8
ATOM      8  C   UNL     1       2.578  -3.934  -0.323  1.00  0.00     0.072 C 
BRANCH   8   9
ATOM      9  S   UNL     1       2.286  -3.673  -2.097  1.00  0.00    -0.165 SA
ATOM     10  C   UNL     1       0.676  -4.473  -2.278  1.00  0.00     0.085 C 
ENDBRANCH   8   9
ENDBRANCH   7   8
ENDBRANCH   6   7
BRANCH   6  11
ATOM     11  N   UNL     1       0.352  -2.058   2.251  1.00  0.00    -0.344 N 
ATOM     12  C   UNL     1       0.410  -0.763   2.661  1.00  0.00     0.225 C 
ATOM     13  H   UNL     1       0.088  -2.682   2.965  1.00  0.00     0.164 HD
ATOM     14  O   UNL     1       0.110  -0.507   3.829  1.00  0.00    -0.275 OA
BRANCH  12  15
ATOM     15  C   UNL     1       0.797   0.340   1.693  1.00  0.00     0.143 C 
BRANCH  15  16
ATOM     16  C   UNL     1       2.256   0.724   1.614  1.00  0.00     0.051 A 
ATOM     17  C   UNL     1       2.689   1.881   1.061  1.00  0.00    -0.029 A 
ATOM     18  C   UNL     1       3.268  -0.250   2.095  1.00  0.00     0.340 A 
ATOM     19  C   UNL     1       1.732   2.990   0.706  1.00  0.00     0.046 C 
ATOM     20  C   UNL     1       4.112   1.967   0.668  1.00  0.00     0.021 A 
ATOM     21  O   UNL     1       4.382  -0.378   1.291  1.00  0.00    -0.422 OA
ATOM     22  O   UNL     1       3.091  -0.988   3.052  1.00  0.00    -0.246 OA
ATOM     23  C   UNL     1       4.739   3.108   0.152  1.00  0.00     0.016 A 
ATOM     24  C   UNL     1       4.859   0.784   0.679  1.00  0.00     0.142 A 
ATOM     25  C   UNL     1       6.035   3.040  -0.384  1.00  0.00     0.047 A 
ATOM     26  C   UNL     1       6.133   0.689   0.122  1.00  0.00     0.094 A 
ATOM     27  C   UNL     1       6.709   1.825  -0.417  1.00  0.00     0.119 A 
BRANCH  27  28
ATOM     28  O   UNL     1       7.950   1.707  -0.964  1.00  0.00    -0.508 OA
ATOM     29  H   UNL     1       8.370   2.457  -1.338  1.00  0.00     0.293 HD
ENDBRANCH  27  28
ENDBRANCH  15  16
ENDBRANCH  12  15
ENDBRANCH   6  11
ENDBRANCH   3   6
ENDBRANCH   1   2
BRANCH   1  30
ATOM     30  C   UNL     1       1.062  -5.382   4.319  1.00  0.00     0.042 C 
BRANCH  30  31
ATOM     31  C   UNL     1       0.575  -6.818   4.420  1.00  0.00     0.118 C 
BRANCH  31  32
ATOM     32  N   UNL     1       1.602  -7.801   4.104  1.00  0.00    -0.352 N 
ATOM     33  C   UNL     1       1.887  -8.973   4.764  1.00  0.00     0.251 C 
ATOM     34  H   UNL     1       2.162  -7.602   3.319  1.00  0.00     0.163 HD
ATOM     35  O   UNL     1       2.859  -9.649   4.449  1.00  0.00    -0.269 OA
BRANCH  33  36
ATOM     36  C   UNL     1       1.021  -9.386   5.886  1.00  0.00     0.039 A 
ATOM     37  C   UNL     1       1.607  -9.704   7.112  1.00  0.00     0.014 A 
ATOM     38  C   UNL     1      -0.369  -9.396   5.736  1.00  0.00     0.014 A 
ATOM     39  C   UNL     1       0.792  -9.968   8.214  1.00  0.00     0.010 A 
ATOM     40  C   UNL     1      -1.177  -9.583   6.850  1.00  0.00     0.010 A 
ATOM     41  C   UNL     1      -0.605  -9.874   8.098  1.00  0.00    -0.014 A 
BRANCH  41  42
ATOM     42  C   UNL     1      -1.491 -10.088   9.267  1.00  0.00     0.031 A 
ATOM     43  C   UNL     1      -2.457 -11.241   9.269  1.00  0.00     0.074 A 
ATOM     44  C   UNL     1      -1.492  -9.199  10.279  1.00  0.00     0.049 A 
ATOM     45  N   UNL     1      -3.381 -11.543  10.143  1.00  0.00    -0.248 NA
ATOM     46  C   UNL     1      -2.401 -12.153   8.115  1.00  0.00     0.031 C 
ATOM     47  C   UNL     1      -0.655  -7.999  10.357  1.00  0.00     0.029 A 
ATOM     48  N   UNL     1      -2.238  -9.158  11.430  1.00  0.00    -0.354 N 
ATOM     49  C   UNL     1      -4.039 -12.651   9.627  1.00  0.00     0.074 A 
ATOM     50  C   UNL     1      -3.434 -12.949   8.348  1.00  0.00     0.031 C 
ATOM     51  C   UNL     1      -0.926  -7.348  11.500  1.00  0.00     0.029 A 
ATOM     52  C   UNL     1      -1.970  -8.068  12.222  1.00  0.00     0.049 A 
ATOM     53  H   UNL     1      -2.903  -9.845  11.665  1.00  0.00     0.167 HD
ATOM     54  C   UNL     1      -5.045 -13.368  10.180  1.00  0.00     0.037 A 
ATOM     55  C   UNL     1      -2.510  -7.693  13.396  1.00  0.00     0.037 A 
ATOM     56  C   UNL     1      -5.599 -13.111  11.482  1.00  0.00     0.049 A 
ATOM     57  C   UNL     1      -3.571  -8.553  14.024  1.00  0.00     0.074 A 
ATOM     58  C   UNL     1      -6.545 -13.844  12.176  1.00  0.00     0.029 A 
ATOM     59  N   UNL     1      -5.246 -12.041  12.289  1.00  0.00    -0.354 N 
ATOM     60  N   UNL     1      -4.123  -9.650  13.565  1.00  0.00    -0.248 NA
ATOM     61  C   UNL     1      -4.077  -8.130  15.338  1.00  0.00     0.031 C 
ATOM     62  C   UNL     1      -6.784 -13.203  13.396  1.00  0.00     0.029 A 
ATOM     63  C   UNL     1      -5.964 -12.088  13.471  1.00  0.00     0.049 A 
ATOM     64  H   UNL     1      -4.584 -11.351  12.056  1.00  0.00     0.167 HD
ATOM     65  C   UNL     1      -5.020 -10.061  14.542  1.00  0.00     0.074 A 
ATOM     66  C   UNL     1      -4.930  -9.103  15.624  1.00  0.00     0.031 C 
ATOM     67  C   UNL     1      -5.847 -11.134  14.541  1.00  0.00     0.037 A 
BRANCH  54  68
ATOM     68  C   UNL     1      -5.602 -14.510   9.385  1.00  0.00     0.057 A 
ATOM     69  C   UNL     1      -4.892 -15.704   9.211  1.00  0.00     0.134 A 
ATOM     70  C   UNL     1      -6.881 -14.427   8.820  1.00  0.00     0.134 A 
ATOM     71  F   UNL     1      -3.656 -15.839   9.716  1.00  0.00    -0.206 F 
ATOM     72  C   UNL     1      -5.427 -16.771   8.488  1.00  0.00     0.040 A 
ATOM     73  C   UNL     1      -7.435 -15.496   8.114  1.00  0.00     0.040 A 
ATOM     74  F   UNL     1      -7.614 -13.311   8.952  1.00  0.00    -0.206 F 
ATOM     75  C   UNL     1      -6.705 -16.671   7.943  1.00  0.00     0.006 A 
ENDBRANCH  54  68
BRANCH  55  76
ATOM     76  C   UNL     1      -2.041  -6.459  14.073  1.00  0.00     0.057 A 
ATOM     77  C   UNL     1      -1.254  -6.525  15.228  1.00  0.00     0.134 A 
ATOM     78  C   UNL     1      -2.381  -5.189  13.594  1.00  0.00     0.134 A 
ATOM     79  F   UNL     1      -0.913  -7.715  15.744  1.00  0.00    -0.206 F 
ATOM     80  C   UNL     1      -0.841  -5.373  15.898  1.00  0.00     0.040 A 
ATOM     81  C   UNL     1      -1.957  -4.028  14.242  1.00  0.00     0.040 A 
ATOM     82  F   UNL     1      -3.127  -5.060  12.487  1.00  0.00    -0.206 F 
ATOM     83  C   UNL     1      -1.191  -4.119  15.403  1.00  0.00     0.006 A 
ENDBRANCH  55  76
BRANCH  67  84
ATOM     84  C   UNL     1      -6.691 -11.346  15.760  1.00  0.00     0.057 A 
ATOM     85  C   UNL     1      -7.824 -10.564  16.014  1.00  0.00     0.134 A 
ATOM     86  C   UNL     1      -6.390 -12.371  16.665  1.00  0.00     0.134 A 
ATOM     87  F   UNL     1      -8.156  -9.559  15.190  1.00  0.00    -0.206 F 
ATOM     88  C   UNL     1      -8.620 -10.783  17.139  1.00  0.00     0.040 A 
ATOM     89  C   UNL     1      -7.190 -12.613  17.782  1.00  0.00     0.040 A 
ATOM     90  F   UNL     1      -5.321 -13.158  16.472  1.00  0.00    -0.206 F 
ATOM     91  C   UNL     1      -8.307 -11.815  18.023  1.00  0.00     0.006 A 
ENDBRANCH  67  84
ENDBRANCH  41  42
ENDBRANCH  33  36
ENDBRANCH  31  32
ENDBRANCH  30  31
ENDBRANCH   1  30
TORSDOF 17
