REMARK SMILES CC1=C([C@H](NC(=O)[C@@H]2[C@H](C)c3cc(F)ccc3N2C)C(=O)NCCCNC(=O)c2ccc(-c3c4nc(c(-c5c(F)cccc5F)c5ccc([nH]5)c(-c5c(F)cccc5F)c5nc(c(-c6c(F)cccc6F)c6ccc3[nH]6)C=C5)C=C4)cc2)[C@@H](C)N=N1
REMARK SMILES IDX 24 1 23 2 22 3 20 4 21 5 4 7 3 8 1 9 2 10 86 11 83 12 85 13
REMARK SMILES IDX 84 14 5 15 6 16 7 18 8 19 9 20 18 21 11 22 10 23 17 24 19 25
REMARK SMILES IDX 12 26 16 27 13 28 15 29 14 30 25 31 26 32 27 33 28 35 29 36
REMARK SMILES IDX 30 37 82 38 31 39 81 40 32 41 33 42 34 43 75 44 35 45 80 46
REMARK SMILES IDX 74 47 76 48 36 49 79 50 73 51 72 52 37 54 63 55 46 56 62 57
REMARK SMILES IDX 47 58 50 59 61 60 77 61 48 62 49 63 60 65 78 66 51 67 38 68
REMARK SMILES IDX 39 69 44 70 40 71 41 72 43 73 45 74 42 75 64 76 65 77 70 78
REMARK SMILES IDX 66 79 67 80 69 81 71 82 68 83 52 84 53 85 58 86 54 87 55 88
REMARK SMILES IDX 57 89 59 90 56 91
REMARK H PARENT 22 6 5 17 26 34 76 53 50 64
REMARK Flexibility Score: inf
ROOT
ATOM      1  C   UNL     1      -0.735  -0.916   5.923  1.00  0.00     0.042 C 
ENDROOT
BRANCH   1   2
ATOM      2  C   UNL     1      -1.549   0.254   5.383  1.00  0.00     0.117 C 
BRANCH   2   3
ATOM      3  N   UNL     1      -0.887   1.554   5.283  1.00  0.00    -0.354 N 
ATOM      4  C   UNL     1      -0.298   2.208   4.226  1.00  0.00     0.247 C 
ATOM      5  O   UNL     1       0.237   3.305   4.414  1.00  0.00    -0.272 OA
ATOM      6  H   UNL     1      -0.858   2.054   6.130  1.00  0.00     0.163 HD
BRANCH   4   7
ATOM      7  C   UNL     1      -0.427   1.670   2.803  1.00  0.00     0.202 C 
BRANCH   7   8
ATOM      8  C   UNL     1      -1.909   1.842   2.439  1.00  0.00     0.011 C 
ATOM      9  C   UNL     1      -2.465   0.701   0.173  1.00  0.00     0.069 C 
ATOM     10  C   UNL     1      -2.711   1.463   1.427  1.00  0.00     0.064 C 
ATOM     11  N   UNL     1      -4.002   1.925   1.554  1.00  0.00    -0.160 NA
ATOM     12  C   UNL     1      -2.854   2.671   3.317  1.00  0.00     0.156 C 
ATOM     13  N   UNL     1      -4.132   2.636   2.574  1.00  0.00    -0.181 NA
ATOM     14  C   UNL     1      -2.510   4.136   3.581  1.00  0.00     0.040 C 
ENDBRANCH   7   8
BRANCH   7  15
ATOM     15  N   UNL     1       0.118   0.314   2.839  1.00  0.00    -0.339 N 
ATOM     16  C   UNL     1       1.321  -0.145   3.382  1.00  0.00     0.244 C 
ATOM     17  H   UNL     1      -0.444  -0.376   2.420  1.00  0.00     0.164 HD
ATOM     18  O   UNL     1       1.537  -1.345   3.164  1.00  0.00    -0.273 OA
BRANCH  16  19
ATOM     19  C   UNL     1       2.319   0.750   4.283  1.00  0.00     0.178 C 
ATOM     20  C   UNL     1       3.858   0.443   4.132  1.00  0.00     0.050 C 
ATOM     21  N   UNL     1       2.044   0.654   5.789  1.00  0.00    -0.362 N 
ATOM     22  C   UNL     1       4.262  -0.013   5.505  1.00  0.00    -0.016 A 
ATOM     23  C   UNL     1       4.282  -0.579   3.091  1.00  0.00     0.015 C 
ATOM     24  C   UNL     1       3.172   0.007   6.360  1.00  0.00     0.041 A 
ATOM     25  C   UNL     1       1.814   1.895   6.547  1.00  0.00     0.144 C 
ATOM     26  C   UNL     1       5.530  -0.320   5.987  1.00  0.00     0.045 A 
ATOM     27  C   UNL     1       3.305  -0.388   7.693  1.00  0.00     0.029 A 
ATOM     28  C   UNL     1       5.666  -0.680   7.327  1.00  0.00     0.123 A 
ATOM     29  C   UNL     1       4.563  -0.744   8.177  1.00  0.00     0.041 A 
ATOM     30  F   UNL     1       6.884  -0.949   7.816  1.00  0.00    -0.207 F 
ENDBRANCH  16  19
ENDBRANCH   7  15
ENDBRANCH   4   7
ENDBRANCH   2   3
ENDBRANCH   1   2
BRANCH   1  31
ATOM     31  C   UNL     1      -0.432  -1.112   7.408  1.00  0.00     0.118 C 
BRANCH  31  32
ATOM     32  N   UNL     1      -0.358  -0.002   8.346  1.00  0.00    -0.352 N 
ATOM     33  C   UNL     1      -0.284  -0.060   9.726  1.00  0.00     0.251 C 
ATOM     34  H   UNL     1      -0.362   0.900   7.950  1.00  0.00     0.163 HD
ATOM     35  O   UNL     1      -0.074   0.948  10.399  1.00  0.00    -0.269 OA
BRANCH  33  36
ATOM     36  C   UNL     1      -0.595  -1.332  10.393  1.00  0.00     0.039 A 
ATOM     37  C   UNL     1      -0.028  -2.514   9.928  1.00  0.00     0.014 A 
ATOM     38  C   UNL     1      -1.664  -1.339  11.293  1.00  0.00     0.014 A 
ATOM     39  C   UNL     1      -0.756  -3.671  10.068  1.00  0.00     0.010 A 
ATOM     40  C   UNL     1      -2.307  -2.533  11.557  1.00  0.00     0.010 A 
ATOM     41  C   UNL     1      -1.929  -3.668  10.840  1.00  0.00    -0.014 A 
BRANCH  41  42
ATOM     42  C   UNL     1      -2.630  -4.942  10.974  1.00  0.00     0.031 A 
ATOM     43  C   UNL     1      -1.700  -6.061  11.310  1.00  0.00     0.074 A 
ATOM     44  C   UNL     1      -3.971  -5.059  10.887  1.00  0.00     0.049 A 
ATOM     45  N   UNL     1      -1.465  -7.137  10.633  1.00  0.00    -0.248 NA
ATOM     46  C   UNL     1      -0.735  -5.821  12.404  1.00  0.00     0.031 C 
ATOM     47  C   UNL     1      -4.965  -3.989  10.756  1.00  0.00     0.029 A 
ATOM     48  N   UNL     1      -4.747  -6.169  11.034  1.00  0.00    -0.354 N 
ATOM     49  C   UNL     1      -0.459  -7.803  11.332  1.00  0.00     0.074 A 
ATOM     50  C   UNL     1       0.087  -6.859  12.264  1.00  0.00     0.031 C 
ATOM     51  C   UNL     1      -6.181  -4.460  11.106  1.00  0.00     0.029 A 
ATOM     52  C   UNL     1      -6.075  -5.886  11.340  1.00  0.00     0.049 A 
ATOM     53  H   UNL     1      -4.401  -7.085  10.932  1.00  0.00     0.167 HD
ATOM     54  C   UNL     1      -0.357  -9.158  11.294  1.00  0.00     0.037 A 
ATOM     55  C   UNL     1      -6.972  -6.763  11.854  1.00  0.00     0.037 A 
ATOM     56  C   UNL     1      -0.995  -9.687  10.116  1.00  0.00     0.049 A 
ATOM     57  C   UNL     1      -6.449  -8.129  11.602  1.00  0.00     0.074 A 
ATOM     58  C   UNL     1      -0.779  -9.596   8.756  1.00  0.00     0.029 A 
ATOM     59  N   UNL     1      -2.269 -10.174  10.266  1.00  0.00    -0.354 N 
ATOM     60  N   UNL     1      -6.354  -8.656  10.412  1.00  0.00    -0.248 NA
ATOM     61  C   UNL     1      -5.594  -8.727  12.616  1.00  0.00     0.031 C 
ATOM     62  C   UNL     1      -2.079  -9.616   8.169  1.00  0.00     0.029 A 
ATOM     63  C   UNL     1      -3.014  -9.770   9.193  1.00  0.00     0.049 A 
ATOM     64  H   UNL     1      -2.591 -10.720  11.019  1.00  0.00     0.167 HD
ATOM     65  C   UNL     1      -5.144  -9.335  10.420  1.00  0.00     0.074 A 
ATOM     66  C   UNL     1      -4.766  -9.420  11.829  1.00  0.00     0.031 C 
ATOM     67  C   UNL     1      -4.432  -9.504   9.266  1.00  0.00     0.037 A 
BRANCH  54  68
ATOM     68  C   UNL     1      -0.154  -9.994  12.544  1.00  0.00     0.057 A 
ATOM     69  C   UNL     1      -0.333  -9.527  13.865  1.00  0.00     0.134 A 
ATOM     70  C   UNL     1      -0.129 -11.395  12.413  1.00  0.00     0.134 A 
ATOM     71  F   UNL     1      -0.378  -8.231  14.186  1.00  0.00    -0.206 F 
ATOM     72  C   UNL     1      -0.575 -10.377  14.945  1.00  0.00     0.040 A 
ATOM     73  C   UNL     1      -0.411 -12.253  13.482  1.00  0.00     0.040 A 
ATOM     74  F   UNL     1       0.066 -11.971  11.217  1.00  0.00    -0.206 F 
ATOM     75  C   UNL     1      -0.661 -11.743  14.749  1.00  0.00     0.006 A 
ENDBRANCH  54  68
BRANCH  55  76
ATOM     76  C   UNL     1      -8.043  -6.487  12.840  1.00  0.00     0.057 A 
ATOM     77  C   UNL     1      -7.918  -5.460  13.794  1.00  0.00     0.134 A 
ATOM     78  C   UNL     1      -9.103  -7.382  13.037  1.00  0.00     0.134 A 
ATOM     79  F   UNL     1      -6.890  -4.600  13.756  1.00  0.00    -0.206 F 
ATOM     80  C   UNL     1      -8.793  -5.328  14.876  1.00  0.00     0.040 A 
ATOM     81  C   UNL     1      -9.983  -7.266  14.123  1.00  0.00     0.040 A 
ATOM     82  F   UNL     1      -9.274  -8.424  12.211  1.00  0.00    -0.206 F 
ATOM     83  C   UNL     1      -9.825  -6.240  15.050  1.00  0.00     0.006 A 
ENDBRANCH  55  76
BRANCH  67  84
ATOM     84  C   UNL     1      -5.126  -9.172   7.975  1.00  0.00     0.057 A 
ATOM     85  C   UNL     1      -5.263 -10.174   7.010  1.00  0.00     0.134 A 
ATOM     86  C   UNL     1      -5.543  -7.881   7.615  1.00  0.00     0.134 A 
ATOM     87  F   UNL     1      -4.829 -11.419   7.263  1.00  0.00    -0.206 F 
ATOM     88  C   UNL     1      -5.804  -9.914   5.750  1.00  0.00     0.040 A 
ATOM     89  C   UNL     1      -6.120  -7.614   6.370  1.00  0.00     0.040 A 
ATOM     90  F   UNL     1      -5.356  -6.840   8.436  1.00  0.00    -0.206 F 
ATOM     91  C   UNL     1      -6.247  -8.633   5.431  1.00  0.00     0.006 A 
ENDBRANCH  67  84
ENDBRANCH  41  42
ENDBRANCH  33  36
ENDBRANCH  31  32
ENDBRANCH   1  31
TORSDOF 13
