REMARK SMILES COc1cccc([C@@H]2CN(C(=O)CSc3nc(C)n[nH]3)C[C@H]2C(=O)NCCCNC(=O)c2ccc(-c3c4nc(c(-c5c(F)cccc5F)c5ccc([nH]5)c(-c5c(F)cccc5F)c5nc(c(-c6c(F)cccc6F)c6ccc3[nH]6)C=C5)C=C4)cc2)c1
REMARK SMILES IDX 26 1 25 2 23 3 24 4 22 6 8 7 9 8 10 9 21 10 7 11 3 12 4 13
REMARK SMILES IDX 86 14 5 15 6 16 2 17 1 18 11 19 12 20 13 21 14 22 15 23
REMARK SMILES IDX 16 24 20 25 17 26 19 27 18 29 27 30 28 31 29 32 30 33 31 35
REMARK SMILES IDX 32 36 33 37 85 38 34 39 84 40 35 41 36 42 37 43 78 44 38 45
REMARK SMILES IDX 83 46 77 47 79 48 39 49 82 50 76 51 75 52 40 54 66 55 49 56
REMARK SMILES IDX 65 57 50 58 53 59 64 60 80 61 51 62 52 63 63 65 81 66 54 67
REMARK SMILES IDX 41 68 42 69 47 70 43 71 44 72 46 73 48 74 45 75 67 76 68 77
REMARK SMILES IDX 73 78 69 79 70 80 72 81 74 82 71 83 55 84 56 85 61 86 57 87
REMARK SMILES IDX 58 88 60 89 62 90 59 91
REMARK H PARENT 25 5 20 28 29 34 79 53 53 64
REMARK Flexibility Score: inf
ROOT
ATOM      1  C   UNL     1       6.067  -5.559   3.249  1.00  0.00     0.117 C 
ENDROOT
BRANCH   1   2
ATOM      2  N   UNL     1       5.113  -5.810   2.174  1.00  0.00    -0.356 N 
ATOM      3  C   UNL     1       4.486  -4.967   1.305  1.00  0.00     0.225 C 
ATOM      4  O   UNL     1       3.814  -5.476   0.405  1.00  0.00    -0.275 OA
ATOM      5  H   UNL     1       4.880  -6.759   2.054  1.00  0.00     0.163 HD
BRANCH   3   6
ATOM      6  C   UNL     1       4.562  -3.455   1.431  1.00  0.00     0.107 C 
ATOM      7  C   UNL     1       3.965  -2.962   2.763  1.00  0.00     0.053 C 
ATOM      8  C   UNL     1       4.889  -1.828   3.199  1.00  0.00     0.128 C 
ATOM      9  N   UNL     1       6.173  -2.184   2.625  1.00  0.00    -0.341 N 
ATOM     10  C   UNL     1       5.990  -2.917   1.378  1.00  0.00     0.133 C 
BRANCH   7  11
ATOM     11  C   UNL     1       2.508  -2.572   2.740  1.00  0.00    -0.039 A 
ATOM     12  C   UNL     1       0.685  -1.211   1.877  1.00  0.00     0.119 A 
ATOM     13  C   UNL     1      -0.174  -1.776   2.819  1.00  0.00     0.046 A 
ATOM     14  C   UNL     1       2.023  -1.607   1.844  1.00  0.00     0.050 A 
ATOM     15  C   UNL     1       0.286  -2.750   3.703  1.00  0.00     0.004 A 
ATOM     16  C   UNL     1       1.621  -3.148   3.662  1.00  0.00     0.004 A 
BRANCH  12  17
ATOM     17  O   UNL     1       0.125  -0.255   1.075  1.00  0.00    -0.497 OA
ATOM     18  C   UNL     1       0.799   0.013  -0.150  1.00  0.00     0.278 C 
ENDBRANCH  12  17
ENDBRANCH   7  11
BRANCH   9  19
ATOM     19  C   UNL     1       7.420  -1.851   3.086  1.00  0.00     0.233 C 
ATOM     20  O   UNL     1       8.438  -2.126   2.444  1.00  0.00    -0.274 OA
BRANCH  19  21
ATOM     21  C   UNL     1       7.556  -1.091   4.388  1.00  0.00     0.178 C 
BRANCH  21  22
ATOM     22  S   UNL     1       7.003   0.617   4.243  1.00  0.00    -0.077 SA
BRANCH  22  23
ATOM     23  C   UNL     1       7.863   1.300   2.913  1.00  0.00     0.184 A 
ATOM     24  N   UNL     1       7.781   2.563   2.571  1.00  0.00    -0.206 NA
ATOM     25  N   UNL     1       8.682   0.646   2.040  1.00  0.00    -0.254 N 
ATOM     26  C   UNL     1       8.584   2.639   1.465  1.00  0.00     0.148 A 
ATOM     27  N   UNL     1       9.149   1.484   1.096  1.00  0.00    -0.158 NA
ATOM     28  H   UNL     1       8.903  -0.312   2.094  1.00  0.00     0.192 HD
ATOM     29  C   UNL     1       8.803   3.909   0.750  1.00  0.00     0.092 C 
ENDBRANCH  22  23
ENDBRANCH  21  22
ENDBRANCH  19  21
ENDBRANCH   9  19
ENDBRANCH   3   6
ENDBRANCH   1   2
BRANCH   1  30
ATOM     30  C   UNL     1       5.503  -5.759   4.657  1.00  0.00     0.042 C 
BRANCH  30  31
ATOM     31  C   UNL     1       5.387  -7.221   5.007  1.00  0.00     0.118 C 
BRANCH  31  32
ATOM     32  N   UNL     1       6.684  -7.906   5.165  1.00  0.00    -0.352 N 
ATOM     33  C   UNL     1       6.911  -9.215   5.569  1.00  0.00     0.251 C 
ATOM     34  H   UNL     1       7.484  -7.370   4.960  1.00  0.00     0.163 HD
ATOM     35  O   UNL     1       8.024  -9.593   5.939  1.00  0.00    -0.269 OA
BRANCH  33  36
ATOM     36  C   UNL     1       5.779 -10.149   5.518  1.00  0.00     0.039 A 
ATOM     37  C   UNL     1       5.453 -11.088   6.500  1.00  0.00     0.014 A 
ATOM     38  C   UNL     1       4.924  -9.926   4.461  1.00  0.00     0.014 A 
ATOM     39  C   UNL     1       4.232 -11.752   6.375  1.00  0.00     0.010 A 
ATOM     40  C   UNL     1       3.612 -10.143   4.696  1.00  0.00     0.010 A 
ATOM     41  C   UNL     1       3.323 -11.266   5.430  1.00  0.00    -0.014 A 
BRANCH  41  42
ATOM     42  C   UNL     1       2.034 -11.843   5.107  1.00  0.00     0.031 A 
ATOM     43  C   UNL     1       1.075 -11.870   6.226  1.00  0.00     0.074 A 
ATOM     44  C   UNL     1       1.656 -12.031   3.818  1.00  0.00     0.049 A 
ATOM     45  N   UNL     1       0.657 -12.903   6.872  1.00  0.00    -0.248 NA
ATOM     46  C   UNL     1       0.648 -10.585   6.802  1.00  0.00     0.031 C 
ATOM     47  C   UNL     1       2.367 -11.712   2.565  1.00  0.00     0.029 A 
ATOM     48  N   UNL     1       0.453 -12.464   3.362  1.00  0.00    -0.354 N 
ATOM     49  C   UNL     1      -0.263 -12.421   7.793  1.00  0.00     0.074 A 
ATOM     50  C   UNL     1      -0.066 -10.996   7.852  1.00  0.00     0.031 C 
ATOM     51  C   UNL     1       1.502 -11.736   1.526  1.00  0.00     0.029 A 
ATOM     52  C   UNL     1       0.235 -12.242   2.004  1.00  0.00     0.049 A 
ATOM     53  H   UNL     1      -0.211 -12.900   3.943  1.00  0.00     0.167 HD
ATOM     54  C   UNL     1      -1.284 -13.203   8.241  1.00  0.00     0.037 A 
ATOM     55  C   UNL     1      -0.949 -12.425   1.367  1.00  0.00     0.037 A 
ATOM     56  C   UNL     1      -1.080 -14.587   7.883  1.00  0.00     0.049 A 
ATOM     57  C   UNL     1      -1.746 -13.352   2.223  1.00  0.00     0.074 A 
ATOM     58  C   UNL     1      -0.079 -15.508   8.131  1.00  0.00     0.029 A 
ATOM     59  N   UNL     1      -1.764 -15.075   6.793  1.00  0.00    -0.354 N 
ATOM     60  N   UNL     1      -1.394 -14.593   2.450  1.00  0.00    -0.248 NA
ATOM     61  C   UNL     1      -2.599 -12.752   3.241  1.00  0.00     0.031 C 
ATOM     62  C   UNL     1       0.113 -16.177   6.884  1.00  0.00     0.029 A 
ATOM     63  C   UNL     1      -0.839 -15.691   5.986  1.00  0.00     0.049 A 
ATOM     64  H   UNL     1      -2.731 -14.996   6.623  1.00  0.00     0.167 HD
ATOM     65  C   UNL     1      -1.629 -14.795   3.806  1.00  0.00     0.074 A 
ATOM     66  C   UNL     1      -2.416 -13.634   4.229  1.00  0.00     0.031 C 
ATOM     67  C   UNL     1      -0.915 -15.703   4.540  1.00  0.00     0.037 A 
BRANCH  54  68
ATOM     68  C   UNL     1      -2.627 -12.680   8.670  1.00  0.00     0.057 A 
ATOM     69  C   UNL     1      -3.513 -13.540   9.340  1.00  0.00     0.134 A 
ATOM     70  C   UNL     1      -3.189 -11.471   8.212  1.00  0.00     0.134 A 
ATOM     71  F   UNL     1      -3.096 -14.725   9.809  1.00  0.00    -0.206 F 
ATOM     72  C   UNL     1      -4.873 -13.247   9.482  1.00  0.00     0.040 A 
ATOM     73  C   UNL     1      -4.534 -11.145   8.396  1.00  0.00     0.040 A 
ATOM     74  F   UNL     1      -2.498 -10.592   7.475  1.00  0.00    -0.206 F 
ATOM     75  C   UNL     1      -5.389 -12.049   9.004  1.00  0.00     0.006 A 
ENDBRANCH  54  68
BRANCH  55  76
ATOM     76  C   UNL     1      -1.531 -11.543   0.326  1.00  0.00     0.057 A 
ATOM     77  C   UNL     1      -2.605 -11.951  -0.474  1.00  0.00     0.134 A 
ATOM     78  C   UNL     1      -1.199 -10.175   0.254  1.00  0.00     0.134 A 
ATOM     79  F   UNL     1      -3.031 -13.222  -0.441  1.00  0.00    -0.206 F 
ATOM     80  C   UNL     1      -3.309 -11.053  -1.293  1.00  0.00     0.040 A 
ATOM     81  C   UNL     1      -1.887  -9.271  -0.562  1.00  0.00     0.040 A 
ATOM     82  F   UNL     1      -0.246  -9.651   1.039  1.00  0.00    -0.206 F 
ATOM     83  C   UNL     1      -2.955  -9.707  -1.333  1.00  0.00     0.006 A 
ENDBRANCH  55  76
BRANCH  67  84
ATOM     84  C   UNL     1       0.053 -16.614   3.824  1.00  0.00     0.057 A 
ATOM     85  C   UNL     1       1.192 -16.165   3.135  1.00  0.00     0.134 A 
ATOM     86  C   UNL     1      -0.055 -17.996   4.003  1.00  0.00     0.134 A 
ATOM     87  F   UNL     1       1.449 -14.861   3.003  1.00  0.00    -0.206 F 
ATOM     88  C   UNL     1       2.152 -17.042   2.619  1.00  0.00     0.040 A 
ATOM     89  C   UNL     1       0.911 -18.885   3.518  1.00  0.00     0.040 A 
ATOM     90  F   UNL     1      -1.077 -18.507   4.707  1.00  0.00    -0.206 F 
ATOM     91  C   UNL     1       2.015 -18.410   2.816  1.00  0.00     0.006 A 
ENDBRANCH  67  84
ENDBRANCH  41  42
ENDBRANCH  33  36
ENDBRANCH  31  32
ENDBRANCH  30  31
ENDBRANCH   1  30
TORSDOF 16
