REMARK SMILES O=C(NCCCNC(=O)c1cc(F)c(F)cc1NS(=O)(=O)c1ccc2c(c1)CCC2)c1ccc(-c2c3nc(c(-c4c(F)cccc4F)c4ccc([nH]4)c(-c4c(F)cccc4F)c4nc(c(-c5c(F)cccc5F)c5ccc2[nH]5)C=C4)C=C3)cc1
REMARK SMILES IDX 5 1 4 2 3 3 1 4 2 5 31 7 32 8 84 9 33 10 83 11 34 12 35 13
REMARK SMILES IDX 36 14 77 15 37 16 82 17 76 18 78 19 38 20 81 21 75 22 74 23
REMARK SMILES IDX 39 25 65 26 48 27 64 28 49 29 52 30 63 31 79 32 50 33 51 34
REMARK SMILES IDX 62 36 80 37 53 38 40 39 41 40 46 41 42 42 43 43 45 44 47 45
REMARK SMILES IDX 44 46 66 47 67 48 72 49 68 50 69 51 71 52 73 53 70 54 54 55
REMARK SMILES IDX 55 56 60 57 56 58 57 59 59 60 61 61 58 62 6 63 7 64 8 65
REMARK SMILES IDX 9 67 10 68 11 69 17 70 12 71 16 72 13 73 14 74 15 75 18 76
REMARK SMILES IDX 19 78 20 79 21 80 22 81 23 82 27 83 24 84 26 85 25 86 28 87
REMARK SMILES IDX 30 88 29 89
REMARK H PARENT 3 6 78 24 52 35 7 66 18 77
REMARK Flexibility Score: inf
ROOT
ATOM      1  C   UNL     1       4.814  -1.384   2.156  1.00  0.00     0.042 C 
ENDROOT
BRANCH   1   2
ATOM      2  C   UNL     1       4.543  -1.230   0.663  1.00  0.00     0.118 C 
BRANCH   2   3
ATOM      3  N   UNL     1       3.121  -1.164   0.359  1.00  0.00    -0.352 N 
ATOM      4  O   UNL     1       1.137  -0.216  -0.102  1.00  0.00    -0.269 OA
ATOM      5  C   UNL     1       2.361  -0.122  -0.109  1.00  0.00     0.251 C 
ATOM      6  H   UNL     1       2.626  -2.001   0.513  1.00  0.00     0.163 HD
BRANCH   5   7
ATOM      7  C   UNL     1       2.998   1.118  -0.603  1.00  0.00     0.039 A 
ATOM      8  C   UNL     1       4.124   1.077  -1.429  1.00  0.00     0.014 A 
ATOM      9  C   UNL     1       2.420   2.349  -0.273  1.00  0.00     0.014 A 
ATOM     10  C   UNL     1       4.748   2.260  -1.813  1.00  0.00     0.010 A 
ATOM     11  C   UNL     1       3.004   3.536  -0.721  1.00  0.00     0.010 A 
ATOM     12  C   UNL     1       4.191   3.501  -1.469  1.00  0.00    -0.014 A 
BRANCH  12  13
ATOM     13  C   UNL     1       4.835   4.755  -1.930  1.00  0.00     0.031 A 
ATOM     14  C   UNL     1       5.451   5.709  -0.948  1.00  0.00     0.074 A 
ATOM     15  C   UNL     1       4.867   5.029  -3.248  1.00  0.00     0.049 A 
ATOM     16  N   UNL     1       6.025   6.865  -1.170  1.00  0.00    -0.248 NA
ATOM     17  C   UNL     1       5.411   5.321   0.471  1.00  0.00     0.031 C 
ATOM     18  C   UNL     1       4.296   4.186  -4.299  1.00  0.00     0.029 A 
ATOM     19  N   UNL     1       5.406   6.091  -3.927  1.00  0.00    -0.354 N 
ATOM     20  C   UNL     1       6.389   7.354   0.077  1.00  0.00     0.074 A 
ATOM     21  C   UNL     1       5.960   6.377   1.056  1.00  0.00     0.031 C 
ATOM     22  C   UNL     1       4.540   4.747  -5.493  1.00  0.00     0.029 A 
ATOM     23  C   UNL     1       5.241   6.010  -5.288  1.00  0.00     0.049 A 
ATOM     24  H   UNL     1       5.867   6.839  -3.483  1.00  0.00     0.167 HD
ATOM     25  C   UNL     1       7.027   8.510   0.378  1.00  0.00     0.037 A 
ATOM     26  C   UNL     1       5.599   6.865  -6.263  1.00  0.00     0.037 A 
ATOM     27  C   UNL     1       7.478   9.469  -0.596  1.00  0.00     0.049 A 
ATOM     28  C   UNL     1       6.304   8.138  -5.904  1.00  0.00     0.074 A 
ATOM     29  C   UNL     1       8.167  10.652  -0.388  1.00  0.00     0.029 A 
ATOM     30  N   UNL     1       7.286   9.354  -1.964  1.00  0.00    -0.354 N 
ATOM     31  N   UNL     1       6.656   8.579  -4.721  1.00  0.00    -0.248 NA
ATOM     32  C   UNL     1       6.656   9.036  -7.013  1.00  0.00     0.031 C 
ATOM     33  C   UNL     1       8.369  11.266  -1.630  1.00  0.00     0.029 A 
ATOM     34  C   UNL     1       7.830  10.450  -2.612  1.00  0.00     0.049 A 
ATOM     35  H   UNL     1       6.829   8.604  -2.409  1.00  0.00     0.167 HD
ATOM     36  C   UNL     1       7.280   9.798  -4.941  1.00  0.00     0.074 A 
ATOM     37  C   UNL     1       7.270  10.022  -6.373  1.00  0.00     0.031 C 
ATOM     38  C   UNL     1       7.811  10.656  -4.037  1.00  0.00     0.037 A 
BRANCH  25  39
ATOM     39  C   UNL     1       7.263   8.809   1.828  1.00  0.00     0.057 A 
ATOM     40  C   UNL     1       8.260   8.157   2.564  1.00  0.00     0.134 A 
ATOM     41  C   UNL     1       6.503   9.783   2.487  1.00  0.00     0.134 A 
ATOM     42  F   UNL     1       9.012   7.203   1.993  1.00  0.00    -0.206 F 
ATOM     43  C   UNL     1       8.481   8.451   3.910  1.00  0.00     0.040 A 
ATOM     44  C   UNL     1       6.726  10.098   3.828  1.00  0.00     0.040 A 
ATOM     45  F   UNL     1       5.534  10.445   1.837  1.00  0.00    -0.206 F 
ATOM     46  C   UNL     1       7.716   9.428   4.545  1.00  0.00     0.006 A 
ENDBRANCH  25  39
BRANCH  26  47
ATOM     47  C   UNL     1       5.289   6.531  -7.672  1.00  0.00     0.057 A 
ATOM     48  C   UNL     1       6.292   6.108  -8.549  1.00  0.00     0.134 A 
ATOM     49  C   UNL     1       3.979   6.589  -8.161  1.00  0.00     0.134 A 
ATOM     50  F   UNL     1       7.567   6.048  -8.138  1.00  0.00    -0.206 F 
ATOM     51  C   UNL     1       6.004   5.755  -9.868  1.00  0.00     0.040 A 
ATOM     52  C   UNL     1       3.673   6.221  -9.471  1.00  0.00     0.040 A 
ATOM     53  F   UNL     1       2.975   6.981  -7.363  1.00  0.00    -0.206 F 
ATOM     54  C   UNL     1       4.689   5.804 -10.330  1.00  0.00     0.006 A 
ENDBRANCH  26  47
BRANCH  38  55
ATOM     55  C   UNL     1       8.440  11.904  -4.574  1.00  0.00     0.057 A 
ATOM     56  C   UNL     1       7.665  12.992  -4.993  1.00  0.00     0.134 A 
ATOM     57  C   UNL     1       9.832  12.031  -4.639  1.00  0.00     0.134 A 
ATOM     58  F   UNL     1       6.326  12.923  -4.966  1.00  0.00    -0.206 F 
ATOM     59  C   UNL     1       8.256  14.161  -5.473  1.00  0.00     0.040 A 
ATOM     60  C   UNL     1      10.434  13.201  -5.102  1.00  0.00     0.040 A 
ATOM     61  F   UNL     1      10.627  11.023  -4.248  1.00  0.00    -0.206 F 
ATOM     62  C   UNL     1       9.645  14.270  -5.524  1.00  0.00     0.006 A 
ENDBRANCH  38  55
ENDBRANCH  12  13
ENDBRANCH   5   7
ENDBRANCH   2   3
ENDBRANCH   1   2
BRANCH   1  63
ATOM     63  C   UNL     1       4.290  -2.686   2.755  1.00  0.00     0.118 C 
BRANCH  63  64
ATOM     64  N   UNL     1       4.925  -3.843   2.144  1.00  0.00    -0.352 N 
ATOM     65  C   UNL     1       5.854  -4.700   2.671  1.00  0.00     0.253 C 
ATOM     66  H   UNL     1       4.647  -4.038   1.220  1.00  0.00     0.163 HD
ATOM     67  O   UNL     1       6.590  -5.329   1.917  1.00  0.00    -0.269 OA
BRANCH  65  68
ATOM     68  C   UNL     1       5.988  -4.871   4.133  1.00  0.00     0.067 A 
ATOM     69  C   UNL     1       4.820  -4.985   4.906  1.00  0.00     0.058 A 
ATOM     70  C   UNL     1       7.266  -5.013   4.720  1.00  0.00     0.065 A 
ATOM     71  C   UNL     1       4.919  -5.145   6.278  1.00  0.00     0.159 A 
ATOM     72  C   UNL     1       7.324  -5.189   6.107  1.00  0.00     0.070 A 
ATOM     73  F   UNL     1       3.805  -5.182   7.021  1.00  0.00    -0.204 F 
ATOM     74  C   UNL     1       6.162  -5.245   6.875  1.00  0.00     0.160 A 
ATOM     75  F   UNL     1       6.264  -5.369   8.205  1.00  0.00    -0.204 F 
BRANCH  70  76
ATOM     76  N   UNL     1       8.454  -4.741   3.938  1.00  0.00    -0.279 N 
ATOM     77  H   UNL     1       8.451  -3.976   3.318  1.00  0.00     0.180 HD
BRANCH  76  78
ATOM     78  S   UNL     1       9.850  -5.699   4.057  1.00  0.00     0.261 S 
ATOM     79  O   UNL     1       9.426  -7.082   4.089  1.00  0.00    -0.201 OA
ATOM     80  O   UNL     1      10.773  -5.210   3.056  1.00  0.00    -0.201 OA
BRANCH  78  81
ATOM     81  C   UNL     1      10.548  -5.290   5.640  1.00  0.00     0.088 A 
ATOM     82  C   UNL     1      10.887  -6.351   6.502  1.00  0.00     0.022 A 
ATOM     83  C   UNL     1      10.500  -3.964   6.090  1.00  0.00     0.026 A 
ATOM     84  C   UNL     1      11.091  -6.110   7.859  1.00  0.00     0.005 A 
ATOM     85  C   UNL     1      10.685  -3.747   7.446  1.00  0.00    -0.043 A 
ATOM     86  C   UNL     1      10.952  -4.810   8.319  1.00  0.00    -0.045 A 
ATOM     87  C   UNL     1      10.471  -2.475   8.207  1.00  0.00     0.036 C 
ATOM     88  C   UNL     1      10.913  -4.354   9.745  1.00  0.00     0.036 C 
ATOM     89  C   UNL     1      11.051  -2.836   9.583  1.00  0.00     0.010 C 
ENDBRANCH  78  81
ENDBRANCH  76  78
ENDBRANCH  70  76
ENDBRANCH  65  68
ENDBRANCH  63  64
ENDBRANCH   1  63
TORSDOF 13
