REMARK SMILES C[C@@H](O)[C@@H](NC(=O)Nc1ccc(F)cc1F)C(=O)NCCCNC(=O)c1ccc(-c2c3nc(c(-c4c(F)cccc4F)c4ccc([nH]4)c(-c4c(F)cccc4F)c4nc(c(-c5c(F)cccc5F)c5ccc2[nH]5)C=C4)C=C3)cc1
REMARK SMILES IDX 21 1 20 2 19 3 17 4 18 5 4 7 2 8 1 9 3 10 5 12 6 13 7 15
REMARK SMILES IDX 8 16 9 18 10 19 15 20 11 21 14 22 16 23 12 24 13 25 22 26
REMARK SMILES IDX 23 27 24 28 25 30 26 31 27 32 79 33 28 34 78 35 29 36 30 37
REMARK SMILES IDX 31 38 72 39 32 40 77 41 71 42 73 43 33 44 76 45 70 46 69 47
REMARK SMILES IDX 34 49 60 50 43 51 59 52 44 53 47 54 58 55 74 56 45 57 46 58
REMARK SMILES IDX 57 60 75 61 48 62 35 63 36 64 41 65 37 66 38 67 40 68 42 69
REMARK SMILES IDX 39 70 61 71 62 72 67 73 63 74 64 75 66 76 68 77 65 78 49 79
REMARK SMILES IDX 50 80 55 81 51 82 52 83 54 84 56 85 53 86
REMARK H PARENT 19 6 3 11 5 14 8 17 23 29 73 48 47 59
REMARK Flexibility Score: inf
ROOT
ATOM      1  C   UNL     1       1.436   0.699   4.824  1.00  0.00     0.042 C 
ENDROOT
BRANCH   1   2
ATOM      2  C   UNL     1       0.144   0.498   4.039  1.00  0.00     0.117 C 
BRANCH   2   3
ATOM      3  N   UNL     1      -0.274   1.769   3.485  1.00  0.00    -0.354 N 
ATOM      4  C   UNL     1      -0.243   2.169   2.188  1.00  0.00     0.245 C 
ATOM      5  O   UNL     1       0.118   3.327   1.957  1.00  0.00    -0.273 OA
ATOM      6  H   UNL     1      -0.623   2.425   4.130  1.00  0.00     0.163 HD
BRANCH   4   7
ATOM      7  C   UNL     1      -0.529   1.188   1.041  1.00  0.00     0.201 C 
BRANCH   7   8
ATOM      8  C   UNL     1       0.873   0.736   0.543  1.00  0.00     0.143 C 
ATOM      9  C   UNL     1       0.844  -0.432  -0.434  1.00  0.00     0.041 C 
BRANCH   8  10
ATOM     10  O   UNL     1       1.520   1.812  -0.156  1.00  0.00    -0.391 OA
ATOM     11  H   UNL     1       1.007   2.038  -0.948  1.00  0.00     0.211 HD
ENDBRANCH   8  10
ENDBRANCH   7   8
BRANCH   7  12
ATOM     12  N   UNL     1      -1.448   0.097   1.402  1.00  0.00    -0.323 N 
ATOM     13  C   UNL     1      -2.660   0.042   1.993  1.00  0.00     0.320 C 
ATOM     14  H   UNL     1      -1.102  -0.791   1.158  1.00  0.00     0.166 HD
ATOM     15  O   UNL     1      -3.147  -1.081   2.148  1.00  0.00    -0.248 OA
ATOM     16  N   UNL     1      -3.252   1.093   2.594  1.00  0.00    -0.305 N 
ATOM     17  H   UNL     1      -3.847   0.836   3.335  1.00  0.00     0.171 HD
BRANCH  16  18
ATOM     18  C   UNL     1      -3.195   2.475   2.379  1.00  0.00     0.079 A 
ATOM     19  C   UNL     1      -3.112   3.035   1.105  1.00  0.00     0.032 A 
ATOM     20  C   UNL     1      -3.197   3.317   3.502  1.00  0.00     0.149 A 
ATOM     21  C   UNL     1      -2.914   4.412   0.970  1.00  0.00     0.041 A 
ATOM     22  C   UNL     1      -2.981   4.682   3.376  1.00  0.00     0.080 A 
ATOM     23  F   UNL     1      -3.284   2.784   4.731  1.00  0.00    -0.205 F 
ATOM     24  C   UNL     1      -2.823   5.215   2.105  1.00  0.00     0.126 A 
ATOM     25  F   UNL     1      -2.574   6.524   1.968  1.00  0.00    -0.207 F 
ENDBRANCH  16  18
ENDBRANCH   7  12
ENDBRANCH   4   7
ENDBRANCH   2   3
ENDBRANCH   1   2
BRANCH   1  26
ATOM     26  C   UNL     1       1.324   1.750   5.924  1.00  0.00     0.118 C 
BRANCH  26  27
ATOM     27  N   UNL     1       0.309   1.431   6.916  1.00  0.00    -0.352 N 
ATOM     28  C   UNL     1       0.388   1.611   8.279  1.00  0.00     0.251 C 
ATOM     29  H   UNL     1      -0.529   1.041   6.575  1.00  0.00     0.163 HD
ATOM     30  O   UNL     1      -0.462   1.186   9.034  1.00  0.00    -0.269 OA
BRANCH  28  31
ATOM     31  C   UNL     1       1.571   2.328   8.790  1.00  0.00     0.039 A 
ATOM     32  C   UNL     1       2.443   1.665   9.653  1.00  0.00     0.014 A 
ATOM     33  C   UNL     1       1.859   3.606   8.304  1.00  0.00     0.014 A 
ATOM     34  C   UNL     1       3.648   2.275   9.993  1.00  0.00     0.010 A 
ATOM     35  C   UNL     1       3.090   4.179   8.590  1.00  0.00     0.010 A 
ATOM     36  C   UNL     1       3.991   3.520   9.440  1.00  0.00    -0.014 A 
BRANCH  36  37
ATOM     37  C   UNL     1       5.287   4.164   9.754  1.00  0.00     0.031 A 
ATOM     38  C   UNL     1       5.306   5.449  10.529  1.00  0.00     0.074 A 
ATOM     39  C   UNL     1       6.432   3.620   9.303  1.00  0.00     0.049 A 
ATOM     40  N   UNL     1       6.326   6.196  10.864  1.00  0.00    -0.248 NA
ATOM     41  C   UNL     1       4.003   5.978  10.962  1.00  0.00     0.031 C 
ATOM     42  C   UNL     1       6.533   2.394   8.510  1.00  0.00     0.029 A 
ATOM     43  N   UNL     1       7.733   4.029   9.453  1.00  0.00    -0.354 N 
ATOM     44  C   UNL     1       5.786   7.282  11.540  1.00  0.00     0.074 A 
ATOM     45  C   UNL     1       4.348   7.133  11.508  1.00  0.00     0.031 C 
ATOM     46  C   UNL     1       7.829   2.127   8.280  1.00  0.00     0.029 A 
ATOM     47  C   UNL     1       8.646   3.179   8.879  1.00  0.00     0.049 A 
ATOM     48  H   UNL     1       7.988   4.853   9.926  1.00  0.00     0.167 HD
ATOM     49  C   UNL     1       6.433   8.296  12.161  1.00  0.00     0.037 A 
ATOM     50  C   UNL     1       9.990   3.239   8.849  1.00  0.00     0.037 A 
ATOM     51  C   UNL     1       7.863   8.430  12.204  1.00  0.00     0.049 A 
ATOM     52  C   UNL     1      10.687   4.387   9.523  1.00  0.00     0.074 A 
ATOM     53  C   UNL     1       8.620   9.406  12.828  1.00  0.00     0.029 A 
ATOM     54  N   UNL     1       8.754   7.556  11.599  1.00  0.00    -0.354 N 
ATOM     55  N   UNL     1      10.168   5.391  10.189  1.00  0.00    -0.248 NA
ATOM     56  C   UNL     1      12.154   4.412   9.443  1.00  0.00     0.031 C 
ATOM     57  C   UNL     1       9.969   9.139  12.573  1.00  0.00     0.029 A 
ATOM     58  C   UNL     1      10.054   7.974  11.826  1.00  0.00     0.049 A 
ATOM     59  H   UNL     1       8.499   6.756  11.085  1.00  0.00     0.167 HD
ATOM     60  C   UNL     1      11.243   6.153  10.627  1.00  0.00     0.074 A 
ATOM     61  C   UNL     1      12.443   5.490  10.159  1.00  0.00     0.031 C 
ATOM     62  C   UNL     1      11.235   7.297  11.354  1.00  0.00     0.037 A 
BRANCH  49  63
ATOM     63  C   UNL     1       5.587   9.323  12.854  1.00  0.00     0.057 A 
ATOM     64  C   UNL     1       5.488  10.628  12.358  1.00  0.00     0.134 A 
ATOM     65  C   UNL     1       4.871   9.018  14.020  1.00  0.00     0.134 A 
ATOM     66  F   UNL     1       6.149  10.988  11.247  1.00  0.00    -0.206 F 
ATOM     67  C   UNL     1       4.706  11.593  12.996  1.00  0.00     0.040 A 
ATOM     68  C   UNL     1       4.064   9.965  14.651  1.00  0.00     0.040 A 
ATOM     69  F   UNL     1       4.910   7.780  14.537  1.00  0.00    -0.206 F 
ATOM     70  C   UNL     1       3.985  11.260  14.141  1.00  0.00     0.006 A 
ENDBRANCH  49  63
BRANCH  50  71
ATOM     71  C   UNL     1      10.761   2.146   8.208  1.00  0.00     0.057 A 
ATOM     72  C   UNL     1      10.789   1.977   6.820  1.00  0.00     0.134 A 
ATOM     73  C   UNL     1      11.463   1.219   8.987  1.00  0.00     0.134 A 
ATOM     74  F   UNL     1      10.128   2.827   6.020  1.00  0.00    -0.206 F 
ATOM     75  C   UNL     1      11.476   0.915   6.228  1.00  0.00     0.040 A 
ATOM     76  C   UNL     1      12.169   0.164   8.409  1.00  0.00     0.040 A 
ATOM     77  F   UNL     1      11.484   1.339  10.323  1.00  0.00    -0.206 F 
ATOM     78  C   UNL     1      12.170   0.006   7.024  1.00  0.00     0.006 A 
ENDBRANCH  50  71
BRANCH  62  79
ATOM     79  C   UNL     1      12.562   7.896  11.711  1.00  0.00     0.057 A 
ATOM     80  C   UNL     1      13.032   7.852  13.029  1.00  0.00     0.134 A 
ATOM     81  C   UNL     1      13.338   8.580  10.767  1.00  0.00     0.134 A 
ATOM     82  F   UNL     1      12.330   7.220  13.982  1.00  0.00    -0.206 F 
ATOM     83  C   UNL     1      14.222   8.478  13.400  1.00  0.00     0.040 A 
ATOM     84  C   UNL     1      14.542   9.191  11.121  1.00  0.00     0.040 A 
ATOM     85  F   UNL     1      12.946   8.648   9.486  1.00  0.00    -0.206 F 
ATOM     86  C   UNL     1      14.982   9.148  12.443  1.00  0.00     0.006 A 
ENDBRANCH  62  79
ENDBRANCH  36  37
ENDBRANCH  28  31
ENDBRANCH  26  27
ENDBRANCH   1  26
TORSDOF 14
