REMARK SMILES O=C(NCCCNC(=O)c1ccc(-c2c(F)cccc2F)cn1)c1ccc(-c2c3nc(c(-c4c(F)cccc4F)c4ccc([nH]4)c(-c4c(F)cccc4F)c4nc(c(-c5c(F)cccc5F)c5ccc2[nH]5)C=C4)C=C3)cc1
REMARK SMILES IDX 4 1 3 2 1 3 2 4 24 6 25 7 77 8 26 9 76 10 27 11 28 12 29 13
REMARK SMILES IDX 70 14 30 15 75 16 69 17 71 18 31 19 74 20 68 21 67 22 32 24
REMARK SMILES IDX 58 25 41 26 57 27 42 28 45 29 56 30 72 31 43 32 44 33 55 35
REMARK SMILES IDX 73 36 46 37 33 38 34 39 39 40 35 41 36 42 38 43 40 44 37 45
REMARK SMILES IDX 59 46 60 47 65 48 61 49 62 50 64 51 66 52 63 53 47 54 48 55
REMARK SMILES IDX 53 56 49 57 50 58 52 59 54 60 51 61 5 62 6 63 7 64 8 65 9 67
REMARK SMILES IDX 10 68 11 69 23 70 12 71 22 72 13 73 14 74 15 75 20 76 16 77
REMARK SMILES IDX 17 78 19 79 21 80 18 81
REMARK H PARENT 3 5 71 23 45 34 7 66
REMARK Flexibility Score: inf
ROOT
ATOM      1  C   UNL     1       4.605  -1.251   0.562  1.00  0.00     0.118 C 
ENDROOT
BRANCH   1   2
ATOM      2  N   UNL     1       3.165  -1.166   0.356  1.00  0.00    -0.352 N 
ATOM      3  O   UNL     1       1.170  -0.213  -0.061  1.00  0.00    -0.269 OA
ATOM      4  C   UNL     1       2.396  -0.150  -0.152  1.00  0.00     0.251 C 
ATOM      5  H   UNL     1       2.662  -1.968   0.625  1.00  0.00     0.163 HD
BRANCH   4   6
ATOM      6  C   UNL     1       3.022   1.030  -0.784  1.00  0.00     0.039 A 
ATOM      7  C   UNL     1       4.109   0.896  -1.651  1.00  0.00     0.014 A 
ATOM      8  C   UNL     1       2.483   2.295  -0.533  1.00  0.00     0.014 A 
ATOM      9  C   UNL     1       4.752   2.028  -2.140  1.00  0.00     0.010 A 
ATOM     10  C   UNL     1       3.072   3.426  -1.100  1.00  0.00     0.010 A 
ATOM     11  C   UNL     1       4.232   3.304  -1.881  1.00  0.00    -0.014 A 
BRANCH  11  12
ATOM     12  C   UNL     1       4.874   4.506  -2.469  1.00  0.00     0.031 A 
ATOM     13  C   UNL     1       5.480   5.560  -1.587  1.00  0.00     0.074 A 
ATOM     14  C   UNL     1       4.892   4.651  -3.807  1.00  0.00     0.049 A 
ATOM     15  N   UNL     1       6.007   6.711  -1.920  1.00  0.00    -0.248 NA
ATOM     16  C   UNL     1       5.487   5.291  -0.141  1.00  0.00     0.031 C 
ATOM     17  C   UNL     1       4.345   3.688  -4.765  1.00  0.00     0.029 A 
ATOM     18  N   UNL     1       5.382   5.662  -4.593  1.00  0.00    -0.354 N 
ATOM     19  C   UNL     1       6.387   7.313  -0.728  1.00  0.00     0.074 A 
ATOM     20  C   UNL     1       6.005   6.413   0.340  1.00  0.00     0.031 C 
ATOM     21  C   UNL     1       4.550   4.143  -6.009  1.00  0.00     0.029 A 
ATOM     22  C   UNL     1       5.179   5.457  -5.936  1.00  0.00     0.049 A 
ATOM     23  H   UNL     1       5.836   6.457  -4.231  1.00  0.00     0.167 HD
ATOM     24  C   UNL     1       7.005   8.505  -0.545  1.00  0.00     0.037 A 
ATOM     25  C   UNL     1       5.439   6.249  -6.992  1.00  0.00     0.037 A 
ATOM     26  C   UNL     1       7.388   9.387  -1.618  1.00  0.00     0.049 A 
ATOM     27  C   UNL     1       6.071   7.590  -6.764  1.00  0.00     0.074 A 
ATOM     28  C   UNL     1       8.047  10.601  -1.539  1.00  0.00     0.029 A 
ATOM     29  N   UNL     1       7.140   9.153  -2.963  1.00  0.00    -0.354 N 
ATOM     30  N   UNL     1       6.444   8.141  -5.634  1.00  0.00    -0.248 NA
ATOM     31  C   UNL     1       6.316   8.422  -7.949  1.00  0.00     0.031 C 
ATOM     32  C   UNL     1       8.144  11.130  -2.828  1.00  0.00     0.029 A 
ATOM     33  C   UNL     1       7.606  10.216  -3.720  1.00  0.00     0.049 A 
ATOM     34  H   UNL     1       6.698   8.352  -3.326  1.00  0.00     0.167 HD
ATOM     35  C   UNL     1       6.990   9.371  -5.972  1.00  0.00     0.074 A 
ATOM     36  C   UNL     1       6.902   9.486  -7.414  1.00  0.00     0.031 C 
ATOM     37  C   UNL     1       7.522  10.315  -5.157  1.00  0.00     0.037 A 
BRANCH  24  38
ATOM     38  C   UNL     1       7.284   8.939   0.866  1.00  0.00     0.057 A 
ATOM     39  C   UNL     1       6.615  10.040   1.418  1.00  0.00     0.134 A 
ATOM     40  C   UNL     1       8.245   8.305   1.664  1.00  0.00     0.134 A 
ATOM     41  F   UNL     1       5.690  10.703   0.707  1.00  0.00    -0.206 F 
ATOM     42  C   UNL     1       6.893  10.494   2.709  1.00  0.00     0.040 A 
ATOM     43  C   UNL     1       8.510   8.731   2.967  1.00  0.00     0.040 A 
ATOM     44  F   UNL     1       8.917   7.239   1.202  1.00  0.00    -0.206 F 
ATOM     45  C   UNL     1       7.838   9.834   3.490  1.00  0.00     0.006 A 
ENDBRANCH  24  38
BRANCH  25  46
ATOM     46  C   UNL     1       5.097   5.770  -8.354  1.00  0.00     0.057 A 
ATOM     47  C   UNL     1       3.765   5.618  -8.762  1.00  0.00     0.134 A 
ATOM     48  C   UNL     1       6.096   5.378  -9.250  1.00  0.00     0.134 A 
ATOM     49  F   UNL     1       2.762   5.965  -7.942  1.00  0.00    -0.206 F 
ATOM     50  C   UNL     1       3.439   5.065 -10.001  1.00  0.00     0.040 A 
ATOM     51  C   UNL     1       5.784   4.846 -10.503  1.00  0.00     0.040 A 
ATOM     52  F   UNL     1       7.389   5.511  -8.920  1.00  0.00    -0.206 F 
ATOM     53  C   UNL     1       4.451   4.677 -10.875  1.00  0.00     0.006 A 
ENDBRANCH  25  46
BRANCH  37  54
ATOM     54  C   UNL     1       8.090  11.550  -5.793  1.00  0.00     0.057 A 
ATOM     55  C   UNL     1       9.473  11.775  -5.787  1.00  0.00     0.134 A 
ATOM     56  C   UNL     1       7.271  12.560  -6.308  1.00  0.00     0.134 A 
ATOM     57  F   UNL     1      10.313  10.849  -5.298  1.00  0.00    -0.206 F 
ATOM     58  C   UNL     1      10.019  12.974  -6.246  1.00  0.00     0.040 A 
ATOM     59  C   UNL     1       7.808  13.754  -6.794  1.00  0.00     0.040 A 
ATOM     60  F   UNL     1       5.940  12.401  -6.353  1.00  0.00    -0.206 F 
ATOM     61  C   UNL     1       9.185  13.969  -6.750  1.00  0.00     0.006 A 
ENDBRANCH  37  54
ENDBRANCH  11  12
ENDBRANCH   4   6
ENDBRANCH   1   2
BRANCH   1  62
ATOM     62  C   UNL     1       4.991  -1.235   2.034  1.00  0.00     0.042 C 
BRANCH  62  63
ATOM     63  C   UNL     1       4.450  -2.414   2.830  1.00  0.00     0.118 C 
BRANCH  63  64
ATOM     64  N   UNL     1       4.940  -3.690   2.334  1.00  0.00    -0.351 N 
ATOM     65  C   UNL     1       5.773  -4.605   2.941  1.00  0.00     0.269 C 
ATOM     66  H   UNL     1       4.631  -3.937   1.433  1.00  0.00     0.163 HD
ATOM     67  O   UNL     1       6.186  -5.560   2.289  1.00  0.00    -0.268 OA
BRANCH  65  68
ATOM     68  C   UNL     1       6.133  -4.440   4.376  1.00  0.00     0.128 A 
ATOM     69  C   UNL     1       5.133  -4.288   5.326  1.00  0.00     0.035 A 
ATOM     70  N   UNL     1       7.454  -4.446   4.673  1.00  0.00    -0.250 NA
ATOM     71  C   UNL     1       5.508  -4.071   6.649  1.00  0.00     0.013 A 
ATOM     72  C   UNL     1       7.779  -4.267   5.976  1.00  0.00     0.120 A 
ATOM     73  C   UNL     1       6.862  -4.059   7.010  1.00  0.00     0.006 A 
BRANCH  73  74
ATOM     74  C   UNL     1       7.285  -3.843   8.402  1.00  0.00     0.055 A 
ATOM     75  C   UNL     1       6.670  -4.511   9.471  1.00  0.00     0.134 A 
ATOM     76  C   UNL     1       8.315  -2.950   8.732  1.00  0.00     0.134 A 
ATOM     77  F   UNL     1       5.679  -5.387   9.239  1.00  0.00    -0.206 F 
ATOM     78  C   UNL     1       7.056  -4.305  10.796  1.00  0.00     0.040 A 
ATOM     79  C   UNL     1       8.713  -2.731  10.052  1.00  0.00     0.040 A 
ATOM     80  F   UNL     1       8.942  -2.258   7.767  1.00  0.00    -0.206 F 
ATOM     81  C   UNL     1       8.081  -3.412  11.089  1.00  0.00     0.006 A 
ENDBRANCH  73  74
ENDBRANCH  65  68
ENDBRANCH  63  64
ENDBRANCH  62  63
ENDBRANCH   1  62
TORSDOF 11
