REMARK SMILES CCc1nn(C)c(N[C@@](C)(CC)C(=O)NCCCNC(=O)c2ccc(-c3c4nc(c(-c5c(F)cccc5F)c5ccc([nH]5)c(-c5c(F)cccc5F)c5nc(c(-c6c(F)cccc6F)c6ccc3[nH]6)C=C5)C=C4)cc2)c1[N+](=O)[O-]
REMARK SMILES IDX 16 1 15 2 13 3 14 4 9 6 10 7 8 8 7 10 3 11 4 12 76 13 5 14
REMARK SMILES IDX 6 15 2 16 1 17 77 18 78 19 79 20 11 21 12 22 17 23 18 24
REMARK SMILES IDX 19 25 20 26 21 28 22 29 23 30 75 31 24 32 74 33 25 34 26 35
REMARK SMILES IDX 27 36 68 37 28 38 73 39 67 40 69 41 29 42 72 43 66 44 65 45
REMARK SMILES IDX 30 47 56 48 39 49 55 50 40 51 43 52 54 53 70 54 41 55 42 56
REMARK SMILES IDX 53 58 71 59 44 60 31 61 32 62 37 63 33 64 34 65 36 66 38 67
REMARK SMILES IDX 35 68 57 69 58 70 63 71 59 72 60 73 62 74 64 75 61 76 45 77
REMARK SMILES IDX 46 78 51 79 47 80 48 81 50 82 52 83 49 84
REMARK H PARENT 15 5 8 9 19 27 69 46 43 57
REMARK Flexibility Score: inf
ROOT
ATOM      1  C   UNL     1       1.242   5.452   4.556  1.00  0.00     0.117 C 
ENDROOT
BRANCH   1   2
ATOM      2  N   UNL     1       0.738   4.247   3.935  1.00  0.00    -0.354 N 
ATOM      3  C   UNL     1       0.577   3.008   4.467  1.00  0.00     0.245 C 
ATOM      4  O   UNL     1      -0.501   2.461   4.196  1.00  0.00    -0.272 OA
ATOM      5  H   UNL     1       0.473   4.338   2.991  1.00  0.00     0.163 HD
BRANCH   3   6
ATOM      6  C   UNL     1       1.616   2.305   5.380  1.00  0.00     0.115 C 
ATOM      7  C   UNL     1       1.008   2.511   6.796  1.00  0.00     0.045 C 
BRANCH   6   8
ATOM      8  N   UNL     1       1.675   0.829   5.169  1.00  0.00    -0.351 N 
ATOM      9  H   UNL     1       1.882   0.307   5.978  1.00  0.00     0.163 HD
BRANCH   8  10
ATOM     10  C   UNL     1       1.488   0.072   4.032  1.00  0.00     0.205 A 
ATOM     11  C   UNL     1       1.014  -1.032   2.108  1.00  0.00     0.142 A 
ATOM     12  N   UNL     1       1.380  -1.979   2.973  1.00  0.00    -0.169 NA
ATOM     13  C   UNL     1       1.110   0.256   2.696  1.00  0.00     0.334 A 
ATOM     14  N   UNL     1       1.672  -1.308   4.104  1.00  0.00    -0.246 N 
ATOM     15  C   UNL     1       2.142  -2.112   5.210  1.00  0.00     0.176 C 
BRANCH  11  16
ATOM     16  C   UNL     1       0.554  -1.443   0.740  1.00  0.00     0.062 C 
ATOM     17  C   UNL     1       1.221  -0.712  -0.415  1.00  0.00     0.011 C 
ENDBRANCH  11  16
BRANCH  13  18
ATOM     18  N   UNL     1       0.841   1.451   1.969  1.00  0.00     0.068 N 
ATOM     19  O   UNL     1      -0.275   1.558   1.442  1.00  0.00    -0.258 OA
ATOM     20  O   UNL     1       1.785   2.238   1.817  1.00  0.00    -0.258 OA
ENDBRANCH  13  18
ENDBRANCH   8  10
ENDBRANCH   6   8
BRANCH   6  21
ATOM     21  C   UNL     1       3.076   2.825   5.437  1.00  0.00     0.035 C 
ATOM     22  C   UNL     1       3.987   2.458   4.275  1.00  0.00     0.007 C 
ENDBRANCH   6  21
ENDBRANCH   3   6
ENDBRANCH   1   2
BRANCH   1  23
ATOM     23  C   UNL     1       2.308   6.153   3.727  1.00  0.00     0.042 C 
BRANCH  23  24
ATOM     24  C   UNL     1       1.879   6.475   2.297  1.00  0.00     0.118 C 
BRANCH  24  25
ATOM     25  N   UNL     1       0.703   7.337   2.237  1.00  0.00    -0.352 N 
ATOM     26  C   UNL     1       0.575   8.650   1.859  1.00  0.00     0.251 C 
ATOM     27  H   UNL     1      -0.137   6.906   2.515  1.00  0.00     0.163 HD
ATOM     28  O   UNL     1      -0.475   9.250   2.079  1.00  0.00    -0.269 OA
BRANCH  26  29
ATOM     29  C   UNL     1       1.698   9.355   1.208  1.00  0.00     0.039 A 
ATOM     30  C   UNL     1       1.992  10.666   1.593  1.00  0.00     0.014 A 
ATOM     31  C   UNL     1       2.448   8.736   0.207  1.00  0.00     0.014 A 
ATOM     32  C   UNL     1       3.087  11.325   1.031  1.00  0.00     0.010 A 
ATOM     33  C   UNL     1       3.590   9.357  -0.286  1.00  0.00     0.010 A 
ATOM     34  C   UNL     1       3.922  10.659   0.118  1.00  0.00    -0.014 A 
BRANCH  34  35
ATOM     35  C   UNL     1       5.143  11.302  -0.431  1.00  0.00     0.031 A 
ATOM     36  C   UNL     1       5.271  11.537  -1.911  1.00  0.00     0.074 A 
ATOM     37  C   UNL     1       6.168  11.602   0.392  1.00  0.00     0.049 A 
ATOM     38  N   UNL     1       6.294  11.989  -2.592  1.00  0.00    -0.248 NA
ATOM     39  C   UNL     1       4.106  11.189  -2.740  1.00  0.00     0.031 C 
ATOM     40  C   UNL     1       6.184  11.384   1.840  1.00  0.00     0.029 A 
ATOM     41  N   UNL     1       7.401  12.142   0.125  1.00  0.00    -0.354 N 
ATOM     42  C   UNL     1       5.901  11.963  -3.924  1.00  0.00     0.074 A 
ATOM     43  C   UNL     1       4.571  11.397  -3.962  1.00  0.00     0.031 C 
ATOM     44  C   UNL     1       7.359  11.805   2.335  1.00  0.00     0.029 A 
ATOM     45  C   UNL     1       8.196  12.279   1.237  1.00  0.00     0.049 A 
ATOM     46  H   UNL     1       7.689  12.406  -0.779  1.00  0.00     0.167 HD
ATOM     47  C   UNL     1       6.579  12.392  -5.015  1.00  0.00     0.037 A 
ATOM     48  C   UNL     1       9.462  12.723   1.358  1.00  0.00     0.037 A 
ATOM     49  C   UNL     1       7.894  12.974  -4.971  1.00  0.00     0.049 A 
ATOM     50  C   UNL     1      10.200  13.175   0.128  1.00  0.00     0.074 A 
ATOM     51  C   UNL     1       8.643  13.492  -6.013  1.00  0.00     0.029 A 
ATOM     52  N   UNL     1       8.659  13.111  -3.822  1.00  0.00    -0.354 N 
ATOM     53  N   UNL     1       9.793  13.206  -1.118  1.00  0.00    -0.248 NA
ATOM     54  C   UNL     1      11.574  13.660   0.321  1.00  0.00     0.031 C 
ATOM     55  C   UNL     1       9.882  13.893  -5.504  1.00  0.00     0.029 A 
ATOM     56  C   UNL     1       9.882  13.682  -4.134  1.00  0.00     0.049 A 
ATOM     57  H   UNL     1       8.375  12.841  -2.918  1.00  0.00     0.167 HD
ATOM     58  C   UNL     1      10.843  13.744  -1.849  1.00  0.00     0.074 A 
ATOM     59  C   UNL     1      11.903  14.035  -0.907  1.00  0.00     0.031 C 
ATOM     60  C   UNL     1      10.922  13.979  -3.182  1.00  0.00     0.037 A 
BRANCH  47  61
ATOM     61  C   UNL     1       5.906  12.249  -6.351  1.00  0.00     0.057 A 
ATOM     62  C   UNL     1       4.785  13.012  -6.702  1.00  0.00     0.134 A 
ATOM     63  C   UNL     1       6.406  11.360  -7.312  1.00  0.00     0.134 A 
ATOM     64  F   UNL     1       4.248  13.875  -5.825  1.00  0.00    -0.206 F 
ATOM     65  C   UNL     1       4.167  12.876  -7.946  1.00  0.00     0.040 A 
ATOM     66  C   UNL     1       5.816  11.238  -8.571  1.00  0.00     0.040 A 
ATOM     67  F   UNL     1       7.482  10.603  -7.047  1.00  0.00    -0.206 F 
ATOM     68  C   UNL     1       4.688  11.992  -8.888  1.00  0.00     0.006 A 
ENDBRANCH  47  61
BRANCH  48  69
ATOM     69  C   UNL     1      10.109  12.777   2.694  1.00  0.00     0.057 A 
ATOM     70  C   UNL     1      10.410  14.002   3.301  1.00  0.00     0.134 A 
ATOM     71  C   UNL     1      10.456  11.612   3.389  1.00  0.00     0.134 A 
ATOM     72  F   UNL     1      10.119  15.153   2.678  1.00  0.00    -0.206 F 
ATOM     73  C   UNL     1      11.052  14.068   4.539  1.00  0.00     0.040 A 
ATOM     74  C   UNL     1      11.073  11.663   4.640  1.00  0.00     0.040 A 
ATOM     75  F   UNL     1      10.188  10.406   2.868  1.00  0.00    -0.206 F 
ATOM     76  C   UNL     1      11.381  12.895   5.214  1.00  0.00     0.006 A 
ENDBRANCH  48  69
BRANCH  60  77
ATOM     77  C   UNL     1      12.176  14.625  -3.697  1.00  0.00     0.057 A 
ATOM     78  C   UNL     1      13.395  13.938  -3.761  1.00  0.00     0.134 A 
ATOM     79  C   UNL     1      12.148  15.939  -4.183  1.00  0.00     0.134 A 
ATOM     80  F   UNL     1      13.493  12.682  -3.301  1.00  0.00    -0.206 F 
ATOM     81  C   UNL     1      14.546  14.543  -4.270  1.00  0.00     0.040 A 
ATOM     82  C   UNL     1      13.284  16.544  -4.721  1.00  0.00     0.040 A 
ATOM     83  F   UNL     1      11.010  16.650  -4.160  1.00  0.00    -0.206 F 
ATOM     84  C   UNL     1      14.489  15.847  -4.760  1.00  0.00     0.006 A 
ENDBRANCH  60  77
ENDBRANCH  34  35
ENDBRANCH  26  29
ENDBRANCH  24  25
ENDBRANCH  23  24
ENDBRANCH   1  23
TORSDOF 15
