REMARK SMILES O=C(NCCCNC(=O)[C@@H]1C=C[C@@H](NC(=O)c2c[nH]c(=O)[nH]2)C1)c1ccc(-c2c3nc(c(-c4c(F)cccc4F)c4ccc([nH]4)c(-c4c(F)cccc4F)c4nc(c(-c5c(F)cccc5F)c5ccc2[nH]5)C=C4)C=C3)cc1
REMARK SMILES IDX 5 1 4 2 3 3 1 4 2 5 24 7 25 8 77 9 26 10 76 11 27 12 28 13
REMARK SMILES IDX 29 14 70 15 30 16 75 17 69 18 71 19 31 20 74 21 68 22 67 23
REMARK SMILES IDX 32 25 58 26 41 27 57 28 42 29 45 30 56 31 72 32 43 33 44 34
REMARK SMILES IDX 55 36 73 37 46 38 33 39 34 40 39 41 35 42 36 43 38 44 40 45
REMARK SMILES IDX 37 46 59 47 60 48 65 49 61 50 62 51 64 52 66 53 63 54 47 55
REMARK SMILES IDX 48 56 53 57 49 58 50 59 52 60 54 61 51 62 6 63 7 64 8 65
REMARK SMILES IDX 9 67 10 68 11 69 23 70 12 71 13 72 14 73 15 74 16 76 17 77
REMARK SMILES IDX 18 78 22 79 19 80 20 81 21 84
REMARK H PARENT 3 6 71 24 45 35 7 66 14 75 22 82 19 83
REMARK Flexibility Score: inf
ROOT
ATOM      1  C   UNL     1       4.889  -3.973  -8.373  1.00  0.00     0.042 C 
ENDROOT
BRANCH   1   2
ATOM      2  C   UNL     1       4.449  -4.084  -9.825  1.00  0.00     0.118 C 
BRANCH   2   3
ATOM      3  N   UNL     1       5.271  -5.029 -10.572  1.00  0.00    -0.352 N 
ATOM      4  O   UNL     1       5.814  -6.978 -11.552  1.00  0.00    -0.269 OA
ATOM      5  C   UNL     1       4.932  -6.220 -11.163  1.00  0.00     0.251 C 
ATOM      6  H   UNL     1       6.217  -4.772 -10.667  1.00  0.00     0.163 HD
BRANCH   5   7
ATOM      7  C   UNL     1       3.509  -6.572 -11.342  1.00  0.00     0.039 A 
ATOM      8  C   UNL     1       2.591  -5.593 -11.725  1.00  0.00     0.014 A 
ATOM      9  C   UNL     1       3.093  -7.894 -11.165  1.00  0.00     0.014 A 
ATOM     10  C   UNL     1       1.240  -5.896 -11.777  1.00  0.00     0.010 A 
ATOM     11  C   UNL     1       1.746  -8.223 -11.340  1.00  0.00     0.010 A 
ATOM     12  C   UNL     1       0.806  -7.222 -11.628  1.00  0.00    -0.014 A 
BRANCH  12  13
ATOM     13  C   UNL     1      -0.624  -7.532 -11.873  1.00  0.00     0.031 A 
ATOM     14  C   UNL     1      -1.498  -8.092 -10.789  1.00  0.00     0.074 A 
ATOM     15  C   UNL     1      -1.133  -7.262 -13.091  1.00  0.00     0.049 A 
ATOM     16  N   UNL     1      -2.769  -8.402 -10.839  1.00  0.00    -0.248 NA
ATOM     17  C   UNL     1      -0.870  -8.342  -9.484  1.00  0.00     0.031 C 
ATOM     18  C   UNL     1      -0.372  -6.720 -14.222  1.00  0.00     0.029 A 
ATOM     19  N   UNL     1      -2.407  -7.382 -13.581  1.00  0.00    -0.354 N 
ATOM     20  C   UNL     1      -3.089  -8.898  -9.582  1.00  0.00     0.074 A 
ATOM     21  C   UNL     1      -1.872  -8.876  -8.799  1.00  0.00     0.031 C 
ATOM     22  C   UNL     1      -1.201  -6.505 -15.251  1.00  0.00     0.029 A 
ATOM     23  C   UNL     1      -2.532  -6.970 -14.886  1.00  0.00     0.049 A 
ATOM     24  H   UNL     1      -3.160  -7.729 -13.050  1.00  0.00     0.167 HD
ATOM     25  C   UNL     1      -4.292  -9.325  -9.127  1.00  0.00     0.037 A 
ATOM     26  C   UNL     1      -3.593  -6.991 -15.711  1.00  0.00     0.037 A 
ATOM     27  C   UNL     1      -5.495  -9.344  -9.920  1.00  0.00     0.049 A 
ATOM     28  C   UNL     1      -4.897  -7.522 -15.194  1.00  0.00     0.074 A 
ATOM     29  C   UNL     1      -6.768  -9.740  -9.547  1.00  0.00     0.029 A 
ATOM     30  N   UNL     1      -5.573  -8.961 -11.252  1.00  0.00    -0.354 N 
ATOM     31  N   UNL     1      -5.193  -7.958 -13.994  1.00  0.00    -0.248 NA
ATOM     32  C   UNL     1      -6.013  -7.568 -16.146  1.00  0.00     0.031 C 
ATOM     33  C   UNL     1      -7.602  -9.650 -10.666  1.00  0.00     0.029 A 
ATOM     34  C   UNL     1      -6.865  -9.136 -11.722  1.00  0.00     0.049 A 
ATOM     35  H   UNL     1      -4.821  -8.615 -11.785  1.00  0.00     0.167 HD
ATOM     36  C   UNL     1      -6.534  -8.309 -14.039  1.00  0.00     0.074 A 
ATOM     37  C   UNL     1      -6.997  -8.013 -15.379  1.00  0.00     0.031 C 
ATOM     38  C   UNL     1      -7.311  -8.832 -13.059  1.00  0.00     0.037 A 
BRANCH  25  39
ATOM     39  C   UNL     1      -4.362  -9.832  -7.714  1.00  0.00     0.057 A 
ATOM     40  C   UNL     1      -4.234  -8.978  -6.610  1.00  0.00     0.134 A 
ATOM     41  C   UNL     1      -4.603 -11.187  -7.452  1.00  0.00     0.134 A 
ATOM     42  F   UNL     1      -3.992  -7.670  -6.787  1.00  0.00    -0.206 F 
ATOM     43  C   UNL     1      -4.319  -9.456  -5.301  1.00  0.00     0.040 A 
ATOM     44  C   UNL     1      -4.718 -11.673  -6.149  1.00  0.00     0.040 A 
ATOM     45  F   UNL     1      -4.745 -12.061  -8.461  1.00  0.00    -0.206 F 
ATOM     46  C   UNL     1      -4.569 -10.807  -5.067  1.00  0.00     0.006 A 
ENDBRANCH  25  39
BRANCH  26  47
ATOM     47  C   UNL     1      -3.454  -6.519 -17.112  1.00  0.00     0.057 A 
ATOM     48  C   UNL     1      -4.119  -5.372 -17.561  1.00  0.00     0.134 A 
ATOM     49  C   UNL     1      -2.654  -7.203 -18.036  1.00  0.00     0.134 A 
ATOM     50  F   UNL     1      -4.911  -4.681 -16.728  1.00  0.00    -0.206 F 
ATOM     51  C   UNL     1      -4.011  -4.936 -18.882  1.00  0.00     0.040 A 
ATOM     52  C   UNL     1      -2.510  -6.759 -19.351  1.00  0.00     0.040 A 
ATOM     53  F   UNL     1      -1.980  -8.302 -17.667  1.00  0.00    -0.206 F 
ATOM     54  C   UNL     1      -3.199  -5.627 -19.780  1.00  0.00     0.006 A 
ENDBRANCH  26  47
BRANCH  38  55
ATOM     55  C   UNL     1      -8.754  -9.076 -13.394  1.00  0.00     0.057 A 
ATOM     56  C   UNL     1      -9.152 -10.094 -14.271  1.00  0.00     0.134 A 
ATOM     57  C   UNL     1      -9.760  -8.293 -12.813  1.00  0.00     0.134 A 
ATOM     58  F   UNL     1      -8.237 -10.869 -14.874  1.00  0.00    -0.206 F 
ATOM     59  C   UNL     1     -10.496 -10.305 -14.580  1.00  0.00     0.040 A 
ATOM     60  C   UNL     1     -11.109  -8.515 -13.090  1.00  0.00     0.040 A 
ATOM     61  F   UNL     1      -9.448  -7.306 -11.960  1.00  0.00    -0.206 F 
ATOM     62  C   UNL     1     -11.479  -9.518 -13.983  1.00  0.00     0.006 A 
ENDBRANCH  38  55
ENDBRANCH  12  13
ENDBRANCH   5   7
ENDBRANCH   2   3
ENDBRANCH   1   2
BRANCH   1  63
ATOM     63  C   UNL     1       6.261  -3.326  -8.239  1.00  0.00     0.117 C 
BRANCH  63  64
ATOM     64  N   UNL     1       6.197  -1.885  -8.199  1.00  0.00    -0.356 N 
ATOM     65  C   UNL     1       6.222  -0.988  -7.183  1.00  0.00     0.227 C 
ATOM     66  H   UNL     1       6.121  -1.469  -9.089  1.00  0.00     0.163 HD
ATOM     67  O   UNL     1       6.352   0.194  -7.529  1.00  0.00    -0.274 OA
BRANCH  65  68
ATOM     68  C   UNL     1       6.155  -1.320  -5.680  1.00  0.00     0.103 C 
ATOM     69  C   UNL     1       7.500  -1.557  -5.051  1.00  0.00    -0.016 C 
ATOM     70  C   UNL     1       5.336  -2.505  -5.162  1.00  0.00     0.047 C 
ATOM     71  C   UNL     1       7.588  -2.772  -4.492  1.00  0.00    -0.006 C 
ATOM     72  C   UNL     1       6.368  -3.571  -4.783  1.00  0.00     0.106 C 
BRANCH  72  73
ATOM     73  N   UNL     1       5.987  -4.425  -3.694  1.00  0.00    -0.344 N 
ATOM     74  C   UNL     1       5.709  -5.766  -3.764  1.00  0.00     0.269 C 
ATOM     75  H   UNL     1       5.919  -4.005  -2.807  1.00  0.00     0.164 HD
ATOM     76  O   UNL     1       5.097  -6.314  -2.849  1.00  0.00    -0.268 OA
BRANCH  74  77
ATOM     77  C   UNL     1       6.082  -6.543  -4.980  1.00  0.00     0.124 A 
ATOM     78  C   UNL     1       7.214  -6.536  -5.705  1.00  0.00     0.119 A 
ATOM     79  N   UNL     1       5.237  -7.488  -5.520  1.00  0.00    -0.302 N 
ATOM     80  N   UNL     1       7.082  -7.428  -6.740  1.00  0.00    -0.312 N 
ATOM     81  C   UNL     1       5.835  -8.063  -6.646  1.00  0.00     0.323 A 
ATOM     82  H   UNL     1       4.349  -7.723  -5.167  1.00  0.00     0.172 HD
ATOM     83  H   UNL     1       7.755  -7.595  -7.439  1.00  0.00     0.171 HD
ATOM     84  O   UNL     1       5.378  -8.913  -7.380  1.00  0.00    -0.248 OA
ENDBRANCH  74  77
ENDBRANCH  72  73
ENDBRANCH  65  68
ENDBRANCH  63  64
ENDBRANCH   1  63
TORSDOF 12
