REMARK SMILES CC(C)NC(=O)c1cccc(NC(=O)[C@@H]2[C@H](C(=O)NCCCNC(=O)c3ccc(-c4c5nc(c(-c6c(F)cccc6F)c6ccc([nH]6)c(-c6c(F)cccc6F)c6nc(c(-c7c(F)cccc7F)c7ccc4[nH]7)C=C6)C=C5)cc3)C2(C)C)c1
REMARK SMILES IDX 20 1 19 2 17 3 18 4 16 6 15 7 80 8 81 9 82 10 13 11 12 12
REMARK SMILES IDX 14 14 11 15 7 16 8 17 83 18 9 19 10 20 5 21 4 22 6 24 2 25
REMARK SMILES IDX 1 26 3 27 21 28 22 29 23 30 24 31 25 33 26 34 27 35 79 36
REMARK SMILES IDX 28 37 78 38 29 39 30 40 31 41 72 42 32 43 77 44 71 45 73 46
REMARK SMILES IDX 33 47 76 48 70 49 69 50 34 52 60 53 43 54 59 55 44 56 47 57
REMARK SMILES IDX 58 58 74 59 45 60 46 61 57 63 75 64 48 65 35 66 36 67 41 68
REMARK SMILES IDX 37 69 38 70 40 71 42 72 39 73 61 74 62 75 67 76 63 77 64 78
REMARK SMILES IDX 66 79 68 80 65 81 49 82 50 83 55 84 51 85 52 86 54 87 56 88
REMARK SMILES IDX 53 89
REMARK H PARENT 19 5 12 13 4 23 23 32 73 51 47 62
REMARK Flexibility Score: inf
ROOT
ATOM      1  C   UNL     1      -1.638  -4.843  -7.785  1.00  0.00     0.117 C 
ENDROOT
BRANCH   1   2
ATOM      2  N   UNL     1      -0.581  -5.731  -8.239  1.00  0.00    -0.356 N 
ATOM      3  C   UNL     1       0.521  -6.160  -7.545  1.00  0.00     0.224 C 
ATOM      4  O   UNL     1       1.274  -6.993  -8.032  1.00  0.00    -0.275 OA
ATOM      5  H   UNL     1      -0.666  -6.066  -9.161  1.00  0.00     0.163 HD
BRANCH   3   6
ATOM      6  C   UNL     1       0.657  -5.668  -6.164  1.00  0.00     0.098 C 
ATOM      7  C   UNL     1       1.892  -5.489  -5.329  1.00  0.00     0.098 C 
ATOM      8  C   UNL     1       1.142  -4.258  -5.867  1.00  0.00    -0.011 C 
ATOM      9  C   UNL     1       0.297  -3.426  -4.934  1.00  0.00     0.013 C 
ATOM     10  C   UNL     1       1.826  -3.439  -6.945  1.00  0.00     0.013 C 
BRANCH   7  11
ATOM     11  C   UNL     1       3.319  -5.662  -5.684  1.00  0.00     0.228 C 
ATOM     12  N   UNL     1       4.294  -5.005  -4.954  1.00  0.00    -0.326 N 
ATOM     13  H   UNL     1       5.210  -5.234  -5.233  1.00  0.00     0.169 HD
ATOM     14  O   UNL     1       3.665  -6.379  -6.616  1.00  0.00    -0.274 OA
BRANCH  12  15
ATOM     15  C   UNL     1       4.248  -4.074  -3.892  1.00  0.00     0.041 A 
ATOM     16  C   UNL     1       5.442  -2.369  -2.623  1.00  0.00     0.041 A 
ATOM     17  C   UNL     1       4.254  -1.989  -1.993  1.00  0.00     0.014 A 
ATOM     18  C   UNL     1       5.443  -3.426  -3.549  1.00  0.00     0.040 A 
ATOM     19  C   UNL     1       3.087  -2.682  -2.260  1.00  0.00     0.003 A 
ATOM     20  C   UNL     1       3.100  -3.730  -3.180  1.00  0.00     0.026 A 
BRANCH  16  21
ATOM     21  C   UNL     1       6.664  -1.656  -2.195  1.00  0.00     0.251 C 
ATOM     22  N   UNL     1       7.605  -1.224  -3.087  1.00  0.00    -0.350 N 
ATOM     23  H   UNL     1       8.396  -0.811  -2.671  1.00  0.00     0.164 HD
ATOM     24  O   UNL     1       6.818  -1.410  -1.000  1.00  0.00    -0.269 OA
BRANCH  22  25
ATOM     25  C   UNL     1       7.646  -1.265  -4.543  1.00  0.00     0.076 C 
ATOM     26  C   UNL     1       7.730   0.150  -5.104  1.00  0.00     0.030 C 
ATOM     27  C   UNL     1       8.842  -2.106  -4.977  1.00  0.00     0.030 C 
ENDBRANCH  22  25
ENDBRANCH  16  21
ENDBRANCH  12  15
ENDBRANCH   7  11
ENDBRANCH   3   6
ENDBRANCH   1   2
BRANCH   1  28
ATOM     28  C   UNL     1      -1.607  -3.499  -8.499  1.00  0.00     0.042 C 
BRANCH  28  29
ATOM     29  C   UNL     1      -1.876  -3.598  -9.993  1.00  0.00     0.118 C 
BRANCH  29  30
ATOM     30  N   UNL     1      -3.216  -4.085 -10.282  1.00  0.00    -0.352 N 
ATOM     31  C   UNL     1      -4.207  -3.533 -11.052  1.00  0.00     0.251 C 
ATOM     32  H   UNL     1      -3.447  -4.944  -9.860  1.00  0.00     0.163 HD
ATOM     33  O   UNL     1      -5.339  -4.007 -11.014  1.00  0.00    -0.269 OA
BRANCH  31  34
ATOM     34  C   UNL     1      -3.926  -2.358 -11.905  1.00  0.00     0.039 A 
ATOM     35  C   UNL     1      -4.885  -1.345 -11.980  1.00  0.00     0.014 A 
ATOM     36  C   UNL     1      -2.740  -2.256 -12.637  1.00  0.00     0.014 A 
ATOM     37  C   UNL     1      -4.625  -0.202 -12.737  1.00  0.00     0.010 A 
ATOM     38  C   UNL     1      -2.446  -1.079 -13.320  1.00  0.00     0.010 A 
ATOM     39  C   UNL     1      -3.386  -0.040 -13.379  1.00  0.00    -0.014 A 
BRANCH  39  40
ATOM     40  C   UNL     1      -3.059   1.220 -14.094  1.00  0.00     0.031 A 
ATOM     41  C   UNL     1      -2.793   1.215 -15.574  1.00  0.00     0.074 A 
ATOM     42  C   UNL     1      -2.955   2.366 -13.394  1.00  0.00     0.049 A 
ATOM     43  N   UNL     1      -2.469   2.213 -16.357  1.00  0.00    -0.248 NA
ATOM     44  C   UNL     1      -2.879  -0.083 -16.261  1.00  0.00     0.031 C 
ATOM     45  C   UNL     1      -3.139   2.494 -11.947  1.00  0.00     0.029 A 
ATOM     46  N   UNL     1      -2.666   3.644 -13.804  1.00  0.00    -0.354 N 
ATOM     47  C   UNL     1      -2.308   1.664 -17.623  1.00  0.00     0.074 A 
ATOM     48  C   UNL     1      -2.511   0.237 -17.493  1.00  0.00     0.031 C 
ATOM     49  C   UNL     1      -2.991   3.780 -11.596  1.00  0.00     0.029 A 
ATOM     50  C   UNL     1      -2.657   4.561 -12.782  1.00  0.00     0.049 A 
ATOM     51  H   UNL     1      -2.482   3.880 -14.742  1.00  0.00     0.167 HD
ATOM     52  C   UNL     1      -2.039   2.294 -18.792  1.00  0.00     0.037 A 
ATOM     53  C   UNL     1      -2.401   5.883 -12.796  1.00  0.00     0.037 A 
ATOM     54  C   UNL     1      -1.846   3.716 -18.919  1.00  0.00     0.049 A 
ATOM     55  C   UNL     1      -2.080   6.554 -14.103  1.00  0.00     0.074 A 
ATOM     56  C   UNL     1      -1.624   4.455 -20.067  1.00  0.00     0.029 A 
ATOM     57  N   UNL     1      -1.841   4.612 -17.860  1.00  0.00    -0.354 N 
ATOM     58  N   UNL     1      -2.008   6.034 -15.304  1.00  0.00    -0.248 NA
ATOM     59  C   UNL     1      -1.812   7.997 -14.056  1.00  0.00     0.031 C 
ATOM     60  C   UNL     1      -1.425   5.789 -19.697  1.00  0.00     0.029 A 
ATOM     61  C   UNL     1      -1.587   5.893 -18.326  1.00  0.00     0.049 A 
ATOM     62  H   UNL     1      -1.995   4.373 -16.918  1.00  0.00     0.167 HD
ATOM     63  C   UNL     1      -1.712   7.089 -16.158  1.00  0.00     0.074 A 
ATOM     64  C   UNL     1      -1.642   8.281 -15.339  1.00  0.00     0.031 C 
ATOM     65  C   UNL     1      -1.516   7.072 -17.500  1.00  0.00     0.037 A 
BRANCH  52  66
ATOM     66  C   UNL     1      -1.933   1.447 -20.029  1.00  0.00     0.057 A 
ATOM     67  C   UNL     1      -3.048   0.808 -20.588  1.00  0.00     0.134 A 
ATOM     68  C   UNL     1      -0.708   1.302 -20.694  1.00  0.00     0.134 A 
ATOM     69  F   UNL     1      -4.250   0.897 -19.998  1.00  0.00    -0.206 F 
ATOM     70  C   UNL     1      -2.943   0.033 -21.745  1.00  0.00     0.040 A 
ATOM     71  C   UNL     1      -0.597   0.555 -21.868  1.00  0.00     0.040 A 
ATOM     72  F   UNL     1       0.400   1.892 -20.219  1.00  0.00    -0.206 F 
ATOM     73  C   UNL     1      -1.716  -0.088 -22.393  1.00  0.00     0.006 A 
ENDBRANCH  52  66
BRANCH  53  74
ATOM     74  C   UNL     1      -2.450   6.665 -11.533  1.00  0.00     0.057 A 
ATOM     75  C   UNL     1      -3.442   7.627 -11.315  1.00  0.00     0.134 A 
ATOM     76  C   UNL     1      -1.500   6.479 -10.521  1.00  0.00     0.134 A 
ATOM     77  F   UNL     1      -4.370   7.864 -12.254  1.00  0.00    -0.206 F 
ATOM     78  C   UNL     1      -3.475   8.394 -10.149  1.00  0.00     0.040 A 
ATOM     79  C   UNL     1      -1.538   7.217  -9.338  1.00  0.00     0.040 A 
ATOM     80  F   UNL     1      -0.528   5.565 -10.663  1.00  0.00    -0.206 F 
ATOM     81  C   UNL     1      -2.522   8.185  -9.154  1.00  0.00     0.006 A 
ENDBRANCH  53  74
BRANCH  65  82
ATOM     82  C   UNL     1      -1.236   8.388 -18.168  1.00  0.00     0.057 A 
ATOM     83  C   UNL     1      -0.032   9.078 -17.977  1.00  0.00     0.134 A 
ATOM     84  C   UNL     1      -2.177   8.962 -19.034  1.00  0.00     0.134 A 
ATOM     85  F   UNL     1       0.907   8.591 -17.151  1.00  0.00    -0.206 F 
ATOM     86  C   UNL     1       0.213  10.305 -18.596  1.00  0.00     0.040 A 
ATOM     87  C   UNL     1      -1.930  10.172 -19.684  1.00  0.00     0.040 A 
ATOM     88  F   UNL     1      -3.348   8.351 -19.271  1.00  0.00    -0.206 F 
ATOM     89  C   UNL     1      -0.735  10.852 -19.458  1.00  0.00     0.006 A 
ENDBRANCH  65  82
ENDBRANCH  39  40
ENDBRANCH  31  34
ENDBRANCH  29  30
ENDBRANCH  28  29
ENDBRANCH   1  28
TORSDOF 14
