REMARK SMILES CC(=O)N(c1ccccc1)c1nc(/C=C(/C#N)C(=O)NCCCNC(=O)c2ccc(-c3c4nc(c(-c5c(F)cccc5F)c5ccc([nH]5)c(-c5c(F)cccc5F)c5nc(c(-c6c(F)cccc6F)c6ccc3[nH]6)C=C5)C=C4)cc2)cs1
REMARK SMILES IDX 21 1 20 2 18 3 19 4 15 6 14 7 13 8 11 9 12 10 82 11 81 12
REMARK SMILES IDX 4 13 2 14 1 15 3 16 5 17 6 18 10 19 7 20 9 21 8 22 16 23
REMARK SMILES IDX 17 24 22 25 23 26 24 27 25 28 26 30 27 31 28 32 80 33 29 34
REMARK SMILES IDX 79 35 30 36 31 37 32 38 73 39 33 40 78 41 72 42 74 43 34 44
REMARK SMILES IDX 77 45 71 46 70 47 35 49 61 50 44 51 60 52 45 53 48 54 59 55
REMARK SMILES IDX 75 56 46 57 47 58 58 60 76 61 49 62 36 63 37 64 42 65 38 66
REMARK SMILES IDX 39 67 41 68 43 69 40 70 62 71 63 72 68 73 64 74 65 75 67 76
REMARK SMILES IDX 69 77 66 78 50 79 51 80 56 81 52 82 53 83 55 84 57 85 54 86
REMARK H PARENT 20 5 24 29 74 48 48 59
REMARK Flexibility Score: inf
ROOT
ATOM      1  C   UNL     1      -2.252  -3.184  10.055  1.00  0.00     0.118 C 
ENDROOT
BRANCH   1   2
ATOM      2  N   UNL     1      -1.356  -3.554   8.966  1.00  0.00    -0.351 N 
ATOM      3  C   UNL     1      -1.551  -3.649   7.619  1.00  0.00     0.262 C 
ATOM      4  O   UNL     1      -0.838  -4.452   7.018  1.00  0.00    -0.268 OA
ATOM      5  H   UNL     1      -0.442  -3.777   9.257  1.00  0.00     0.163 HD
BRANCH   3   6
ATOM      6  C   UNL     1      -2.561  -2.803   6.894  1.00  0.00     0.119 C 
ATOM      7  C   UNL     1      -2.289  -2.229   5.702  1.00  0.00     0.054 C 
BRANCH   7   8
ATOM      8  C   UNL     1      -1.045  -2.222   4.969  1.00  0.00     0.078 A 
ATOM      9  C   UNL     1       0.130  -2.066   3.092  1.00  0.00     0.197 A 
ATOM     10  N   UNL     1      -1.082  -1.954   3.607  1.00  0.00    -0.220 NA
ATOM     11  S   UNL     1       1.373  -2.474   4.213  1.00  0.00    -0.104 S 
ATOM     12  C   UNL     1       0.228  -2.388   5.478  1.00  0.00     0.097 A 
BRANCH   9  13
ATOM     13  N   UNL     1       0.554  -1.733   1.804  1.00  0.00    -0.256 N 
BRANCH  13  14
ATOM     14  C   UNL     1       0.211  -0.458   1.366  1.00  0.00     0.230 C 
ATOM     15  C   UNL     1       0.472  -0.124  -0.086  1.00  0.00     0.115 C 
ATOM     16  O   UNL     1      -0.269   0.425   2.085  1.00  0.00    -0.274 OA
ENDBRANCH  13  14
BRANCH  13  17
ATOM     17  C   UNL     1       1.416  -2.653   1.131  1.00  0.00     0.051 A 
ATOM     18  C   UNL     1       1.083  -4.018   1.073  1.00  0.00     0.027 A 
ATOM     19  C   UNL     1       2.611  -2.234   0.529  1.00  0.00     0.027 A 
ATOM     20  C   UNL     1       1.907  -4.928   0.404  1.00  0.00     0.002 A 
ATOM     21  C   UNL     1       3.441  -3.148  -0.129  1.00  0.00     0.002 A 
ATOM     22  C   UNL     1       3.085  -4.493  -0.198  1.00  0.00     0.000 A 
ENDBRANCH  13  17
ENDBRANCH   9  13
ENDBRANCH   7   8
BRANCH   6  23
ATOM     23  C   UNL     1      -3.907  -2.736   7.596  1.00  0.00     0.105 C 
ATOM     24  N   UNL     1      -5.024  -2.680   8.179  1.00  0.00    -0.192 NA
ENDBRANCH   6  23
ENDBRANCH   3   6
ENDBRANCH   1   2
BRANCH   1  25
ATOM     25  C   UNL     1      -3.062  -4.407  10.500  1.00  0.00     0.042 C 
BRANCH  25  26
ATOM     26  C   UNL     1      -2.217  -5.434  11.255  1.00  0.00     0.118 C 
BRANCH  26  27
ATOM     27  N   UNL     1      -1.804  -4.931  12.557  1.00  0.00    -0.352 N 
ATOM     28  C   UNL     1      -2.013  -5.459  13.801  1.00  0.00     0.251 C 
ATOM     29  H   UNL     1      -1.300  -4.085  12.540  1.00  0.00     0.163 HD
ATOM     30  O   UNL     1      -1.817  -4.760  14.798  1.00  0.00    -0.269 OA
BRANCH  28  31
ATOM     31  C   UNL     1      -2.459  -6.856  13.964  1.00  0.00     0.039 A 
ATOM     32  C   UNL     1      -3.408  -7.151  14.947  1.00  0.00     0.014 A 
ATOM     33  C   UNL     1      -1.894  -7.884  13.202  1.00  0.00     0.014 A 
ATOM     34  C   UNL     1      -3.813  -8.472  15.147  1.00  0.00     0.010 A 
ATOM     35  C   UNL     1      -2.341  -9.193  13.363  1.00  0.00     0.010 A 
ATOM     36  C   UNL     1      -3.294  -9.501  14.346  1.00  0.00    -0.014 A 
BRANCH  36  37
ATOM     37  C   UNL     1      -3.716 -10.910  14.537  1.00  0.00     0.031 A 
ATOM     38  C   UNL     1      -2.726 -11.933  15.020  1.00  0.00     0.074 A 
ATOM     39  C   UNL     1      -4.970 -11.278  14.216  1.00  0.00     0.049 A 
ATOM     40  N   UNL     1      -2.875 -13.225  15.165  1.00  0.00    -0.248 NA
ATOM     41  C   UNL     1      -1.381 -11.442  15.358  1.00  0.00     0.031 C 
ATOM     42  C   UNL     1      -6.009 -10.384  13.701  1.00  0.00     0.029 A 
ATOM     43  N   UNL     1      -5.579 -12.506  14.263  1.00  0.00    -0.354 N 
ATOM     44  C   UNL     1      -1.642 -13.703  15.589  1.00  0.00     0.074 A 
ATOM     45  C   UNL     1      -0.743 -12.570  15.637  1.00  0.00     0.031 C 
ATOM     46  C   UNL     1      -7.131 -11.091  13.494  1.00  0.00     0.029 A 
ATOM     47  C   UNL     1      -6.882 -12.489  13.829  1.00  0.00     0.049 A 
ATOM     48  H   UNL     1      -5.126 -13.321  14.578  1.00  0.00     0.167 HD
ATOM     49  C   UNL     1      -1.295 -14.968  15.926  1.00  0.00     0.037 A 
ATOM     50  C   UNL     1      -7.772 -13.492  13.709  1.00  0.00     0.037 A 
ATOM     51  C   UNL     1      -2.201 -16.086  15.908  1.00  0.00     0.049 A 
ATOM     52  C   UNL     1      -7.367 -14.885  14.101  1.00  0.00     0.074 A 
ATOM     53  C   UNL     1      -1.964 -17.396  16.288  1.00  0.00     0.029 A 
ATOM     54  N   UNL     1      -3.522 -16.023  15.490  1.00  0.00    -0.354 N 
ATOM     55  N   UNL     1      -6.213 -15.313  14.551  1.00  0.00    -0.248 NA
ATOM     56  C   UNL     1      -8.389 -15.932  13.972  1.00  0.00     0.031 C 
ATOM     57  C   UNL     1      -3.132 -18.133  16.069  1.00  0.00     0.029 A 
ATOM     58  C   UNL     1      -4.108 -17.274  15.590  1.00  0.00     0.049 A 
ATOM     59  H   UNL     1      -3.975 -15.210  15.171  1.00  0.00     0.167 HD
ATOM     60  C   UNL     1      -6.377 -16.672  14.785  1.00  0.00     0.074 A 
ATOM     61  C   UNL     1      -7.746 -16.994  14.437  1.00  0.00     0.031 C 
ATOM     62  C   UNL     1      -5.475 -17.573  15.247  1.00  0.00     0.037 A 
BRANCH  49  63
ATOM     63  C   UNL     1       0.126 -15.206  16.346  1.00  0.00     0.057 A 
ATOM     64  C   UNL     1       0.621 -14.743  17.573  1.00  0.00     0.134 A 
ATOM     65  C   UNL     1       1.003 -15.929  15.528  1.00  0.00     0.134 A 
ATOM     66  F   UNL     1      -0.165 -14.034  18.398  1.00  0.00    -0.206 F 
ATOM     67  C   UNL     1       1.944 -14.966  17.958  1.00  0.00     0.040 A 
ATOM     68  C   UNL     1       2.321 -16.180  15.914  1.00  0.00     0.040 A 
ATOM     69  F   UNL     1       0.593 -16.406  14.343  1.00  0.00    -0.206 F 
ATOM     70  C   UNL     1       2.797 -15.692  17.129  1.00  0.00     0.006 A 
ENDBRANCH  49  63
BRANCH  50  71
ATOM     71  C   UNL     1      -9.144 -13.209  13.221  1.00  0.00     0.057 A 
ATOM     72  C   UNL     1     -10.239 -13.253  14.091  1.00  0.00     0.134 A 
ATOM     73  C   UNL     1      -9.393 -12.885  11.882  1.00  0.00     0.134 A 
ATOM     74  F   UNL     1     -10.063 -13.574  15.381  1.00  0.00    -0.206 F 
ATOM     75  C   UNL     1     -11.537 -13.001  13.645  1.00  0.00     0.040 A 
ATOM     76  C   UNL     1     -10.684 -12.609  11.427  1.00  0.00     0.040 A 
ATOM     77  F   UNL     1      -8.384 -12.819  11.002  1.00  0.00    -0.206 F 
ATOM     78  C   UNL     1     -11.761 -12.673  12.309  1.00  0.00     0.006 A 
ENDBRANCH  50  71
BRANCH  62  79
ATOM     79  C   UNL     1      -5.952 -18.982  15.434  1.00  0.00     0.057 A 
ATOM     80  C   UNL     1      -6.174 -19.835  14.347  1.00  0.00     0.134 A 
ATOM     81  C   UNL     1      -6.154 -19.500  16.719  1.00  0.00     0.134 A 
ATOM     82  F   UNL     1      -6.011 -19.394  13.091  1.00  0.00    -0.206 F 
ATOM     83  C   UNL     1      -6.601 -21.151  14.531  1.00  0.00     0.040 A 
ATOM     84  C   UNL     1      -6.559 -20.820  16.917  1.00  0.00     0.040 A 
ATOM     85  F   UNL     1      -5.951 -18.734  17.802  1.00  0.00    -0.206 F 
ATOM     86  C   UNL     1      -6.788 -21.648  15.820  1.00  0.00     0.006 A 
ENDBRANCH  62  79
ENDBRANCH  36  37
ENDBRANCH  28  31
ENDBRANCH  26  27
ENDBRANCH  25  26
ENDBRANCH   1  25
TORSDOF 15
