REMARK SMILES C[C@@H](C(=O)NCCCNC(=O)c1ccc(-c2c3nc(c(-c4c(F)cccc4F)c4ccc([nH]4)c(-c4c(F)cccc4F)c4nc(c(-c5c(F)cccc5F)c5ccc2[nH]5)C=C4)C=C3)cc1)c1ccc2c3cc(Cl)ccc3n(C(=O)c3cocn3)c2c1
REMARK SMILES IDX 6 1 5 2 3 3 4 4 2 6 1 7 66 8 67 9 86 10 68 11 85 12 69 13
REMARK SMILES IDX 77 14 70 15 76 16 71 17 75 18 72 19 74 20 73 21 78 22 79 23
REMARK SMILES IDX 80 24 81 25 84 26 82 27 83 28 7 29 8 30 9 31 10 32 11 34
REMARK SMILES IDX 12 35 13 36 65 37 14 38 64 39 15 40 16 41 17 42 58 43 18 44
REMARK SMILES IDX 63 45 57 46 59 47 19 48 62 49 56 50 55 51 20 53 46 54 29 55
REMARK SMILES IDX 45 56 30 57 33 58 44 59 60 60 31 61 32 62 43 64 61 65 34 66
REMARK SMILES IDX 21 67 22 68 27 69 23 70 24 71 26 72 28 73 25 74 47 75 48 76
REMARK SMILES IDX 53 77 49 78 50 79 52 80 54 81 51 82 35 83 36 84 41 85 37 86
REMARK SMILES IDX 38 87 40 88 42 89 39 90
REMARK H PARENT 5 5 9 33 59 52 33 63
REMARK Flexibility Score: inf
ROOT
ATOM      1  C   UNL     1       3.583   0.803   1.687  1.00  0.00     0.117 C 
ENDROOT
BRANCH   1   2
ATOM      2  N   UNL     1       2.614   1.864   1.883  1.00  0.00    -0.356 N 
ATOM      3  C   UNL     1       1.274   1.913   1.630  1.00  0.00     0.227 C 
ATOM      4  O   UNL     1       0.731   2.999   1.840  1.00  0.00    -0.274 OA
ATOM      5  H   UNL     1       2.987   2.691   2.266  1.00  0.00     0.163 HD
BRANCH   3   6
ATOM      6  C   UNL     1       0.536   0.654   1.147  1.00  0.00     0.105 C 
ATOM      7  C   UNL     1       0.901   0.262  -0.286  1.00  0.00     0.023 C 
BRANCH   6   8
ATOM      8  C   UNL     1      -0.989   0.718   1.216  1.00  0.00    -0.034 A 
ATOM      9  C   UNL     1      -1.714   1.826   0.774  1.00  0.00     0.005 A 
ATOM     10  C   UNL     1      -1.683  -0.440   1.610  1.00  0.00     0.032 A 
ATOM     11  C   UNL     1      -3.110   1.800   0.721  1.00  0.00     0.011 A 
ATOM     12  C   UNL     1      -3.093  -0.468   1.556  1.00  0.00     0.058 A 
ATOM     13  C   UNL     1      -3.806   0.634   1.096  1.00  0.00     0.008 A 
ATOM     14  N   UNL     1      -4.004  -1.496   1.847  1.00  0.00    -0.274 N 
ATOM     15  C   UNL     1      -5.185   0.298   1.129  1.00  0.00     0.009 A 
ATOM     16  C   UNL     1      -5.303  -0.993   1.657  1.00  0.00     0.057 A 
ATOM     17  C   UNL     1      -6.344   1.026   0.782  1.00  0.00     0.031 A 
ATOM     18  C   UNL     1      -6.576  -1.521   1.954  1.00  0.00     0.029 A 
ATOM     19  C   UNL     1      -7.597   0.473   1.023  1.00  0.00     0.041 A 
ATOM     20  C   UNL     1      -7.714  -0.776   1.617  1.00  0.00     0.023 A 
ATOM     21  Cl  UNL     1      -9.010   1.366   0.614  1.00  0.00    -0.084 Cl
BRANCH  14  22
ATOM     22  C   UNL     1      -3.629  -2.799   2.275  1.00  0.00     0.284 C 
ATOM     23  O   UNL     1      -2.534  -2.879   2.857  1.00  0.00    -0.266 OA
BRANCH  22  24
ATOM     24  C   UNL     1      -4.385  -4.023   2.045  1.00  0.00     0.167 A 
ATOM     25  C   UNL     1      -5.289  -4.317   1.044  1.00  0.00     0.231 A 
ATOM     26  N   UNL     1      -4.176  -5.177   2.791  1.00  0.00    -0.211 NA
ATOM     27  O   UNL     1      -5.665  -5.623   1.167  1.00  0.00    -0.451 OA
ATOM     28  C   UNL     1      -4.944  -6.076   2.227  1.00  0.00     0.308 A 
ENDBRANCH  22  24
ENDBRANCH  14  22
ENDBRANCH   6   8
ENDBRANCH   3   6
ENDBRANCH   1   2
BRANCH   1  29
ATOM     29  C   UNL     1       4.439   1.040   0.445  1.00  0.00     0.042 C 
BRANCH  29  30
ATOM     30  C   UNL     1       5.142   2.392   0.410  1.00  0.00     0.118 C 
BRANCH  30  31
ATOM     31  N   UNL     1       6.090   2.564   1.499  1.00  0.00    -0.352 N 
ATOM     32  C   UNL     1       7.439   2.819   1.453  1.00  0.00     0.251 C 
ATOM     33  H   UNL     1       5.709   2.487   2.403  1.00  0.00     0.163 HD
ATOM     34  O   UNL     1       8.107   2.763   2.478  1.00  0.00    -0.269 OA
BRANCH  32  35
ATOM     35  C   UNL     1       8.090   3.134   0.164  1.00  0.00     0.039 A 
ATOM     36  C   UNL     1       9.301   2.510  -0.147  1.00  0.00     0.014 A 
ATOM     37  C   UNL     1       7.518   4.043  -0.730  1.00  0.00     0.014 A 
ATOM     38  C   UNL     1       9.905   2.746  -1.383  1.00  0.00     0.010 A 
ATOM     39  C   UNL     1       8.081   4.220  -1.991  1.00  0.00     0.010 A 
ATOM     40  C   UNL     1       9.281   3.575  -2.329  1.00  0.00    -0.014 A 
BRANCH  40  41
ATOM     41  C   UNL     1       9.864   3.782  -3.678  1.00  0.00     0.031 A 
ATOM     42  C   UNL     1      10.322   5.149  -4.101  1.00  0.00     0.074 A 
ATOM     43  C   UNL     1       9.908   2.755  -4.549  1.00  0.00     0.049 A 
ATOM     44  N   UNL     1      10.770   5.548  -5.264  1.00  0.00    -0.248 NA
ATOM     45  C   UNL     1      10.240   6.215  -3.090  1.00  0.00     0.031 C 
ATOM     46  C   UNL     1       9.447   1.393  -4.276  1.00  0.00     0.029 A 
ATOM     47  N   UNL     1      10.344   2.704  -5.849  1.00  0.00    -0.354 N 
ATOM     48  C   UNL     1      11.003   6.911  -5.130  1.00  0.00     0.074 A 
ATOM     49  C   UNL     1      10.601   7.279  -3.790  1.00  0.00     0.031 C 
ATOM     50  C   UNL     1       9.633   0.638  -5.370  1.00  0.00     0.029 A 
ATOM     51  C   UNL     1      10.191   1.470  -6.432  1.00  0.00     0.049 A 
ATOM     52  H   UNL     1      10.729   3.478  -6.319  1.00  0.00     0.167 HD
ATOM     53  C   UNL     1      11.524   7.773  -6.035  1.00  0.00     0.037 A 
ATOM     54  C   UNL     1      10.457   1.058  -7.686  1.00  0.00     0.037 A 
ATOM     55  C   UNL     1      11.945   7.399  -7.360  1.00  0.00     0.049 A 
ATOM     56  C   UNL     1      11.037   2.031  -8.673  1.00  0.00     0.074 A 
ATOM     57  C   UNL     1      12.548   8.183  -8.327  1.00  0.00     0.029 A 
ATOM     58  N   UNL     1      11.803   6.131  -7.904  1.00  0.00    -0.354 N 
ATOM     59  N   UNL     1      11.320   3.301  -8.511  1.00  0.00    -0.248 NA
ATOM     60  C   UNL     1      11.340   1.515 -10.015  1.00  0.00     0.031 C 
ATOM     61  C   UNL     1      12.731   7.401  -9.472  1.00  0.00     0.029 A 
ATOM     62  C   UNL     1      12.285   6.117  -9.202  1.00  0.00     0.049 A 
ATOM     63  H   UNL     1      11.416   5.355  -7.436  1.00  0.00     0.167 HD
ATOM     64  C   UNL     1      11.855   3.729  -9.719  1.00  0.00     0.074 A 
ATOM     65  C   UNL     1      11.869   2.580 -10.601  1.00  0.00     0.031 C 
ATOM     66  C   UNL     1      12.296   4.963 -10.066  1.00  0.00     0.037 A 
BRANCH  53  67
ATOM     67  C   UNL     1      11.665   9.209  -5.619  1.00  0.00     0.057 A 
ATOM     68  C   UNL     1      12.605   9.611  -4.660  1.00  0.00     0.134 A 
ATOM     69  C   UNL     1      10.866  10.203  -6.196  1.00  0.00     0.134 A 
ATOM     70  F   UNL     1      13.394   8.707  -4.060  1.00  0.00    -0.206 F 
ATOM     71  C   UNL     1      12.723  10.946  -4.268  1.00  0.00     0.040 A 
ATOM     72  C   UNL     1      10.994  11.545  -5.833  1.00  0.00     0.040 A 
ATOM     73  F   UNL     1       9.950   9.889  -7.125  1.00  0.00    -0.206 F 
ATOM     74  C   UNL     1      11.919  11.918  -4.860  1.00  0.00     0.006 A 
ENDBRANCH  53  67
BRANCH  54  75
ATOM     75  C   UNL     1      10.189  -0.350  -8.072  1.00  0.00     0.057 A 
ATOM     76  C   UNL     1      11.236  -1.250  -8.297  1.00  0.00     0.134 A 
ATOM     77  C   UNL     1       8.882  -0.831  -8.217  1.00  0.00     0.134 A 
ATOM     78  F   UNL     1      12.510  -0.843  -8.191  1.00  0.00    -0.206 F 
ATOM     79  C   UNL     1      10.996  -2.574  -8.668  1.00  0.00     0.040 A 
ATOM     80  C   UNL     1       8.626  -2.158  -8.564  1.00  0.00     0.040 A 
ATOM     81  F   UNL     1       7.835  -0.020  -8.007  1.00  0.00    -0.206 F 
ATOM     82  C   UNL     1       9.686  -3.033  -8.796  1.00  0.00     0.006 A 
ENDBRANCH  54  75
BRANCH  66  83
ATOM     83  C   UNL     1      12.857   5.130 -11.447  1.00  0.00     0.057 A 
ATOM     84  C   UNL     1      12.036   5.150 -12.580  1.00  0.00     0.134 A 
ATOM     85  C   UNL     1      14.231   5.320 -11.638  1.00  0.00     0.134 A 
ATOM     86  F   UNL     1      10.713   4.959 -12.465  1.00  0.00    -0.206 F 
ATOM     87  C   UNL     1      12.564   5.337 -13.859  1.00  0.00     0.040 A 
ATOM     88  C   UNL     1      14.768   5.532 -12.909  1.00  0.00     0.040 A 
ATOM     89  F   UNL     1      15.072   5.319 -10.593  1.00  0.00    -0.206 F 
ATOM     90  C   UNL     1      13.933   5.537 -14.024  1.00  0.00     0.006 A 
ENDBRANCH  66  83
ENDBRANCH  40  41
ENDBRANCH  32  35
ENDBRANCH  30  31
ENDBRANCH  29  30
ENDBRANCH   1  29
TORSDOF 13
