REMARK SMILES CC(C)[C@@H](NS(=O)(=O)c1ccc(Cl)c([N+](=O)[O-])c1)C(=O)NCCCNC(=O)c1ccc(-c2c3nc(c(-c4c(F)cccc4F)c4ccc([nH]4)c(-c4c(F)cccc4F)c4nc(c(-c5c(F)cccc5F)c5ccc2[nH]5)C=C4)C=C3)cc1
REMARK SMILES IDX 22 1 21 2 19 3 20 4 4 6 2 7 1 8 3 9 5 10 6 12 7 13 8 14 9 15
REMARK SMILES IDX 10 16 18 17 11 18 14 19 12 20 13 21 15 22 16 23 17 24 23 25
REMARK SMILES IDX 24 26 25 27 26 28 27 30 28 31 29 32 81 33 30 34 80 35 31 36
REMARK SMILES IDX 32 37 33 38 74 39 34 40 79 41 73 42 75 43 35 44 78 45 72 46
REMARK SMILES IDX 71 47 36 49 62 50 45 51 61 52 46 53 49 54 60 55 76 56 47 57
REMARK SMILES IDX 48 58 59 60 77 61 50 62 37 63 38 64 43 65 39 66 40 67 42 68
REMARK SMILES IDX 44 69 41 70 63 71 64 72 69 73 65 74 66 75 68 76 70 77 67 78
REMARK SMILES IDX 51 79 52 80 57 81 53 82 54 83 56 84 58 85 55 86
REMARK H PARENT 21 5 5 11 25 29 75 48 49 59
REMARK Flexibility Score: inf
ROOT
ATOM      1  C   UNL     1      -0.551   1.734   3.637  1.00  0.00     0.117 C 
ENDROOT
BRANCH   1   2
ATOM      2  N   UNL     1      -1.079   2.696   2.685  1.00  0.00    -0.355 N 
ATOM      3  C   UNL     1      -1.192   2.613   1.327  1.00  0.00     0.238 C 
ATOM      4  O   UNL     1      -1.456   3.647   0.708  1.00  0.00    -0.273 OA
ATOM      5  H   UNL     1      -1.407   3.537   3.079  1.00  0.00     0.163 HD
BRANCH   3   6
ATOM      6  C   UNL     1      -0.999   1.275   0.600  1.00  0.00     0.161 C 
BRANCH   6   7
ATOM      7  C   UNL     1       0.518   0.973   0.488  1.00  0.00     0.010 C 
ATOM      8  C   UNL     1       0.812  -0.342  -0.235  1.00  0.00     0.009 C 
ATOM      9  C   UNL     1       1.246   2.113  -0.250  1.00  0.00     0.009 C 
ENDBRANCH   6   7
BRANCH   6  10
ATOM     10  N   UNL     1      -1.759   0.221   1.321  1.00  0.00    -0.198 NA
ATOM     11  H   UNL     1      -1.563   0.350   2.313  1.00  0.00     0.142 HD
BRANCH  10  12
ATOM     12  S   UNL     1      -3.433   0.103   1.175  1.00  0.00     0.241 S 
ATOM     13  O   UNL     1      -3.772   0.262  -0.222  1.00  0.00    -0.207 OA
ATOM     14  O   UNL     1      -3.793  -1.086   1.909  1.00  0.00    -0.207 OA
BRANCH  12  15
ATOM     15  C   UNL     1      -4.097   1.494   2.070  1.00  0.00     0.089 A 
ATOM     16  C   UNL     1      -4.198   2.722   1.420  1.00  0.00     0.024 A 
ATOM     17  C   UNL     1      -4.558   1.366   3.385  1.00  0.00     0.109 A 
ATOM     18  C   UNL     1      -4.572   3.861   2.134  1.00  0.00     0.029 A 
ATOM     19  C   UNL     1      -5.020   2.509   4.085  1.00  0.00     0.289 A 
ATOM     20  C   UNL     1      -4.964   3.773   3.476  1.00  0.00     0.118 A 
ATOM     21  Cl  UNL     1      -5.298   5.290   4.233  1.00  0.00    -0.077 Cl
BRANCH  19  22
ATOM     22  N   UNL     1      -5.579   2.301   5.433  1.00  0.00     0.064 N 
ATOM     23  O   UNL     1      -5.717   1.127   5.808  1.00  0.00    -0.258 OA
ATOM     24  O   UNL     1      -5.889   3.277   6.121  1.00  0.00    -0.258 OA
ENDBRANCH  19  22
ENDBRANCH  12  15
ENDBRANCH  10  12
ENDBRANCH   6  10
ENDBRANCH   3   6
ENDBRANCH   1   2
BRANCH   1  25
ATOM     25  C   UNL     1       0.789   2.209   4.179  1.00  0.00     0.042 C 
BRANCH  25  26
ATOM     26  C   UNL     1       0.667   3.469   5.021  1.00  0.00     0.118 C 
BRANCH  26  27
ATOM     27  N   UNL     1      -0.081   3.238   6.248  1.00  0.00    -0.352 N 
ATOM     28  C   UNL     1       0.299   3.466   7.546  1.00  0.00     0.251 C 
ATOM     29  H   UNL     1      -0.985   2.867   6.130  1.00  0.00     0.163 HD
ATOM     30  O   UNL     1      -0.366   3.012   8.470  1.00  0.00    -0.269 OA
BRANCH  28  31
ATOM     31  C   UNL     1       1.528   4.237   7.818  1.00  0.00     0.039 A 
ATOM     32  C   UNL     1       2.409   3.778   8.798  1.00  0.00     0.014 A 
ATOM     33  C   UNL     1       1.814   5.398   7.095  1.00  0.00     0.014 A 
ATOM     34  C   UNL     1       3.610   4.455   9.012  1.00  0.00     0.010 A 
ATOM     35  C   UNL     1       3.049   6.016   7.244  1.00  0.00     0.010 A 
ATOM     36  C   UNL     1       3.955   5.557   8.211  1.00  0.00    -0.014 A 
BRANCH  36  37
ATOM     37  C   UNL     1       5.255   6.250   8.379  1.00  0.00     0.031 A 
ATOM     38  C   UNL     1       5.290   7.692   8.801  1.00  0.00     0.074 A 
ATOM     39  C   UNL     1       6.399   5.597   8.097  1.00  0.00     0.049 A 
ATOM     40  N   UNL     1       6.320   8.485   8.948  1.00  0.00    -0.248 NA
ATOM     41  C   UNL     1       3.994   8.336   9.066  1.00  0.00     0.031 C 
ATOM     42  C   UNL     1       6.492   4.209   7.640  1.00  0.00     0.029 A 
ATOM     43  N   UNL     1       7.703   6.016   8.150  1.00  0.00    -0.354 N 
ATOM     44  C   UNL     1       5.796   9.718   9.315  1.00  0.00     0.074 A 
ATOM     45  C   UNL     1       4.356   9.588   9.300  1.00  0.00     0.031 C 
ATOM     46  C   UNL     1       7.785   3.882   7.488  1.00  0.00     0.029 A 
ATOM     47  C   UNL     1       8.608   5.047   7.792  1.00  0.00     0.049 A 
ATOM     48  H   UNL     1       7.966   6.926   8.420  1.00  0.00     0.167 HD
ATOM     49  C   UNL     1       6.455  10.849   9.662  1.00  0.00     0.037 A 
ATOM     50  C   UNL     1       9.951   5.096   7.714  1.00  0.00     0.037 A 
ATOM     51  C   UNL     1       7.889  10.971   9.685  1.00  0.00     0.049 A 
ATOM     52  C   UNL     1      10.659   6.376   8.066  1.00  0.00     0.074 A 
ATOM     53  C   UNL     1       8.657  12.059  10.060  1.00  0.00     0.029 A 
ATOM     54  N   UNL     1       8.772   9.969   9.309  1.00  0.00    -0.354 N 
ATOM     55  N   UNL     1      10.155   7.516   8.473  1.00  0.00    -0.248 NA
ATOM     56  C   UNL     1      12.123   6.373   7.951  1.00  0.00     0.031 C 
ATOM     57  C   UNL     1      10.002  11.734   9.861  1.00  0.00     0.029 A 
ATOM     58  C   UNL     1      10.077  10.422   9.419  1.00  0.00     0.049 A 
ATOM     59  H   UNL     1       8.511   9.069   9.009  1.00  0.00     0.167 HD
ATOM     60  C   UNL     1      11.240   8.354   8.697  1.00  0.00     0.074 A 
ATOM     61  C   UNL     1      12.429   7.586   8.391  1.00  0.00     0.031 C 
ATOM     62  C   UNL     1      11.251   9.642   9.118  1.00  0.00     0.037 A 
BRANCH  49  63
ATOM     63  C   UNL     1       5.624  12.042  10.042  1.00  0.00     0.057 A 
ATOM     64  C   UNL     1       4.855  12.065  11.214  1.00  0.00     0.134 A 
ATOM     65  C   UNL     1       5.604  13.188   9.237  1.00  0.00     0.134 A 
ATOM     66  F   UNL     1       4.819  10.996  12.025  1.00  0.00    -0.206 F 
ATOM     67  C   UNL     1       4.069  13.168  11.553  1.00  0.00     0.040 A 
ATOM     68  C   UNL     1       4.848  14.310   9.582  1.00  0.00     0.040 A 
ATOM     69  F   UNL     1       6.321  13.239   8.105  1.00  0.00    -0.206 F 
ATOM     70  C   UNL     1       4.069  14.298  10.738  1.00  0.00     0.006 A 
ENDBRANCH  49  63
BRANCH  50  71
ATOM     71  C   UNL     1      10.719   3.890   7.311  1.00  0.00     0.057 A 
ATOM     72  C   UNL     1      11.539   3.220   8.227  1.00  0.00     0.134 A 
ATOM     73  C   UNL     1      10.664   3.386   6.006  1.00  0.00     0.134 A 
ATOM     74  F   UNL     1      11.647   3.665   9.487  1.00  0.00    -0.206 F 
ATOM     75  C   UNL     1      12.294   2.107   7.855  1.00  0.00     0.040 A 
ATOM     76  C   UNL     1      11.393   2.256   5.628  1.00  0.00     0.040 A 
ATOM     77  F   UNL     1       9.890   3.975   5.083  1.00  0.00    -0.206 F 
ATOM     78  C   UNL     1      12.218   1.619   6.552  1.00  0.00     0.006 A 
ENDBRANCH  50  71
BRANCH  62  79
ATOM     79  C   UNL     1      12.592  10.289   9.317  1.00  0.00     0.057 A 
ATOM     80  C   UNL     1      13.418  10.633   8.240  1.00  0.00     0.134 A 
ATOM     81  C   UNL     1      13.044  10.604  10.605  1.00  0.00     0.134 A 
ATOM     82  F   UNL     1      13.051  10.347   6.981  1.00  0.00    -0.206 F 
ATOM     83  C   UNL     1      14.658  11.243   8.438  1.00  0.00     0.040 A 
ATOM     84  C   UNL     1      14.267  11.243  10.814  1.00  0.00     0.040 A 
ATOM     85  F   UNL     1      12.298  10.311  11.681  1.00  0.00    -0.206 F 
ATOM     86  C   UNL     1      15.082  11.557   9.729  1.00  0.00     0.006 A 
ENDBRANCH  62  79
ENDBRANCH  36  37
ENDBRANCH  28  31
ENDBRANCH  26  27
ENDBRANCH  25  26
ENDBRANCH   1  25
TORSDOF 15
