REMARK SMILES Cc1ccccc1OCc1nc2cc(C(=O)NCCCNC(=O)c3ccc(-c4c5nc(c(-c6c(F)cccc6F)c6ccc([nH]6)c(-c6c(F)cccc6F)c6nc(c(-c7c(F)cccc7F)c7ccc4[nH]7)C=C6)C=C5)cc3)ccc2n1C[C@H](C)O
REMARK SMILES IDX 18 1 17 2 15 3 16 4 14 6 10 7 11 8 81 9 12 10 80 11 13 12
REMARK SMILES IDX 79 13 78 14 9 15 8 16 7 17 1 18 2 19 3 20 4 21 6 22 5 23
REMARK SMILES IDX 82 24 83 25 84 26 85 27 19 29 20 30 21 31 22 32 23 34 24 35
REMARK SMILES IDX 25 36 77 37 26 38 76 39 27 40 28 41 29 42 70 43 30 44 75 45
REMARK SMILES IDX 69 46 71 47 31 48 74 49 68 50 67 51 32 53 58 54 41 55 57 56
REMARK SMILES IDX 42 57 45 58 56 59 72 60 43 61 44 62 55 64 73 65 46 66 33 67
REMARK SMILES IDX 34 68 39 69 35 70 36 71 38 72 40 73 37 74 59 75 60 76 65 77
REMARK SMILES IDX 61 78 62 79 64 80 66 81 63 82 47 83 48 84 53 85 49 86 50 87
REMARK SMILES IDX 52 88 54 89 51 90
REMARK H PARENT 17 5 85 28 21 33 71 52 45 63
REMARK Flexibility Score: inf
ROOT
ATOM      1  C   UNL     1      -1.508   3.737  -0.051  1.00  0.00     0.118 C 
ENDROOT
BRANCH   1   2
ATOM      2  N   UNL     1      -2.870   3.761   0.497  1.00  0.00    -0.352 N 
ATOM      3  C   UNL     1      -3.654   2.685   0.890  1.00  0.00     0.251 C 
ATOM      4  O   UNL     1      -4.793   2.824   1.312  1.00  0.00    -0.269 OA
ATOM      5  H   UNL     1      -3.278   4.651   0.599  1.00  0.00     0.163 HD
BRANCH   3   6
ATOM      6  C   UNL     1      -3.019   1.355   0.829  1.00  0.00     0.042 A 
ATOM      7  C   UNL     1      -0.220  -1.084  -1.597  1.00  0.00     0.148 A 
ATOM      8  N   UNL     1      -1.488  -0.761  -1.828  1.00  0.00    -0.229 NA
ATOM      9  N   UNL     1       0.270  -0.228  -0.644  1.00  0.00    -0.322 N 
ATOM     10  C   UNL     1      -1.865  -0.038  -0.712  1.00  0.00     0.090 A 
ATOM     11  C   UNL     1      -0.801   0.031   0.182  1.00  0.00     0.068 A 
ATOM     12  C   UNL     1      -3.034   0.661  -0.396  1.00  0.00     0.044 A 
ATOM     13  C   UNL     1      -0.892   0.467   1.503  1.00  0.00     0.029 A 
ATOM     14  C   UNL     1      -2.066   1.126   1.829  1.00  0.00     0.016 A 
BRANCH   7  15
ATOM     15  C   UNL     1       0.456  -2.403  -1.823  1.00  0.00     0.304 C 
BRANCH  15  16
ATOM     16  O   UNL     1       0.536  -2.978  -0.499  1.00  0.00    -0.485 OA
BRANCH  16  17
ATOM     17  C   UNL     1       1.727  -3.554  -0.162  1.00  0.00     0.122 A 
ATOM     18  C   UNL     1       1.945  -1.963   1.833  1.00  0.00     0.048 C 
ATOM     19  C   UNL     1       2.419  -3.098   0.977  1.00  0.00    -0.009 A 
ATOM     20  C   UNL     1       3.572  -3.779   1.390  1.00  0.00     0.007 A 
ATOM     21  C   UNL     1       4.012  -4.905   0.702  1.00  0.00     0.001 A 
ATOM     22  C   UNL     1       2.167  -4.686  -0.846  1.00  0.00     0.047 A 
ATOM     23  C   UNL     1       3.307  -5.362  -0.410  1.00  0.00     0.004 A 
ENDBRANCH  16  17
ENDBRANCH  15  16
ENDBRANCH   7  15
BRANCH   9  24
ATOM     24  C   UNL     1       1.425   0.654  -0.729  1.00  0.00     0.155 C 
BRANCH  24  25
ATOM     25  C   UNL     1       2.739   0.067  -1.244  1.00  0.00     0.131 C 
ATOM     26  C   UNL     1       3.921   0.803  -0.624  1.00  0.00     0.040 C 
BRANCH  25  27
ATOM     27  O   UNL     1       2.790   0.222  -2.662  1.00  0.00    -0.392 OA
ATOM     28  H   UNL     1       2.743   1.165  -2.886  1.00  0.00     0.211 HD
ENDBRANCH  25  27
ENDBRANCH  24  25
ENDBRANCH   9  24
ENDBRANCH   3   6
ENDBRANCH   1   2
BRANCH   1  29
ATOM     29  C   UNL     1      -1.473   3.317  -1.522  1.00  0.00     0.042 C 
BRANCH  29  30
ATOM     30  C   UNL     1      -1.300   4.480  -2.477  1.00  0.00     0.118 C 
BRANCH  30  31
ATOM     31  N   UNL     1       0.002   4.553  -3.139  1.00  0.00    -0.352 N 
ATOM     32  C   UNL     1       0.476   5.563  -3.963  1.00  0.00     0.251 C 
ATOM     33  H   UNL     1       0.614   3.797  -2.980  1.00  0.00     0.163 HD
ATOM     34  O   UNL     1       1.602   5.511  -4.443  1.00  0.00    -0.269 OA
BRANCH  32  35
ATOM     35  C   UNL     1      -0.356   6.779  -4.126  1.00  0.00     0.039 A 
ATOM     36  C   UNL     1       0.209   7.992  -3.723  1.00  0.00     0.014 A 
ATOM     37  C   UNL     1      -1.730   6.663  -4.319  1.00  0.00     0.014 A 
ATOM     38  C   UNL     1      -0.625   8.981  -3.216  1.00  0.00     0.010 A 
ATOM     39  C   UNL     1      -2.551   7.595  -3.714  1.00  0.00     0.010 A 
ATOM     40  C   UNL     1      -1.984   8.707  -3.080  1.00  0.00    -0.014 A 
BRANCH  40  41
ATOM     41  C   UNL     1      -2.840   9.444  -2.158  1.00  0.00     0.031 A 
ATOM     42  C   UNL     1      -3.868  10.370  -2.667  1.00  0.00     0.074 A 
ATOM     43  C   UNL     1      -2.722   9.250  -0.823  1.00  0.00     0.049 A 
ATOM     44  N   UNL     1      -4.410  11.291  -1.945  1.00  0.00    -0.248 NA
ATOM     45  C   UNL     1      -4.317  10.393  -4.058  1.00  0.00     0.031 C 
ATOM     46  C   UNL     1      -3.645   9.685   0.225  1.00  0.00     0.029 A 
ATOM     47  N   UNL     1      -1.583   8.825  -0.120  1.00  0.00    -0.354 N 
ATOM     48  C   UNL     1      -5.483  11.773  -2.645  1.00  0.00     0.074 A 
ATOM     49  C   UNL     1      -5.284  11.316  -3.996  1.00  0.00     0.031 C 
ATOM     50  C   UNL     1      -2.964   9.812   1.374  1.00  0.00     0.029 A 
ATOM     51  C   UNL     1      -1.563   9.592   1.071  1.00  0.00     0.049 A 
ATOM     52  H   UNL     1      -0.934   8.138  -0.397  1.00  0.00     0.167 HD
ATOM     53  C   UNL     1      -6.494  12.371  -1.958  1.00  0.00     0.037 A 
ATOM     54  C   UNL     1      -0.551  10.471   1.329  1.00  0.00     0.037 A 
ATOM     55  C   UNL     1      -6.084  12.749  -0.605  1.00  0.00     0.049 A 
ATOM     56  C   UNL     1      -0.981  11.918   1.474  1.00  0.00     0.074 A 
ATOM     57  C   UNL     1      -6.427  12.377   0.683  1.00  0.00     0.029 A 
ATOM     58  N   UNL     1      -4.975  13.569  -0.476  1.00  0.00    -0.354 N 
ATOM     59  N   UNL     1      -2.212  12.339   1.376  1.00  0.00    -0.248 NA
ATOM     60  C   UNL     1      -0.031  13.022   1.637  1.00  0.00     0.031 C 
ATOM     61  C   UNL     1      -5.463  12.945   1.577  1.00  0.00     0.029 A 
ATOM     62  C   UNL     1      -4.563  13.686   0.833  1.00  0.00     0.049 A 
ATOM     63  H   UNL     1      -4.533  14.017  -1.233  1.00  0.00     0.167 HD
ATOM     64  C   UNL     1      -2.220  13.710   1.350  1.00  0.00     0.074 A 
ATOM     65  C   UNL     1      -0.835  14.093   1.540  1.00  0.00     0.031 C 
ATOM     66  C   UNL     1      -3.348  14.438   1.107  1.00  0.00     0.037 A 
BRANCH  53  67
ATOM     67  C   UNL     1      -7.907  12.505  -2.474  1.00  0.00     0.057 A 
ATOM     68  C   UNL     1      -8.844  13.293  -1.781  1.00  0.00     0.134 A 
ATOM     69  C   UNL     1      -8.444  11.787  -3.565  1.00  0.00     0.134 A 
ATOM     70  F   UNL     1      -8.491  14.012  -0.706  1.00  0.00    -0.206 F 
ATOM     71  C   UNL     1     -10.197  13.362  -2.145  1.00  0.00     0.040 A 
ATOM     72  C   UNL     1      -9.778  11.896  -3.975  1.00  0.00     0.040 A 
ATOM     73  F   UNL     1      -7.732  10.890  -4.255  1.00  0.00    -0.206 F 
ATOM     74  C   UNL     1     -10.667  12.675  -3.255  1.00  0.00     0.006 A 
ENDBRANCH  53  67
BRANCH  54  75
ATOM     75  C   UNL     1       0.755  10.019   0.784  1.00  0.00     0.057 A 
ATOM     76  C   UNL     1       1.320   8.830   1.282  1.00  0.00     0.134 A 
ATOM     77  C   UNL     1       1.260  10.506  -0.424  1.00  0.00     0.134 A 
ATOM     78  F   UNL     1       0.880   8.306   2.438  1.00  0.00    -0.206 F 
ATOM     79  C   UNL     1       2.259   8.098   0.553  1.00  0.00     0.040 A 
ATOM     80  C   UNL     1       2.213   9.789  -1.155  1.00  0.00     0.040 A 
ATOM     81  F   UNL     1       0.754  11.618  -0.977  1.00  0.00    -0.206 F 
ATOM     82  C   UNL     1       2.684   8.563  -0.687  1.00  0.00     0.006 A 
ENDBRANCH  54  75
BRANCH  66  83
ATOM     83  C   UNL     1      -3.363  15.939   1.058  1.00  0.00     0.057 A 
ATOM     84  C   UNL     1      -2.777  16.729   2.057  1.00  0.00     0.134 A 
ATOM     85  C   UNL     1      -4.072  16.640   0.062  1.00  0.00     0.134 A 
ATOM     86  F   UNL     1      -2.110  16.167   3.076  1.00  0.00    -0.206 F 
ATOM     87  C   UNL     1      -2.872  18.127   2.054  1.00  0.00     0.040 A 
ATOM     88  C   UNL     1      -4.213  18.030   0.074  1.00  0.00     0.040 A 
ATOM     89  F   UNL     1      -4.634  16.005  -0.977  1.00  0.00    -0.206 F 
ATOM     90  C   UNL     1      -3.606  18.781   1.070  1.00  0.00     0.006 A 
ENDBRANCH  66  83
ENDBRANCH  40  41
ENDBRANCH  32  35
ENDBRANCH  30  31
ENDBRANCH  29  30
ENDBRANCH   1  29
TORSDOF 16
