REMARK SMILES Cc1ccc(C[C@H](C(=O)NCCCNC(=O)c2ccc(-c3c4nc(c(-c5c(F)cccc5F)c5ccc([nH]5)c(-c5c(F)cccc5F)c5nc(c(-c6c(F)cccc6F)c6ccc3[nH]6)C=C5)C=C4)cc2)[C@@H]2CCCC[C@@H]2O)cc1
REMARK SMILES IDX 12 1 11 2 10 3 8 4 9 5 7 7 6 8 5 9 1 10 2 11 3 12 79 13 4 14
REMARK SMILES IDX 78 15 71 16 72 17 76 18 73 19 75 20 74 21 77 22 13 24 14 25
REMARK SMILES IDX 15 26 16 28 17 29 18 30 70 31 19 32 69 33 20 34 21 35 22 36
REMARK SMILES IDX 63 37 23 38 68 39 62 40 64 41 24 42 67 43 61 44 60 45 25 47
REMARK SMILES IDX 51 48 34 49 50 50 35 51 38 52 49 53 65 54 36 55 37 56 48 58
REMARK SMILES IDX 66 59 39 60 26 61 27 62 32 63 28 64 29 65 31 66 33 67 30 68
REMARK SMILES IDX 52 69 53 70 58 71 54 72 55 73 57 74 59 75 56 76 40 77 41 78
REMARK SMILES IDX 46 79 42 80 43 81 45 82 47 83 44 84
REMARK H PARENT 10 6 77 23 14 27 64 46 38 57
REMARK Flexibility Score: inf
ROOT
ATOM      1  C   UNL     1      -5.881  -1.898   4.118  1.00  0.00     0.042 C 
ENDROOT
BRANCH   1   2
ATOM      2  C   UNL     1      -5.653  -1.087   2.868  1.00  0.00     0.117 C 
BRANCH   2   3
ATOM      3  N   UNL     1      -4.674  -1.535   1.927  1.00  0.00    -0.356 N 
ATOM      4  C   UNL     1      -4.562  -1.084   0.642  1.00  0.00     0.223 C 
ATOM      5  O   UNL     1      -3.543  -1.429   0.034  1.00  0.00    -0.275 OA
ATOM      6  H   UNL     1      -4.034  -2.220   2.228  1.00  0.00     0.163 HD
BRANCH   4   7
ATOM      7  C   UNL     1      -5.706  -0.265  -0.046  1.00  0.00     0.088 C 
BRANCH   7   8
ATOM      8  C   UNL     1      -5.749   1.244   0.370  1.00  0.00     0.049 C 
BRANCH   8   9
ATOM      9  C   UNL     1      -6.208   1.665   1.754  1.00  0.00    -0.047 A 
ATOM     10  C   UNL     1      -7.230   2.350   5.905  1.00  0.00     0.044 C 
ATOM     11  C   UNL     1      -6.910   2.207   4.444  1.00  0.00    -0.051 A 
ATOM     12  C   UNL     1      -7.822   1.589   3.583  1.00  0.00     0.004 A 
ATOM     13  C   UNL     1      -5.678   2.629   3.930  1.00  0.00     0.004 A 
ATOM     14  C   UNL     1      -7.488   1.348   2.242  1.00  0.00     0.004 A 
ATOM     15  C   UNL     1      -5.333   2.368   2.598  1.00  0.00     0.004 A 
ENDBRANCH   8   9
ENDBRANCH   7   8
BRANCH   7  16
ATOM     16  C   UNL     1      -5.490  -0.426  -1.616  1.00  0.00     0.030 C 
ATOM     17  C   UNL     1      -6.060   0.683  -2.522  1.00  0.00     0.007 C 
ATOM     18  C   UNL     1      -5.971  -1.801  -2.160  1.00  0.00     0.118 C 
ATOM     19  C   UNL     1      -7.578   0.626  -2.638  1.00  0.00     0.001 C 
ATOM     20  C   UNL     1      -7.489  -1.872  -2.357  1.00  0.00     0.032 C 
ATOM     21  C   UNL     1      -8.018  -0.719  -3.201  1.00  0.00     0.003 C 
BRANCH  18  22
ATOM     22  O   UNL     1      -5.589  -2.880  -1.317  1.00  0.00    -0.393 OA
ATOM     23  H   UNL     1      -6.029  -2.790  -0.457  1.00  0.00     0.210 HD
ENDBRANCH  18  22
ENDBRANCH   7  16
ENDBRANCH   4   7
ENDBRANCH   2   3
ENDBRANCH   1   2
BRANCH   1  24
ATOM     24  C   UNL     1      -4.844  -1.647   5.209  1.00  0.00     0.118 C 
BRANCH  24  25
ATOM     25  N   UNL     1      -4.765  -0.247   5.670  1.00  0.00    -0.352 N 
ATOM     26  C   UNL     1      -4.741   0.389   6.904  1.00  0.00     0.251 C 
ATOM     27  H   UNL     1      -4.718   0.390   4.921  1.00  0.00     0.163 HD
ATOM     28  O   UNL     1      -4.410   1.561   6.970  1.00  0.00    -0.269 OA
BRANCH  26  29
ATOM     29  C   UNL     1      -4.960  -0.358   8.171  1.00  0.00     0.039 A 
ATOM     30  C   UNL     1      -3.850  -0.300   9.024  1.00  0.00     0.014 A 
ATOM     31  C   UNL     1      -5.747  -1.489   8.116  1.00  0.00     0.014 A 
ATOM     32  C   UNL     1      -3.197  -1.487   9.300  1.00  0.00     0.010 A 
ATOM     33  C   UNL     1      -5.072  -2.671   8.334  1.00  0.00     0.010 A 
ATOM     34  C   UNL     1      -3.730  -2.644   8.758  1.00  0.00    -0.014 A 
BRANCH  34  35
ATOM     35  C   UNL     1      -2.930  -3.810   8.390  1.00  0.00     0.031 A 
ATOM     36  C   UNL     1      -3.307  -5.112   8.969  1.00  0.00     0.074 A 
ATOM     37  C   UNL     1      -1.991  -3.741   7.412  1.00  0.00     0.049 A 
ATOM     38  N   UNL     1      -2.646  -6.201   8.805  1.00  0.00    -0.248 NA
ATOM     39  C   UNL     1      -4.457  -5.269   9.853  1.00  0.00     0.031 C 
ATOM     40  C   UNL     1      -1.416  -4.855   6.654  1.00  0.00     0.029 A 
ATOM     41  N   UNL     1      -1.207  -2.641   7.029  1.00  0.00    -0.354 N 
ATOM     42  C   UNL     1      -3.384  -7.230   9.334  1.00  0.00     0.074 A 
ATOM     43  C   UNL     1      -4.457  -6.588  10.044  1.00  0.00     0.031 C 
ATOM     44  C   UNL     1      -0.237  -4.480   6.138  1.00  0.00     0.029 A 
ATOM     45  C   UNL     1       0.064  -3.166   6.668  1.00  0.00     0.049 A 
ATOM     46  H   UNL     1      -1.481  -1.695   7.013  1.00  0.00     0.167 HD
ATOM     47  C   UNL     1      -3.020  -8.503   9.022  1.00  0.00     0.037 A 
ATOM     48  C   UNL     1       1.184  -2.857   7.389  1.00  0.00     0.037 A 
ATOM     49  C   UNL     1      -1.664  -8.518   8.462  1.00  0.00     0.049 A 
ATOM     50  C   UNL     1       1.816  -4.031   8.115  1.00  0.00     0.074 A 
ATOM     51  C   UNL     1      -1.111  -8.614   7.197  1.00  0.00     0.029 A 
ATOM     52  N   UNL     1      -0.637  -8.110   9.293  1.00  0.00    -0.354 N 
ATOM     53  N   UNL     1       1.364  -5.255   8.076  1.00  0.00    -0.248 NA
ATOM     54  C   UNL     1       2.954  -3.893   9.027  1.00  0.00     0.031 C 
ATOM     55  C   UNL     1       0.252  -8.183   7.283  1.00  0.00     0.029 A 
ATOM     56  C   UNL     1       0.527  -7.856   8.600  1.00  0.00     0.049 A 
ATOM     57  H   UNL     1      -0.726  -8.012  10.269  1.00  0.00     0.167 HD
ATOM     58  C   UNL     1       2.024  -6.012   9.007  1.00  0.00     0.074 A 
ATOM     59  C   UNL     1       3.034  -5.127   9.556  1.00  0.00     0.031 C 
ATOM     60  C   UNL     1       1.657  -7.287   9.322  1.00  0.00     0.037 A 
BRANCH  47  61
ATOM     61  C   UNL     1      -3.898  -9.730   9.126  1.00  0.00     0.057 A 
ATOM     62  C   UNL     1      -3.436 -10.960   8.617  1.00  0.00     0.134 A 
ATOM     63  C   UNL     1      -5.225  -9.774   9.601  1.00  0.00     0.134 A 
ATOM     64  F   UNL     1      -2.194 -11.098   8.133  1.00  0.00    -0.206 F 
ATOM     65  C   UNL     1      -4.233 -12.113   8.556  1.00  0.00     0.040 A 
ATOM     66  C   UNL     1      -6.023 -10.925   9.567  1.00  0.00     0.040 A 
ATOM     67  F   UNL     1      -5.858  -8.713  10.100  1.00  0.00    -0.206 F 
ATOM     68  C   UNL     1      -5.534 -12.099   9.029  1.00  0.00     0.006 A 
ENDBRANCH  47  61
BRANCH  48  69
ATOM     69  C   UNL     1       1.147  -1.458   7.890  1.00  0.00     0.057 A 
ATOM     70  C   UNL     1       1.198  -0.418   6.945  1.00  0.00     0.134 A 
ATOM     71  C   UNL     1       0.616  -1.160   9.147  1.00  0.00     0.134 A 
ATOM     72  F   UNL     1       1.712  -0.640   5.725  1.00  0.00    -0.206 F 
ATOM     73  C   UNL     1       0.598   0.819   7.186  1.00  0.00     0.040 A 
ATOM     74  C   UNL     1       0.029   0.084   9.404  1.00  0.00     0.040 A 
ATOM     75  F   UNL     1       0.519  -2.109  10.089  1.00  0.00    -0.206 F 
ATOM     76  C   UNL     1      -0.029   1.055   8.405  1.00  0.00     0.006 A 
ENDBRANCH  48  69
BRANCH  60  77
ATOM     77  C   UNL     1       2.344  -8.089  10.388  1.00  0.00     0.057 A 
ATOM     78  C   UNL     1       3.728  -8.297  10.383  1.00  0.00     0.134 A 
ATOM     79  C   UNL     1       1.620  -8.784  11.376  1.00  0.00     0.134 A 
ATOM     80  F   UNL     1       4.510  -7.691   9.477  1.00  0.00    -0.206 F 
ATOM     81  C   UNL     1       4.353  -9.149  11.302  1.00  0.00     0.040 A 
ATOM     82  C   UNL     1       2.224  -9.677  12.263  1.00  0.00     0.040 A 
ATOM     83  F   UNL     1       0.299  -8.607  11.530  1.00  0.00    -0.206 F 
ATOM     84  C   UNL     1       3.598  -9.860  12.230  1.00  0.00     0.006 A 
ENDBRANCH  60  77
ENDBRANCH  34  35
ENDBRANCH  26  29
ENDBRANCH  24  25
ENDBRANCH   1  24
TORSDOF 14
