REMARK SMILES Cc1noc(C)c1CSCC(=O)N1CC[C@H](C(=O)NCCCNC(=O)c2ccc(-c3c4nc(c(-c5c(F)cccc5F)c5ccc([nH]5)c(-c5c(F)cccc5F)c5nc(c(-c6c(F)cccc6F)c6ccc3[nH]6)C=C5)C=C4)cc2)[C@@H]1C
REMARK SMILES IDX 17 1 18 2 19 3 16 5 13 6 14 7 80 8 15 9 81 10 11 11 12 12
REMARK SMILES IDX 10 13 9 14 8 15 7 16 1 17 2 18 3 19 4 20 5 21 6 22 20 23
REMARK SMILES IDX 21 24 22 25 23 26 24 27 25 29 26 30 27 31 79 32 28 33 78 34
REMARK SMILES IDX 29 35 30 36 31 37 72 38 32 39 77 40 71 41 73 42 33 43 76 44
REMARK SMILES IDX 70 45 69 46 34 48 60 49 43 50 59 51 44 52 47 53 58 54 74 55
REMARK SMILES IDX 45 56 46 57 57 59 75 60 48 61 35 62 36 63 41 64 37 65 38 66
REMARK SMILES IDX 40 67 42 68 39 69 61 70 62 71 67 72 63 73 64 74 66 75 68 76
REMARK SMILES IDX 65 77 49 78 50 79 55 80 51 81 52 82 54 83 56 84 53 85
REMARK H PARENT 19 4 23 28 73 47 47 58
REMARK Flexibility Score: inf
ROOT
ATOM      1  C   UNL     1       2.729   7.525  -1.484  1.00  0.00     0.225 C 
ATOM      2  O   UNL     1       2.725   7.343  -0.268  1.00  0.00    -0.275 OA
ATOM      3  N   UNL     1       3.610   8.467  -1.900  1.00  0.00    -0.356 N 
ATOM      4  H   UNL     1       4.291   8.705  -1.231  1.00  0.00     0.163 HD
ENDROOT
BRANCH   1   5
ATOM      5  C   UNL     1       1.789   6.837  -2.484  1.00  0.00     0.102 C 
ATOM      6  N   UNL     1       1.631   4.428  -2.608  1.00  0.00    -0.338 N 
ATOM      7  C   UNL     1       2.856   4.834  -3.257  1.00  0.00     0.120 C 
ATOM      8  C   UNL     1       0.971   5.595  -1.982  1.00  0.00     0.094 C 
ATOM      9  C   UNL     1       2.571   6.259  -3.674  1.00  0.00     0.037 C 
ATOM     10  C   UNL     1       0.910   5.472  -0.460  1.00  0.00     0.032 C 
BRANCH   6  11
ATOM     11  C   UNL     1       1.257   3.105  -2.717  1.00  0.00     0.232 C 
ATOM     12  O   UNL     1       2.116   2.242  -2.937  1.00  0.00    -0.274 OA
BRANCH  11  13
ATOM     13  C   UNL     1      -0.205   2.709  -2.796  1.00  0.00     0.170 C 
BRANCH  13  14
ATOM     14  S   UNL     1      -1.225   2.912  -1.326  1.00  0.00    -0.147 SA
BRANCH  14  15
ATOM     15  C   UNL     1      -0.163   2.161  -0.052  1.00  0.00     0.111 C 
BRANCH  15  16
ATOM     16  C   UNL     1      -0.136   0.685  -0.076  1.00  0.00     0.027 A 
ATOM     17  C   UNL     1      -2.670   0.044   0.065  1.00  0.00     0.071 C 
ATOM     18  C   UNL     1      -1.216  -0.239  -0.009  1.00  0.00     0.085 A 
ATOM     19  N   UNL     1      -0.778  -1.503   0.001  1.00  0.00    -0.085 NA
ATOM     20  O   UNL     1       0.601  -1.426  -0.033  1.00  0.00    -0.361 OA
ATOM     21  C   UNL     1       0.982  -0.123  -0.066  1.00  0.00     0.137 A 
ATOM     22  C   UNL     1       2.434   0.142  -0.045  1.00  0.00     0.091 C 
ENDBRANCH  15  16
ENDBRANCH  14  15
ENDBRANCH  13  14
ENDBRANCH  11  13
ENDBRANCH   6  11
ENDBRANCH   1   5
BRANCH   3  23
ATOM     23  C   UNL     1       3.729   9.187  -3.150  1.00  0.00     0.117 C 
BRANCH  23  24
ATOM     24  C   UNL     1       3.486  10.673  -2.958  1.00  0.00     0.042 C 
BRANCH  24  25
ATOM     25  C   UNL     1       4.286  11.298  -1.823  1.00  0.00     0.118 C 
BRANCH  25  26
ATOM     26  N   UNL     1       5.726  11.132  -1.977  1.00  0.00    -0.352 N 
ATOM     27  C   UNL     1       6.702  12.077  -2.179  1.00  0.00     0.251 C 
ATOM     28  H   UNL     1       6.048  10.203  -1.928  1.00  0.00     0.163 HD
ATOM     29  O   UNL     1       7.847  11.732  -2.457  1.00  0.00    -0.269 OA
BRANCH  27  30
ATOM     30  C   UNL     1       6.358  13.510  -2.096  1.00  0.00     0.039 A 
ATOM     31  C   UNL     1       6.829  14.380  -3.081  1.00  0.00     0.014 A 
ATOM     32  C   UNL     1       5.544  13.985  -1.066  1.00  0.00     0.014 A 
ATOM     33  C   UNL     1       6.414  15.712  -3.076  1.00  0.00     0.010 A 
ATOM     34  C   UNL     1       5.044  15.279  -1.127  1.00  0.00     0.010 A 
ATOM     35  C   UNL     1       5.482  16.161  -2.125  1.00  0.00    -0.014 A 
BRANCH  35  36
ATOM     36  C   UNL     1       4.966  17.552  -2.140  1.00  0.00     0.031 A 
ATOM     37  C   UNL     1       5.195  18.448  -0.953  1.00  0.00     0.074 A 
ATOM     38  C   UNL     1       4.236  17.986  -3.186  1.00  0.00     0.049 A 
ATOM     39  N   UNL     1       4.759  19.663  -0.737  1.00  0.00    -0.248 NA
ATOM     40  C   UNL     1       5.990  17.892   0.154  1.00  0.00     0.031 C 
ATOM     41  C   UNL     1       3.898  17.197  -4.373  1.00  0.00     0.029 A 
ATOM     42  N   UNL     1       3.636  19.199  -3.415  1.00  0.00    -0.354 N 
ATOM     43  C   UNL     1       5.210  20.005   0.531  1.00  0.00     0.074 A 
ATOM     44  C   UNL     1       5.895  18.849   1.064  1.00  0.00     0.031 C 
ATOM     45  C   UNL     1       3.179  17.955  -5.216  1.00  0.00     0.029 A 
ATOM     46  C   UNL     1       2.967  19.267  -4.613  1.00  0.00     0.049 A 
ATOM     47  H   UNL     1       3.681  19.951  -2.780  1.00  0.00     0.167 HD
ATOM     48  C   UNL     1       5.092  21.185   1.183  1.00  0.00     0.037 A 
ATOM     49  C   UNL     1       2.257  20.271  -5.160  1.00  0.00     0.037 A 
ATOM     50  C   UNL     1       4.436  22.343   0.637  1.00  0.00     0.049 A 
ATOM     51  C   UNL     1       2.135  21.572  -4.414  1.00  0.00     0.074 A 
ATOM     52  C   UNL     1       4.314  23.605   1.190  1.00  0.00     0.029 A 
ATOM     53  N   UNL     1       3.788  22.378  -0.589  1.00  0.00    -0.354 N 
ATOM     54  N   UNL     1       2.628  21.905  -3.245  1.00  0.00    -0.248 NA
ATOM     55  C   UNL     1       1.365  22.640  -5.067  1.00  0.00     0.031 C 
ATOM     56  C   UNL     1       3.549  24.390   0.321  1.00  0.00     0.029 A 
ATOM     57  C   UNL     1       3.245  23.634  -0.800  1.00  0.00     0.049 A 
ATOM     58  H   UNL     1       3.724  21.622  -1.216  1.00  0.00     0.167 HD
ATOM     59  C   UNL     1       2.256  23.227  -3.038  1.00  0.00     0.074 A 
ATOM     60  C   UNL     1       1.508  23.639  -4.208  1.00  0.00     0.031 C 
ATOM     61  C   UNL     1       2.512  24.030  -1.976  1.00  0.00     0.037 A 
BRANCH  48  62
ATOM     62  C   UNL     1       5.692  21.282   2.556  1.00  0.00     0.057 A 
ATOM     63  C   UNL     1       7.079  21.258   2.763  1.00  0.00     0.134 A 
ATOM     64  C   UNL     1       4.876  21.425   3.685  1.00  0.00     0.134 A 
ATOM     65  F   UNL     1       7.918  21.109   1.726  1.00  0.00    -0.206 F 
ATOM     66  C   UNL     1       7.629  21.343   4.042  1.00  0.00     0.040 A 
ATOM     67  C   UNL     1       5.416  21.543   4.967  1.00  0.00     0.040 A 
ATOM     68  F   UNL     1       3.541  21.460   3.561  1.00  0.00    -0.206 F 
ATOM     69  C   UNL     1       6.796  21.494   5.149  1.00  0.00     0.006 A 
ENDBRANCH  48  62
BRANCH  49  70
ATOM     70  C   UNL     1       1.625  20.099  -6.493  1.00  0.00     0.057 A 
ATOM     71  C   UNL     1       2.090  20.805  -7.610  1.00  0.00     0.134 A 
ATOM     72  C   UNL     1       0.537  19.239  -6.684  1.00  0.00     0.134 A 
ATOM     73  F   UNL     1       3.119  21.657  -7.488  1.00  0.00    -0.206 F 
ATOM     74  C   UNL     1       1.483  20.681  -8.860  1.00  0.00     0.040 A 
ATOM     75  C   UNL     1      -0.063  19.084  -7.935  1.00  0.00     0.040 A 
ATOM     76  F   UNL     1       0.049  18.526  -5.658  1.00  0.00    -0.206 F 
ATOM     77  C   UNL     1       0.405  19.814  -9.026  1.00  0.00     0.006 A 
ENDBRANCH  49  70
BRANCH  61  78
ATOM     78  C   UNL     1       2.019  25.446  -2.047  1.00  0.00     0.057 A 
ATOM     79  C   UNL     1       0.659  25.765  -1.950  1.00  0.00     0.134 A 
ATOM     80  C   UNL     1       2.926  26.507  -2.173  1.00  0.00     0.134 A 
ATOM     81  F   UNL     1      -0.262  24.795  -1.841  1.00  0.00    -0.206 F 
ATOM     82  C   UNL     1       0.216  27.088  -2.001  1.00  0.00     0.040 A 
ATOM     83  C   UNL     1       2.498  27.834  -2.193  1.00  0.00     0.040 A 
ATOM     84  F   UNL     1       4.244  26.271  -2.260  1.00  0.00    -0.206 F 
ATOM     85  C   UNL     1       1.138  28.127  -2.114  1.00  0.00     0.006 A 
ENDBRANCH  61  78
ENDBRANCH  35  36
ENDBRANCH  27  30
ENDBRANCH  25  26
ENDBRANCH  24  25
ENDBRANCH  23  24
ENDBRANCH   3  23
TORSDOF 15
