REMARK SMILES C[C@H](c1ccncc1)N1Cc2cccc(C(=O)NCCCNC(=O)c3ccc(-c4c5nc(c(-c6c(F)cccc6F)c6ccc([nH]6)c(-c6c(F)cccc6F)c6nc(c(-c7c(F)cccc7F)c7ccc4[nH]7)C=C6)C=C5)cc3)c2C1=O
REMARK SMILES IDX 20 1 19 2 18 3 16 4 17 5 15 7 9 8 10 9 80 10 11 11 79 12
REMARK SMILES IDX 81 13 12 14 13 15 14 16 2 17 1 18 3 19 4 20 8 21 5 22 7 23
REMARK SMILES IDX 6 24 21 25 22 26 23 27 24 29 25 30 26 31 78 32 27 33 77 34
REMARK SMILES IDX 28 35 29 36 30 37 71 38 31 39 76 40 70 41 72 42 32 43 75 44
REMARK SMILES IDX 69 45 68 46 33 48 59 49 42 50 58 51 43 52 46 53 57 54 73 55
REMARK SMILES IDX 44 56 45 57 56 59 74 60 47 61 34 62 35 63 40 64 36 65 37 66
REMARK SMILES IDX 39 67 41 68 38 69 60 70 61 71 66 72 62 73 63 74 65 75 67 76
REMARK SMILES IDX 64 77 48 78 49 79 54 80 50 81 51 82 53 83 55 84 52 85
REMARK H PARENT 18 6 22 28 72 47 46 58
REMARK Flexibility Score: inf
ROOT
ATOM      1  C   UNL     1      -1.019  -4.118  -1.053  1.00  0.00     0.042 C 
ENDROOT
BRANCH   1   2
ATOM      2  C   UNL     1      -2.020  -3.631  -2.109  1.00  0.00     0.118 C 
BRANCH   2   3
ATOM      3  N   UNL     1      -3.374  -3.696  -1.577  1.00  0.00    -0.352 N 
ATOM      4  C   UNL     1      -4.273  -2.761  -1.131  1.00  0.00     0.252 C 
ATOM      5  O   UNL     1      -5.308  -3.195  -0.616  1.00  0.00    -0.269 OA
ATOM      6  H   UNL     1      -3.722  -4.616  -1.526  1.00  0.00     0.163 HD
BRANCH   4   7
ATOM      7  C   UNL     1      -4.186  -1.296  -1.363  1.00  0.00     0.052 A 
ATOM      8  N   UNL     1      -0.965   0.396  -1.073  1.00  0.00    -0.328 N 
ATOM      9  C   UNL     1      -1.771   1.498  -1.553  1.00  0.00     0.157 C 
ATOM     10  C   UNL     1      -1.748  -0.678  -0.701  1.00  0.00     0.255 C 
ATOM     11  C   UNL     1      -3.135   0.893  -1.619  1.00  0.00    -0.015 A 
ATOM     12  C   UNL     1      -3.093  -0.457  -1.231  1.00  0.00     0.057 A 
ATOM     13  O   UNL     1      -1.425  -1.642  -0.039  1.00  0.00    -0.269 OA
ATOM     14  C   UNL     1      -4.319   1.490  -2.013  1.00  0.00     0.006 A 
ATOM     15  C   UNL     1      -5.464   0.699  -2.053  1.00  0.00     0.001 A 
ATOM     16  C   UNL     1      -5.392  -0.675  -1.755  1.00  0.00     0.015 A 
BRANCH   8  17
ATOM     17  C   UNL     1       0.498   0.443  -1.096  1.00  0.00     0.113 C 
ATOM     18  C   UNL     1       1.088  -0.690  -1.946  1.00  0.00     0.036 C 
BRANCH  17  19
ATOM     19  C   UNL     1       1.145   0.531   0.272  1.00  0.00    -0.023 A 
ATOM     20  C   UNL     1       1.139  -0.534   1.180  1.00  0.00     0.026 A 
ATOM     21  C   UNL     1       1.824   1.695   0.648  1.00  0.00     0.026 A 
ATOM     22  C   UNL     1       1.775  -0.387   2.403  1.00  0.00     0.111 A 
ATOM     23  C   UNL     1       2.448   1.742   1.886  1.00  0.00     0.111 A 
ATOM     24  N   UNL     1       2.436   0.728   2.775  1.00  0.00    -0.265 NA
ENDBRANCH  17  19
ENDBRANCH   8  17
ENDBRANCH   4   7
ENDBRANCH   2   3
ENDBRANCH   1   2
BRANCH   1  25
ATOM     25  C   UNL     1      -0.722  -5.608  -1.086  1.00  0.00     0.118 C 
BRANCH  25  26
ATOM     26  N   UNL     1       0.371  -5.926  -1.992  1.00  0.00    -0.352 N 
ATOM     27  C   UNL     1       1.711  -6.151  -1.780  1.00  0.00     0.251 C 
ATOM     28  H   UNL     1       0.101  -5.993  -2.936  1.00  0.00     0.163 HD
ATOM     29  O   UNL     1       2.451  -6.161  -2.764  1.00  0.00    -0.269 OA
BRANCH  27  30
ATOM     30  C   UNL     1       2.308  -6.376  -0.433  1.00  0.00     0.039 A 
ATOM     31  C   UNL     1       3.657  -6.036  -0.246  1.00  0.00     0.014 A 
ATOM     32  C   UNL     1       1.634  -7.007   0.614  1.00  0.00     0.014 A 
ATOM     33  C   UNL     1       4.304  -6.298   0.970  1.00  0.00     0.010 A 
ATOM     34  C   UNL     1       2.248  -7.180   1.859  1.00  0.00     0.010 A 
ATOM     35  C   UNL     1       3.599  -6.855   2.046  1.00  0.00    -0.014 A 
BRANCH  35  36
ATOM     36  C   UNL     1       4.267  -7.150   3.346  1.00  0.00     0.031 A 
ATOM     37  C   UNL     1       4.347  -8.567   3.860  1.00  0.00     0.074 A 
ATOM     38  C   UNL     1       4.764  -6.147   4.096  1.00  0.00     0.049 A 
ATOM     39  N   UNL     1       4.816  -9.012   5.001  1.00  0.00    -0.248 NA
ATOM     40  C   UNL     1       3.800  -9.620   2.991  1.00  0.00     0.031 C 
ATOM     41  C   UNL     1       4.717  -4.726   3.751  1.00  0.00     0.029 A 
ATOM     42  N   UNL     1       5.401  -6.171   5.314  1.00  0.00    -0.354 N 
ATOM     43  C   UNL     1       4.586 -10.383   4.999  1.00  0.00     0.074 A 
ATOM     44  C   UNL     1       3.903 -10.693   3.762  1.00  0.00     0.031 C 
ATOM     45  C   UNL     1       5.322  -4.017   4.719  1.00  0.00     0.029 A 
ATOM     46  C   UNL     1       5.770  -4.928   5.768  1.00  0.00     0.049 A 
ATOM     47  H   UNL     1       5.576  -7.001   5.813  1.00  0.00     0.167 HD
ATOM     48  C   UNL     1       4.929 -11.306   5.930  1.00  0.00     0.037 A 
ATOM     49  C   UNL     1       6.397  -4.561   6.902  1.00  0.00     0.037 A 
ATOM     50  C   UNL     1       5.661 -11.017   7.135  1.00  0.00     0.049 A 
ATOM     51  C   UNL     1       6.811  -5.608   7.896  1.00  0.00     0.074 A 
ATOM     52  C   UNL     1       6.117 -11.898   8.101  1.00  0.00     0.029 A 
ATOM     53  N   UNL     1       6.052  -9.749   7.534  1.00  0.00    -0.354 N 
ATOM     54  N   UNL     1       6.632  -6.906   7.854  1.00  0.00    -0.248 NA
ATOM     55  C   UNL     1       7.522  -5.139   9.095  1.00  0.00     0.031 C 
ATOM     56  C   UNL     1       6.765 -11.159   9.098  1.00  0.00     0.029 A 
ATOM     57  C   UNL     1       6.738  -9.823   8.735  1.00  0.00     0.049 A 
ATOM     58  H   UNL     1       5.870  -8.918   7.037  1.00  0.00     0.167 HD
ATOM     59  C   UNL     1       7.223  -7.409   9.005  1.00  0.00     0.074 A 
ATOM     60  C   UNL     1       7.781  -6.280   9.719  1.00  0.00     0.031 C 
ATOM     61  C   UNL     1       7.295  -8.693   9.431  1.00  0.00     0.037 A 
BRANCH  48  62
ATOM     62  C   UNL     1       4.523 -12.729   5.675  1.00  0.00     0.057 A 
ATOM     63  C   UNL     1       5.149 -13.512   4.697  1.00  0.00     0.134 A 
ATOM     64  C   UNL     1       3.514 -13.332   6.437  1.00  0.00     0.134 A 
ATOM     65  F   UNL     1       6.115 -12.991   3.925  1.00  0.00    -0.206 F 
ATOM     66  C   UNL     1       4.769 -14.835   4.467  1.00  0.00     0.040 A 
ATOM     67  C   UNL     1       3.142 -14.662   6.233  1.00  0.00     0.040 A 
ATOM     68  F   UNL     1       2.879 -12.641   7.396  1.00  0.00    -0.206 F 
ATOM     69  C   UNL     1       3.765 -15.415   5.240  1.00  0.00     0.006 A 
ENDBRANCH  48  62
BRANCH  49  70
ATOM     70  C   UNL     1       6.704  -3.130   7.144  1.00  0.00     0.057 A 
ATOM     71  C   UNL     1       8.015  -2.649   7.045  1.00  0.00     0.134 A 
ATOM     72  C   UNL     1       5.702  -2.213   7.480  1.00  0.00     0.134 A 
ATOM     73  F   UNL     1       9.020  -3.487   6.748  1.00  0.00    -0.206 F 
ATOM     74  C   UNL     1       8.321  -1.309   7.284  1.00  0.00     0.040 A 
ATOM     75  C   UNL     1       5.991  -0.866   7.699  1.00  0.00     0.040 A 
ATOM     76  F   UNL     1       4.427  -2.615   7.589  1.00  0.00    -0.206 F 
ATOM     77  C   UNL     1       7.305  -0.412   7.607  1.00  0.00     0.006 A 
ENDBRANCH  49  70
BRANCH  61  78
ATOM     78  C   UNL     1       8.028  -8.947  10.714  1.00  0.00     0.057 A 
ATOM     79  C   UNL     1       7.466  -8.631  11.957  1.00  0.00     0.134 A 
ATOM     80  C   UNL     1       9.296  -9.542  10.707  1.00  0.00     0.134 A 
ATOM     81  F   UNL     1       6.260  -8.048  12.030  1.00  0.00    -0.206 F 
ATOM     82  C   UNL     1       8.150  -8.878  13.149  1.00  0.00     0.040 A 
ATOM     83  C   UNL     1       9.980  -9.812  11.892  1.00  0.00     0.040 A 
ATOM     84  F   UNL     1       9.885  -9.875   9.549  1.00  0.00    -0.206 F 
ATOM     85  C   UNL     1       9.409  -9.476  13.118  1.00  0.00     0.006 A 
ENDBRANCH  61  78
ENDBRANCH  35  36
ENDBRANCH  27  30
ENDBRANCH  25  26
ENDBRANCH   1  25
TORSDOF 12
