REMARK SMILES O=C(NCCCNC(=O)c1cc(/C=C/c2cc(O)cc(O)c2)ccc1O)c1ccc(-c2c3nc(c(-c4c(F)cccc4F)c4ccc([nH]4)c(-c4c(F)cccc4F)c4nc(c(-c5c(F)cccc5F)c5ccc2[nH]5)C=C4)C=C3)cc1
REMARK SMILES IDX 5 1 4 2 3 3 1 4 2 5 27 7 28 8 80 9 29 10 79 11 30 12 31 13
REMARK SMILES IDX 32 14 73 15 33 16 78 17 72 18 74 19 34 20 77 21 71 22 70 23
REMARK SMILES IDX 35 25 61 26 44 27 60 28 45 29 48 30 59 31 75 32 46 33 47 34
REMARK SMILES IDX 58 36 76 37 49 38 36 39 37 40 42 41 38 42 39 43 41 44 43 45
REMARK SMILES IDX 40 46 62 47 63 48 68 49 64 50 65 51 67 52 69 53 66 54 50 55
REMARK SMILES IDX 51 56 56 57 52 58 53 59 55 60 57 61 54 62 6 63 7 64 8 65
REMARK SMILES IDX 9 67 10 68 11 69 25 70 12 71 24 72 23 73 26 74 13 76 14 77
REMARK SMILES IDX 15 78 16 79 22 80 17 81 20 82 19 83 18 84 21 86
REMARK H PARENT 3 6 74 24 48 35 7 66 26 75 18 85 21 87
REMARK Flexibility Score: inf
ROOT
ATOM      1  C   UNL     1       4.834   0.648  -2.590  1.00  0.00     0.042 C 
ENDROOT
BRANCH   1   2
ATOM      2  C   UNL     1       4.501   1.024  -1.155  1.00  0.00     0.118 C 
BRANCH   2   3
ATOM      3  N   UNL     1       3.082   0.884  -0.846  1.00  0.00    -0.352 N 
ATOM      4  O   UNL     1       1.197  -0.069  -0.061  1.00  0.00    -0.269 OA
ATOM      5  C   UNL     1       2.425  -0.018  -0.042  1.00  0.00     0.251 C 
ATOM      6  H   UNL     1       2.498   1.544  -1.285  1.00  0.00     0.163 HD
BRANCH   5   7
ATOM      7  C   UNL     1       3.184  -0.943   0.826  1.00  0.00     0.039 A 
ATOM      8  C   UNL     1       4.321  -0.507   1.503  1.00  0.00     0.014 A 
ATOM      9  C   UNL     1       2.744  -2.261   0.987  1.00  0.00     0.014 A 
ATOM     10  C   UNL     1       5.122  -1.424   2.168  1.00  0.00     0.010 A 
ATOM     11  C   UNL     1       3.485  -3.157   1.766  1.00  0.00     0.010 A 
ATOM     12  C   UNL     1       4.703  -2.755   2.333  1.00  0.00    -0.014 A 
BRANCH  12  13
ATOM     13  C   UNL     1       5.540  -3.655   3.169  1.00  0.00     0.031 A 
ATOM     14  C   UNL     1       6.200  -4.878   2.598  1.00  0.00     0.074 A 
ATOM     15  C   UNL     1       5.769  -3.296   4.448  1.00  0.00     0.049 A 
ATOM     16  N   UNL     1       7.039  -5.701   3.177  1.00  0.00    -0.248 NA
ATOM     17  C   UNL     1       5.875  -5.235   1.209  1.00  0.00     0.031 C 
ATOM     18  C   UNL     1       5.159  -2.144   5.120  1.00  0.00     0.029 A 
ATOM     19  N   UNL     1       6.605  -3.825   5.396  1.00  0.00    -0.354 N 
ATOM     20  C   UNL     1       7.332  -6.677   2.232  1.00  0.00     0.074 A 
ATOM     21  C   UNL     1       6.560  -6.360   1.049  1.00  0.00     0.031 C 
ATOM     22  C   UNL     1       5.701  -2.005   6.337  1.00  0.00     0.029 A 
ATOM     23  C   UNL     1       6.643  -3.094   6.560  1.00  0.00     0.049 A 
ATOM     24  H   UNL     1       7.128  -4.647   5.258  1.00  0.00     0.167 HD
ATOM     25  C   UNL     1       8.174  -7.732   2.341  1.00  0.00     0.037 A 
ATOM     26  C   UNL     1       7.351  -3.280   7.687  1.00  0.00     0.037 A 
ATOM     27  C   UNL     1       8.951  -8.035   3.517  1.00  0.00     0.049 A 
ATOM     28  C   UNL     1       8.289  -4.446   7.770  1.00  0.00     0.074 A 
ATOM     29  C   UNL     1       9.835  -9.081   3.722  1.00  0.00     0.029 A 
ATOM     30  N   UNL     1       8.940  -7.289   4.686  1.00  0.00    -0.354 N 
ATOM     31  N   UNL     1       8.560  -5.351   6.862  1.00  0.00    -0.248 NA
ATOM     32  C   UNL     1       9.013  -4.621   9.035  1.00  0.00     0.031 C 
ATOM     33  C   UNL     1      10.337  -8.984   5.025  1.00  0.00     0.029 A 
ATOM     34  C   UNL     1       9.795  -7.855   5.618  1.00  0.00     0.049 A 
ATOM     35  H   UNL     1       8.404  -6.476   4.832  1.00  0.00     0.167 HD
ATOM     36  C   UNL     1       9.482  -6.207   7.445  1.00  0.00     0.074 A 
ATOM     37  C   UNL     1       9.754  -5.687   8.770  1.00  0.00     0.031 C 
ATOM     38  C   UNL     1      10.041  -7.331   6.936  1.00  0.00     0.037 A 
BRANCH  25  39
ATOM     39  C   UNL     1       8.301  -8.648   1.158  1.00  0.00     0.057 A 
ATOM     40  C   UNL     1       9.006  -8.272   0.008  1.00  0.00     0.134 A 
ATOM     41  C   UNL     1       7.766  -9.942   1.194  1.00  0.00     0.134 A 
ATOM     42  F   UNL     1       9.533  -7.043  -0.095  1.00  0.00    -0.206 F 
ATOM     43  C   UNL     1       9.164  -9.147  -1.069  1.00  0.00     0.040 A 
ATOM     44  C   UNL     1       7.935 -10.833   0.132  1.00  0.00     0.040 A 
ATOM     45  F   UNL     1       7.084 -10.368   2.268  1.00  0.00    -0.206 F 
ATOM     46  C   UNL     1       8.635 -10.435  -1.005  1.00  0.00     0.006 A 
ENDBRANCH  25  39
BRANCH  26  47
ATOM     47  C   UNL     1       7.186  -2.343   8.825  1.00  0.00     0.057 A 
ATOM     48  C   UNL     1       8.212  -1.473   9.209  1.00  0.00     0.134 A 
ATOM     49  C   UNL     1       5.987  -2.287   9.548  1.00  0.00     0.134 A 
ATOM     50  F   UNL     1       9.388  -1.490   8.565  1.00  0.00    -0.206 F 
ATOM     51  C   UNL     1       8.059  -0.592  10.280  1.00  0.00     0.040 A 
ATOM     52  C   UNL     1       5.809  -1.391  10.602  1.00  0.00     0.040 A 
ATOM     53  F   UNL     1       4.962  -3.088   9.222  1.00  0.00    -0.206 F 
ATOM     54  C   UNL     1       6.851  -0.545  10.975  1.00  0.00     0.006 A 
ENDBRANCH  26  47
BRANCH  38  55
ATOM     55  C   UNL     1      11.000  -8.063   7.826  1.00  0.00     0.057 A 
ATOM     56  C   UNL     1      10.556  -8.799   8.932  1.00  0.00     0.134 A 
ATOM     57  C   UNL     1      12.377  -8.028   7.579  1.00  0.00     0.134 A 
ATOM     58  F   UNL     1       9.249  -8.856   9.230  1.00  0.00    -0.206 F 
ATOM     59  C   UNL     1      11.452  -9.450   9.780  1.00  0.00     0.040 A 
ATOM     60  C   UNL     1      13.281  -8.694   8.406  1.00  0.00     0.040 A 
ATOM     61  F   UNL     1      12.865  -7.344   6.532  1.00  0.00    -0.206 F 
ATOM     62  C   UNL     1      12.819  -9.401   9.515  1.00  0.00     0.006 A 
ENDBRANCH  38  55
ENDBRANCH  12  13
ENDBRANCH   5   7
ENDBRANCH   2   3
ENDBRANCH   1   2
BRANCH   1  63
ATOM     63  C   UNL     1       4.233   1.589  -3.621  1.00  0.00     0.118 C 
BRANCH  63  64
ATOM     64  N   UNL     1       4.736   2.946  -3.480  1.00  0.00    -0.352 N 
ATOM     65  C   UNL     1       5.600   3.640  -4.286  1.00  0.00     0.255 C 
ATOM     66  H   UNL     1       4.408   3.437  -2.692  1.00  0.00     0.163 HD
ATOM     67  O   UNL     1       6.033   4.731  -3.921  1.00  0.00    -0.269 OA
BRANCH  65  68
ATOM     68  C   UNL     1       6.080   3.054  -5.554  1.00  0.00     0.082 A 
ATOM     69  C   UNL     1       7.469   2.980  -5.737  1.00  0.00     0.025 A 
ATOM     70  C   UNL     1       5.215   2.627  -6.566  1.00  0.00     0.128 A 
ATOM     71  C   UNL     1       8.007   2.433  -6.908  1.00  0.00    -0.025 A 
ATOM     72  C   UNL     1       5.734   2.047  -7.719  1.00  0.00     0.047 A 
ATOM     73  C   UNL     1       7.120   1.944  -7.881  1.00  0.00     0.012 A 
BRANCH  70  74
ATOM     74  O   UNL     1       3.863   2.771  -6.433  1.00  0.00    -0.507 OA
ATOM     75  H   UNL     1       3.507   3.161  -5.658  1.00  0.00     0.293 HD
ENDBRANCH  70  74
BRANCH  71  76
ATOM     76  C   UNL     1       9.454   2.343  -7.175  1.00  0.00     0.009 C 
ATOM     77  C   UNL     1      10.427   2.927  -6.457  1.00  0.00     0.009 C 
BRANCH  77  78
ATOM     78  C   UNL     1      11.848   2.836  -6.822  1.00  0.00    -0.018 A 
ATOM     79  C   UNL     1      12.283   3.111  -8.127  1.00  0.00     0.054 A 
ATOM     80  C   UNL     1      12.792   2.535  -5.831  1.00  0.00     0.054 A 
ATOM     81  C   UNL     1      13.642   3.060  -8.430  1.00  0.00     0.119 A 
ATOM     82  C   UNL     1      14.147   2.487  -6.158  1.00  0.00     0.119 A 
ATOM     83  C   UNL     1      14.579   2.745  -7.453  1.00  0.00     0.092 A 
BRANCH  81  84
ATOM     84  O   UNL     1      14.098   3.325  -9.688  1.00  0.00    -0.508 OA
ATOM     85  H   UNL     1      13.492   3.541 -10.370  1.00  0.00     0.293 HD
ENDBRANCH  81  84
BRANCH  82  86
ATOM     86  O   UNL     1      15.092   2.191  -5.220  1.00  0.00    -0.508 OA
ATOM     87  H   UNL     1      15.998   2.164  -5.460  1.00  0.00     0.293 HD
ENDBRANCH  82  86
ENDBRANCH  77  78
ENDBRANCH  71  76
ENDBRANCH  65  68
ENDBRANCH  63  64
ENDBRANCH   1  63
TORSDOF 15
