REMARK SMILES O=C(NCCCNC(=O)[C@@H]1CC(=O)N(c2ccc(Cl)cc2C(=O)c2ccccc2)C1)c1ccc(-c2c3nc(c(-c4c(F)cccc4F)c4ccc([nH]4)c(-c4c(F)cccc4F)c4nc(c(-c5c(F)cccc5F)c5ccc2[nH]5)C=C4)C=C3)cc1
REMARK SMILES IDX 5 1 4 2 3 3 1 4 2 5 31 7 32 8 84 9 33 10 83 11 34 12 35 13
REMARK SMILES IDX 36 14 77 15 37 16 82 17 76 18 78 19 38 20 81 21 75 22 74 23
REMARK SMILES IDX 39 25 65 26 48 27 64 28 49 29 52 30 63 31 79 32 50 33 51 34
REMARK SMILES IDX 62 36 80 37 53 38 40 39 41 40 46 41 42 42 43 43 45 44 47 45
REMARK SMILES IDX 44 46 66 47 67 48 72 49 68 50 69 51 71 52 73 53 70 54 54 55
REMARK SMILES IDX 55 56 60 57 56 58 57 59 59 60 61 61 58 62 6 63 7 64 8 65
REMARK SMILES IDX 9 67 10 68 11 69 30 70 12 71 14 72 13 73 15 74 16 75 21 76
REMARK SMILES IDX 17 77 20 78 18 79 19 80 22 81 23 82 24 83 25 84 29 85 26 86
REMARK SMILES IDX 28 87 27 88
REMARK H PARENT 3 6 78 24 52 35 7 66
REMARK Flexibility Score: inf
ROOT
ATOM      1  C   UNL     1       4.581  -0.732   1.677  1.00  0.00     0.042 C 
ENDROOT
BRANCH   1   2
ATOM      2  C   UNL     1       4.266  -1.146   0.270  1.00  0.00     0.118 C 
BRANCH   2   3
ATOM      3  N   UNL     1       2.821  -1.143   0.065  1.00  0.00    -0.352 N 
ATOM      4  O   UNL     1       0.869  -0.115  -0.420  1.00  0.00    -0.269 OA
ATOM      5  C   UNL     1       2.072  -0.225  -0.624  1.00  0.00     0.251 C 
ATOM      6  H   UNL     1       2.325  -1.891   0.471  1.00  0.00     0.163 HD
BRANCH   5   7
ATOM      7  C   UNL     1       2.760   0.623  -1.610  1.00  0.00     0.039 A 
ATOM      8  C   UNL     1       3.809   0.074  -2.353  1.00  0.00     0.014 A 
ATOM      9  C   UNL     1       2.391   1.957  -1.770  1.00  0.00     0.014 A 
ATOM     10  C   UNL     1       4.621   0.896  -3.100  1.00  0.00     0.010 A 
ATOM     11  C   UNL     1       3.094   2.739  -2.681  1.00  0.00     0.010 A 
ATOM     12  C   UNL     1       4.215   2.209  -3.342  1.00  0.00    -0.014 A 
BRANCH  12  13
ATOM     13  C   UNL     1       4.893   2.960  -4.413  1.00  0.00     0.031 A 
ATOM     14  C   UNL     1       5.552   4.266  -4.130  1.00  0.00     0.074 A 
ATOM     15  C   UNL     1       4.852   2.443  -5.656  1.00  0.00     0.049 A 
ATOM     16  N   UNL     1       6.060   5.123  -4.972  1.00  0.00    -0.248 NA
ATOM     17  C   UNL     1       5.632   4.675  -2.720  1.00  0.00     0.031 C 
ATOM     18  C   UNL     1       4.231   1.163  -6.021  1.00  0.00     0.029 A 
ATOM     19  N   UNL     1       5.328   2.925  -6.844  1.00  0.00    -0.354 N 
ATOM     20  C   UNL     1       6.488   6.194  -4.202  1.00  0.00     0.074 A 
ATOM     21  C   UNL     1       6.154   5.888  -2.827  1.00  0.00     0.031 C 
ATOM     22  C   UNL     1       4.385   0.952  -7.331  1.00  0.00     0.029 A 
ATOM     23  C   UNL     1       5.011   2.127  -7.914  1.00  0.00     0.049 A 
ATOM     24  H   UNL     1       5.844   3.759  -6.923  1.00  0.00     0.167 HD
ATOM     25  C   UNL     1       7.098   7.326  -4.622  1.00  0.00     0.037 A 
ATOM     26  C   UNL     1       5.143   2.344  -9.233  1.00  0.00     0.037 A 
ATOM     27  C   UNL     1       7.400   7.596  -6.004  1.00  0.00     0.049 A 
ATOM     28  C   UNL     1       5.761   3.631  -9.677  1.00  0.00     0.074 A 
ATOM     29  C   UNL     1       8.044   8.692  -6.547  1.00  0.00     0.029 A 
ATOM     30  N   UNL     1       7.057   6.766  -7.066  1.00  0.00    -0.354 N 
ATOM     31  N   UNL     1       6.186   4.632  -8.945  1.00  0.00    -0.248 NA
ATOM     32  C   UNL     1       5.919   3.824 -11.121  1.00  0.00     0.031 C 
ATOM     33  C   UNL     1       8.015   8.566  -7.939  1.00  0.00     0.029 A 
ATOM     34  C   UNL     1       7.439   7.347  -8.263  1.00  0.00     0.049 A 
ATOM     35  H   UNL     1       6.608   5.895  -6.979  1.00  0.00     0.167 HD
ATOM     36  C   UNL     1       6.691   5.565  -9.835  1.00  0.00     0.074 A 
ATOM     37  C   UNL     1       6.517   5.007 -11.163  1.00  0.00     0.031 C 
ATOM     38  C   UNL     1       7.259   6.768  -9.574  1.00  0.00     0.037 A 
BRANCH  25  39
ATOM     39  C   UNL     1       7.406   8.367  -3.584  1.00  0.00     0.057 A 
ATOM     40  C   UNL     1       8.327   8.150  -2.549  1.00  0.00     0.134 A 
ATOM     41  C   UNL     1       6.750   9.605  -3.608  1.00  0.00     0.134 A 
ATOM     42  F   UNL     1       8.986   6.985  -2.458  1.00  0.00    -0.206 F 
ATOM     43  C   UNL     1       8.541   9.100  -1.548  1.00  0.00     0.040 A 
ATOM     44  C   UNL     1       6.986  10.579  -2.636  1.00  0.00     0.040 A 
ATOM     45  F   UNL     1       5.863   9.890  -4.573  1.00  0.00    -0.206 F 
ATOM     46  C   UNL     1       7.870  10.320  -1.592  1.00  0.00     0.006 A 
ENDBRANCH  25  39
BRANCH  26  47
ATOM     47  C   UNL     1       4.643   1.326 -10.186  1.00  0.00     0.057 A 
ATOM     48  C   UNL     1       5.523   0.545 -10.939  1.00  0.00     0.134 A 
ATOM     49  C   UNL     1       3.272   1.053 -10.304  1.00  0.00     0.134 A 
ATOM     50  F   UNL     1       6.845   0.758 -10.866  1.00  0.00    -0.206 F 
ATOM     51  C   UNL     1       5.061  -0.465 -11.784  1.00  0.00     0.040 A 
ATOM     52  C   UNL     1       2.798   0.026 -11.120  1.00  0.00     0.040 A 
ATOM     53  F   UNL     1       2.378   1.748  -9.585  1.00  0.00    -0.206 F 
ATOM     54  C   UNL     1       3.695  -0.733 -11.868  1.00  0.00     0.006 A 
ENDBRANCH  26  47
BRANCH  38  55
ATOM     55  C   UNL     1       7.791   7.545 -10.741  1.00  0.00     0.057 A 
ATOM     56  C   UNL     1       6.950   8.182 -11.661  1.00  0.00     0.134 A 
ATOM     57  C   UNL     1       9.172   7.729 -10.887  1.00  0.00     0.134 A 
ATOM     58  F   UNL     1       5.619   8.030 -11.586  1.00  0.00    -0.206 F 
ATOM     59  C   UNL     1       7.466   8.974 -12.687  1.00  0.00     0.040 A 
ATOM     60  C   UNL     1       9.698   8.545 -11.887  1.00  0.00     0.040 A 
ATOM     61  F   UNL     1      10.031   7.147 -10.035  1.00  0.00    -0.206 F 
ATOM     62  C   UNL     1       8.843   9.169 -12.792  1.00  0.00     0.006 A 
ENDBRANCH  38  55
ENDBRANCH  12  13
ENDBRANCH   5   7
ENDBRANCH   2   3
ENDBRANCH   1   2
BRANCH   1  63
ATOM     63  C   UNL     1       4.141  -1.826   2.643  1.00  0.00     0.117 C 
BRANCH  63  64
ATOM     64  N   UNL     1       5.410  -2.663   3.306  1.00  0.00    -0.356 N 
ATOM     65  C   UNL     1       6.481  -2.808   4.938  1.00  0.00     0.225 C 
ATOM     66  H   UNL     1       5.740  -3.316   2.648  1.00  0.00     0.163 HD
ATOM     67  O   UNL     1       7.334  -3.703   5.273  1.00  0.00    -0.275 OA
BRANCH  65  68
ATOM     68  C   UNL     1       6.696  -1.655   6.289  1.00  0.00     0.107 C 
ATOM     69  C   UNL     1       5.834  -0.587   7.001  1.00  0.00     0.116 C 
ATOM     70  C   UNL     1       7.994  -0.870   6.067  1.00  0.00     0.139 C 
ATOM     71  C   UNL     1       6.336   0.735   6.433  1.00  0.00     0.227 C 
ATOM     72  N   UNL     1       7.527   0.459   5.735  1.00  0.00    -0.311 N 
ATOM     73  O   UNL     1       5.688   1.770   6.452  1.00  0.00    -0.274 OA
BRANCH  72  74
ATOM     74  C   UNL     1       7.976   1.240   4.632  1.00  0.00     0.055 A 
ATOM     75  C   UNL     1       7.996   2.638   4.787  1.00  0.00     0.028 A 
ATOM     76  C   UNL     1       8.401   0.712   3.391  1.00  0.00     0.048 A 
ATOM     77  C   UNL     1       8.541   3.478   3.809  1.00  0.00     0.023 A 
ATOM     78  C   UNL     1       9.000   1.563   2.435  1.00  0.00     0.035 A 
ATOM     79  C   UNL     1       9.079   2.932   2.654  1.00  0.00     0.041 A 
ATOM     80  Cl  UNL     1       9.811   3.950   1.478  1.00  0.00    -0.084 Cl
BRANCH  76  81
ATOM     81  C   UNL     1       8.181  -0.673   2.895  1.00  0.00     0.195 C 
ATOM     82  O   UNL     1       8.929  -1.130   2.031  1.00  0.00    -0.289 OA
BRANCH  81  83
ATOM     83  C   UNL     1       7.095  -1.557   3.352  1.00  0.00     0.023 A 
ATOM     84  C   UNL     1       7.332  -3.325   3.007  1.00  0.00     0.012 A 
ATOM     85  C   UNL     1       5.635  -1.001   4.317  1.00  0.00     0.012 A 
ATOM     86  C   UNL     1       6.153  -4.565   3.652  1.00  0.00     0.001 A 
ATOM     87  C   UNL     1       4.486  -2.271   5.043  1.00  0.00     0.001 A 
ATOM     88  C   UNL     1       4.756  -4.032   4.678  1.00  0.00     0.000 A 
ENDBRANCH  81  83
ENDBRANCH  76  81
ENDBRANCH  72  74
ENDBRANCH  65  68
ENDBRANCH  63  64
ENDBRANCH   1  63
TORSDOF 13
