REMARK SMILES O=C(NCCCNC(=O)c1cc(N2CCN(c3ccc(F)cc3)CC2)ccc1NC(=O)C1CCCC1)c1ccc(-c2c3nc(c(-c4c(F)cccc4F)c4ccc([nH]4)c(-c4c(F)cccc4F)c4nc(c(-c5c(F)cccc5F)c5ccc2[nH]5)C=C4)C=C3)cc1
REMARK SMILES IDX 5 1 4 2 3 3 1 4 2 5 37 7 38 8 90 9 39 10 89 11 40 12 41 13
REMARK SMILES IDX 42 14 83 15 43 16 88 17 82 18 84 19 44 20 87 21 81 22 80 23
REMARK SMILES IDX 45 25 71 26 54 27 70 28 55 29 58 30 69 31 85 32 56 33 57 34
REMARK SMILES IDX 68 36 86 37 59 38 46 39 47 40 52 41 48 42 49 43 51 44 53 45
REMARK SMILES IDX 50 46 72 47 73 48 78 49 74 50 75 51 77 52 79 53 76 54 60 55
REMARK SMILES IDX 61 56 66 57 62 58 63 59 65 60 67 61 64 62 6 63 7 64 8 65
REMARK SMILES IDX 9 67 10 68 11 69 28 70 12 71 27 72 26 73 29 74 30 75 31 77
REMARK SMILES IDX 32 78 33 79 36 80 34 81 35 82 13 83 14 84 25 85 15 86 24 87
REMARK SMILES IDX 16 88 17 89 18 90 23 91 19 92 22 93 20 94 21 95
REMARK H PARENT 3 6 84 24 58 35 7 66 29 76
REMARK Flexibility Score: inf
ROOT
ATOM      1  C   UNL     1       5.144   1.421  -1.984  1.00  0.00     0.042 C 
ENDROOT
BRANCH   1   2
ATOM      2  C   UNL     1       4.650   1.356  -0.548  1.00  0.00     0.118 C 
BRANCH   2   3
ATOM      3  N   UNL     1       3.210   1.159  -0.433  1.00  0.00    -0.352 N 
ATOM      4  O   UNL     1       1.266   0.064  -0.110  1.00  0.00    -0.269 OA
ATOM      5  C   UNL     1       2.486   0.066  -0.013  1.00  0.00     0.251 C 
ATOM      6  H   UNL     1       2.667   1.935  -0.700  1.00  0.00     0.163 HD
BRANCH   5   7
ATOM      7  C   UNL     1       3.181  -1.123   0.527  1.00  0.00     0.039 A 
ATOM      8  C   UNL     1       4.261  -0.981   1.394  1.00  0.00     0.014 A 
ATOM      9  C   UNL     1       2.745  -2.401   0.162  1.00  0.00     0.014 A 
ATOM     10  C   UNL     1       5.031  -2.087   1.721  1.00  0.00     0.010 A 
ATOM     11  C   UNL     1       3.443  -3.529   0.606  1.00  0.00     0.010 A 
ATOM     12  C   UNL     1       4.617  -3.379   1.357  1.00  0.00    -0.014 A 
BRANCH  12  13
ATOM     13  C   UNL     1       5.402  -4.536   1.857  1.00  0.00     0.031 A 
ATOM     14  C   UNL     1       6.099  -5.482   0.921  1.00  0.00     0.074 A 
ATOM     15  C   UNL     1       5.538  -4.677   3.191  1.00  0.00     0.049 A 
ATOM     16  N   UNL     1       6.878  -6.495   1.210  1.00  0.00    -0.248 NA
ATOM     17  C   UNL     1       5.897  -5.277  -0.521  1.00  0.00     0.031 C 
ATOM     18  C   UNL     1       4.890  -3.828   4.197  1.00  0.00     0.029 A 
ATOM     19  N   UNL     1       6.293  -5.547   3.933  1.00  0.00    -0.354 N 
ATOM     20  C   UNL     1       7.242  -7.059  -0.006  1.00  0.00     0.074 A 
ATOM     21  C   UNL     1       6.583  -6.289  -1.040  1.00  0.00     0.031 C 
ATOM     22  C   UNL     1       5.334  -4.167   5.414  1.00  0.00     0.029 A 
ATOM     23  C   UNL     1       6.236  -5.303   5.285  1.00  0.00     0.049 A 
ATOM     24  H   UNL     1       6.824  -6.275   3.537  1.00  0.00     0.167 HD
ATOM     25  C   UNL     1       8.056  -8.117  -0.235  1.00  0.00     0.037 A 
ATOM     26  C   UNL     1       6.833  -5.933   6.312  1.00  0.00     0.037 A 
ATOM     27  C   UNL     1       8.724  -8.867   0.798  1.00  0.00     0.049 A 
ATOM     28  C   UNL     1       7.729  -7.098   6.024  1.00  0.00     0.074 A 
ATOM     29  C   UNL     1       9.581  -9.947   0.664  1.00  0.00     0.029 A 
ATOM     30  N   UNL     1       8.612  -8.615   2.157  1.00  0.00    -0.354 N 
ATOM     31  N   UNL     1       8.070  -7.608   4.866  1.00  0.00    -0.248 NA
ATOM     32  C   UNL     1       8.314  -7.782   7.183  1.00  0.00     0.031 C 
ATOM     33  C   UNL     1       9.961 -10.367   1.943  1.00  0.00     0.029 A 
ATOM     34  C   UNL     1       9.373  -9.526   2.873  1.00  0.00     0.049 A 
ATOM     35  H   UNL     1       8.072  -7.894   2.555  1.00  0.00     0.167 HD
ATOM     36  C   UNL     1       8.909  -8.674   5.156  1.00  0.00     0.074 A 
ATOM     37  C   UNL     1       9.054  -8.711   6.597  1.00  0.00     0.031 C 
ATOM     38  C   UNL     1       9.496  -9.551   4.307  1.00  0.00     0.037 A 
BRANCH  25  39
ATOM     39  C   UNL     1       8.272  -8.539  -1.660  1.00  0.00     0.057 A 
ATOM     40  C   UNL     1       9.086  -7.806  -2.532  1.00  0.00     0.134 A 
ATOM     41  C   UNL     1       7.715  -9.730  -2.143  1.00  0.00     0.134 A 
ATOM     42  F   UNL     1       9.640  -6.651  -2.135  1.00  0.00    -0.206 F 
ATOM     43  C   UNL     1       9.332  -8.238  -3.837  1.00  0.00     0.040 A 
ATOM     44  C   UNL     1       7.970 -10.183  -3.439  1.00  0.00     0.040 A 
ATOM     45  F   UNL     1       6.931 -10.483  -1.358  1.00  0.00    -0.206 F 
ATOM     46  C   UNL     1       8.780  -9.435  -4.291  1.00  0.00     0.006 A 
ENDBRANCH  25  39
BRANCH  26  47
ATOM     47  C   UNL     1       6.582  -5.481   7.703  1.00  0.00     0.057 A 
ATOM     48  C   UNL     1       7.590  -4.886   8.467  1.00  0.00     0.134 A 
ATOM     49  C   UNL     1       5.322  -5.630   8.297  1.00  0.00     0.134 A 
ATOM     50  F   UNL     1       8.821  -4.730   7.958  1.00  0.00    -0.206 F 
ATOM     51  C   UNL     1       7.361  -4.469   9.780  1.00  0.00     0.040 A 
ATOM     52  C   UNL     1       5.071  -5.191   9.597  1.00  0.00     0.040 A 
ATOM     53  F   UNL     1       4.311  -6.185   7.612  1.00  0.00    -0.206 F 
ATOM     54  C   UNL     1       6.095  -4.616  10.345  1.00  0.00     0.006 A 
ENDBRANCH  26  47
BRANCH  38  55
ATOM     55  C   UNL     1      10.350 -10.614   4.928  1.00  0.00     0.057 A 
ATOM     56  C   UNL     1       9.787 -11.690   5.627  1.00  0.00     0.134 A 
ATOM     57  C   UNL     1      11.745 -10.560   4.830  1.00  0.00     0.134 A 
ATOM     58  F   UNL     1       8.457 -11.788   5.769  1.00  0.00    -0.206 F 
ATOM     59  C   UNL     1      10.586 -12.661   6.232  1.00  0.00     0.040 A 
ATOM     60  C   UNL     1      12.553 -11.537   5.412  1.00  0.00     0.040 A 
ATOM     61  F   UNL     1      12.344  -9.557   4.170  1.00  0.00    -0.206 F 
ATOM     62  C   UNL     1      11.973 -12.587   6.122  1.00  0.00     0.006 A 
ENDBRANCH  38  55
ENDBRANCH  12  13
ENDBRANCH   5   7
ENDBRANCH   2   3
ENDBRANCH   1   2
BRANCH   1  63
ATOM     63  C   UNL     1       4.665   2.644  -2.744  1.00  0.00     0.118 C 
BRANCH  63  64
ATOM     64  N   UNL     1       5.063   3.893  -2.105  1.00  0.00    -0.352 N 
ATOM     65  C   UNL     1       5.821   4.938  -2.569  1.00  0.00     0.253 C 
ATOM     66  H   UNL     1       4.731   4.006  -1.185  1.00  0.00     0.163 HD
ATOM     67  O   UNL     1       6.191   5.798  -1.774  1.00  0.00    -0.269 OA
BRANCH  65  68
ATOM     68  C   UNL     1       6.180   5.062  -4.002  1.00  0.00     0.065 A 
ATOM     69  C   UNL     1       7.513   5.440  -4.266  1.00  0.00     0.042 A 
ATOM     70  C   UNL     1       5.241   4.924  -5.050  1.00  0.00     0.054 A 
ATOM     71  C   UNL     1       7.947   5.689  -5.567  1.00  0.00     0.038 A 
ATOM     72  C   UNL     1       5.714   5.098  -6.346  1.00  0.00     0.029 A 
ATOM     73  C   UNL     1       7.040   5.463  -6.597  1.00  0.00     0.028 A 
BRANCH  70  74
ATOM     74  N   UNL     1       3.886   4.661  -4.737  1.00  0.00    -0.325 N 
ATOM     75  C   UNL     1       2.809   4.175  -5.421  1.00  0.00     0.227 C 
ATOM     76  H   UNL     1       3.668   4.881  -3.802  1.00  0.00     0.169 HD
ATOM     77  O   UNL     1       1.789   3.938  -4.768  1.00  0.00    -0.274 OA
BRANCH  75  78
ATOM     78  C   UNL     1       2.861   3.924  -6.907  1.00  0.00     0.079 C 
ATOM     79  C   UNL     1       1.848   2.917  -7.445  1.00  0.00     0.013 C 
ATOM     80  C   UNL     1       2.458   5.187  -7.666  1.00  0.00     0.013 C 
ATOM     81  C   UNL     1       1.871   3.201  -8.945  1.00  0.00     0.001 C 
ATOM     82  C   UNL     1       2.149   4.700  -9.075  1.00  0.00     0.001 C 
ENDBRANCH  75  78
ENDBRANCH  70  74
BRANCH  71  83
ATOM     83  N   UNL     1       9.182   6.254  -5.802  1.00  0.00    -0.368 N 
ATOM     84  C   UNL     1      10.416   5.450  -5.755  1.00  0.00     0.138 C 
ATOM     85  C   UNL     1       9.254   7.483  -6.612  1.00  0.00     0.138 C 
ATOM     86  C   UNL     1      10.986   5.187  -7.180  1.00  0.00     0.138 C 
ATOM     87  C   UNL     1       9.770   7.187  -8.033  1.00  0.00     0.138 C 
ATOM     88  N   UNL     1      11.027   6.427  -7.984  1.00  0.00    -0.368 N 
BRANCH  88  89
ATOM     89  C   UNL     1      12.224   7.029  -8.311  1.00  0.00     0.037 A 
ATOM     90  C   UNL     1      13.193   6.327  -9.044  1.00  0.00     0.029 A 
ATOM     91  C   UNL     1      12.501   8.365  -7.978  1.00  0.00     0.029 A 
ATOM     92  C   UNL     1      14.378   6.945  -9.457  1.00  0.00     0.041 A 
ATOM     93  C   UNL     1      13.689   8.984  -8.372  1.00  0.00     0.041 A 
ATOM     94  C   UNL     1      14.613   8.270  -9.117  1.00  0.00     0.123 A 
ATOM     95  F   UNL     1      15.743   8.867  -9.518  1.00  0.00    -0.207 F 
ENDBRANCH  88  89
ENDBRANCH  71  83
ENDBRANCH  65  68
ENDBRANCH  63  64
ENDBRANCH   1  63
TORSDOF 14
