REMARK SMILES C[NH+](C)C(C)(C)CNC(=O)N[C@H]1CCCCC[C@@H]1C(=O)NCCCNC(=O)c1ccc(-c2c3nc(c(-c4c(F)cccc4F)c4ccc([nH]4)c(-c4c(F)cccc4F)c4nc(c(-c5c(F)cccc5F)c5ccc2[nH]5)C=C4)C=C3)cc1
REMARK SMILES IDX 19 1 20 2 21 3 18 5 12 6 11 7 8 8 9 9 10 11 7 13 4 14 5 15
REMARK SMILES IDX 6 16 2 17 1 18 3 19 13 21 14 22 17 24 16 25 15 26 22 28
REMARK SMILES IDX 23 29 24 30 25 31 26 32 27 34 28 35 29 36 81 37 30 38 80 39
REMARK SMILES IDX 31 40 32 41 33 42 74 43 34 44 79 45 73 46 75 47 35 48 78 49
REMARK SMILES IDX 72 50 71 51 36 53 62 54 45 55 61 56 46 57 49 58 60 59 76 60
REMARK SMILES IDX 47 61 48 62 59 64 77 65 50 66 37 67 38 68 43 69 39 70 40 71
REMARK SMILES IDX 42 72 44 73 41 74 63 75 64 76 69 77 65 78 66 79 68 80 70 81
REMARK SMILES IDX 67 82 51 83 52 84 57 85 53 86 54 87 56 88 58 89 55 90
REMARK H PARENT 21 4 8 10 11 12 2 20 25 33 75 52 49 63
REMARK Flexibility Score: 90.00
ROOT
ATOM      1  C   UNL     1      -2.204   0.356  -2.337  1.00  0.00     0.225 C 
ATOM      2  O   UNL     1      -1.137  -0.209  -2.409  1.00  0.00    -0.275 OA
ATOM      3  N   UNL     1      -3.443  -0.198  -2.065  1.00  0.00    -0.356 N 
ATOM      4  H   UNL     1      -4.185   0.447  -2.002  1.00  0.00     0.163 HD
ENDROOT
BRANCH   1   5
ATOM      5  C   UNL     1      -2.062   1.788  -2.745  1.00  0.00     0.101 C 
BRANCH   5   6
ATOM      6  C   UNL     1      -1.837   1.700  -4.272  1.00  0.00     0.096 C 
BRANCH   6   7
ATOM      7  N   UNL     1      -2.729   0.750  -4.950  1.00  0.00    -0.335 N 
ATOM      8  N   UNL     1      -2.078  -1.577  -4.566  1.00  0.00    -0.332 N 
ATOM      9  C   UNL     1      -2.805  -0.579  -5.112  1.00  0.00     0.315 C 
ATOM     10  H   UNL     1      -2.606  -2.407  -4.615  1.00  0.00     0.165 HD
ATOM     11  O   UNL     1      -3.740  -0.941  -5.846  1.00  0.00    -0.249 OA
ATOM     12  H   UNL     1      -3.469   1.212  -5.406  1.00  0.00     0.165 HD
BRANCH   8  13
ATOM     13  C   UNL     1      -0.748  -1.898  -3.903  1.00  0.00     0.185 C 
BRANCH  13  14
ATOM     14  C   UNL     1      -0.351  -2.583  -2.285  1.00  0.00     0.109 C 
ATOM     15  C   UNL     1       1.195  -2.463  -2.363  1.00  0.00     0.080 C 
ATOM     16  C   UNL     1      -0.699  -4.096  -2.370  1.00  0.00     0.080 C 
BRANCH  14  17
ATOM     17  N   UNL     1      -0.755  -2.178  -0.812  1.00  0.00    -0.334 N 
ATOM     18  C   UNL     1      -0.415  -3.146   0.250  1.00  0.00     0.333 C 
ATOM     19  C   UNL     1      -0.301  -0.879  -0.247  1.00  0.00     0.333 C 
ATOM     20  H   UNL     1      -1.752  -2.129  -1.022  1.00  0.00     0.348 HD
ENDBRANCH  14  17
ENDBRANCH  13  14
ENDBRANCH   8  13
ENDBRANCH   6   7
BRANCH   6  21
ATOM     21  C   UNL     1      -1.877   3.108  -4.934  1.00  0.00     0.026 C 
BRANCH  21  22
ATOM     22  C   UNL     1      -2.121   4.334  -4.029  1.00  0.00     0.002 CG0
ATOM     23  G   UNL     1      -0.932   4.723  -3.150  1.00  0.00     0.000 G0
ENDBRANCH  21  22
ENDBRANCH   6  21
ENDBRANCH   5   6
BRANCH   5  24
ATOM     24  C   UNL     1      -0.732   2.370  -2.147  1.00  0.00     0.015 C 
BRANCH  24  25
ATOM     25  C   UNL     1      -0.734   3.868  -1.906  1.00  0.00     0.001 C 
BRANCH  25  26
ATOM     26  C   UNL     1      -0.932   4.723  -3.150  1.00  0.00     0.000 CG0
ATOM     27  G   UNL     1      -2.121   4.334  -4.029  1.00  0.00     0.000 G0
ENDBRANCH  25  26
ENDBRANCH  24  25
ENDBRANCH   5  24
ENDBRANCH   1   5
BRANCH   3  28
ATOM     28  C   UNL     1      -3.827  -1.641  -1.849  1.00  0.00     0.117 C 
BRANCH  28  29
ATOM     29  C   UNL     1      -4.559  -2.424  -2.991  1.00  0.00     0.042 C 
BRANCH  29  30
ATOM     30  C   UNL     1      -4.013  -3.811  -3.445  1.00  0.00     0.118 C 
BRANCH  30  31
ATOM     31  N   UNL     1      -4.302  -4.904  -2.523  1.00  0.00    -0.352 N 
ATOM     32  C   UNL     1      -4.686  -6.199  -2.788  1.00  0.00     0.251 C 
ATOM     33  H   UNL     1      -4.208  -4.682  -1.568  1.00  0.00     0.163 HD
ATOM     34  O   UNL     1      -5.040  -6.938  -1.866  1.00  0.00    -0.269 OA
BRANCH  32  35
ATOM     35  C   UNL     1      -4.689  -6.736  -4.169  1.00  0.00     0.039 A 
ATOM     36  C   UNL     1      -5.864  -7.298  -4.681  1.00  0.00     0.014 A 
ATOM     37  C   UNL     1      -3.516  -6.773  -4.928  1.00  0.00     0.014 A 
ATOM     38  C   UNL     1      -5.880  -7.836  -5.975  1.00  0.00     0.010 A 
ATOM     39  C   UNL     1      -3.543  -7.283  -6.234  1.00  0.00     0.010 A 
ATOM     40  C   UNL     1      -4.727  -7.812  -6.777  1.00  0.00    -0.014 A 
BRANCH  40  41
ATOM     41  C   UNL     1      -4.763  -8.324  -8.179  1.00  0.00     0.031 A 
ATOM     42  C   UNL     1      -3.971  -9.541  -8.581  1.00  0.00     0.074 A 
ATOM     43  C   UNL     1      -5.489  -7.673  -9.111  1.00  0.00     0.049 A 
ATOM     44  N   UNL     1      -3.872 -10.118  -9.754  1.00  0.00    -0.248 NA
ATOM     45  C   UNL     1      -3.170 -10.184  -7.530  1.00  0.00     0.031 C 
ATOM     46  C   UNL     1      -6.273  -6.460  -8.871  1.00  0.00     0.029 A 
ATOM     47  N   UNL     1      -5.685  -7.934 -10.446  1.00  0.00    -0.354 N 
ATOM     48  C   UNL     1      -2.995 -11.182  -9.584  1.00  0.00     0.074 A 
ATOM     49  C   UNL     1      -2.548 -11.138  -8.208  1.00  0.00     0.031 C 
ATOM     50  C   UNL     1      -6.886  -6.099 -10.009  1.00  0.00     0.029 A 
ATOM     51  C   UNL     1      -6.511  -7.029 -11.071  1.00  0.00     0.049 A 
ATOM     52  H   UNL     1      -5.273  -8.697 -10.912  1.00  0.00     0.167 HD
ATOM     53  C   UNL     1      -2.613 -12.125 -10.482  1.00  0.00     0.037 A 
ATOM     54  C   UNL     1      -6.917  -6.950 -12.354  1.00  0.00     0.037 A 
ATOM     55  C   UNL     1      -3.064 -12.175 -11.850  1.00  0.00     0.049 A 
ATOM     56  C   UNL     1      -6.458  -7.991 -13.339  1.00  0.00     0.074 A 
ATOM     57  C   UNL     1      -2.773 -13.118 -12.821  1.00  0.00     0.029 A 
ATOM     58  N   UNL     1      -3.894 -11.236 -12.444  1.00  0.00    -0.354 N 
ATOM     59  N   UNL     1      -5.686  -9.032 -13.143  1.00  0.00    -0.248 NA
ATOM     60  C   UNL     1      -6.933  -7.849 -14.723  1.00  0.00     0.031 C 
ATOM     61  C   UNL     1      -3.381 -12.720 -14.016  1.00  0.00     0.029 A 
ATOM     62  C   UNL     1      -4.102 -11.562 -13.775  1.00  0.00     0.049 A 
ATOM     63  H   UNL     1      -4.280 -10.454 -11.987  1.00  0.00     0.167 HD
ATOM     64  C   UNL     1      -5.606  -9.684 -14.368  1.00  0.00     0.074 A 
ATOM     65  C   UNL     1      -6.422  -8.930 -15.296  1.00  0.00     0.031 C 
ATOM     66  C   UNL     1      -4.920 -10.807 -14.692  1.00  0.00     0.037 A 
BRANCH  53  67
ATOM     67  C   UNL     1      -1.650 -13.180 -10.011  1.00  0.00     0.057 A 
ATOM     68  C   UNL     1      -2.019 -14.156  -9.075  1.00  0.00     0.134 A 
ATOM     69  C   UNL     1      -0.345 -13.239 -10.518  1.00  0.00     0.134 A 
ATOM     70  F   UNL     1      -3.251 -14.157  -8.544  1.00  0.00    -0.206 F 
ATOM     71  C   UNL     1      -1.117 -15.126  -8.633  1.00  0.00     0.040 A 
ATOM     72  C   UNL     1       0.557 -14.224 -10.108  1.00  0.00     0.040 A 
ATOM     73  F   UNL     1       0.075 -12.346 -11.427  1.00  0.00    -0.206 F 
ATOM     74  C   UNL     1       0.174 -15.165  -9.154  1.00  0.00     0.006 A 
ENDBRANCH  53  67
BRANCH  54  75
ATOM     75  C   UNL     1      -7.828  -5.855 -12.781  1.00  0.00     0.057 A 
ATOM     76  C   UNL     1      -9.151  -6.118 -13.156  1.00  0.00     0.134 A 
ATOM     77  C   UNL     1      -7.397  -4.524 -12.834  1.00  0.00     0.134 A 
ATOM     78  F   UNL     1      -9.618  -7.375 -13.149  1.00  0.00    -0.206 F 
ATOM     79  C   UNL     1     -10.007  -5.101 -13.585  1.00  0.00     0.040 A 
ATOM     80  C   UNL     1      -8.251  -3.493 -13.233  1.00  0.00     0.040 A 
ATOM     81  F   UNL     1      -6.143  -4.203 -12.486  1.00  0.00    -0.206 F 
ATOM     82  C   UNL     1      -9.558  -3.782 -13.617  1.00  0.00     0.006 A 
ENDBRANCH  54  75
BRANCH  66  83
ATOM     83  C   UNL     1      -5.048 -11.314 -16.101  1.00  0.00     0.057 A 
ATOM     84  C   UNL     1      -4.467 -10.647 -17.187  1.00  0.00     0.134 A 
ATOM     85  C   UNL     1      -5.729 -12.509 -16.368  1.00  0.00     0.134 A 
ATOM     86  F   UNL     1      -3.812  -9.491 -17.004  1.00  0.00    -0.206 F 
ATOM     87  C   UNL     1      -4.578 -11.138 -18.489  1.00  0.00     0.040 A 
ATOM     88  C   UNL     1      -5.821 -13.026 -17.661  1.00  0.00     0.040 A 
ATOM     89  F   UNL     1      -6.302 -13.204 -15.374  1.00  0.00    -0.206 F 
ATOM     90  C   UNL     1      -5.250 -12.335 -18.728  1.00  0.00     0.006 A 
ENDBRANCH  66  83
ENDBRANCH  40  41
ENDBRANCH  32  35
ENDBRANCH  30  31
ENDBRANCH  29  30
ENDBRANCH  28  29
ENDBRANCH   3  28
TORSDOF 14
