REMARK SMILES C[NH2+][C@@]1(C(=O)NCCCNC(=O)c2ccc(-c3c4nc(c(-c5c(F)cccc5F)c5ccc([nH]5)c(-c5c(F)cccc5F)c5nc(c(-c6c(F)cccc6F)c6ccc3[nH]6)C=C5)C=C4)cc2)CC[C@H](Sc2ccc(C)c(C)c2)C1
REMARK SMILES IDX 8 1 7 2 6 3 4 4 5 5 3 7 67 8 79 9 68 10 69 11 2 12 1 13
REMARK SMILES IDX 70 16 71 17 72 18 78 19 73 20 76 21 74 22 77 23 75 24 9 25
REMARK SMILES IDX 10 26 11 27 12 29 13 30 14 31 66 32 15 33 65 34 16 35 17 36
REMARK SMILES IDX 18 37 59 38 19 39 64 40 58 41 60 42 20 43 63 44 57 45 56 46
REMARK SMILES IDX 21 48 47 49 30 50 46 51 31 52 34 53 45 54 61 55 32 56 33 57
REMARK SMILES IDX 44 59 62 60 35 61 22 62 23 63 28 64 24 65 25 66 27 67 29 68
REMARK SMILES IDX 26 69 48 70 49 71 54 72 50 73 51 74 53 75 55 76 52 77 36 78
REMARK SMILES IDX 37 79 42 80 38 81 39 82 41 83 43 84 40 85
REMARK H PARENT 6 6 2 14 2 15 10 28 60 47 34 58
REMARK Flexibility Score: inf
ROOT
ATOM      1  C   UNL     1      -4.635  -0.584   0.708  1.00  0.00     0.042 C 
ENDROOT
BRANCH   1   2
ATOM      2  C   UNL     1      -4.007   0.661   0.111  1.00  0.00     0.118 C 
BRANCH   2   3
ATOM      3  N   UNL     1      -2.702   0.966   0.654  1.00  0.00    -0.351 N 
ATOM      4  C   UNL     1      -1.471   1.040   0.080  1.00  0.00     0.281 C 
ATOM      5  O   UNL     1      -0.598   1.540   0.804  1.00  0.00    -0.268 OA
ATOM      6  H   UNL     1      -2.705   1.155   1.620  1.00  0.00     0.163 HD
BRANCH   4   7
ATOM      7  C   UNL     1      -1.149   0.611  -1.404  1.00  0.00     0.176 C 
ATOM      8  C   UNL     1      -1.642   1.701  -2.386  1.00  0.00     0.080 C 
ATOM      9  C   UNL     1      -1.800  -0.698  -1.894  1.00  0.00     0.094 C 
ATOM     10  C   UNL     1      -2.872   1.152  -3.103  1.00  0.00     0.022 C 
ATOM     11  C   UNL     1      -2.659  -0.355  -3.129  1.00  0.00     0.058 C 
BRANCH   7  12
ATOM     12  N   UNL     1       0.338   0.550  -1.579  1.00  0.00    -0.336 N 
ATOM     13  C   UNL     1       1.030  -0.410  -0.719  1.00  0.00     0.331 C 
ATOM     14  H   UNL     1       0.531   0.301  -2.549  1.00  0.00     0.346 HD
ATOM     15  H   UNL     1       0.692   1.470  -1.317  1.00  0.00     0.346 HD
ENDBRANCH   7  12
BRANCH  11  16
ATOM     16  S   UNL     1      -4.062  -1.554  -3.275  1.00  0.00    -0.122 SA
BRANCH  16  17
ATOM     17  C   UNL     1      -5.607  -0.667  -3.159  1.00  0.00     0.008 A 
ATOM     18  C   UNL     1      -5.910   0.460  -3.915  1.00  0.00     0.015 A 
ATOM     19  C   UNL     1      -6.634  -1.237  -2.387  1.00  0.00     0.018 A 
ATOM     20  C   UNL     1      -7.187   1.033  -3.862  1.00  0.00     0.005 A 
ATOM     21  C   UNL     1      -7.926  -0.675  -2.322  1.00  0.00    -0.047 A 
ATOM     22  C   UNL     1      -8.208   0.477  -3.073  1.00  0.00    -0.048 A 
ATOM     23  C   UNL     1      -8.978  -1.361  -1.497  1.00  0.00     0.044 C 
ATOM     24  C   UNL     1      -9.576   1.103  -3.142  1.00  0.00     0.044 C 
ENDBRANCH  16  17
ENDBRANCH  11  16
ENDBRANCH   4   7
ENDBRANCH   2   3
ENDBRANCH   1   2
BRANCH   1  25
ATOM     25  C   UNL     1      -5.166  -0.383   2.114  1.00  0.00     0.118 C 
BRANCH  25  26
ATOM     26  N   UNL     1      -6.281   0.557   2.182  1.00  0.00    -0.352 N 
ATOM     27  C   UNL     1      -7.644   0.414   2.263  1.00  0.00     0.251 C 
ATOM     28  H   UNL     1      -5.992   1.498   2.167  1.00  0.00     0.163 HD
ATOM     29  O   UNL     1      -8.337   1.430   2.179  1.00  0.00    -0.269 OA
BRANCH  27  30
ATOM     30  C   UNL     1      -8.316  -0.901   2.404  1.00  0.00     0.039 A 
ATOM     31  C   UNL     1      -9.618  -1.045   1.899  1.00  0.00     0.014 A 
ATOM     32  C   UNL     1      -7.728  -1.982   3.053  1.00  0.00     0.014 A 
ATOM     33  C   UNL     1     -10.269  -2.282   1.946  1.00  0.00     0.010 A 
ATOM     34  C   UNL     1      -8.324  -3.237   3.012  1.00  0.00     0.010 A 
ATOM     35  C   UNL     1      -9.607  -3.396   2.472  1.00  0.00    -0.014 A 
BRANCH  35  36
ATOM     36  C   UNL     1     -10.261  -4.718   2.590  1.00  0.00     0.031 A 
ATOM     37  C   UNL     1     -10.579  -5.245   3.961  1.00  0.00     0.074 A 
ATOM     38  C   UNL     1     -10.481  -5.469   1.496  1.00  0.00     0.049 A 
ATOM     39  N   UNL     1     -11.040  -6.417   4.313  1.00  0.00    -0.248 NA
ATOM     40  C   UNL     1     -10.305  -4.342   5.091  1.00  0.00     0.031 C 
ATOM     41  C   UNL     1     -10.174  -5.076   0.121  1.00  0.00     0.029 A 
ATOM     42  N   UNL     1     -10.995  -6.734   1.374  1.00  0.00    -0.354 N 
ATOM     43  C   UNL     1     -11.092  -6.394   5.700  1.00  0.00     0.074 A 
ATOM     44  C   UNL     1     -10.557  -5.122   6.129  1.00  0.00     0.031 C 
ATOM     45  C   UNL     1     -10.512  -6.078  -0.709  1.00  0.00     0.029 A 
ATOM     46  C   UNL     1     -11.033  -7.191   0.079  1.00  0.00     0.049 A 
ATOM     47  H   UNL     1     -11.309  -7.265   2.142  1.00  0.00     0.167 HD
ATOM     48  C   UNL     1     -11.572  -7.339   6.542  1.00  0.00     0.037 A 
ATOM     49  C   UNL     1     -11.438  -8.380  -0.408  1.00  0.00     0.037 A 
ATOM     50  C   UNL     1     -12.122  -8.592   6.106  1.00  0.00     0.049 A 
ATOM     51  C   UNL     1     -11.959  -9.419   0.548  1.00  0.00     0.074 A 
ATOM     52  C   UNL     1     -12.683  -9.601   6.867  1.00  0.00     0.029 A 
ATOM     53  N   UNL     1     -12.179  -9.005   4.783  1.00  0.00    -0.354 N 
ATOM     54  N   UNL     1     -12.074  -9.359   1.854  1.00  0.00    -0.248 NA
ATOM     55  C   UNL     1     -12.416 -10.687  -0.036  1.00  0.00     0.031 C 
ATOM     56  C   UNL     1     -13.046 -10.642   6.006  1.00  0.00     0.029 A 
ATOM     57  C   UNL     1     -12.750 -10.262   4.706  1.00  0.00     0.049 A 
ATOM     58  H   UNL     1     -11.860  -8.480   4.013  1.00  0.00     0.167 HD
ATOM     59  C   UNL     1     -12.648 -10.562   2.242  1.00  0.00     0.074 A 
ATOM     60  C   UNL     1     -12.864 -11.330   1.033  1.00  0.00     0.031 C 
ATOM     61  C   UNL     1     -12.971 -10.995   3.486  1.00  0.00     0.037 A 
BRANCH  48  62
ATOM     62  C   UNL     1     -11.517  -7.035   8.010  1.00  0.00     0.057 A 
ATOM     63  C   UNL     1     -12.331  -6.053   8.590  1.00  0.00     0.134 A 
ATOM     64  C   UNL     1     -10.633  -7.721   8.851  1.00  0.00     0.134 A 
ATOM     65  F   UNL     1     -13.185  -5.345   7.835  1.00  0.00    -0.206 F 
ATOM     66  C   UNL     1     -12.243  -5.738   9.947  1.00  0.00     0.040 A 
ATOM     67  C   UNL     1     -10.555  -7.435  10.215  1.00  0.00     0.040 A 
ATOM     68  F   UNL     1      -9.825  -8.673   8.361  1.00  0.00    -0.206 F 
ATOM     69  C   UNL     1     -11.355  -6.434  10.764  1.00  0.00     0.006 A 
ENDBRANCH  48  62
BRANCH  49  70
ATOM     70  C   UNL     1     -11.404  -8.644  -1.869  1.00  0.00     0.057 A 
ATOM     71  C   UNL     1     -12.588  -8.737  -2.610  1.00  0.00     0.134 A 
ATOM     72  C   UNL     1     -10.198  -8.831  -2.554  1.00  0.00     0.134 A 
ATOM     73  F   UNL     1     -13.775  -8.585  -2.006  1.00  0.00    -0.206 F 
ATOM     74  C   UNL     1     -12.577  -9.030  -3.975  1.00  0.00     0.040 A 
ATOM     75  C   UNL     1     -10.171  -9.102  -3.924  1.00  0.00     0.040 A 
ATOM     76  F   UNL     1      -9.029  -8.749  -1.904  1.00  0.00    -0.206 F 
ATOM     77  C   UNL     1     -11.364  -9.211  -4.636  1.00  0.00     0.006 A 
ENDBRANCH  49  70
BRANCH  61  78
ATOM     78  C   UNL     1     -13.633 -12.336   3.596  1.00  0.00     0.057 A 
ATOM     79  C   UNL     1     -12.923 -13.528   3.416  1.00  0.00     0.134 A 
ATOM     80  C   UNL     1     -14.987 -12.431   3.942  1.00  0.00     0.134 A 
ATOM     81  F   UNL     1     -11.627 -13.503   3.071  1.00  0.00    -0.206 F 
ATOM     82  C   UNL     1     -13.542 -14.771   3.559  1.00  0.00     0.040 A 
ATOM     83  C   UNL     1     -15.610 -13.667   4.114  1.00  0.00     0.040 A 
ATOM     84  F   UNL     1     -15.720 -11.324   4.138  1.00  0.00    -0.206 F 
ATOM     85  C   UNL     1     -14.887 -14.842   3.918  1.00  0.00     0.006 A 
ENDBRANCH  61  78
ENDBRANCH  35  36
ENDBRANCH  27  30
ENDBRANCH  25  26
ENDBRANCH   1  25
TORSDOF 13
