REMARK SMILES Cc1cc(C)n(CC(=O)N[C@H]2C=C[C@@H](C(=O)NCCCNC(=O)c3ccc(-c4c5nc(c(-c6c(F)cccc6F)c6ccc([nH]6)c(-c6c(F)cccc6F)c6nc(c(-c7c(F)cccc7F)c7ccc4[nH]7)C=C6)C=C5)cc3)C2)n1
REMARK SMILES IDX 18 1 17 2 15 3 16 4 14 6 11 7 12 8 78 9 13 10 10 11 8 12
REMARK SMILES IDX 9 13 7 15 6 16 1 17 2 18 3 19 79 20 4 21 5 22 19 23 20 24
REMARK SMILES IDX 21 25 22 26 23 28 24 29 25 30 77 31 26 32 76 33 27 34 28 35
REMARK SMILES IDX 29 36 70 37 30 38 75 39 69 40 71 41 31 42 74 43 68 44 67 45
REMARK SMILES IDX 32 47 58 48 41 49 57 50 42 51 45 52 56 53 72 54 43 55 44 56
REMARK SMILES IDX 55 58 73 59 46 60 33 61 34 62 39 63 35 64 36 65 38 66 40 67
REMARK SMILES IDX 37 68 59 69 60 70 65 71 61 72 62 73 64 74 66 75 63 76 47 77
REMARK SMILES IDX 48 78 53 79 49 80 50 81 52 82 54 83 51 84
REMARK H PARENT 17 5 10 14 21 27 71 46 45 57
REMARK Flexibility Score: inf
ROOT
ATOM      1  C   UNL     1      -3.368  -0.849   5.707  1.00  0.00     0.117 C 
ENDROOT
BRANCH   1   2
ATOM      2  N   UNL     1      -2.587   0.337   5.385  1.00  0.00    -0.356 N 
ATOM      3  C   UNL     1      -2.541   1.120   4.272  1.00  0.00     0.227 C 
ATOM      4  O   UNL     1      -1.950   2.200   4.386  1.00  0.00    -0.274 OA
ATOM      5  H   UNL     1      -1.981   0.625   6.104  1.00  0.00     0.163 HD
BRANCH   3   6
ATOM      6  C   UNL     1      -3.055   0.683   2.895  1.00  0.00     0.103 C 
ATOM      7  C   UNL     1      -2.960  -1.632   2.010  1.00  0.00     0.106 C 
ATOM      8  C   UNL     1      -4.365  -1.151   2.254  1.00  0.00    -0.006 C 
ATOM      9  C   UNL     1      -2.135  -0.380   2.298  1.00  0.00     0.047 C 
ATOM     10  C   UNL     1      -4.413   0.085   2.766  1.00  0.00    -0.016 C 
BRANCH   7  11
ATOM     11  N   UNL     1      -2.772  -2.806   2.851  1.00  0.00    -0.348 N 
ATOM     12  C   UNL     1      -1.675  -3.511   3.242  1.00  0.00     0.242 C 
ATOM     13  O   UNL     1      -1.888  -4.662   3.649  1.00  0.00    -0.273 OA
ATOM     14  H   UNL     1      -3.615  -3.166   3.211  1.00  0.00     0.164 HD
BRANCH  12  15
ATOM     15  C   UNL     1      -0.285  -2.929   3.360  1.00  0.00     0.244 C 
BRANCH  15  16
ATOM     16  N   UNL     1       0.353  -2.675   2.091  1.00  0.00    -0.260 N 
ATOM     17  C   UNL     1       1.393  -0.227  -0.224  1.00  0.00     0.069 C 
ATOM     18  C   UNL     1       1.103  -1.476   0.517  1.00  0.00     0.060 A 
ATOM     19  C   UNL     1       1.244  -2.819   0.105  1.00  0.00     0.048 A 
ATOM     20  N   UNL     1       0.642  -1.405   1.765  1.00  0.00    -0.178 NA
ATOM     21  C   UNL     1       0.801  -3.580   1.169  1.00  0.00     0.036 A 
ATOM     22  C   UNL     1       0.748  -5.046   1.379  1.00  0.00     0.066 C 
ENDBRANCH  15  16
ENDBRANCH  12  15
ENDBRANCH   7  11
ENDBRANCH   3   6
ENDBRANCH   1   2
BRANCH   1  23
ATOM     23  C   UNL     1      -2.528  -2.035   6.175  1.00  0.00     0.042 C 
BRANCH  23  24
ATOM     24  C   UNL     1      -1.852  -1.831   7.514  1.00  0.00     0.118 C 
BRANCH  24  25
ATOM     25  N   UNL     1      -2.752  -1.991   8.646  1.00  0.00    -0.352 N 
ATOM     26  C   UNL     1      -2.414  -2.035   9.987  1.00  0.00     0.251 C 
ATOM     27  H   UNL     1      -3.710  -2.078   8.434  1.00  0.00     0.163 HD
ATOM     28  O   UNL     1      -3.186  -2.498  10.808  1.00  0.00    -0.269 OA
BRANCH  26  29
ATOM     29  C   UNL     1      -1.086  -1.536  10.403  1.00  0.00     0.039 A 
ATOM     30  C   UNL     1      -0.358  -2.206  11.389  1.00  0.00     0.014 A 
ATOM     31  C   UNL     1      -0.557  -0.407   9.781  1.00  0.00     0.014 A 
ATOM     32  C   UNL     1       0.935  -1.777  11.681  1.00  0.00     0.010 A 
ATOM     33  C   UNL     1       0.766  -0.078   9.961  1.00  0.00     0.010 A 
ATOM     34  C   UNL     1       1.505  -0.728  10.942  1.00  0.00    -0.014 A 
BRANCH  34  35
ATOM     35  C   UNL     1       2.916  -0.389  11.111  1.00  0.00     0.031 A 
ATOM     36  C   UNL     1       3.850  -1.540  11.006  1.00  0.00     0.074 A 
ATOM     37  C   UNL     1       3.388   0.875  11.162  1.00  0.00     0.049 A 
ATOM     38  N   UNL     1       4.582  -2.035  11.947  1.00  0.00    -0.248 NA
ATOM     39  C   UNL     1       3.890  -2.311   9.754  1.00  0.00     0.031 C 
ATOM     40  C   UNL     1       2.647   2.129  10.996  1.00  0.00     0.029 A 
ATOM     41  N   UNL     1       4.678   1.304  11.260  1.00  0.00    -0.354 N 
ATOM     42  C   UNL     1       5.340  -3.042  11.359  1.00  0.00     0.074 A 
ATOM     43  C   UNL     1       4.745  -3.287  10.071  1.00  0.00     0.031 C 
ATOM     44  C   UNL     1       3.513   3.138  10.763  1.00  0.00     0.029 A 
ATOM     45  C   UNL     1       4.867   2.639  10.918  1.00  0.00     0.049 A 
ATOM     46  H   UNL     1       5.415   0.718  11.549  1.00  0.00     0.167 HD
ATOM     47  C   UNL     1       6.545  -3.399  11.885  1.00  0.00     0.037 A 
ATOM     48  C   UNL     1       6.049   3.284  10.749  1.00  0.00     0.037 A 
ATOM     49  C   UNL     1       6.682  -2.917  13.242  1.00  0.00     0.049 A 
ATOM     50  C   UNL     1       7.085   2.496  11.462  1.00  0.00     0.074 A 
ATOM     51  C   UNL     1       5.926  -3.031  14.395  1.00  0.00     0.029 A 
ATOM     52  N   UNL     1       7.537  -1.865  13.470  1.00  0.00    -0.354 N 
ATOM     53  N   UNL     1       7.170   2.420  12.760  1.00  0.00    -0.248 NA
ATOM     54  C   UNL     1       7.762   1.435  10.730  1.00  0.00     0.031 C 
ATOM     55  C   UNL     1       6.003  -1.747  15.012  1.00  0.00     0.029 A 
ATOM     56  C   UNL     1       6.863  -0.961  14.247  1.00  0.00     0.049 A 
ATOM     57  H   UNL     1       8.459  -1.779  13.137  1.00  0.00     0.167 HD
ATOM     58  C   UNL     1       7.478   1.091  13.006  1.00  0.00     0.074 A 
ATOM     59  C   UNL     1       7.947   0.564  11.726  1.00  0.00     0.031 C 
ATOM     60  C   UNL     1       7.041   0.466  14.139  1.00  0.00     0.037 A 
BRANCH  47  61
ATOM     61  C   UNL     1       7.751  -3.799  11.062  1.00  0.00     0.057 A 
ATOM     62  C   UNL     1       8.926  -4.194  11.732  1.00  0.00     0.134 A 
ATOM     63  C   UNL     1       7.919  -3.504   9.694  1.00  0.00     0.134 A 
ATOM     64  F   UNL     1       8.902  -4.512  13.035  1.00  0.00    -0.206 F 
ATOM     65  C   UNL     1      10.185  -4.169  11.120  1.00  0.00     0.040 A 
ATOM     66  C   UNL     1       9.164  -3.529   9.060  1.00  0.00     0.040 A 
ATOM     67  F   UNL     1       6.918  -3.077   8.917  1.00  0.00    -0.206 F 
ATOM     68  C   UNL     1      10.309  -3.820   9.783  1.00  0.00     0.006 A 
ENDBRANCH  47  61
BRANCH  48  69
ATOM     69  C   UNL     1       6.390   4.433   9.878  1.00  0.00     0.057 A 
ATOM     70  C   UNL     1       7.616   5.104  10.015  1.00  0.00     0.134 A 
ATOM     71  C   UNL     1       5.654   4.738   8.720  1.00  0.00     0.134 A 
ATOM     72  F   UNL     1       8.413   4.865  11.066  1.00  0.00    -0.206 F 
ATOM     73  C   UNL     1       8.097   5.992   9.043  1.00  0.00     0.040 A 
ATOM     74  C   UNL     1       6.116   5.632   7.748  1.00  0.00     0.040 A 
ATOM     75  F   UNL     1       4.499   4.115   8.444  1.00  0.00    -0.206 F 
ATOM     76  C   UNL     1       7.351   6.248   7.897  1.00  0.00     0.006 A 
ENDBRANCH  48  69
BRANCH  60  77
ATOM     77  C   UNL     1       6.477   1.310  15.248  1.00  0.00     0.057 A 
ATOM     78  C   UNL     1       5.356   2.145  15.120  1.00  0.00     0.134 A 
ATOM     79  C   UNL     1       7.012   1.166  16.533  1.00  0.00     0.134 A 
ATOM     80  F   UNL     1       4.704   2.267  13.958  1.00  0.00    -0.206 F 
ATOM     81  C   UNL     1       4.832   2.846  16.210  1.00  0.00     0.040 A 
ATOM     82  C   UNL     1       6.474   1.830  17.637  1.00  0.00     0.040 A 
ATOM     83  F   UNL     1       8.049   0.339  16.745  1.00  0.00    -0.206 F 
ATOM     84  C   UNL     1       5.389   2.686  17.475  1.00  0.00     0.006 A 
ENDBRANCH  60  77
ENDBRANCH  34  35
ENDBRANCH  26  29
ENDBRANCH  24  25
ENDBRANCH  23  24
ENDBRANCH   1  23
TORSDOF 13
