REMARK SMILES C[C@@H]1[C@H](C)CCC[C@H]1NC(=O)C[N@H+]1CCC[C@@H]1C(=O)NCCCNC(=O)c1ccc(-c2c3nc(c(-c4c(F)cccc4F)c4ccc([nH]4)c(-c4c(F)cccc4F)c4nc(c(-c5c(F)cccc5F)c5ccc2[nH]5)C=C4)C=C3)cc1
REMARK SMILES IDX 21 1 20 2 18 3 19 4 17 6 13 7 14 8 15 10 16 11 12 12 10 13
REMARK SMILES IDX 9 14 11 16 8 17 1 18 2 19 3 20 4 21 5 22 7 23 6 24 22 25
REMARK SMILES IDX 23 26 24 27 25 28 26 30 27 31 28 32 80 33 29 34 79 35 30 36
REMARK SMILES IDX 31 37 32 38 73 39 33 40 78 41 72 42 74 43 34 44 77 45 71 46
REMARK SMILES IDX 70 47 35 49 61 50 44 51 60 52 45 53 48 54 59 55 75 56 46 57
REMARK SMILES IDX 47 58 58 60 76 61 49 62 36 63 37 64 42 65 38 66 39 67 41 68
REMARK SMILES IDX 43 69 40 70 62 71 63 72 68 73 64 74 65 75 67 76 69 77 66 78
REMARK SMILES IDX 50 79 51 80 56 81 52 82 53 83 55 84 57 85 54 86
REMARK H PARENT 20 5 13 9 9 15 24 29 74 48 48 59
REMARK Flexibility Score: inf
ROOT
ATOM      1  C   UNL     1       0.690   0.892   4.858  1.00  0.00     0.118 C 
ENDROOT
BRANCH   1   2
ATOM      2  N   UNL     1       1.492   1.460   5.920  1.00  0.00    -0.351 N 
ATOM      3  C   UNL     1       2.840   1.644   5.982  1.00  0.00     0.278 C 
ATOM      4  O   UNL     1       3.298   2.179   6.998  1.00  0.00    -0.268 OA
ATOM      5  H   UNL     1       0.990   1.755   6.714  1.00  0.00     0.163 HD
BRANCH   3   6
ATOM      6  C   UNL     1       3.786   1.132   4.890  1.00  0.00     0.274 C 
ATOM      7  N   UNL     1       3.351   1.420   3.506  1.00  0.00    -0.317 N 
ATOM      8  C   UNL     1       4.067   0.470   2.672  1.00  0.00     0.263 C 
ATOM      9  H   UNL     1       2.345   1.286   3.405  1.00  0.00     0.349 HD
ATOM     10  C   UNL     1       3.814  -0.815   3.445  1.00  0.00     0.068 C 
ATOM     11  C   UNL     1       3.929  -0.394   4.908  1.00  0.00     0.081 C 
BRANCH   7  12
ATOM     12  C   UNL     1       3.417   2.823   3.100  1.00  0.00     0.364 C 
BRANCH  12  13
ATOM     13  C   UNL     1       1.993   3.407   3.110  1.00  0.00     0.275 C 
ATOM     14  N   UNL     1       1.102   3.081   2.122  1.00  0.00    -0.348 N 
ATOM     15  H   UNL     1       0.184   3.409   2.262  1.00  0.00     0.163 HD
ATOM     16  O   UNL     1       1.603   4.150   4.014  1.00  0.00    -0.268 OA
BRANCH  14  17
ATOM     17  C   UNL     1       1.307   2.319   0.889  1.00  0.00     0.085 C 
ATOM     18  C   UNL     1       1.139   0.008  -0.142  1.00  0.00     0.010 C 
ATOM     19  C   UNL     1       0.560   0.959   0.918  1.00  0.00     0.011 C 
ATOM     20  C   UNL     1      -0.975   1.148   0.782  1.00  0.00    -0.009 C 
ATOM     21  C   UNL     1      -1.740  -0.179   0.754  1.00  0.00     0.008 C 
ATOM     22  C   UNL     1      -1.342   1.995  -0.445  1.00  0.00     0.004 C 
ATOM     23  C   UNL     1       0.896   3.175  -0.317  1.00  0.00     0.025 C 
ATOM     24  C   UNL     1      -0.617   3.337  -0.445  1.00  0.00     0.002 C 
ENDBRANCH  14  17
ENDBRANCH  12  13
ENDBRANCH   7  12
ENDBRANCH   3   6
ENDBRANCH   1   2
BRANCH   1  25
ATOM     25  C   UNL     1      -0.002  -0.390   5.271  1.00  0.00     0.042 C 
BRANCH  25  26
ATOM     26  C   UNL     1      -1.123  -0.156   6.262  1.00  0.00     0.118 C 
BRANCH  26  27
ATOM     27  N   UNL     1      -2.220   0.613   5.686  1.00  0.00    -0.352 N 
ATOM     28  C   UNL     1      -3.552   0.307   5.601  1.00  0.00     0.251 C 
ATOM     29  H   UNL     1      -1.965   1.482   5.300  1.00  0.00     0.163 HD
ATOM     30  O   UNL     1      -4.292   0.990   4.894  1.00  0.00    -0.269 OA
BRANCH  28  31
ATOM     31  C   UNL     1      -4.100  -0.844   6.347  1.00  0.00     0.039 A 
ATOM     32  C   UNL     1      -5.117  -1.605   5.765  1.00  0.00     0.014 A 
ATOM     33  C   UNL     1      -3.639  -1.155   7.629  1.00  0.00     0.014 A 
ATOM     34  C   UNL     1      -5.647  -2.692   6.460  1.00  0.00     0.010 A 
ATOM     35  C   UNL     1      -4.085  -2.301   8.270  1.00  0.00     0.010 A 
ATOM     36  C   UNL     1      -5.125  -3.055   7.712  1.00  0.00    -0.014 A 
BRANCH  36  37
ATOM     37  C   UNL     1      -5.707  -4.171   8.493  1.00  0.00     0.031 A 
ATOM     38  C   UNL     1      -6.365  -3.888   9.816  1.00  0.00     0.074 A 
ATOM     39  C   UNL     1      -5.607  -5.432   8.037  1.00  0.00     0.049 A 
ATOM     40  N   UNL     1      -6.921  -4.719  10.659  1.00  0.00    -0.248 NA
ATOM     41  C   UNL     1      -6.367  -2.486  10.268  1.00  0.00     0.031 C 
ATOM     42  C   UNL     1      -4.946  -5.835   6.795  1.00  0.00     0.029 A 
ATOM     43  N   UNL     1      -6.071  -6.608   8.566  1.00  0.00    -0.354 N 
ATOM     44  C   UNL     1      -7.314  -3.945  11.745  1.00  0.00     0.074 A 
ATOM     45  C   UNL     1      -6.868  -2.595  11.488  1.00  0.00     0.031 C 
ATOM     46  C   UNL     1      -5.090  -7.160   6.633  1.00  0.00     0.029 A 
ATOM     47  C   UNL     1      -5.825  -7.700   7.772  1.00  0.00     0.049 A 
ATOM     48  H   UNL     1      -6.535  -6.664   9.433  1.00  0.00     0.167 HD
ATOM     49  C   UNL     1      -8.012  -4.317  12.844  1.00  0.00     0.037 A 
ATOM     50  C   UNL     1      -6.174  -8.989   7.941  1.00  0.00     0.037 A 
ATOM     51  C   UNL     1      -8.482  -5.656  13.077  1.00  0.00     0.049 A 
ATOM     52  C   UNL     1      -6.965  -9.379   9.157  1.00  0.00     0.074 A 
ATOM     53  C   UNL     1      -9.249  -6.134  14.124  1.00  0.00     0.029 A 
ATOM     54  N   UNL     1      -8.227  -6.734  12.242  1.00  0.00    -0.354 N 
ATOM     55  N   UNL     1      -7.392  -8.628  10.144  1.00  0.00    -0.248 NA
ATOM     56  C   UNL     1      -7.333 -10.796   9.276  1.00  0.00     0.031 C 
ATOM     57  C   UNL     1      -9.425  -7.510  13.941  1.00  0.00     0.029 A 
ATOM     58  C   UNL     1      -8.809  -7.880  12.756  1.00  0.00     0.049 A 
ATOM     59  H   UNL     1      -7.708  -6.690  11.406  1.00  0.00     0.167 HD
ATOM     60  C   UNL     1      -8.112  -9.471  10.980  1.00  0.00     0.074 A 
ATOM     61  C   UNL     1      -8.066 -10.790  10.380  1.00  0.00     0.031 C 
ATOM     62  C   UNL     1      -8.760  -9.180  12.135  1.00  0.00     0.037 A 
BRANCH  49  63
ATOM     63  C   UNL     1      -8.298  -3.251  13.863  1.00  0.00     0.057 A 
ATOM     64  C   UNL     1      -9.164  -2.181  13.595  1.00  0.00     0.134 A 
ATOM     65  C   UNL     1      -7.681  -3.279  15.120  1.00  0.00     0.134 A 
ATOM     66  F   UNL     1      -9.776  -2.083  12.405  1.00  0.00    -0.206 F 
ATOM     67  C   UNL     1      -9.367  -1.154  14.519  1.00  0.00     0.040 A 
ATOM     68  C   UNL     1      -7.902  -2.275  16.064  1.00  0.00     0.040 A 
ATOM     69  F   UNL     1      -6.845  -4.276  15.447  1.00  0.00    -0.206 F 
ATOM     70  C   UNL     1      -8.736  -1.201  15.760  1.00  0.00     0.006 A 
ENDBRANCH  49  63
BRANCH  50  71
ATOM     71  C   UNL     1      -5.847  -9.983   6.890  1.00  0.00     0.057 A 
ATOM     72  C   UNL     1      -6.849 -10.502   6.062  1.00  0.00     0.134 A 
ATOM     73  C   UNL     1      -4.537 -10.423   6.673  1.00  0.00     0.134 A 
ATOM     74  F   UNL     1      -8.126 -10.127   6.232  1.00  0.00    -0.206 F 
ATOM     75  C   UNL     1      -6.564 -11.432   5.063  1.00  0.00     0.040 A 
ATOM     76  C   UNL     1      -4.233 -11.338   5.663  1.00  0.00     0.040 A 
ATOM     77  F   UNL     1      -3.531  -9.955   7.426  1.00  0.00    -0.206 F 
ATOM     78  C   UNL     1      -5.250 -11.849   4.857  1.00  0.00     0.006 A 
ENDBRANCH  50  71
BRANCH  62  79
ATOM     79  C   UNL     1      -9.513 -10.297  12.795  1.00  0.00     0.057 A 
ATOM     80  C   UNL     1      -8.861 -11.351  13.447  1.00  0.00     0.134 A 
ATOM     81  C   UNL     1     -10.914 -10.301  12.798  1.00  0.00     0.134 A 
ATOM     82  F   UNL     1      -7.521 -11.412  13.469  1.00  0.00    -0.206 F 
ATOM     83  C   UNL     1      -9.575 -12.385  14.053  1.00  0.00     0.040 A 
ATOM     84  C   UNL     1     -11.639 -11.315  13.424  1.00  0.00     0.040 A 
ATOM     85  F   UNL     1     -11.600  -9.316  12.199  1.00  0.00    -0.206 F 
ATOM     86  C   UNL     1     -10.969 -12.366  14.047  1.00  0.00     0.006 A 
ENDBRANCH  62  79
ENDBRANCH  36  37
ENDBRANCH  28  31
ENDBRANCH  26  27
ENDBRANCH  25  26
ENDBRANCH   1  25
TORSDOF 13
