REMARK SMILES CCc1c(C(=O)NCCCNC(=O)c2ccc(-c3c4nc(c(-c5c(F)cccc5F)c5ccc([nH]5)c(-c5c(F)cccc5F)c5nc(c(-c6c(F)cccc6F)c6ccc3[nH]6)C=C5)C=C4)cc2)nnn1-c1ccc(OC)cc1
REMARK SMILES IDX 9 1 8 2 7 3 5 4 6 5 4 7 3 8 70 9 68 10 69 11 2 12 1 13 71 14
REMARK SMILES IDX 72 15 78 16 73 17 77 18 74 19 75 20 76 21 10 22 11 23 12 24
REMARK SMILES IDX 13 26 14 27 15 28 67 29 16 30 66 31 17 32 18 33 19 34 60 35
REMARK SMILES IDX 20 36 65 37 59 38 61 39 21 40 64 41 58 42 57 43 22 45 48 46
REMARK SMILES IDX 31 47 47 48 32 49 35 50 46 51 62 52 33 53 34 54 45 56 63 57
REMARK SMILES IDX 36 58 23 59 24 60 29 61 25 62 26 63 28 64 30 65 27 66 49 67
REMARK SMILES IDX 50 68 55 69 51 70 52 71 54 72 56 73 53 74 37 75 38 76 43 77
REMARK SMILES IDX 39 78 40 79 42 80 44 81 41 82
REMARK H PARENT 7 6 11 25 61 44 35 55
REMARK Flexibility Score: inf
ROOT
ATOM      1  C   UNL     1      -1.825   0.456  -0.147  1.00  0.00     0.042 C 
ENDROOT
BRANCH   1   2
ATOM      2  C   UNL     1      -0.704   1.407  -0.510  1.00  0.00     0.118 C 
BRANCH   2   3
ATOM      3  N   UNL     1      -0.829   2.727  -0.014  1.00  0.00    -0.351 N 
ATOM      4  C   UNL     1      -0.119   3.281   1.024  1.00  0.00     0.273 C 
ATOM      5  O   UNL     1      -0.226   4.508   1.111  1.00  0.00    -0.267 OA
ATOM      6  H   UNL     1      -1.491   3.306  -0.457  1.00  0.00     0.163 HD
BRANCH   4   7
ATOM      7  C   UNL     1       0.702   2.509   1.996  1.00  0.00     0.174 A 
ATOM      8  C   UNL     1       1.176   1.189   2.185  1.00  0.00     0.077 A 
ATOM      9  N   UNL     1       1.855   1.272   3.399  1.00  0.00    -0.217 N 
ATOM     10  N   UNL     1       1.099   3.254   3.094  1.00  0.00    -0.124 NA
ATOM     11  N   UNL     1       1.689   2.471   3.968  1.00  0.00    -0.061 NA
BRANCH   8  12
ATOM     12  C   UNL     1       0.984  -0.181   1.560  1.00  0.00     0.055 C 
ATOM     13  C   UNL     1       1.733  -0.442   0.243  1.00  0.00     0.011 C 
ENDBRANCH   8  12
BRANCH   9  14
ATOM     14  C   UNL     1       2.564   0.260   4.075  1.00  0.00     0.067 A 
ATOM     15  C   UNL     1       2.359   0.085   5.444  1.00  0.00     0.032 A 
ATOM     16  C   UNL     1       3.441  -0.574   3.375  1.00  0.00     0.032 A 
ATOM     17  C   UNL     1       3.012  -0.959   6.097  1.00  0.00     0.048 A 
ATOM     18  C   UNL     1       4.091  -1.612   4.037  1.00  0.00     0.048 A 
ATOM     19  C   UNL     1       3.881  -1.807   5.401  1.00  0.00     0.119 A 
BRANCH  19  20
ATOM     20  O   UNL     1       4.468  -2.777   6.163  1.00  0.00    -0.497 OA
ATOM     21  C   UNL     1       5.354  -3.662   5.488  1.00  0.00     0.278 C 
ENDBRANCH  19  20
ENDBRANCH   9  14
ENDBRANCH   4   7
ENDBRANCH   2   3
ENDBRANCH   1   2
BRANCH   1  22
ATOM     22  C   UNL     1      -2.756   0.406  -1.311  1.00  0.00     0.118 C 
BRANCH  22  23
ATOM     23  N   UNL     1      -2.131  -0.237  -2.489  1.00  0.00    -0.352 N 
ATOM     24  C   UNL     1      -2.775  -0.800  -3.588  1.00  0.00     0.251 C 
ATOM     25  H   UNL     1      -1.147  -0.270  -2.497  1.00  0.00     0.163 HD
ATOM     26  O   UNL     1      -2.210  -1.521  -4.377  1.00  0.00    -0.269 OA
BRANCH  24  27
ATOM     27  C   UNL     1      -4.144  -0.317  -3.811  1.00  0.00     0.039 A 
ATOM     28  C   UNL     1      -5.236  -0.915  -4.434  1.00  0.00     0.014 A 
ATOM     29  C   UNL     1      -4.315   0.990  -3.446  1.00  0.00     0.014 A 
ATOM     30  C   UNL     1      -6.368  -0.071  -4.642  1.00  0.00     0.010 A 
ATOM     31  C   UNL     1      -5.529   1.268  -2.977  1.00  0.00     0.010 A 
ATOM     32  C   UNL     1      -6.350   1.217  -4.049  1.00  0.00    -0.014 A 
BRANCH  32  33
ATOM     33  C   UNL     1      -7.351   2.279  -3.862  1.00  0.00     0.031 A 
ATOM     34  C   UNL     1      -8.458   1.609  -3.034  1.00  0.00     0.074 A 
ATOM     35  C   UNL     1      -7.130   3.624  -4.148  1.00  0.00     0.049 A 
ATOM     36  N   UNL     1      -9.458   0.968  -3.557  1.00  0.00    -0.248 NA
ATOM     37  C   UNL     1      -8.276   1.169  -1.607  1.00  0.00     0.031 C 
ATOM     38  C   UNL     1      -5.984   4.366  -4.769  1.00  0.00     0.029 A 
ATOM     39  N   UNL     1      -8.007   4.699  -4.007  1.00  0.00    -0.354 N 
ATOM     40  C   UNL     1     -10.229   0.514  -2.487  1.00  0.00     0.074 A 
ATOM     41  C   UNL     1      -9.316   0.347  -1.409  1.00  0.00     0.031 C 
ATOM     42  C   UNL     1      -6.149   5.728  -4.689  1.00  0.00     0.029 A 
ATOM     43  C   UNL     1      -7.461   6.026  -4.143  1.00  0.00     0.049 A 
ATOM     44  H   UNL     1      -8.963   4.557  -3.821  1.00  0.00     0.167 HD
ATOM     45  C   UNL     1     -11.569   0.771  -2.483  1.00  0.00     0.037 A 
ATOM     46  C   UNL     1      -8.149   7.230  -4.042  1.00  0.00     0.037 A 
ATOM     47  C   UNL     1     -11.936   1.219  -3.809  1.00  0.00     0.049 A 
ATOM     48  C   UNL     1      -9.585   6.858  -4.149  1.00  0.00     0.074 A 
ATOM     49  C   UNL     1     -11.974   0.635  -5.056  1.00  0.00     0.029 A 
ATOM     50  N   UNL     1     -11.702   2.558  -3.994  1.00  0.00    -0.354 N 
ATOM     51  N   UNL     1     -10.077   6.359  -5.250  1.00  0.00    -0.248 NA
ATOM     52  C   UNL     1     -10.205   6.440  -2.901  1.00  0.00     0.031 C 
ATOM     53  C   UNL     1     -11.440   1.613  -5.949  1.00  0.00     0.029 A 
ATOM     54  C   UNL     1     -11.299   2.821  -5.271  1.00  0.00     0.049 A 
ATOM     55  H   UNL     1     -11.810   3.242  -3.295  1.00  0.00     0.167 HD
ATOM     56  C   UNL     1     -10.721   5.206  -4.831  1.00  0.00     0.074 A 
ATOM     57  C   UNL     1     -10.776   5.319  -3.359  1.00  0.00     0.031 C 
ATOM     58  C   UNL     1     -10.800   4.116  -5.658  1.00  0.00     0.037 A 
BRANCH  45  59
ATOM     59  C   UNL     1     -12.403   1.175  -1.278  1.00  0.00     0.057 A 
ATOM     60  C   UNL     1     -13.782   1.389  -1.478  1.00  0.00     0.134 A 
ATOM     61  C   UNL     1     -11.910   1.642  -0.042  1.00  0.00     0.134 A 
ATOM     62  F   UNL     1     -14.381   0.983  -2.608  1.00  0.00    -0.206 F 
ATOM     63  C   UNL     1     -14.584   2.087  -0.566  1.00  0.00     0.040 A 
ATOM     64  C   UNL     1     -12.713   2.305   0.897  1.00  0.00     0.040 A 
ATOM     65  F   UNL     1     -10.619   1.564   0.297  1.00  0.00    -0.206 F 
ATOM     66  C   UNL     1     -14.048   2.557   0.625  1.00  0.00     0.006 A 
ENDBRANCH  45  59
BRANCH  46  67
ATOM     67  C   UNL     1      -7.814   8.585  -3.441  1.00  0.00     0.057 A 
ATOM     68  C   UNL     1      -8.511   9.804  -3.675  1.00  0.00     0.134 A 
ATOM     69  C   UNL     1      -6.992   8.610  -2.307  1.00  0.00     0.134 A 
ATOM     70  F   UNL     1      -9.405   9.907  -4.671  1.00  0.00    -0.206 F 
ATOM     71  C   UNL     1      -8.361  10.954  -2.853  1.00  0.00     0.040 A 
ATOM     72  C   UNL     1      -6.851   9.735  -1.471  1.00  0.00     0.040 A 
ATOM     73  F   UNL     1      -6.376   7.488  -1.912  1.00  0.00    -0.206 F 
ATOM     74  C   UNL     1      -7.532  10.916  -1.738  1.00  0.00     0.006 A 
ENDBRANCH  46  67
BRANCH  58  75
ATOM     75  C   UNL     1     -10.367   4.272  -7.098  1.00  0.00     0.057 A 
ATOM     76  C   UNL     1      -9.051   4.313  -7.596  1.00  0.00     0.134 A 
ATOM     77  C   UNL     1     -11.383   4.235  -8.049  1.00  0.00     0.134 A 
ATOM     78  F   UNL     1      -7.993   4.199  -6.788  1.00  0.00    -0.206 F 
ATOM     79  C   UNL     1      -8.775   4.400  -8.970  1.00  0.00     0.040 A 
ATOM     80  C   UNL     1     -11.126   4.279  -9.417  1.00  0.00     0.040 A 
ATOM     81  F   UNL     1     -12.657   4.089  -7.654  1.00  0.00    -0.206 F 
ATOM     82  C   UNL     1      -9.821   4.392  -9.885  1.00  0.00     0.006 A 
ENDBRANCH  58  75
ENDBRANCH  32  33
ENDBRANCH  24  27
ENDBRANCH  22  23
ENDBRANCH   1  22
TORSDOF 13
