REMARK SMILES CC(C)n1ccc(C[C@@H](C(=O)NCCCNC(=O)c2ccc(-c3c4nc(c(-c5c(F)cccc5F)c5ccc([nH]5)c(-c5c(F)cccc5F)c5nc(c(-c6c(F)cccc6F)c6ccc3[nH]6)C=C5)C=C4)cc2)c2cccc(Cl)c2)n1
REMARK SMILES IDX 13 1 12 2 10 3 11 4 9 6 8 7 7 8 4 9 5 10 80 11 6 12 2 13
REMARK SMILES IDX 1 14 3 15 73 16 74 17 79 18 75 19 77 20 76 21 78 22 14 23
REMARK SMILES IDX 15 24 16 25 17 26 18 28 19 29 20 30 72 31 21 32 71 33 22 34
REMARK SMILES IDX 23 35 24 36 65 37 25 38 70 39 64 40 66 41 26 42 69 43 63 44
REMARK SMILES IDX 62 45 27 47 53 48 36 49 52 50 37 51 40 52 51 53 67 54 38 55
REMARK SMILES IDX 39 56 50 58 68 59 41 60 28 61 29 62 34 63 30 64 31 65 33 66
REMARK SMILES IDX 35 67 32 68 54 69 55 70 60 71 56 72 57 73 59 74 61 75 58 76
REMARK SMILES IDX 42 77 43 78 48 79 44 80 45 81 47 82 49 83 46 84
REMARK H PARENT 12 5 16 27 66 46 40 57
REMARK Flexibility Score: inf
ROOT
ATOM      1  C   UNL     1      -3.313  -2.008  -1.972  1.00  0.00     0.117 C 
ENDROOT
BRANCH   1   2
ATOM      2  N   UNL     1      -4.642  -2.075  -1.370  1.00  0.00    -0.355 N 
ATOM      3  C   UNL     1      -5.191  -1.232  -0.439  1.00  0.00     0.227 C 
ATOM      4  O   UNL     1      -5.963  -1.743   0.378  1.00  0.00    -0.274 OA
ATOM      5  H   UNL     1      -5.215  -2.817  -1.670  1.00  0.00     0.163 HD
BRANCH   3   6
ATOM      6  C   UNL     1      -4.891   0.276  -0.467  1.00  0.00     0.114 C 
BRANCH   6   7
ATOM      7  C   UNL     1      -4.190   0.730   0.833  1.00  0.00     0.076 C 
BRANCH   7   8
ATOM      8  C   UNL     1      -2.965  -0.005   1.258  1.00  0.00     0.064 A 
ATOM      9  N   UNL     1      -0.920  -0.608   1.361  1.00  0.00    -0.270 N 
ATOM     10  C   UNL     1      -1.551  -1.292   2.369  1.00  0.00     0.109 A 
ATOM     11  N   UNL     1      -1.780   0.173   0.654  1.00  0.00    -0.178 NA
ATOM     12  C   UNL     1      -2.866  -0.905   2.343  1.00  0.00     0.045 A 
BRANCH   9  13
ATOM     13  C   UNL     1       0.463  -0.808   0.917  1.00  0.00     0.101 C 
ATOM     14  C   UNL     1       0.996   0.331   0.042  1.00  0.00     0.033 C 
ATOM     15  C   UNL     1       1.424  -1.044   2.089  1.00  0.00     0.033 C 
ENDBRANCH   9  13
ENDBRANCH   7   8
ENDBRANCH   6   7
BRANCH   6  16
ATOM     16  C   UNL     1      -6.158   1.162  -0.619  1.00  0.00    -0.034 A 
ATOM     17  C   UNL     1      -5.989   2.549  -0.807  1.00  0.00     0.004 A 
ATOM     18  C   UNL     1      -7.473   0.688  -0.451  1.00  0.00     0.025 A 
ATOM     19  C   UNL     1      -7.073   3.431  -0.743  1.00  0.00     0.002 A 
ATOM     20  C   UNL     1      -8.555   1.573  -0.398  1.00  0.00     0.041 A 
ATOM     21  C   UNL     1      -8.357   2.944  -0.522  1.00  0.00     0.020 A 
ATOM     22  Cl  UNL     1     -10.146   0.967  -0.133  1.00  0.00    -0.084 Cl
ENDBRANCH   6  16
ENDBRANCH   3   6
ENDBRANCH   1   2
BRANCH   1  23
ATOM     23  C   UNL     1      -2.263  -2.589  -1.031  1.00  0.00     0.042 C 
BRANCH  23  24
ATOM     24  C   UNL     1      -2.383  -4.071  -0.778  1.00  0.00     0.118 C 
BRANCH  24  25
ATOM     25  N   UNL     1      -1.399  -4.920  -1.442  1.00  0.00    -0.352 N 
ATOM     26  C   UNL     1      -0.951  -6.176  -1.066  1.00  0.00     0.251 C 
ATOM     27  H   UNL     1      -1.002  -4.553  -2.264  1.00  0.00     0.163 HD
ATOM     28  O   UNL     1      -0.020  -6.709  -1.690  1.00  0.00    -0.269 OA
BRANCH  26  29
ATOM     29  C   UNL     1      -1.561  -6.891   0.076  1.00  0.00     0.039 A 
ATOM     30  C   UNL     1      -1.028  -8.042   0.667  1.00  0.00     0.014 A 
ATOM     31  C   UNL     1      -2.796  -6.469   0.522  1.00  0.00     0.014 A 
ATOM     32  C   UNL     1      -1.821  -8.742   1.588  1.00  0.00     0.010 A 
ATOM     33  C   UNL     1      -3.227  -6.819   1.753  1.00  0.00     0.010 A 
ATOM     34  C   UNL     1      -2.995  -8.138   2.034  1.00  0.00    -0.014 A 
BRANCH  34  35
ATOM     35  C   UNL     1      -4.042  -8.731   2.835  1.00  0.00     0.031 A 
ATOM     36  C   UNL     1      -3.711  -8.849   4.268  1.00  0.00     0.074 A 
ATOM     37  C   UNL     1      -5.321  -8.786   2.396  1.00  0.00     0.049 A 
ATOM     38  N   UNL     1      -3.436  -9.924   4.923  1.00  0.00    -0.248 NA
ATOM     39  C   UNL     1      -3.478  -7.607   5.024  1.00  0.00     0.031 C 
ATOM     40  C   UNL     1      -5.908  -8.285   1.144  1.00  0.00     0.029 A 
ATOM     41  N   UNL     1      -6.410  -9.251   3.062  1.00  0.00    -0.354 N 
ATOM     42  C   UNL     1      -3.189  -9.509   6.226  1.00  0.00     0.074 A 
ATOM     43  C   UNL     1      -2.979  -8.089   6.162  1.00  0.00     0.031 C 
ATOM     44  C   UNL     1      -7.260  -8.309   1.230  1.00  0.00     0.029 A 
ATOM     45  C   UNL     1      -7.632  -8.963   2.470  1.00  0.00     0.049 A 
ATOM     46  H   UNL     1      -6.337  -9.755   3.904  1.00  0.00     0.167 HD
ATOM     47  C   UNL     1      -3.432 -10.323   7.288  1.00  0.00     0.037 A 
ATOM     48  C   UNL     1      -8.851  -9.228   3.002  1.00  0.00     0.037 A 
ATOM     49  C   UNL     1      -3.687 -11.675   6.850  1.00  0.00     0.049 A 
ATOM     50  C   UNL     1      -8.647 -10.232   4.081  1.00  0.00     0.074 A 
ATOM     51  C   UNL     1      -2.954 -12.623   6.163  1.00  0.00     0.029 A 
ATOM     52  N   UNL     1      -5.001 -12.066   6.739  1.00  0.00    -0.354 N 
ATOM     53  N   UNL     1      -8.259 -11.460   3.867  1.00  0.00    -0.248 NA
ATOM     54  C   UNL     1      -8.406  -9.732   5.427  1.00  0.00     0.031 C 
ATOM     55  C   UNL     1      -3.889 -13.249   5.285  1.00  0.00     0.029 A 
ATOM     56  C   UNL     1      -5.149 -12.697   5.528  1.00  0.00     0.049 A 
ATOM     57  H   UNL     1      -5.709 -11.921   7.408  1.00  0.00     0.167 HD
ATOM     58  C   UNL     1      -7.366 -11.742   4.894  1.00  0.00     0.074 A 
ATOM     59  C   UNL     1      -7.563 -10.670   5.869  1.00  0.00     0.031 C 
ATOM     60  C   UNL     1      -6.352 -12.642   4.724  1.00  0.00     0.037 A 
BRANCH  47  61
ATOM     61  C   UNL     1      -3.775  -9.849   8.677  1.00  0.00     0.057 A 
ATOM     62  C   UNL     1      -3.805 -10.785   9.726  1.00  0.00     0.134 A 
ATOM     63  C   UNL     1      -4.307  -8.582   8.995  1.00  0.00     0.134 A 
ATOM     64  F   UNL     1      -3.339 -12.030   9.550  1.00  0.00    -0.206 F 
ATOM     65  C   UNL     1      -4.377 -10.500  10.972  1.00  0.00     0.040 A 
ATOM     66  C   UNL     1      -4.827  -8.269  10.254  1.00  0.00     0.040 A 
ATOM     67  F   UNL     1      -4.448  -7.608   8.089  1.00  0.00    -0.206 F 
ATOM     68  C   UNL     1      -4.893  -9.239  11.239  1.00  0.00     0.006 A 
ENDBRANCH  47  61
BRANCH  48  69
ATOM     69  C   UNL     1     -10.112  -8.466   2.857  1.00  0.00     0.057 A 
ATOM     70  C   UNL     1     -11.355  -9.044   3.147  1.00  0.00     0.134 A 
ATOM     71  C   UNL     1     -10.103  -7.070   2.694  1.00  0.00     0.134 A 
ATOM     72  F   UNL     1     -11.458 -10.364   3.360  1.00  0.00    -0.206 F 
ATOM     73  C   UNL     1     -12.520  -8.276   3.288  1.00  0.00     0.040 A 
ATOM     74  C   UNL     1     -11.258  -6.291   2.828  1.00  0.00     0.040 A 
ATOM     75  F   UNL     1      -8.956  -6.408   2.486  1.00  0.00    -0.206 F 
ATOM     76  C   UNL     1     -12.471  -6.893   3.140  1.00  0.00     0.006 A 
ENDBRANCH  48  69
BRANCH  60  77
ATOM     77  C   UNL     1      -6.364 -13.479   3.467  1.00  0.00     0.057 A 
ATOM     78  C   UNL     1      -6.217 -12.955   2.172  1.00  0.00     0.134 A 
ATOM     79  C   UNL     1      -6.366 -14.872   3.578  1.00  0.00     0.134 A 
ATOM     80  F   UNL     1      -6.101 -11.640   1.966  1.00  0.00    -0.206 F 
ATOM     81  C   UNL     1      -6.120 -13.773   1.042  1.00  0.00     0.040 A 
ATOM     82  C   UNL     1      -6.237 -15.703   2.461  1.00  0.00     0.040 A 
ATOM     83  F   UNL     1      -6.443 -15.453   4.785  1.00  0.00    -0.206 F 
ATOM     84  C   UNL     1      -6.122 -15.155   1.186  1.00  0.00     0.006 A 
ENDBRANCH  60  77
ENDBRANCH  34  35
ENDBRANCH  26  29
ENDBRANCH  24  25
ENDBRANCH  23  24
ENDBRANCH   1  23
TORSDOF 14
