REMARK SMILES O=C(NCCCNC(=O)[C@@H]1[C@@H](C(=O)Nc2sc3c(c2C(=O)NC2CCCC2)CCC3)[C@@H]2C=C[C@H]1CC2)c1ccc(-c2c3nc(c(-c4c(F)cccc4F)c4ccc([nH]4)c(-c4c(F)cccc4F)c4nc(c(-c5c(F)cccc5F)c5ccc2[nH]5)C=C4)C=C3)cc1
REMARK SMILES IDX 6 1 5 2 4 3 3 4 1 5 2 6 37 8 38 9 90 10 39 11 89 12 40 13
REMARK SMILES IDX 41 14 42 15 83 16 43 17 88 18 82 19 84 20 44 21 87 22 81 23
REMARK SMILES IDX 80 24 45 26 71 27 54 28 70 29 55 30 58 31 69 32 85 33 56 34
REMARK SMILES IDX 57 35 68 37 86 38 59 39 46 40 47 41 52 42 48 43 49 44 51 45
REMARK SMILES IDX 53 46 50 47 72 48 73 49 78 50 74 51 75 52 77 53 79 54 76 55
REMARK SMILES IDX 60 56 61 57 66 58 62 59 63 60 65 61 67 62 64 63 7 64 8 65
REMARK SMILES IDX 9 67 10 68 11 69 34 70 31 71 33 72 35 73 32 74 36 75 12 76
REMARK SMILES IDX 13 77 14 78 15 80 16 81 19 82 17 83 18 84 30 85 28 86 29 87
REMARK SMILES IDX 20 88 21 89 22 90 23 92 24 93 27 94 25 95 26 96
REMARK H PARENT 3 7 84 25 58 36 7 66 14 79 22 91
REMARK Flexibility Score: inf
ROOT
ATOM      1  C   UNL     1       4.473   3.494   0.449  1.00  0.00     0.117 C 
ENDROOT
BRANCH   1   2
ATOM      2  C   UNL     1       5.000   2.232  -0.239  1.00  0.00     0.042 C 
BRANCH   2   3
ATOM      3  C   UNL     1       4.705   0.929   0.505  1.00  0.00     0.118 C 
BRANCH   3   4
ATOM      4  N   UNL     1       3.295   0.668   0.730  1.00  0.00    -0.352 N 
ATOM      5  O   UNL     1       1.231  -0.097   0.655  1.00  0.00    -0.269 OA
ATOM      6  C   UNL     1       2.291   0.050   0.039  1.00  0.00     0.251 C 
ATOM      7  H   UNL     1       2.985   1.024   1.594  1.00  0.00     0.163 HD
BRANCH   6   8
ATOM      8  C   UNL     1       2.349  -0.394  -1.381  1.00  0.00     0.039 A 
ATOM      9  C   UNL     1       3.490  -0.468  -2.180  1.00  0.00     0.014 A 
ATOM     10  C   UNL     1       1.108  -0.743  -1.954  1.00  0.00     0.014 A 
ATOM     11  C   UNL     1       3.381  -0.807  -3.531  1.00  0.00     0.010 A 
ATOM     12  C   UNL     1       0.996  -1.087  -3.297  1.00  0.00     0.010 A 
ATOM     13  C   UNL     1       2.131  -1.082  -4.099  1.00  0.00    -0.014 A 
BRANCH  13  14
ATOM     14  C   UNL     1       2.064  -1.491  -5.502  1.00  0.00     0.031 A 
ATOM     15  C   UNL     1       2.762  -2.775  -5.818  1.00  0.00     0.074 A 
ATOM     16  C   UNL     1       1.310  -0.873  -6.436  1.00  0.00     0.049 A 
ATOM     17  N   UNL     1       3.734  -2.981  -6.648  1.00  0.00    -0.248 NA
ATOM     18  C   UNL     1       2.376  -3.969  -5.048  1.00  0.00     0.031 C 
ATOM     19  C   UNL     1       0.329   0.201  -6.255  1.00  0.00     0.029 A 
ATOM     20  N   UNL     1       1.210  -1.149  -7.769  1.00  0.00    -0.354 N 
ATOM     21  C   UNL     1       3.986  -4.353  -6.624  1.00  0.00     0.074 A 
ATOM     22  C   UNL     1       3.198  -4.893  -5.546  1.00  0.00     0.031 C 
ATOM     23  C   UNL     1      -0.406   0.336  -7.385  1.00  0.00     0.029 A 
ATOM     24  C   UNL     1       0.142  -0.534  -8.412  1.00  0.00     0.049 A 
ATOM     25  H   UNL     1       1.846  -1.736  -8.239  1.00  0.00     0.167 HD
ATOM     26  C   UNL     1       4.699  -4.978  -7.602  1.00  0.00     0.037 A 
ATOM     27  C   UNL     1      -0.282  -0.757  -9.682  1.00  0.00     0.037 A 
ATOM     28  C   UNL     1       5.494  -4.048  -8.356  1.00  0.00     0.049 A 
ATOM     29  C   UNL     1       0.831  -1.393 -10.425  1.00  0.00     0.074 A 
ATOM     30  C   UNL     1       6.537  -3.195  -8.050  1.00  0.00     0.029 A 
ATOM     31  N   UNL     1       5.028  -3.633  -9.577  1.00  0.00    -0.354 N 
ATOM     32  N   UNL     1       1.939  -0.785 -10.739  1.00  0.00    -0.248 NA
ATOM     33  C   UNL     1       0.888  -2.846 -10.431  1.00  0.00     0.031 C 
ATOM     34  C   UNL     1       6.293  -2.027  -8.830  1.00  0.00     0.029 A 
ATOM     35  C   UNL     1       5.158  -2.267  -9.605  1.00  0.00     0.049 A 
ATOM     36  H   UNL     1       4.669  -4.203 -10.295  1.00  0.00     0.167 HD
ATOM     37  C   UNL     1       2.927  -1.740 -10.554  1.00  0.00     0.074 A 
ATOM     38  C   UNL     1       2.213  -3.010 -10.441  1.00  0.00     0.031 C 
ATOM     39  C   UNL     1       4.204  -1.384 -10.231  1.00  0.00     0.037 A 
BRANCH  26  40
ATOM     40  C   UNL     1       4.447  -6.388  -8.071  1.00  0.00     0.057 A 
ATOM     41  C   UNL     1       5.358  -7.012  -8.944  1.00  0.00     0.134 A 
ATOM     42  C   UNL     1       3.210  -7.047  -7.927  1.00  0.00     0.134 A 
ATOM     43  F   UNL     1       6.562  -6.472  -9.185  1.00  0.00    -0.206 F 
ATOM     44  C   UNL     1       5.036  -8.171  -9.663  1.00  0.00     0.040 A 
ATOM     45  C   UNL     1       2.896  -8.230  -8.603  1.00  0.00     0.040 A 
ATOM     46  F   UNL     1       2.208  -6.529  -7.205  1.00  0.00    -0.206 F 
ATOM     47  C   UNL     1       3.799  -8.781  -9.498  1.00  0.00     0.006 A 
ENDBRANCH  26  40
BRANCH  27  48
ATOM     48  C   UNL     1      -1.664  -0.757 -10.216  1.00  0.00     0.057 A 
ATOM     49  C   UNL     1      -1.919  -0.673 -11.594  1.00  0.00     0.134 A 
ATOM     50  C   UNL     1      -2.749  -1.142  -9.411  1.00  0.00     0.134 A 
ATOM     51  F   UNL     1      -0.936  -0.360 -12.450  1.00  0.00    -0.206 F 
ATOM     52  C   UNL     1      -3.175  -0.977 -12.140  1.00  0.00     0.040 A 
ATOM     53  C   UNL     1      -4.008  -1.446  -9.943  1.00  0.00     0.040 A 
ATOM     54  F   UNL     1      -2.597  -1.330  -8.092  1.00  0.00    -0.206 F 
ATOM     55  C   UNL     1      -4.221  -1.377 -11.314  1.00  0.00     0.006 A 
ENDBRANCH  27  48
BRANCH  39  56
ATOM     56  C   UNL     1       4.565   0.076 -10.295  1.00  0.00     0.057 A 
ATOM     57  C   UNL     1       3.978   1.067  -9.492  1.00  0.00     0.134 A 
ATOM     58  C   UNL     1       5.647   0.470 -11.088  1.00  0.00     0.134 A 
ATOM     59  F   UNL     1       3.003   0.771  -8.624  1.00  0.00    -0.206 F 
ATOM     60  C   UNL     1       4.419   2.394  -9.513  1.00  0.00     0.040 A 
ATOM     61  C   UNL     1       6.120   1.785 -11.093  1.00  0.00     0.040 A 
ATOM     62  F   UNL     1       6.298  -0.432 -11.840  1.00  0.00    -0.206 F 
ATOM     63  C   UNL     1       5.499   2.756 -10.311  1.00  0.00     0.006 A 
ENDBRANCH  39  56
ENDBRANCH  13  14
ENDBRANCH   6   8
ENDBRANCH   3   4
ENDBRANCH   2   3
ENDBRANCH   1   2
BRANCH   1  64
ATOM     64  N   UNL     1       5.051   3.697   1.770  1.00  0.00    -0.356 N 
ATOM     65  C   UNL     1       5.790   4.713   2.297  1.00  0.00     0.224 C 
ATOM     66  H   UNL     1       4.875   2.963   2.401  1.00  0.00     0.163 HD
ATOM     67  O   UNL     1       6.147   4.584   3.471  1.00  0.00    -0.275 OA
BRANCH  65  68
ATOM     68  C   UNL     1       6.155   5.937   1.462  1.00  0.00     0.098 C 
ATOM     69  C   UNL     1       7.708   5.992   1.227  1.00  0.00     0.099 C 
ATOM     70  C   UNL     1       5.687   7.254   2.151  1.00  0.00     0.025 C 
ATOM     71  C   UNL     1       8.223   7.410   1.625  1.00  0.00     0.025 C 
ATOM     72  C   UNL     1       6.561   7.545   3.354  1.00  0.00    -0.027 C 
ATOM     73  C   UNL     1       5.942   8.401   1.141  1.00  0.00     0.009 C 
ATOM     74  C   UNL     1       7.874   7.615   3.086  1.00  0.00    -0.027 C 
ATOM     75  C   UNL     1       7.454   8.491   0.830  1.00  0.00     0.009 C 
BRANCH  69  76
ATOM     76  C   UNL     1       8.056   5.642  -0.223  1.00  0.00     0.229 C 
ATOM     77  O   UNL     1       7.171   5.438  -1.063  1.00  0.00    -0.274 OA
ATOM     78  N   UNL     1       9.336   5.666  -0.687  1.00  0.00    -0.317 N 
ATOM     79  H   UNL     1       9.416   5.626  -1.668  1.00  0.00     0.170 HD
BRANCH  78  80
ATOM     80  C   UNL     1      10.534   5.736  -0.019  1.00  0.00     0.108 A 
ATOM     81  S   UNL     1      11.619   6.705  -0.927  1.00  0.00    -0.122 S 
ATOM     82  C   UNL     1      11.079   5.185   1.155  1.00  0.00     0.078 A 
ATOM     83  C   UNL     1      12.704   6.673   0.326  1.00  0.00     0.011 A 
ATOM     84  C   UNL     1      12.353   5.852   1.372  1.00  0.00    -0.019 A 
ATOM     85  C   UNL     1      14.025   7.336   0.437  1.00  0.00     0.047 C 
ATOM     86  C   UNL     1      13.493   5.862   2.343  1.00  0.00     0.038 C 
ATOM     87  C   UNL     1      14.354   7.082   1.920  1.00  0.00     0.010 C 
BRANCH  82  88
ATOM     88  C   UNL     1      10.375   4.065   1.830  1.00  0.00     0.254 C 
ATOM     89  O   UNL     1       9.511   3.418   1.232  1.00  0.00    -0.269 OA
ATOM     90  N   UNL     1      10.588   3.655   3.124  1.00  0.00    -0.349 N 
ATOM     91  H   UNL     1       9.903   3.041   3.475  1.00  0.00     0.164 HD
BRANCH  90  92
ATOM     92  C   UNL     1      11.631   3.965   4.045  1.00  0.00     0.082 C 
ATOM     93  C   UNL     1      11.339   5.134   4.977  1.00  0.00     0.025 C 
ATOM     94  C   UNL     1      11.994   2.869   5.040  1.00  0.00     0.025 C 
ATOM     95  C   UNL     1      12.484   5.061   5.989  1.00  0.00     0.002 C 
ATOM     96  C   UNL     1      12.977   3.607   5.950  1.00  0.00     0.002 C 
ENDBRANCH  90  92
ENDBRANCH  82  88
ENDBRANCH  78  80
ENDBRANCH  69  76
ENDBRANCH  65  68
ENDBRANCH   1  64
TORSDOF 14
