REMARK SMILES [NH3+][C@@]1(C(=O)NCCCNC(=O)c2ccc(-c3c4nc(c(-c5c(F)cccc5F)c5ccc([nH]5)c(-c5c(F)cccc5F)c5nc(c(-c6c(F)cccc6F)c6ccc3[nH]6)C=C5)C=C4)cc2)c2ccccc2C[C@H]1C(=O)OCC1c2ccccc2-c2ccccc21
REMARK SMILES IDX 6 1 5 2 3 3 4 4 2 6 66 7 73 8 67 9 71 10 72 11 68 12 70 13
REMARK SMILES IDX 69 14 1 15 74 19 75 20 76 21 77 22 78 23 79 24 90 25 80 26
REMARK SMILES IDX 84 27 85 28 89 29 81 30 83 31 86 32 88 33 82 34 87 35 7 36
REMARK SMILES IDX 8 37 9 38 10 39 11 41 12 42 13 43 65 44 14 45 64 46 15 47
REMARK SMILES IDX 16 48 17 49 58 50 18 51 63 52 57 53 59 54 19 55 62 56 56 57
REMARK SMILES IDX 55 58 20 60 46 61 29 62 45 63 30 64 33 65 44 66 60 67 31 68
REMARK SMILES IDX 32 69 43 71 61 72 34 73 21 74 22 75 27 76 23 77 24 78 26 79
REMARK SMILES IDX 28 80 25 81 47 82 48 83 53 84 49 85 50 86 52 87 54 88 51 89
REMARK SMILES IDX 35 90 36 91 41 92 37 93 38 94 40 95 42 96 39 97
REMARK H PARENT 5 5 1 16 1 17 1 18 9 40 59 59 33 70
REMARK Flexibility Score: inf
ROOT
ATOM      1  C   UNL     1       0.455  -0.542  -4.323  1.00  0.00     0.118 C 
ENDROOT
BRANCH   1   2
ATOM      2  N   UNL     1       1.409   0.055  -3.408  1.00  0.00    -0.350 N 
ATOM      3  C   UNL     1       1.472   0.089  -2.049  1.00  0.00     0.287 C 
ATOM      4  O   UNL     1       2.524   0.547  -1.577  1.00  0.00    -0.267 OA
ATOM      5  H   UNL     1       2.151   0.524  -3.854  1.00  0.00     0.163 HD
BRANCH   3   6
ATOM      6  C   UNL     1       0.337  -0.438  -1.094  1.00  0.00     0.213 C 
ATOM      7  C   UNL     1       0.004  -1.888  -1.369  1.00  0.00     0.026 A 
ATOM      8  C   UNL     1      -1.016   0.279  -1.332  1.00  0.00     0.179 C 
ATOM      9  C   UNL     1       0.873  -2.973  -1.371  1.00  0.00     0.011 A 
ATOM     10  C   UNL     1      -1.349  -2.061  -1.669  1.00  0.00    -0.037 A 
ATOM     11  C   UNL     1      -2.089  -0.765  -1.705  1.00  0.00     0.059 C 
ATOM     12  C   UNL     1       0.366  -4.235  -1.683  1.00  0.00     0.001 A 
ATOM     13  C   UNL     1      -1.862  -3.311  -1.976  1.00  0.00     0.004 A 
ATOM     14  C   UNL     1      -0.994  -4.402  -1.982  1.00  0.00     0.000 A 
BRANCH   6  15
ATOM     15  N   UNL     1       0.827  -0.308   0.293  1.00  0.00    -0.340 N 
ATOM     16  H   UNL     1       1.717  -0.799   0.387  1.00  0.00     0.345 HD
ATOM     17  H   UNL     1       0.146  -0.714   0.934  1.00  0.00     0.345 HD
ATOM     18  H   UNL     1       0.958   0.679   0.516  1.00  0.00     0.345 HD
ENDBRANCH   6  15
BRANCH   8  19
ATOM     19  C   UNL     1      -1.495   1.175  -0.209  1.00  0.00     0.316 C 
ATOM     20  O   UNL     1      -1.354   2.393  -0.253  1.00  0.00    -0.252 OA
BRANCH  19  21
ATOM     21  O   UNL     1      -2.197   0.499   0.750  1.00  0.00    -0.464 OA
BRANCH  21  22
ATOM     22  C   UNL     1      -2.957   1.323   1.654  1.00  0.00     0.246 C 
BRANCH  22  23
ATOM     23  C   UNL     1      -2.835   0.885   3.126  1.00  0.00     0.088 C 
ATOM     24  C   UNL     1      -3.514   1.950   3.985  1.00  0.00    -0.029 A 
ATOM     25  C   UNL     1      -1.397   1.000   3.603  1.00  0.00    -0.029 A 
ATOM     26  C   UNL     1      -4.868   2.222   4.112  1.00  0.00     0.005 A 
ATOM     27  C   UNL     1      -2.535   2.736   4.635  1.00  0.00    -0.014 A 
ATOM     28  C   UNL     1      -1.228   2.178   4.357  1.00  0.00    -0.014 A 
ATOM     29  C   UNL     1      -0.338   0.150   3.337  1.00  0.00     0.005 A 
ATOM     30  C   UNL     1      -5.243   3.304   4.910  1.00  0.00     0.000 A 
ATOM     31  C   UNL     1      -2.910   3.807   5.426  1.00  0.00     0.009 A 
ATOM     32  C   UNL     1       0.042   2.603   4.703  1.00  0.00     0.009 A 
ATOM     33  C   UNL     1       0.938   0.557   3.721  1.00  0.00     0.000 A 
ATOM     34  C   UNL     1      -4.274   4.090   5.560  1.00  0.00     0.001 A 
ATOM     35  C   UNL     1       1.131   1.793   4.360  1.00  0.00     0.001 A 
ENDBRANCH  22  23
ENDBRANCH  21  22
ENDBRANCH  19  21
ENDBRANCH   8  19
ENDBRANCH   3   6
ENDBRANCH   1   2
BRANCH   1  36
ATOM     36  C   UNL     1      -0.246   0.496  -5.185  1.00  0.00     0.042 C 
BRANCH  36  37
ATOM     37  C   UNL     1       0.687   1.197  -6.162  1.00  0.00     0.118 C 
BRANCH  37  38
ATOM     38  N   UNL     1       1.168   0.314  -7.219  1.00  0.00    -0.352 N 
ATOM     39  C   UNL     1       0.886   0.296  -8.567  1.00  0.00     0.251 C 
ATOM     40  H   UNL     1       1.796  -0.383  -6.920  1.00  0.00     0.163 HD
ATOM     41  O   UNL     1       1.256  -0.642  -9.258  1.00  0.00    -0.269 OA
BRANCH  39  42
ATOM     42  C   UNL     1       0.100   1.395  -9.170  1.00  0.00     0.039 A 
ATOM     43  C   UNL     1       0.357   2.722  -8.832  1.00  0.00     0.014 A 
ATOM     44  C   UNL     1      -0.926   1.087 -10.068  1.00  0.00     0.014 A 
ATOM     45  C   UNL     1      -0.539   3.713  -9.212  1.00  0.00     0.010 A 
ATOM     46  C   UNL     1      -1.763   2.103 -10.538  1.00  0.00     0.010 A 
ATOM     47  C   UNL     1      -1.618   3.415 -10.060  1.00  0.00    -0.014 A 
BRANCH  47  48
ATOM     48  C   UNL     1      -2.590   4.484 -10.405  1.00  0.00     0.031 A 
ATOM     49  C   UNL     1      -4.032   4.379  -9.981  1.00  0.00     0.074 A 
ATOM     50  C   UNL     1      -2.159   5.586 -11.049  1.00  0.00     0.049 A 
ATOM     51  N   UNL     1      -5.016   5.221 -10.179  1.00  0.00    -0.248 NA
ATOM     52  C   UNL     1      -4.425   3.167  -9.245  1.00  0.00     0.031 C 
ATOM     53  C   UNL     1      -0.786   5.815 -11.504  1.00  0.00     0.029 A 
ATOM     54  N   UNL     1      -2.825   6.729 -11.412  1.00  0.00    -0.354 N 
ATOM     55  C   UNL     1      -6.142   4.634  -9.615  1.00  0.00     0.074 A 
ATOM     56  C   UNL     1      -5.729   3.348  -9.095  1.00  0.00     0.031 C 
ATOM     57  C   UNL     1      -0.700   7.040 -12.041  1.00  0.00     0.029 A 
ATOM     58  C   UNL     1      -2.022   7.656 -12.029  1.00  0.00     0.049 A 
ATOM     59  H   UNL     1      -3.785   6.870 -11.247  1.00  0.00     0.167 HD
ATOM     60  C   UNL     1      -7.403   5.124  -9.526  1.00  0.00     0.037 A 
ATOM     61  C   UNL     1      -2.319   8.862 -12.546  1.00  0.00     0.037 A 
ATOM     62  C   UNL     1      -7.809   6.413 -10.025  1.00  0.00     0.049 A 
ATOM     63  C   UNL     1      -3.733   9.361 -12.476  1.00  0.00     0.074 A 
ATOM     64  C   UNL     1      -9.054   7.014  -9.951  1.00  0.00     0.029 A 
ATOM     65  N   UNL     1      -6.978   7.299 -10.693  1.00  0.00    -0.354 N 
ATOM     66  N   UNL     1      -4.781   8.801 -11.924  1.00  0.00    -0.248 NA
ATOM     67  C   UNL     1      -4.005  10.656 -13.112  1.00  0.00     0.031 C 
ATOM     68  C   UNL     1      -8.988   8.243 -10.618  1.00  0.00     0.029 A 
ATOM     69  C   UNL     1      -7.689   8.429 -11.064  1.00  0.00     0.049 A 
ATOM     70  H   UNL     1      -6.022   7.148 -10.877  1.00  0.00     0.167 HD
ATOM     71  C   UNL     1      -5.835   9.679 -12.135  1.00  0.00     0.074 A 
ATOM     72  C   UNL     1      -5.292  10.821 -12.843  1.00  0.00     0.031 C 
ATOM     73  C   UNL     1      -7.137   9.551 -11.780  1.00  0.00     0.037 A 
BRANCH  60  74
ATOM     74  C   UNL     1      -8.442   4.248  -8.885  1.00  0.00     0.057 A 
ATOM     75  C   UNL     1      -9.459   3.669  -9.656  1.00  0.00     0.134 A 
ATOM     76  C   UNL     1      -8.452   3.990  -7.508  1.00  0.00     0.134 A 
ATOM     77  F   UNL     1      -9.513   3.879 -10.980  1.00  0.00    -0.206 F 
ATOM     78  C   UNL     1     -10.445   2.865  -9.082  1.00  0.00     0.040 A 
ATOM     79  C   UNL     1      -9.418   3.167  -6.926  1.00  0.00     0.040 A 
ATOM     80  F   UNL     1      -7.500   4.501  -6.713  1.00  0.00    -0.206 F 
ATOM     81  C   UNL     1     -10.422   2.606  -7.713  1.00  0.00     0.006 A 
ENDBRANCH  60  74
BRANCH  61  82
ATOM     82  C   UNL     1      -1.258   9.670 -13.196  1.00  0.00     0.057 A 
ATOM     83  C   UNL     1      -0.679   9.270 -14.407  1.00  0.00     0.134 A 
ATOM     84  C   UNL     1      -0.801  10.862 -12.625  1.00  0.00     0.134 A 
ATOM     85  F   UNL     1      -1.070   8.133 -15.002  1.00  0.00    -0.206 F 
ATOM     86  C   UNL     1       0.325  10.020 -15.021  1.00  0.00     0.040 A 
ATOM     87  C   UNL     1       0.183  11.637 -13.241  1.00  0.00     0.040 A 
ATOM     88  F   UNL     1      -1.331  11.306 -11.476  1.00  0.00    -0.206 F 
ATOM     89  C   UNL     1       0.752  11.212 -14.440  1.00  0.00     0.006 A 
ENDBRANCH  61  82
BRANCH  73  90
ATOM     90  C   UNL     1      -8.051  10.683 -12.144  1.00  0.00     0.057 A 
ATOM     91  C   UNL     1      -8.550  11.545 -11.159  1.00  0.00     0.134 A 
ATOM     92  C   UNL     1      -8.440  10.919 -13.469  1.00  0.00     0.134 A 
ATOM     93  F   UNL     1      -8.221  11.371  -9.870  1.00  0.00    -0.206 F 
ATOM     94  C   UNL     1      -9.400  12.604 -11.480  1.00  0.00     0.040 A 
ATOM     95  C   UNL     1      -9.268  11.991 -13.805  1.00  0.00     0.040 A 
ATOM     96  F   UNL     1      -7.983  10.140 -14.461  1.00  0.00    -0.206 F 
ATOM     97  C   UNL     1      -9.755  12.835 -12.808  1.00  0.00     0.006 A 
ENDBRANCH  73  90
ENDBRANCH  47  48
ENDBRANCH  39  42
ENDBRANCH  37  38
ENDBRANCH  36  37
ENDBRANCH   1  36
TORSDOF 15
