REMARK SMILES CC(C)(C[NH2+]CCc1cccnc1)C(=O)NCCCNC(=O)c1ccc(-c2c3nc(c(-c4c(F)cccc4F)c4ccc([nH]4)c(-c4c(F)cccc4F)c4nc(c(-c5c(F)cccc5F)c5ccc2[nH]5)C=C4)C=C3)cc1
REMARK SMILES IDX 14 1 15 2 16 3 2 5 1 6 3 7 4 8 5 9 6 12 7 13 8 14 9 15 13 16
REMARK SMILES IDX 10 17 12 18 11 19 17 20 18 21 19 22 20 23 21 24 22 26 23 27
REMARK SMILES IDX 24 28 76 29 25 30 75 31 26 32 27 33 28 34 69 35 29 36 74 37
REMARK SMILES IDX 68 38 70 39 30 40 73 41 67 42 66 43 31 45 57 46 40 47 56 48
REMARK SMILES IDX 41 49 44 50 55 51 71 52 42 53 43 54 54 56 72 57 45 58 32 59
REMARK SMILES IDX 33 60 38 61 34 62 35 63 37 64 39 65 36 66 58 67 59 68 64 69
REMARK SMILES IDX 60 70 61 71 63 72 65 73 62 74 46 75 47 76 52 77 48 78 49 79
REMARK SMILES IDX 51 80 53 81 50 82
REMARK H PARENT 16 4 5 10 5 11 20 25 70 44 44 55
REMARK Flexibility Score: inf
ROOT
ATOM      1  C   UNL     1       1.091   2.362  -0.188  1.00  0.00     0.231 C 
ATOM      2  O   UNL     1       1.860   2.378   0.782  1.00  0.00    -0.274 OA
ATOM      3  N   UNL     1       0.814   3.579  -0.727  1.00  0.00    -0.355 N 
ATOM      4  H   UNL     1       1.276   4.322  -0.277  1.00  0.00     0.163 HD
ENDROOT
BRANCH   1   5
ATOM      5  C   UNL     1       0.548   1.035  -0.756  1.00  0.00     0.092 C 
ATOM      6  C   UNL     1       1.099  -0.128   0.114  1.00  0.00     0.027 C 
ATOM      7  C   UNL     1       1.110   0.802  -2.172  1.00  0.00     0.027 C 
BRANCH   5   8
ATOM      8  C   UNL     1      -1.003   0.967  -0.761  1.00  0.00     0.276 C 
BRANCH   8   9
ATOM      9  N   UNL     1      -1.591   1.217   0.558  1.00  0.00    -0.345 N 
ATOM     10  H   UNL     1      -1.313   2.151   0.858  1.00  0.00     0.346 HD
ATOM     11  H   UNL     1      -1.246   0.478   1.171  1.00  0.00     0.346 HD
BRANCH   9  12
ATOM     12  C   UNL     1      -3.053   1.141   0.603  1.00  0.00     0.265 C 
BRANCH  12  13
ATOM     13  C   UNL     1      -3.712  -0.185   0.176  1.00  0.00     0.098 C 
BRANCH  13  14
ATOM     14  C   UNL     1      -3.242  -1.462   0.826  1.00  0.00    -0.024 A 
ATOM     15  C   UNL     1      -2.634  -1.532   2.081  1.00  0.00     0.007 A 
ATOM     16  C   UNL     1      -3.465  -2.674   0.171  1.00  0.00     0.114 A 
ATOM     17  C   UNL     1      -2.229  -2.764   2.591  1.00  0.00     0.020 A 
ATOM     18  N   UNL     1      -3.096  -3.885   0.645  1.00  0.00    -0.264 NA
ATOM     19  C   UNL     1      -2.478  -3.901   1.842  1.00  0.00     0.111 A 
ENDBRANCH  13  14
ENDBRANCH  12  13
ENDBRANCH   9  12
ENDBRANCH   8   9
ENDBRANCH   5   8
ENDBRANCH   1   5
BRANCH   3  20
ATOM     20  C   UNL     1      -0.026   4.002  -1.830  1.00  0.00     0.117 C 
BRANCH  20  21
ATOM     21  C   UNL     1      -1.301   4.697  -1.365  1.00  0.00     0.042 C 
BRANCH  21  22
ATOM     22  C   UNL     1      -1.067   6.006  -0.618  1.00  0.00     0.118 C 
BRANCH  22  23
ATOM     23  N   UNL     1      -0.406   7.012  -1.439  1.00  0.00    -0.352 N 
ATOM     24  C   UNL     1      -0.845   8.227  -1.899  1.00  0.00     0.251 C 
ATOM     25  H   UNL     1       0.512   6.781  -1.710  1.00  0.00     0.163 HD
ATOM     26  O   UNL     1      -0.182   8.824  -2.747  1.00  0.00    -0.269 OA
BRANCH  24  27
ATOM     27  C   UNL     1      -2.105   8.827  -1.407  1.00  0.00     0.039 A 
ATOM     28  C   UNL     1      -2.921   9.512  -2.313  1.00  0.00     0.014 A 
ATOM     29  C   UNL     1      -2.464   8.768  -0.058  1.00  0.00     0.014 A 
ATOM     30  C   UNL     1      -4.122  10.080  -1.882  1.00  0.00     0.010 A 
ATOM     31  C   UNL     1      -3.697   9.266   0.356  1.00  0.00     0.010 A 
ATOM     32  C   UNL     1      -4.536   9.932  -0.549  1.00  0.00    -0.014 A 
BRANCH  32  33
ATOM     33  C   UNL     1      -5.844  10.460  -0.086  1.00  0.00     0.031 A 
ATOM     34  C   UNL     1      -5.904  11.539   0.959  1.00  0.00     0.074 A 
ATOM     35  C   UNL     1      -6.982   9.907  -0.546  1.00  0.00     0.049 A 
ATOM     36  N   UNL     1      -6.950  12.071   1.539  1.00  0.00    -0.248 NA
ATOM     37  C   UNL     1      -4.618  12.067   1.438  1.00  0.00     0.031 C 
ATOM     38  C   UNL     1      -7.059   8.807  -1.510  1.00  0.00     0.029 A 
ATOM     39  N   UNL     1      -8.294  10.181  -0.250  1.00  0.00    -0.354 N 
ATOM     40  C   UNL     1      -6.449  12.972   2.470  1.00  0.00     0.074 A 
ATOM     41  C   UNL     1      -5.005  12.884   2.406  1.00  0.00     0.031 C 
ATOM     42  C   UNL     1      -8.348   8.508  -1.733  1.00  0.00     0.029 A 
ATOM     43  C   UNL     1      -9.187   9.373  -0.909  1.00  0.00     0.049 A 
ATOM     44  H   UNL     1      -8.568  10.890   0.376  1.00  0.00     0.167 HD
ATOM     45  C   UNL     1      -7.128  13.809   3.290  1.00  0.00     0.037 A 
ATOM     46  C   UNL     1     -10.531   9.327  -0.851  1.00  0.00     0.037 A 
ATOM     47  C   UNL     1      -8.563  13.922   3.324  1.00  0.00     0.049 A 
ATOM     48  C   UNL     1     -11.265  10.293   0.032  1.00  0.00     0.074 A 
ATOM     49  C   UNL     1      -9.341  14.811   4.045  1.00  0.00     0.029 A 
ATOM     50  N   UNL     1      -9.435  13.117   2.606  1.00  0.00    -0.354 N 
ATOM     51  N   UNL     1     -10.779  11.203   0.841  1.00  0.00    -0.248 NA
ATOM     52  C   UNL     1     -12.733  10.235   0.003  1.00  0.00     0.031 C 
ATOM     53  C   UNL     1     -10.687  14.516   3.795  1.00  0.00     0.029 A 
ATOM     54  C   UNL     1     -10.745  13.471   2.887  1.00  0.00     0.049 A 
ATOM     55  H   UNL     1      -9.163  12.400   1.989  1.00  0.00     0.167 HD
ATOM     56  C   UNL     1     -11.878  11.835   1.406  1.00  0.00     0.074 A 
ATOM     57  C   UNL     1     -13.057  11.216   0.835  1.00  0.00     0.031 C 
ATOM     58  C   UNL     1     -11.908  12.839   2.317  1.00  0.00     0.037 A 
BRANCH  45  59
ATOM     59  C   UNL     1      -6.321  14.665   4.221  1.00  0.00     0.057 A 
ATOM     60  C   UNL     1      -5.540  15.733   3.758  1.00  0.00     0.134 A 
ATOM     61  C   UNL     1      -6.334  14.427   5.601  1.00  0.00     0.134 A 
ATOM     62  F   UNL     1      -5.474  16.008   2.447  1.00  0.00    -0.206 F 
ATOM     63  C   UNL     1      -4.775  16.510   4.630  1.00  0.00     0.040 A 
ATOM     64  C   UNL     1      -5.594  15.214   6.486  1.00  0.00     0.040 A 
ATOM     65  F   UNL     1      -7.065  13.425   6.113  1.00  0.00    -0.206 F 
ATOM     66  C   UNL     1      -4.804  16.253   5.999  1.00  0.00     0.006 A 
ENDBRANCH  45  59
BRANCH  46  67
ATOM     67  C   UNL     1     -11.263   8.340  -1.682  1.00  0.00     0.057 A 
ATOM     68  C   UNL     1     -11.962   8.739  -2.826  1.00  0.00     0.134 A 
ATOM     69  C   UNL     1     -11.252   6.975  -1.371  1.00  0.00     0.134 A 
ATOM     70  F   UNL     1     -12.019  10.035  -3.164  1.00  0.00    -0.206 F 
ATOM     71  C   UNL     1     -12.632   7.816  -3.630  1.00  0.00     0.040 A 
ATOM     72  C   UNL     1     -11.901   6.039  -2.177  1.00  0.00     0.040 A 
ATOM     73  F   UNL     1     -10.590   6.532  -0.292  1.00  0.00    -0.206 F 
ATOM     74  C   UNL     1     -12.596   6.460  -3.309  1.00  0.00     0.006 A 
ENDBRANCH  46  67
BRANCH  58  75
ATOM     75  C   UNL     1     -13.257  13.335   2.744  1.00  0.00     0.057 A 
ATOM     76  C   UNL     1     -14.078  12.590   3.600  1.00  0.00     0.134 A 
ATOM     77  C   UNL     1     -13.725  14.585   2.322  1.00  0.00     0.134 A 
ATOM     78  F   UNL     1     -13.692  11.378   4.027  1.00  0.00    -0.206 F 
ATOM     79  C   UNL     1     -15.326  13.064   4.007  1.00  0.00     0.040 A 
ATOM     80  C   UNL     1     -14.961  15.080   2.740  1.00  0.00     0.040 A 
ATOM     81  F   UNL     1     -12.984  15.351   1.506  1.00  0.00    -0.206 F 
ATOM     82  C   UNL     1     -15.767  14.316   3.582  1.00  0.00     0.006 A 
ENDBRANCH  58  75
ENDBRANCH  32  33
ENDBRANCH  24  27
ENDBRANCH  22  23
ENDBRANCH  21  22
ENDBRANCH  20  21
ENDBRANCH   3  20
TORSDOF 15
