REMARK SMILES CC(C)C[C@@H](CNc1ccc(C(=O)N(C)C)nn1)C(=O)NCCCNC(=O)c1ccc(-c2c3nc(c(-c4c(F)cccc4F)c4ccc([nH]4)c(-c4c(F)cccc4F)c4nc(c(-c5c(F)cccc5F)c5ccc2[nH]5)C=C4)C=C3)cc1
REMARK SMILES IDX 22 1 21 2 19 3 20 4 5 6 4 7 2 8 1 9 3 10 6 11 7 12 8 14 9 15
REMARK SMILES IDX 18 16 10 17 17 18 11 19 12 20 13 21 14 22 15 23 16 24 23 25
REMARK SMILES IDX 24 26 25 27 26 28 27 30 28 31 29 32 81 33 30 34 80 35 31 36
REMARK SMILES IDX 32 37 33 38 74 39 34 40 79 41 73 42 75 43 35 44 78 45 72 46
REMARK SMILES IDX 71 47 36 49 62 50 45 51 61 52 46 53 49 54 60 55 76 56 47 57
REMARK SMILES IDX 48 58 59 60 77 61 50 62 37 63 38 64 43 65 39 66 40 67 42 68
REMARK SMILES IDX 44 69 41 70 63 71 64 72 69 73 65 74 66 75 68 76 70 77 67 78
REMARK SMILES IDX 51 79 52 80 57 81 53 82 54 83 56 84 58 85 55 86
REMARK H PARENT 21 5 7 13 25 29 75 48 49 59
REMARK Flexibility Score: inf
ROOT
ATOM      1  C   UNL     1      -3.358  -3.393  -0.644  1.00  0.00     0.117 C 
ENDROOT
BRANCH   1   2
ATOM      2  N   UNL     1      -3.720  -1.998  -0.772  1.00  0.00    -0.356 N 
ATOM      3  C   UNL     1      -2.951  -0.937  -1.131  1.00  0.00     0.224 C 
ATOM      4  O   UNL     1      -3.534   0.111  -1.426  1.00  0.00    -0.275 OA
ATOM      5  H   UNL     1      -4.660  -1.787  -0.571  1.00  0.00     0.163 HD
BRANCH   3   6
ATOM      6  C   UNL     1      -1.425  -0.996  -1.162  1.00  0.00     0.098 C 
BRANCH   6   7
ATOM      7  C   UNL     1      -0.818  -1.442   0.182  1.00  0.00     0.018 C 
BRANCH   7   8
ATOM      8  C   UNL     1       0.716  -1.394   0.281  1.00  0.00    -0.017 C 
ATOM      9  C   UNL     1       1.270   0.020   0.112  1.00  0.00     0.007 C 
ATOM     10  C   UNL     1       1.154  -1.959   1.637  1.00  0.00     0.007 C 
ENDBRANCH   7   8
ENDBRANCH   6   7
BRANCH   6  11
ATOM     11  C   UNL     1      -0.866  -1.567  -2.478  1.00  0.00     0.128 C 
BRANCH  11  12
ATOM     12  N   UNL     1      -0.949  -3.007  -2.657  1.00  0.00    -0.368 N 
ATOM     13  H   UNL     1      -0.404  -3.576  -2.067  1.00  0.00     0.162 HD
BRANCH  12  14
ATOM     14  C   UNL     1      -1.741  -3.631  -3.598  1.00  0.00     0.148 A 
ATOM     15  C   UNL     1      -2.122  -3.043  -4.795  1.00  0.00     0.051 A 
ATOM     16  N   UNL     1      -2.199  -4.866  -3.311  1.00  0.00    -0.132 NA
ATOM     17  C   UNL     1      -3.026  -3.685  -5.647  1.00  0.00     0.040 A 
ATOM     18  N   UNL     1      -3.107  -5.515  -4.143  1.00  0.00    -0.143 NA
ATOM     19  C   UNL     1      -3.506  -4.931  -5.292  1.00  0.00     0.151 A 
BRANCH  19  20
ATOM     20  C   UNL     1      -4.564  -5.638  -6.073  1.00  0.00     0.273 C 
ATOM     21  O   UNL     1      -5.503  -6.136  -5.449  1.00  0.00    -0.267 OA
ATOM     22  N   UNL     1      -4.511  -5.697  -7.475  1.00  0.00    -0.343 N 
ATOM     23  C   UNL     1      -3.389  -5.309  -8.313  1.00  0.00     0.146 C 
ATOM     24  C   UNL     1      -5.635  -6.330  -8.149  1.00  0.00     0.146 C 
ENDBRANCH  19  20
ENDBRANCH  12  14
ENDBRANCH  11  12
ENDBRANCH   6  11
ENDBRANCH   3   6
ENDBRANCH   1   2
BRANCH   1  25
ATOM     25  C   UNL     1      -3.776  -4.009   0.673  1.00  0.00     0.042 C 
BRANCH  25  26
ATOM     26  C   UNL     1      -5.255  -4.336   0.720  1.00  0.00     0.118 C 
BRANCH  26  27
ATOM     27  N   UNL     1      -5.657  -5.311  -0.290  1.00  0.00    -0.352 N 
ATOM     28  C   UNL     1      -6.206  -6.560  -0.162  1.00  0.00     0.251 C 
ATOM     29  H   UNL     1      -5.509  -5.022  -1.220  1.00  0.00     0.163 HD
ATOM     30  O   UNL     1      -6.333  -7.285  -1.145  1.00  0.00    -0.269 OA
BRANCH  28  31
ATOM     31  C   UNL     1      -6.622  -7.057   1.160  1.00  0.00     0.039 A 
ATOM     32  C   UNL     1      -6.404  -8.400   1.475  1.00  0.00     0.014 A 
ATOM     33  C   UNL     1      -7.225  -6.207   2.087  1.00  0.00     0.014 A 
ATOM     34  C   UNL     1      -6.733  -8.869   2.745  1.00  0.00     0.010 A 
ATOM     35  C   UNL     1      -7.421  -6.638   3.389  1.00  0.00     0.010 A 
ATOM     36  C   UNL     1      -7.207  -7.981   3.724  1.00  0.00    -0.014 A 
BRANCH  36  37
ATOM     37  C   UNL     1      -7.532  -8.446   5.091  1.00  0.00     0.031 A 
ATOM     38  C   UNL     1      -8.934  -8.296   5.616  1.00  0.00     0.074 A 
ATOM     39  C   UNL     1      -6.558  -8.952   5.870  1.00  0.00     0.049 A 
ATOM     40  N   UNL     1      -9.412  -8.596   6.796  1.00  0.00    -0.248 NA
ATOM     41  C   UNL     1      -9.925  -7.689   4.709  1.00  0.00     0.031 C 
ATOM     42  C   UNL     1      -5.149  -9.086   5.490  1.00  0.00     0.029 A 
ATOM     43  N   UNL     1      -6.606  -9.452   7.145  1.00  0.00    -0.354 N 
ATOM     44  C   UNL     1     -10.743  -8.198   6.775  1.00  0.00     0.074 A 
ATOM     45  C   UNL     1     -10.979  -7.564   5.500  1.00  0.00     0.031 C 
ATOM     46  C   UNL     1      -4.477  -9.673   6.493  1.00  0.00     0.029 A 
ATOM     47  C   UNL     1      -5.397  -9.919   7.598  1.00  0.00     0.049 A 
ATOM     48  H   UNL     1      -7.429  -9.474   7.685  1.00  0.00     0.167 HD
ATOM     49  C   UNL     1     -11.695  -8.379   7.720  1.00  0.00     0.037 A 
ATOM     50  C   UNL     1      -5.072 -10.488   8.774  1.00  0.00     0.037 A 
ATOM     51  C   UNL     1     -11.459  -9.045   8.972  1.00  0.00     0.049 A 
ATOM     52  C   UNL     1      -6.152 -10.696   9.799  1.00  0.00     0.074 A 
ATOM     53  C   UNL     1     -12.362  -9.334   9.980  1.00  0.00     0.029 A 
ATOM     54  N   UNL     1     -10.227  -9.531   9.385  1.00  0.00    -0.354 N 
ATOM     55  N   UNL     1      -7.423 -10.378   9.741  1.00  0.00    -0.248 NA
ATOM     56  C   UNL     1      -5.754 -11.357  11.049  1.00  0.00     0.031 C 
ATOM     57  C   UNL     1     -11.665  -9.955  11.022  1.00  0.00     0.029 A 
ATOM     58  C   UNL     1     -10.341 -10.104  10.639  1.00  0.00     0.049 A 
ATOM     59  H   UNL     1      -9.394  -9.476   8.862  1.00  0.00     0.167 HD
ATOM     60  C   UNL     1      -7.983 -10.828  10.929  1.00  0.00     0.074 A 
ATOM     61  C   UNL     1      -6.915 -11.457  11.679  1.00  0.00     0.031 C 
ATOM     62  C   UNL     1      -9.264 -10.731  11.363  1.00  0.00     0.037 A 
BRANCH  49  63
ATOM     63  C   UNL     1     -13.072  -7.857   7.423  1.00  0.00     0.057 A 
ATOM     64  C   UNL     1     -13.878  -8.420   6.422  1.00  0.00     0.134 A 
ATOM     65  C   UNL     1     -13.604  -6.787   8.151  1.00  0.00     0.134 A 
ATOM     66  F   UNL     1     -13.424  -9.437   5.674  1.00  0.00    -0.206 F 
ATOM     67  C   UNL     1     -15.148  -7.916   6.136  1.00  0.00     0.040 A 
ATOM     68  C   UNL     1     -14.886  -6.296   7.897  1.00  0.00     0.040 A 
ATOM     69  F   UNL     1     -12.890  -6.202   9.124  1.00  0.00    -0.206 F 
ATOM     70  C   UNL     1     -15.658  -6.855   6.880  1.00  0.00     0.006 A 
ENDBRANCH  49  63
BRANCH  50  71
ATOM     71  C   UNL     1      -3.680 -10.939   9.026  1.00  0.00     0.057 A 
ATOM     72  C   UNL     1      -3.366 -12.300   9.117  1.00  0.00     0.134 A 
ATOM     73  C   UNL     1      -2.633 -10.025   9.193  1.00  0.00     0.134 A 
ATOM     74  F   UNL     1      -4.328 -13.225   8.980  1.00  0.00    -0.206 F 
ATOM     75  C   UNL     1      -2.069 -12.736   9.390  1.00  0.00     0.040 A 
ATOM     76  C   UNL     1      -1.325 -10.447   9.438  1.00  0.00     0.040 A 
ATOM     77  F   UNL     1      -2.864  -8.707   9.105  1.00  0.00    -0.206 F 
ATOM     78  C   UNL     1      -1.043 -11.807   9.548  1.00  0.00     0.006 A 
ENDBRANCH  50  71
BRANCH  62  79
ATOM     79  C   UNL     1      -9.583 -11.362  12.687  1.00  0.00     0.057 A 
ATOM     80  C   UNL     1      -9.114 -10.832  13.896  1.00  0.00     0.134 A 
ATOM     81  C   UNL     1     -10.387 -12.508  12.751  1.00  0.00     0.134 A 
ATOM     82  F   UNL     1      -8.331  -9.743  13.903  1.00  0.00    -0.206 F 
ATOM     83  C   UNL     1      -9.401 -11.442  15.118  1.00  0.00     0.040 A 
ATOM     84  C   UNL     1     -10.708 -13.107  13.969  1.00  0.00     0.040 A 
ATOM     85  F   UNL     1     -10.880 -13.059  11.631  1.00  0.00    -0.206 F 
ATOM     86  C   UNL     1     -10.205 -12.580  15.156  1.00  0.00     0.006 A 
ENDBRANCH  62  79
ENDBRANCH  36  37
ENDBRANCH  28  31
ENDBRANCH  26  27
ENDBRANCH  25  26
ENDBRANCH   1  25
TORSDOF 16
