REMARK SMILES O=C(NCCCNC(=O)[C@H]1CCCC[C@H]1C(=O)Nc1ccc(F)c(Cl)c1)c1ccc(-c2c3nc(c(-c4c(F)cccc4F)c4ccc([nH]4)c(-c4c(F)cccc4F)c4nc(c(-c5c(F)cccc5F)c5ccc2[nH]5)C=C4)C=C3)cc1
REMARK SMILES IDX 5 1 4 2 3 3 1 4 2 5 27 7 28 8 80 9 29 10 79 11 30 12 31 13
REMARK SMILES IDX 32 14 73 15 33 16 78 17 72 18 74 19 34 20 77 21 71 22 70 23
REMARK SMILES IDX 35 25 61 26 44 27 60 28 45 29 48 30 59 31 75 32 46 33 47 34
REMARK SMILES IDX 58 36 76 37 49 38 36 39 37 40 42 41 38 42 39 43 41 44 43 45
REMARK SMILES IDX 40 46 62 47 63 48 68 49 64 50 65 51 67 52 69 53 66 54 50 55
REMARK SMILES IDX 51 56 56 57 52 58 53 59 55 60 57 61 54 62 6 63 7 64 8 65
REMARK SMILES IDX 9 67 10 68 11 69 15 70 12 71 14 72 13 73 16 74 17 75 18 76
REMARK SMILES IDX 19 78 20 79 26 80 21 81 24 82 22 83 25 84 23 85
REMARK H PARENT 3 6 74 24 48 35 7 66 18 77
REMARK Flexibility Score: inf
ROOT
ATOM      1  C   UNL     1       9.939  -0.954  -5.440  1.00  0.00     0.042 C 
ENDROOT
BRANCH   1   2
ATOM      2  C   UNL     1      10.759  -1.439  -6.639  1.00  0.00     0.118 C 
BRANCH   2   3
ATOM      3  N   UNL     1      11.684  -0.430  -7.124  1.00  0.00    -0.352 N 
ATOM      4  O   UNL     1      13.531   0.811  -7.305  1.00  0.00    -0.269 OA
ATOM      5  C   UNL     1      13.027  -0.244  -6.923  1.00  0.00     0.251 C 
ATOM      6  H   UNL     1      11.268   0.246  -7.706  1.00  0.00     0.163 HD
BRANCH   5   7
ATOM      7  C   UNL     1      13.898  -1.251  -6.263  1.00  0.00     0.039 A 
ATOM      8  C   UNL     1      13.832  -2.616  -6.547  1.00  0.00     0.014 A 
ATOM      9  C   UNL     1      14.936  -0.779  -5.446  1.00  0.00     0.014 A 
ATOM     10  C   UNL     1      14.751  -3.505  -5.969  1.00  0.00     0.010 A 
ATOM     11  C   UNL     1      15.889  -1.660  -4.918  1.00  0.00     0.010 A 
ATOM     12  C   UNL     1      15.806  -3.036  -5.169  1.00  0.00    -0.014 A 
BRANCH  12  13
ATOM     13  C   UNL     1      16.867  -3.964  -4.679  1.00  0.00     0.031 A 
ATOM     14  C   UNL     1      17.069  -4.219  -3.209  1.00  0.00     0.074 A 
ATOM     15  C   UNL     1      17.694  -4.557  -5.565  1.00  0.00     0.049 A 
ATOM     16  N   UNL     1      17.962  -4.975  -2.616  1.00  0.00    -0.248 NA
ATOM     17  C   UNL     1      16.159  -3.529  -2.284  1.00  0.00     0.031 C 
ATOM     18  C   UNL     1      17.646  -4.378  -7.017  1.00  0.00     0.029 A 
ATOM     19  N   UNL     1      18.739  -5.428  -5.374  1.00  0.00    -0.354 N 
ATOM     20  C   UNL     1      17.731  -4.842  -1.252  1.00  0.00     0.074 A 
ATOM     21  C   UNL     1      16.631  -3.911  -1.105  1.00  0.00     0.031 C 
ATOM     22  C   UNL     1      18.597  -5.135  -7.585  1.00  0.00     0.029 A 
ATOM     23  C   UNL     1      19.349  -5.822  -6.540  1.00  0.00     0.049 A 
ATOM     24  H   UNL     1      19.024  -5.741  -4.485  1.00  0.00     0.167 HD
ATOM     25  C   UNL     1      18.367  -5.445  -0.218  1.00  0.00     0.037 A 
ATOM     26  C   UNL     1      20.401  -6.636  -6.753  1.00  0.00     0.037 A 
ATOM     27  C   UNL     1      19.454  -6.382  -0.350  1.00  0.00     0.049 A 
ATOM     28  C   UNL     1      21.098  -7.279  -5.588  1.00  0.00     0.074 A 
ATOM     29  C   UNL     1      20.117  -7.080   0.647  1.00  0.00     0.029 A 
ATOM     30  N   UNL     1      20.045  -6.747  -1.549  1.00  0.00    -0.354 N 
ATOM     31  N   UNL     1      20.828  -7.187  -4.310  1.00  0.00    -0.248 NA
ATOM     32  C   UNL     1      22.250  -8.140  -5.899  1.00  0.00     0.031 C 
ATOM     33  C   UNL     1      21.133  -7.839   0.054  1.00  0.00     0.029 A 
ATOM     34  C   UNL     1      21.077  -7.643  -1.315  1.00  0.00     0.049 A 
ATOM     35  H   UNL     1      19.772  -6.419  -2.436  1.00  0.00     0.167 HD
ATOM     36  C   UNL     1      21.759  -7.992  -3.667  1.00  0.00     0.074 A 
ATOM     37  C   UNL     1      22.594  -8.575  -4.695  1.00  0.00     0.031 C 
ATOM     38  C   UNL     1      21.905  -8.224  -2.340  1.00  0.00     0.037 A 
BRANCH  25  39
ATOM     39  C   UNL     1      17.902  -5.109   1.169  1.00  0.00     0.057 A 
ATOM     40  C   UNL     1      16.697  -5.604   1.681  1.00  0.00     0.134 A 
ATOM     41  C   UNL     1      18.694  -4.326   2.019  1.00  0.00     0.134 A 
ATOM     42  F   UNL     1      15.890  -6.353   0.915  1.00  0.00    -0.206 F 
ATOM     43  C   UNL     1      16.285  -5.316   2.984  1.00  0.00     0.040 A 
ATOM     44  C   UNL     1      18.303  -4.049   3.330  1.00  0.00     0.040 A 
ATOM     45  F   UNL     1      19.865  -3.829   1.593  1.00  0.00    -0.206 F 
ATOM     46  C   UNL     1      17.093  -4.541   3.814  1.00  0.00     0.006 A 
ENDBRANCH  25  39
BRANCH  26  47
ATOM     47  C   UNL     1      20.857  -6.906  -8.138  1.00  0.00     0.057 A 
ATOM     48  C   UNL     1      20.639  -8.152  -8.737  1.00  0.00     0.134 A 
ATOM     49  C   UNL     1      21.523  -5.932  -8.892  1.00  0.00     0.134 A 
ATOM     50  F   UNL     1      20.028  -9.131  -8.053  1.00  0.00    -0.206 F 
ATOM     51  C   UNL     1      21.077  -8.425 -10.033  1.00  0.00     0.040 A 
ATOM     52  C   UNL     1      21.947  -6.184 -10.197  1.00  0.00     0.040 A 
ATOM     53  F   UNL     1      21.760  -4.719  -8.372  1.00  0.00    -0.206 F 
ATOM     54  C   UNL     1      21.728  -7.437 -10.769  1.00  0.00     0.006 A 
ENDBRANCH  26  47
BRANCH  38  55
ATOM     55  C   UNL     1      22.991  -9.172  -1.926  1.00  0.00     0.057 A 
ATOM     56  C   UNL     1      24.343  -8.807  -1.959  1.00  0.00     0.134 A 
ATOM     57  C   UNL     1      22.680 -10.460  -1.472  1.00  0.00     0.134 A 
ATOM     58  F   UNL     1      24.708  -7.593  -2.398  1.00  0.00    -0.206 F 
ATOM     59  C   UNL     1      25.348  -9.696  -1.574  1.00  0.00     0.040 A 
ATOM     60  C   UNL     1      23.674 -11.351  -1.065  1.00  0.00     0.040 A 
ATOM     61  F   UNL     1      21.404 -10.871  -1.411  1.00  0.00    -0.206 F 
ATOM     62  C   UNL     1      25.014 -10.971  -1.121  1.00  0.00     0.006 A 
ENDBRANCH  38  55
ENDBRANCH  12  13
ENDBRANCH   5   7
ENDBRANCH   2   3
ENDBRANCH   1   2
BRANCH   1  63
ATOM     63  C   UNL     1       8.415  -0.868  -5.629  1.00  0.00     0.117 C 
BRANCH  63  64
ATOM     64  N   UNL     1       7.838  -1.895  -6.481  1.00  0.00    -0.356 N 
ATOM     65  C   UNL     1       6.792  -2.744  -6.319  1.00  0.00     0.223 C 
ATOM     66  H   UNL     1       8.296  -1.993  -7.347  1.00  0.00     0.163 HD
ATOM     67  O   UNL     1       6.374  -3.282  -7.349  1.00  0.00    -0.275 OA
BRANCH  65  68
ATOM     68  C   UNL     1       6.150  -3.024  -4.959  1.00  0.00     0.091 C 
ATOM     69  C   UNL     1       4.707  -3.549  -5.162  1.00  0.00     0.014 C 
ATOM     70  C   UNL     1       6.915  -3.891  -3.928  1.00  0.00     0.091 C 
ATOM     71  C   UNL     1       4.622  -5.066  -5.318  1.00  0.00     0.001 C 
ATOM     72  C   UNL     1       6.584  -5.387  -3.772  1.00  0.00     0.014 C 
ATOM     73  C   UNL     1       5.142  -5.758  -4.072  1.00  0.00     0.001 C 
BRANCH  70  74
ATOM     74  C   UNL     1       8.412  -3.673  -3.794  1.00  0.00     0.228 C 
ATOM     75  O   UNL     1       8.805  -2.925  -2.884  1.00  0.00    -0.274 OA
ATOM     76  N   UNL     1       9.395  -4.228  -4.548  1.00  0.00    -0.326 N 
ATOM     77  H   UNL     1      10.278  -4.098  -4.133  1.00  0.00     0.169 HD
BRANCH  76  78
ATOM     78  C   UNL     1       9.500  -4.938  -5.757  1.00  0.00     0.042 A 
ATOM     79  C   UNL     1       8.442  -5.323  -6.571  1.00  0.00     0.029 A 
ATOM     80  C   UNL     1      10.803  -5.199  -6.213  1.00  0.00     0.049 A 
ATOM     81  C   UNL     1       8.655  -5.853  -7.848  1.00  0.00     0.043 A 
ATOM     82  C   UNL     1      11.023  -5.749  -7.481  1.00  0.00     0.078 A 
ATOM     83  C   UNL     1       9.946  -6.050  -8.304  1.00  0.00     0.141 A 
ATOM     84  Cl  UNL     1      12.633  -6.013  -8.026  1.00  0.00    -0.081 Cl
ATOM     85  F   UNL     1      10.133  -6.524  -9.543  1.00  0.00    -0.205 F 
ENDBRANCH  76  78
ENDBRANCH  70  74
ENDBRANCH  65  68
ENDBRANCH  63  64
ENDBRANCH   1  63
TORSDOF 12
