REMARK SMILES O=C(NCCCNC(=O)[C@H]1CC(=O)N(Cc2ccccc2CN2CCCC2=O)C1)c1ccc(-c2c3nc(c(-c4c(F)cccc4F)c4ccc([nH]4)c(-c4c(F)cccc4F)c4nc(c(-c5c(F)cccc5F)c5ccc2[nH]5)C=C4)C=C3)cc1
REMARK SMILES IDX 6 1 5 2 4 3 3 4 1 5 2 6 30 8 31 9 83 10 32 11 82 12 33 13
REMARK SMILES IDX 34 14 35 15 76 16 36 17 81 18 75 19 77 20 37 21 80 22 74 23
REMARK SMILES IDX 73 24 38 26 64 27 47 28 63 29 48 30 51 31 62 32 78 33 49 34
REMARK SMILES IDX 50 35 61 37 79 38 52 39 39 40 40 41 45 42 41 43 42 44 44 45
REMARK SMILES IDX 46 46 43 47 65 48 66 49 71 50 67 51 68 52 70 53 72 54 69 55
REMARK SMILES IDX 53 56 54 57 59 58 55 59 56 60 58 61 60 62 57 63 7 64 8 65
REMARK SMILES IDX 9 67 10 68 11 69 29 70 12 71 14 72 13 73 15 74 16 75 17 76
REMARK SMILES IDX 21 77 18 78 20 79 19 80 22 81 23 82 24 83 27 84 25 85 26 86
REMARK SMILES IDX 28 87
REMARK H PARENT 3 7 77 25 51 36 7 66
REMARK Flexibility Score: inf
ROOT
ATOM      1  C   UNL     1       7.040  -6.654   1.622  1.00  0.00     0.117 C 
ENDROOT
BRANCH   1   2
ATOM      2  C   UNL     1       7.926  -5.699   2.411  1.00  0.00     0.042 C 
BRANCH   2   3
ATOM      3  C   UNL     1       7.283  -5.246   3.716  1.00  0.00     0.118 C 
BRANCH   3   4
ATOM      4  N   UNL     1       7.233  -6.312   4.705  1.00  0.00    -0.352 N 
ATOM      5  O   UNL     1       7.885  -7.482   6.516  1.00  0.00    -0.269 OA
ATOM      6  C   UNL     1       7.878  -6.414   5.913  1.00  0.00     0.251 C 
ATOM      7  H   UNL     1       6.651  -7.072   4.475  1.00  0.00     0.163 HD
BRANCH   6   8
ATOM      8  C   UNL     1       8.582  -5.241   6.474  1.00  0.00     0.039 A 
ATOM      9  C   UNL     1       8.005  -3.971   6.418  1.00  0.00     0.014 A 
ATOM     10  C   UNL     1       9.832  -5.417   7.071  1.00  0.00     0.014 A 
ATOM     11  C   UNL     1       8.746  -2.860   6.795  1.00  0.00     0.010 A 
ATOM     12  C   UNL     1      10.532  -4.307   7.552  1.00  0.00     0.010 A 
ATOM     13  C   UNL     1      10.013  -3.014   7.380  1.00  0.00    -0.014 A 
BRANCH  13  14
ATOM     14  C   UNL     1      10.753  -1.810   7.835  1.00  0.00     0.031 A 
ATOM     15  C   UNL     1      12.075  -1.434   7.226  1.00  0.00     0.074 A 
ATOM     16  C   UNL     1      10.203  -1.032   8.788  1.00  0.00     0.049 A 
ATOM     17  N   UNL     1      12.837  -0.400   7.482  1.00  0.00    -0.248 NA
ATOM     18  C   UNL     1      12.621  -2.340   6.204  1.00  0.00     0.031 C 
ATOM     19  C   UNL     1       8.927  -1.297   9.458  1.00  0.00     0.029 A 
ATOM     20  N   UNL     1      10.630   0.145   9.343  1.00  0.00    -0.354 N 
ATOM     21  C   UNL     1      13.959  -0.542   6.675  1.00  0.00     0.074 A 
ATOM     22  C   UNL     1      13.793  -1.780   5.942  1.00  0.00     0.031 C 
ATOM     23  C   UNL     1       8.649  -0.284  10.290  1.00  0.00     0.029 A 
ATOM     24  C   UNL     1       9.755   0.665  10.266  1.00  0.00     0.049 A 
ATOM     25  H   UNL     1      11.482   0.577   9.104  1.00  0.00     0.167 HD
ATOM     26  C   UNL     1      15.025   0.286   6.551  1.00  0.00     0.037 A 
ATOM     27  C   UNL     1       9.838   1.776  11.019  1.00  0.00     0.037 A 
ATOM     28  C   UNL     1      15.176   1.522   7.278  1.00  0.00     0.049 A 
ATOM     29  C   UNL     1      11.046   2.657  10.887  1.00  0.00     0.074 A 
ATOM     30  C   UNL     1      16.198   2.452   7.194  1.00  0.00     0.029 A 
ATOM     31  N   UNL     1      14.286   1.995   8.232  1.00  0.00    -0.354 N 
ATOM     32  N   UNL     1      12.078   2.532  10.088  1.00  0.00    -0.248 NA
ATOM     33  C   UNL     1      11.098   3.835  11.762  1.00  0.00     0.031 C 
ATOM     34  C   UNL     1      15.958   3.455   8.139  1.00  0.00     0.029 A 
ATOM     35  C   UNL     1      14.750   3.188   8.764  1.00  0.00     0.049 A 
ATOM     36  H   UNL     1      13.448   1.549   8.492  1.00  0.00     0.167 HD
ATOM     37  C   UNL     1      12.885   3.634  10.337  1.00  0.00     0.074 A 
ATOM     38  C   UNL     1      12.215   4.419  11.354  1.00  0.00     0.031 C 
ATOM     39  C   UNL     1      14.070   3.967   9.770  1.00  0.00     0.037 A 
BRANCH  26  40
ATOM     40  C   UNL     1      16.129  -0.136   5.621  1.00  0.00     0.057 A 
ATOM     41  C   UNL     1      15.963  -0.175   4.230  1.00  0.00     0.134 A 
ATOM     42  C   UNL     1      17.388  -0.486   6.127  1.00  0.00     0.134 A 
ATOM     43  F   UNL     1      14.782   0.139   3.677  1.00  0.00    -0.206 F 
ATOM     44  C   UNL     1      16.996  -0.580   3.381  1.00  0.00     0.040 A 
ATOM     45  C   UNL     1      18.437  -0.863   5.287  1.00  0.00     0.040 A 
ATOM     46  F   UNL     1      17.623  -0.463   7.448  1.00  0.00    -0.206 F 
ATOM     47  C   UNL     1      18.240  -0.920   3.909  1.00  0.00     0.006 A 
ENDBRANCH  26  40
BRANCH  27  48
ATOM     48  C   UNL     1       8.737   2.121  11.954  1.00  0.00     0.057 A 
ATOM     49  C   UNL     1       7.924   3.238  11.730  1.00  0.00     0.134 A 
ATOM     50  C   UNL     1       8.467   1.343  13.086  1.00  0.00     0.134 A 
ATOM     51  F   UNL     1       8.142   4.030  10.670  1.00  0.00    -0.206 F 
ATOM     52  C   UNL     1       6.896   3.580  12.609  1.00  0.00     0.040 A 
ATOM     53  C   UNL     1       7.423   1.656  13.957  1.00  0.00     0.040 A 
ATOM     54  F   UNL     1       9.203   0.253  13.351  1.00  0.00    -0.206 F 
ATOM     55  C   UNL     1       6.639   2.784  13.723  1.00  0.00     0.006 A 
ENDBRANCH  27  48
BRANCH  39  56
ATOM     56  C   UNL     1      14.689   5.269  10.193  1.00  0.00     0.057 A 
ATOM     57  C   UNL     1      15.227   5.462  11.472  1.00  0.00     0.134 A 
ATOM     58  C   UNL     1      14.761   6.342   9.295  1.00  0.00     0.134 A 
ATOM     59  F   UNL     1      15.178   4.481  12.386  1.00  0.00    -0.206 F 
ATOM     60  C   UNL     1      15.782   6.685  11.853  1.00  0.00     0.040 A 
ATOM     61  C   UNL     1      15.343   7.558   9.652  1.00  0.00     0.040 A 
ATOM     62  F   UNL     1      14.273   6.223   8.050  1.00  0.00    -0.206 F 
ATOM     63  C   UNL     1      15.847   7.736  10.939  1.00  0.00     0.006 A 
ENDBRANCH  39  56
ENDBRANCH  13  14
ENDBRANCH   6   8
ENDBRANCH   3   4
ENDBRANCH   2   3
ENDBRANCH   1   2
BRANCH   1  64
ATOM     64  N   UNL     1       5.860  -5.953   1.153  1.00  0.00    -0.356 N 
ATOM     65  C   UNL     1       5.638  -5.259   0.009  1.00  0.00     0.225 C 
ATOM     66  H   UNL     1       5.092  -5.985   1.768  1.00  0.00     0.163 HD
ATOM     67  O   UNL     1       4.606  -4.584  -0.044  1.00  0.00    -0.275 OA
BRANCH  65  68
ATOM     68  C   UNL     1       6.485  -5.432  -1.237  1.00  0.00     0.107 C 
ATOM     69  C   UNL     1       8.000  -5.333  -1.223  1.00  0.00     0.115 C 
ATOM     70  C   UNL     1       6.184  -6.814  -1.764  1.00  0.00     0.133 C 
ATOM     71  C   UNL     1       8.464  -6.485  -2.095  1.00  0.00     0.223 C 
ATOM     72  N   UNL     1       7.386  -7.310  -2.359  1.00  0.00    -0.338 N 
ATOM     73  O   UNL     1       9.607  -6.628  -2.497  1.00  0.00    -0.275 OA
BRANCH  72  74
ATOM     74  C   UNL     1       7.392  -8.441  -3.288  1.00  0.00     0.155 C 
BRANCH  74  75
ATOM     75  C   UNL     1       7.238  -9.844  -2.710  1.00  0.00    -0.024 A 
ATOM     76  C   UNL     1       8.390 -10.667  -2.739  1.00  0.00     0.006 A 
ATOM     77  C   UNL     1       6.023 -10.417  -2.246  1.00  0.00    -0.024 A 
ATOM     78  C   UNL     1       8.354 -12.004  -2.334  1.00  0.00     0.000 A 
ATOM     79  C   UNL     1       6.024 -11.762  -1.815  1.00  0.00     0.006 A 
ATOM     80  C   UNL     1       7.169 -12.551  -1.868  1.00  0.00     0.000 A 
BRANCH  77  81
ATOM     81  C   UNL     1       4.723  -9.665  -2.086  1.00  0.00     0.155 C 
BRANCH  81  82
ATOM     82  N   UNL     1       3.623 -10.023  -2.950  1.00  0.00    -0.338 N 
ATOM     83  C   UNL     1       3.193  -9.159  -4.025  1.00  0.00     0.120 C 
ATOM     84  C   UNL     1       2.714 -11.038  -2.695  1.00  0.00     0.222 C 
ATOM     85  C   UNL     1       1.728  -9.509  -4.196  1.00  0.00     0.031 C 
ATOM     86  C   UNL     1       1.659 -10.968  -3.771  1.00  0.00     0.102 C 
ATOM     87  O   UNL     1       2.742 -11.846  -1.788  1.00  0.00    -0.275 OA
ENDBRANCH  81  82
ENDBRANCH  77  81
ENDBRANCH  74  75
ENDBRANCH  72  74
ENDBRANCH  65  68
ENDBRANCH   1  64
TORSDOF 14
