REMARK SMILES O=C(NCCCNC(=O)[C@H](c1c[nH]c2ccc(Br)cc12)[N@H+]1CCC[C@H](c2nc3ccccc3s2)C1)c1ccc(-c2c3nc(c(-c4c(F)cccc4F)c4ccc([nH]4)c(-c4c(F)cccc4F)c4nc(c(-c5c(F)cccc5F)c5ccc2[nH]5)C=C4)C=C3)cc1
REMARK SMILES IDX 5 1 4 2 3 3 1 4 2 5 36 7 37 8 89 9 38 10 88 11 39 12 40 13
REMARK SMILES IDX 41 14 82 15 42 16 87 17 81 18 83 19 43 20 86 21 80 22 79 23
REMARK SMILES IDX 44 25 70 26 53 27 69 28 54 29 57 30 68 31 84 32 55 33 56 34
REMARK SMILES IDX 67 36 85 37 58 38 45 39 46 40 51 41 47 42 48 43 50 44 52 45
REMARK SMILES IDX 49 46 71 47 72 48 77 49 73 50 74 51 76 52 78 53 75 54 59 55
REMARK SMILES IDX 60 56 65 57 61 58 62 59 64 60 66 61 63 62 6 63 7 64 8 65
REMARK SMILES IDX 9 67 10 68 21 69 22 70 35 71 23 73 25 74 24 75 26 76 27 77
REMARK SMILES IDX 34 78 28 79 33 80 29 81 32 82 30 83 31 84 11 85 12 86 20 87
REMARK SMILES IDX 13 88 14 89 19 90 15 92 17 93 16 94 18 95
REMARK H PARENT 3 6 83 24 57 35 7 66 21 72 13 91
REMARK Flexibility Score: inf
ROOT
ATOM      1  C   UNL     1       7.767  -4.313   7.270  1.00  0.00     0.042 C 
ENDROOT
BRANCH   1   2
ATOM      2  C   UNL     1       9.263  -4.077   7.446  1.00  0.00     0.118 C 
BRANCH   2   3
ATOM      3  N   UNL     1       9.559  -3.200   8.572  1.00  0.00    -0.352 N 
ATOM      4  O   UNL     1       9.991  -2.580  10.684  1.00  0.00    -0.269 OA
ATOM      5  C   UNL     1      10.046  -3.465   9.824  1.00  0.00     0.251 C 
ATOM      6  H   UNL     1       9.376  -2.248   8.402  1.00  0.00     0.163 HD
BRANCH   5   7
ATOM      7  C   UNL     1      10.628  -4.778  10.180  1.00  0.00     0.039 A 
ATOM      8  C   UNL     1      11.441  -5.489   9.295  1.00  0.00     0.014 A 
ATOM      9  C   UNL     1      10.431  -5.267  11.478  1.00  0.00     0.014 A 
ATOM     10  C   UNL     1      11.950  -6.736   9.657  1.00  0.00     0.010 A 
ATOM     11  C   UNL     1      11.007  -6.480  11.867  1.00  0.00     0.010 A 
ATOM     12  C   UNL     1      11.750  -7.239  10.951  1.00  0.00    -0.014 A 
BRANCH  12  13
ATOM     13  C   UNL     1      12.356  -8.533  11.356  1.00  0.00     0.031 A 
ATOM     14  C   UNL     1      11.487  -9.705  11.716  1.00  0.00     0.074 A 
ATOM     15  C   UNL     1      13.696  -8.646  11.419  1.00  0.00     0.049 A 
ATOM     16  N   UNL     1      11.835 -10.887  12.159  1.00  0.00    -0.248 NA
ATOM     17  C   UNL     1      10.036  -9.520  11.572  1.00  0.00     0.031 C 
ATOM     18  C   UNL     1      14.649  -7.581  11.101  1.00  0.00     0.029 A 
ATOM     19  N   UNL     1      14.490  -9.706  11.780  1.00  0.00    -0.354 N 
ATOM     20  C   UNL     1      10.649 -11.579  12.367  1.00  0.00     0.074 A 
ATOM     21  C   UNL     1       9.570 -10.675  12.027  1.00  0.00     0.031 C 
ATOM     22  C   UNL     1      15.896  -8.045  11.265  1.00  0.00     0.029 A 
ATOM     23  C   UNL     1      15.833  -9.419  11.752  1.00  0.00     0.049 A 
ATOM     24  H   UNL     1      14.132 -10.587  12.034  1.00  0.00     0.167 HD
ATOM     25  C   UNL     1      10.476 -12.853  12.795  1.00  0.00     0.037 A 
ATOM     26  C   UNL     1      16.895 -10.166  12.103  1.00  0.00     0.037 A 
ATOM     27  C   UNL     1      11.553 -13.754  13.118  1.00  0.00     0.049 A 
ATOM     28  C   UNL     1      16.680 -11.566  12.601  1.00  0.00     0.074 A 
ATOM     29  C   UNL     1      11.479 -15.075  13.523  1.00  0.00     0.029 A 
ATOM     30  N   UNL     1      12.900 -13.423  13.077  1.00  0.00    -0.354 N 
ATOM     31  N   UNL     1      15.554 -12.217  12.765  1.00  0.00    -0.248 NA
ATOM     32  C   UNL     1      17.879 -12.333  12.966  1.00  0.00     0.031 C 
ATOM     33  C   UNL     1      12.779 -15.531  13.770  1.00  0.00     0.029 A 
ATOM     34  C   UNL     1      13.665 -14.509  13.472  1.00  0.00     0.049 A 
ATOM     35  H   UNL     1      13.258 -12.547  12.808  1.00  0.00     0.167 HD
ATOM     36  C   UNL     1      15.908 -13.478  13.226  1.00  0.00     0.074 A 
ATOM     37  C   UNL     1      17.354 -13.501  13.312  1.00  0.00     0.031 C 
ATOM     38  C   UNL     1      15.105 -14.522  13.544  1.00  0.00     0.037 A 
BRANCH  25  39
ATOM     39  C   UNL     1       9.066 -13.338  12.963  1.00  0.00     0.057 A 
ATOM     40  C   UNL     1       8.234 -13.600  11.867  1.00  0.00     0.134 A 
ATOM     41  C   UNL     1       8.539 -13.566  14.241  1.00  0.00     0.134 A 
ATOM     42  F   UNL     1       8.673 -13.392  10.616  1.00  0.00    -0.206 F 
ATOM     43  C   UNL     1       6.920 -14.040  12.036  1.00  0.00     0.040 A 
ATOM     44  C   UNL     1       7.235 -14.031  14.422  1.00  0.00     0.040 A 
ATOM     45  F   UNL     1       9.283 -13.344  15.335  1.00  0.00    -0.206 F 
ATOM     46  C   UNL     1       6.418 -14.261  13.317  1.00  0.00     0.006 A 
ENDBRANCH  25  39
BRANCH  26  47
ATOM     47  C   UNL     1      18.258  -9.591  11.993  1.00  0.00     0.057 A 
ATOM     48  C   UNL     1      19.144 -10.014  10.997  1.00  0.00     0.134 A 
ATOM     49  C   UNL     1      18.691  -8.577  12.857  1.00  0.00     0.134 A 
ATOM     50  F   UNL     1      18.792 -10.993  10.151  1.00  0.00    -0.206 F 
ATOM     51  C   UNL     1      20.415  -9.451  10.865  1.00  0.00     0.040 A 
ATOM     52  C   UNL     1      19.949  -7.990  12.722  1.00  0.00     0.040 A 
ATOM     53  F   UNL     1      17.883  -8.124  13.828  1.00  0.00    -0.206 F 
ATOM     54  C   UNL     1      20.816  -8.429  11.725  1.00  0.00     0.006 A 
ENDBRANCH  26  47
BRANCH  38  55
ATOM     55  C   UNL     1      15.770 -15.795  13.976  1.00  0.00     0.057 A 
ATOM     56  C   UNL     1      16.345 -15.937  15.244  1.00  0.00     0.134 A 
ATOM     57  C   UNL     1      15.784 -16.910  13.128  1.00  0.00     0.134 A 
ATOM     58  F   UNL     1      16.375 -14.902  16.097  1.00  0.00    -0.206 F 
ATOM     59  C   UNL     1      16.922 -17.141  15.650  1.00  0.00     0.040 A 
ATOM     60  C   UNL     1      16.339 -18.125  13.531  1.00  0.00     0.040 A 
ATOM     61  F   UNL     1      15.245 -16.840  11.902  1.00  0.00    -0.206 F 
ATOM     62  C   UNL     1      16.912 -18.242  14.795  1.00  0.00     0.006 A 
ENDBRANCH  38  55
ENDBRANCH  12  13
ENDBRANCH   5   7
ENDBRANCH   2   3
ENDBRANCH   1   2
BRANCH   1  63
ATOM     63  C   UNL     1       6.981  -3.069   6.885  1.00  0.00     0.118 C 
BRANCH  63  64
ATOM     64  N   UNL     1       7.361  -2.527   5.592  1.00  0.00    -0.351 N 
ATOM     65  C   UNL     1       6.930  -2.862   4.333  1.00  0.00     0.283 C 
ATOM     66  H   UNL     1       8.033  -1.807   5.624  1.00  0.00     0.163 HD
ATOM     67  O   UNL     1       7.385  -2.179   3.409  1.00  0.00    -0.268 OA
BRANCH  65  68
ATOM     68  C   UNL     1       5.975  -4.078   4.118  1.00  0.00     0.307 C 
BRANCH  68  69
ATOM     69  N   UNL     1       4.725  -3.960   4.917  1.00  0.00    -0.320 N 
ATOM     70  C   UNL     1       3.942  -2.748   4.687  1.00  0.00     0.263 C 
ATOM     71  C   UNL     1       3.917  -5.192   4.910  1.00  0.00     0.274 C 
ATOM     72  H   UNL     1       5.059  -3.841   5.873  1.00  0.00     0.349 HD
ATOM     73  C   UNL     1       2.809  -2.635   5.706  1.00  0.00     0.062 C 
ATOM     74  C   UNL     1       2.714  -5.159   5.885  1.00  0.00     0.104 C 
ATOM     75  C   UNL     1       1.911  -3.867   5.643  1.00  0.00     0.022 C 
BRANCH  74  76
ATOM     76  C   UNL     1       3.127  -5.350   7.337  1.00  0.00     0.103 A 
ATOM     77  N   UNL     1       4.330  -5.696   7.751  1.00  0.00    -0.241 NA
ATOM     78  S   UNL     1       1.950  -5.206   8.593  1.00  0.00    -0.118 S 
ATOM     79  C   UNL     1       4.369  -5.744   9.138  1.00  0.00     0.082 A 
ATOM     80  C   UNL     1       3.164  -5.461   9.779  1.00  0.00     0.055 A 
ATOM     81  C   UNL     1       5.498  -6.036   9.931  1.00  0.00     0.030 A 
ATOM     82  C   UNL     1       3.054  -5.422  11.179  1.00  0.00     0.021 A 
ATOM     83  C   UNL     1       5.409  -5.979  11.325  1.00  0.00     0.002 A 
ATOM     84  C   UNL     1       4.200  -5.669  11.940  1.00  0.00     0.002 A 
ENDBRANCH  74  76
ENDBRANCH  68  69
BRANCH  68  85
ATOM     85  C   UNL     1       5.700  -4.359   2.648  1.00  0.00     0.044 A 
ATOM     86  C   UNL     1       5.108  -3.521   1.716  1.00  0.00     0.094 A 
ATOM     87  C   UNL     1       6.032  -5.568   1.937  1.00  0.00     0.010 A 
ATOM     88  N   UNL     1       5.006  -4.182   0.525  1.00  0.00    -0.361 N 
ATOM     89  C   UNL     1       5.563  -5.432   0.628  1.00  0.00     0.046 A 
ATOM     90  C   UNL     1       6.688  -6.768   2.287  1.00  0.00     0.026 A 
ATOM     91  H   UNL     1       4.592  -3.814  -0.289  1.00  0.00     0.166 HD
ATOM     92  C   UNL     1       5.694  -6.435  -0.341  1.00  0.00     0.028 A 
ATOM     93  C   UNL     1       6.843  -7.769   1.321  1.00  0.00     0.018 A 
ATOM     94  C   UNL     1       6.348  -7.612   0.030  1.00  0.00     0.018 A 
ATOM     95  Br  UNL     1       7.751  -9.365   1.779  1.00  0.00    -0.051 Br
ENDBRANCH  68  85
ENDBRANCH  65  68
ENDBRANCH  63  64
ENDBRANCH   1  63
TORSDOF 13
