REMARK SMILES COc1cccc(OC)c1[C@@H](C(=O)NCCCNC(=O)c1ccc(-c2c3nc(c(-c4c(F)cccc4F)c4ccc([nH]4)c(-c4c(F)cccc4F)c4nc(c(-c5c(F)cccc5F)c5ccc2[nH]5)C=C4)C=C3)cc1)[N@@H+](C)Cc1c(C)n[nH]c1C
REMARK SMILES IDX 15 1 14 2 12 3 13 4 11 6 10 7 3 8 4 9 5 10 7 11 6 12 2 13
REMARK SMILES IDX 1 14 8 15 9 16 75 17 76 18 77 20 78 21 79 22 83 23 80 24
REMARK SMILES IDX 81 25 82 26 84 27 16 29 17 30 18 31 19 32 20 34 21 35 22 36
REMARK SMILES IDX 74 37 23 38 73 39 24 40 25 41 26 42 67 43 27 44 72 45 66 46
REMARK SMILES IDX 68 47 28 48 71 49 65 50 64 51 29 53 55 54 38 55 54 56 39 57
REMARK SMILES IDX 42 58 53 59 69 60 40 61 41 62 52 64 70 65 43 66 30 67 31 68
REMARK SMILES IDX 36 69 32 70 33 71 35 72 37 73 34 74 56 75 57 76 62 77 58 78
REMARK SMILES IDX 59 79 61 80 63 81 60 82 44 83 45 84 50 85 46 86 47 87 49 88
REMARK SMILES IDX 51 89 48 90
REMARK H PARENT 14 5 75 19 82 28 18 33 68 52 42 63
REMARK Flexibility Score: inf
ROOT
ATOM      1  C   UNL     1       2.357   1.866  -2.264  1.00  0.00     0.118 C 
ENDROOT
BRANCH   1   2
ATOM      2  N   UNL     1       3.623   1.653  -1.597  1.00  0.00    -0.351 N 
ATOM      3  C   UNL     1       3.927   1.153  -0.370  1.00  0.00     0.283 C 
ATOM      4  O   UNL     1       4.949   0.454  -0.404  1.00  0.00    -0.268 OA
ATOM      5  H   UNL     1       4.408   1.919  -2.129  1.00  0.00     0.163 HD
BRANCH   3   6
ATOM      6  C   UNL     1       3.054   1.271   0.910  1.00  0.00     0.313 C 
BRANCH   6   7
ATOM      7  C   UNL     1       1.884   2.270   0.925  1.00  0.00     0.103 A 
ATOM      8  C   UNL     1       0.538   1.941   0.584  1.00  0.00     0.132 A 
ATOM      9  C   UNL     1      -0.470   2.937   0.599  1.00  0.00     0.047 A 
ATOM     10  C   UNL     1      -0.216   4.243   0.981  1.00  0.00     0.008 A 
ATOM     11  C   UNL     1       2.109   3.635   1.230  1.00  0.00     0.132 A 
ATOM     12  C   UNL     1       1.077   4.587   1.313  1.00  0.00     0.047 A 
BRANCH   8  13
ATOM     13  O   UNL     1      -0.040   0.797   0.101  1.00  0.00    -0.496 OA
ATOM     14  C   UNL     1       0.532  -0.492   0.126  1.00  0.00     0.278 C 
ENDBRANCH   8  13
BRANCH  11  15
ATOM     15  O   UNL     1       3.361   4.134   1.472  1.00  0.00    -0.496 OA
ATOM     16  C   UNL     1       3.941   4.637   0.272  1.00  0.00     0.278 C 
ENDBRANCH  11  15
ENDBRANCH   6   7
BRANCH   6  17
ATOM     17  N   UNL     1       3.806   1.054   2.202  1.00  0.00    -0.319 N 
ATOM     18  C   UNL     1       4.062  -0.353   2.490  1.00  0.00     0.333 C 
ATOM     19  H   UNL     1       3.066   1.464   2.772  1.00  0.00     0.349 HD
BRANCH  17  20
ATOM     20  C   UNL     1       4.848   1.950   2.735  1.00  0.00     0.303 C 
BRANCH  20  21
ATOM     21  C   UNL     1       6.097   2.225   1.934  1.00  0.00     0.050 A 
ATOM     22  C   UNL     1       6.771   3.496   1.826  1.00  0.00     0.068 A 
ATOM     23  C   UNL     1       7.047   1.367   1.386  1.00  0.00     0.041 A 
ATOM     24  C   UNL     1       6.560   4.759   2.584  1.00  0.00     0.069 C 
ATOM     25  N   UNL     1       7.797   3.455   0.966  1.00  0.00    -0.180 NA
ATOM     26  N   UNL     1       7.902   2.158   0.672  1.00  0.00    -0.282 N 
ATOM     27  C   UNL     1       7.284  -0.093   1.449  1.00  0.00     0.066 C 
ATOM     28  H   UNL     1       8.535   1.805   0.005  1.00  0.00     0.190 HD
ENDBRANCH  20  21
ENDBRANCH  17  20
ENDBRANCH   6  17
ENDBRANCH   3   6
ENDBRANCH   1   2
BRANCH   1  29
ATOM     29  C   UNL     1       2.152   3.297  -2.730  1.00  0.00     0.042 C 
BRANCH  29  30
ATOM     30  C   UNL     1       3.240   3.794  -3.677  1.00  0.00     0.118 C 
BRANCH  30  31
ATOM     31  N   UNL     1       3.298   3.024  -4.913  1.00  0.00    -0.352 N 
ATOM     32  C   UNL     1       2.983   3.377  -6.202  1.00  0.00     0.251 C 
ATOM     33  H   UNL     1       3.615   2.098  -4.806  1.00  0.00     0.163 HD
ATOM     34  O   UNL     1       2.891   2.510  -7.064  1.00  0.00    -0.269 OA
BRANCH  32  35
ATOM     35  C   UNL     1       2.737   4.792  -6.554  1.00  0.00     0.039 A 
ATOM     36  C   UNL     1       1.687   5.097  -7.424  1.00  0.00     0.014 A 
ATOM     37  C   UNL     1       3.549   5.813  -6.055  1.00  0.00     0.014 A 
ATOM     38  C   UNL     1       1.401   6.430  -7.726  1.00  0.00     0.010 A 
ATOM     39  C   UNL     1       3.212   7.144  -6.288  1.00  0.00     0.010 A 
ATOM     40  C   UNL     1       2.132   7.467  -7.122  1.00  0.00    -0.014 A 
BRANCH  40  41
ATOM     41  C   UNL     1       1.761   8.890  -7.325  1.00  0.00     0.031 A 
ATOM     42  C   UNL     1       2.722   9.845  -7.977  1.00  0.00     0.074 A 
ATOM     43  C   UNL     1       0.580   9.338  -6.854  1.00  0.00     0.049 A 
ATOM     44  N   UNL     1       2.601  11.134  -8.172  1.00  0.00    -0.248 NA
ATOM     45  C   UNL     1       3.998   9.284  -8.448  1.00  0.00     0.031 C 
ATOM     46  C   UNL     1      -0.419   8.522  -6.161  1.00  0.00     0.029 A 
ATOM     47  N   UNL     1       0.024  10.593  -6.876  1.00  0.00    -0.354 N 
ATOM     48  C   UNL     1       3.784  11.539  -8.777  1.00  0.00     0.074 A 
ATOM     49  C   UNL     1       4.632  10.370  -8.868  1.00  0.00     0.031 C 
ATOM     50  C   UNL     1      -1.474   9.290  -5.846  1.00  0.00     0.029 A 
ATOM     51  C   UNL     1      -1.208  10.660  -6.270  1.00  0.00     0.049 A 
ATOM     52  H   UNL     1       0.466  11.371  -7.287  1.00  0.00     0.167 HD
ATOM     53  C   UNL     1       4.124  12.768  -9.234  1.00  0.00     0.037 A 
ATOM     54  C   UNL     1      -2.026  11.709  -6.067  1.00  0.00     0.037 A 
ATOM     55  C   UNL     1       3.272  13.926  -9.152  1.00  0.00     0.049 A 
ATOM     56  C   UNL     1      -1.614  13.067  -6.563  1.00  0.00     0.074 A 
ATOM     57  C   UNL     1       3.504  15.201  -9.637  1.00  0.00     0.029 A 
ATOM     58  N   UNL     1       2.029  13.952  -8.539  1.00  0.00    -0.354 N 
ATOM     59  N   UNL     1      -0.523  13.420  -7.197  1.00  0.00    -0.248 NA
ATOM     60  C   UNL     1      -2.551  14.173  -6.318  1.00  0.00     0.031 C 
ATOM     61  C   UNL     1       2.426  16.012  -9.268  1.00  0.00     0.029 A 
ATOM     62  C   UNL     1       1.494  15.229  -8.607  1.00  0.00     0.049 A 
ATOM     63  H   UNL     1       1.590  13.178  -8.117  1.00  0.00     0.167 HD
ATOM     64  C   UNL     1      -0.654  14.779  -7.454  1.00  0.00     0.074 A 
ATOM     65  C   UNL     1      -1.938  15.182  -6.921  1.00  0.00     0.031 C 
ATOM     66  C   UNL     1       0.212  15.617  -8.075  1.00  0.00     0.037 A 
BRANCH  53  67
ATOM     67  C   UNL     1       5.479  12.925  -9.864  1.00  0.00     0.057 A 
ATOM     68  C   UNL     1       5.793  12.346 -11.101  1.00  0.00     0.134 A 
ATOM     69  C   UNL     1       6.470  13.700  -9.246  1.00  0.00     0.134 A 
ATOM     70  F   UNL     1       4.895  11.583 -11.742  1.00  0.00    -0.206 F 
ATOM     71  C   UNL     1       7.049  12.511 -11.688  1.00  0.00     0.040 A 
ATOM     72  C   UNL     1       7.719  13.897  -9.838  1.00  0.00     0.040 A 
ATOM     73  F   UNL     1       6.236  14.290  -8.065  1.00  0.00    -0.206 F 
ATOM     74  C   UNL     1       8.014  13.295 -11.059  1.00  0.00     0.006 A 
ENDBRANCH  53  67
BRANCH  54  75
ATOM     75  C   UNL     1      -3.324  11.517  -5.370  1.00  0.00     0.057 A 
ATOM     76  C   UNL     1      -4.538  11.658  -6.053  1.00  0.00     0.134 A 
ATOM     77  C   UNL     1      -3.385  11.201  -4.008  1.00  0.00     0.134 A 
ATOM     78  F   UNL     1      -4.547  11.977  -7.355  1.00  0.00    -0.206 F 
ATOM     79  C   UNL     1      -5.765  11.514  -5.402  1.00  0.00     0.040 A 
ATOM     80  C   UNL     1      -4.603  11.026  -3.350  1.00  0.00     0.040 A 
ATOM     81  F   UNL     1      -2.258  11.043  -3.298  1.00  0.00    -0.206 F 
ATOM     82  C   UNL     1      -5.799  11.192  -4.047  1.00  0.00     0.006 A 
ENDBRANCH  54  75
BRANCH  66  83
ATOM     83  C   UNL     1      -0.217  17.046  -8.246  1.00  0.00     0.057 A 
ATOM     84  C   UNL     1      -0.301  17.931  -7.163  1.00  0.00     0.134 A 
ATOM     85  C   UNL     1      -0.518  17.551  -9.518  1.00  0.00     0.134 A 
ATOM     86  F   UNL     1      -0.040  17.508  -5.917  1.00  0.00    -0.206 F 
ATOM     87  C   UNL     1      -0.694  19.259  -7.336  1.00  0.00     0.040 A 
ATOM     88  C   UNL     1      -0.882  18.885  -9.707  1.00  0.00     0.040 A 
ATOM     89  F   UNL     1      -0.448  16.760 -10.600  1.00  0.00    -0.206 F 
ATOM     90  C   UNL     1      -0.978  19.741  -8.613  1.00  0.00     0.006 A 
ENDBRANCH  66  83
ENDBRANCH  40  41
ENDBRANCH  32  35
ENDBRANCH  30  31
ENDBRANCH  29  30
ENDBRANCH   1  29
TORSDOF 16
