REMARK SMILES Cc1ccc(-c2nc(C)c(C(=O)N3CCC(C(=O)NCCCNC(=O)c4ccc(-c5c6nc(c(-c7c(F)cccc7F)c7ccc([nH]7)c(-c7c(F)cccc7F)c7nc(c(-c8c(F)cccc8F)c8ccc5[nH]8)C=C7)C=C6)cc4)CC3)s2)o1
REMARK SMILES IDX 21 1 20 2 19 3 17 4 18 5 16 7 11 8 12 9 13 10 14 11 81 12
REMARK SMILES IDX 15 13 80 14 10 15 6 16 7 17 82 18 8 19 9 20 5 21 1 22 2 23
REMARK SMILES IDX 3 24 83 25 4 26 22 27 23 28 24 29 25 31 26 32 27 33 79 34
REMARK SMILES IDX 28 35 78 36 29 37 30 38 31 39 72 40 32 41 77 42 71 43 73 44
REMARK SMILES IDX 33 45 76 46 70 47 69 48 34 50 60 51 43 52 59 53 44 54 47 55
REMARK SMILES IDX 58 56 74 57 45 58 46 59 57 61 75 62 48 63 35 64 36 65 41 66
REMARK SMILES IDX 37 67 38 68 40 69 42 70 39 71 61 72 62 73 67 74 63 75 64 76
REMARK SMILES IDX 66 77 68 78 65 79 49 80 50 81 55 82 51 83 52 84 54 85 56 86
REMARK SMILES IDX 53 87
REMARK H PARENT 19 6 23 30 73 49 47 60
REMARK Flexibility Score: inf
ROOT
ATOM      1  C   UNL     1     -10.357   4.850   2.539  1.00  0.00     0.042 C 
ENDROOT
BRANCH   1   2
ATOM      2  C   UNL     1     -10.132   4.603   1.056  1.00  0.00     0.117 C 
BRANCH   2   3
ATOM      3  N   UNL     1     -10.567   5.725   0.236  1.00  0.00    -0.356 N 
ATOM      4  C   UNL     1      -9.860   6.588  -0.541  1.00  0.00     0.223 C 
ATOM      5  O   UNL     1     -10.478   7.481  -1.124  1.00  0.00    -0.275 OA
ATOM      6  H   UNL     1     -11.538   5.886   0.247  1.00  0.00     0.163 HD
BRANCH   4   7
ATOM      7  C   UNL     1      -8.354   6.462  -0.698  1.00  0.00     0.082 C 
ATOM      8  C   UNL     1      -5.376   4.056   0.784  1.00  0.00     0.265 C 
ATOM      9  O   UNL     1      -5.695   3.956   1.970  1.00  0.00    -0.268 OA
ATOM     10  N   UNL     1      -5.962   5.053   0.006  1.00  0.00    -0.338 N 
ATOM     11  C   UNL     1      -6.173   6.365   0.590  1.00  0.00     0.120 C 
ATOM     12  C   UNL     1      -6.485   4.846  -1.336  1.00  0.00     0.120 C 
ATOM     13  C   UNL     1      -7.640   6.736   0.632  1.00  0.00     0.035 C 
ATOM     14  C   UNL     1      -7.977   5.146  -1.402  1.00  0.00     0.035 C 
BRANCH   8  15
ATOM     15  C   UNL     1      -4.313   3.261   0.182  1.00  0.00     0.115 A 
ATOM     16  C   UNL     1      -2.510   1.653  -0.118  1.00  0.00     0.159 A 
ATOM     17  N   UNL     1      -2.424   2.596  -1.027  1.00  0.00    -0.237 NA
ATOM     18  S   UNL     1      -3.865   1.761   0.919  1.00  0.00    -0.105 S 
ATOM     19  C   UNL     1      -3.430   3.531  -0.858  1.00  0.00     0.062 A 
ATOM     20  C   UNL     1      -3.361   4.708  -1.762  1.00  0.00     0.068 C 
BRANCH  16  21
ATOM     21  C   UNL     1      -1.492   0.648   0.002  1.00  0.00     0.162 A 
ATOM     22  C   UNL     1       2.028  -0.038  -0.005  1.00  0.00     0.087 C 
ATOM     23  C   UNL     1       0.559  -0.185   0.044  1.00  0.00     0.101 A 
ATOM     24  C   UNL     1      -0.292  -1.257   0.181  1.00  0.00     0.046 A 
ATOM     25  O   UNL     1      -0.157   0.963  -0.076  1.00  0.00    -0.459 OA
ATOM     26  C   UNL     1      -1.606  -0.722   0.173  1.00  0.00     0.054 A 
ENDBRANCH  16  21
ENDBRANCH   8  15
ENDBRANCH   4   7
ENDBRANCH   2   3
ENDBRANCH   1   2
BRANCH   1  27
ATOM     27  C   UNL     1     -11.821   4.982   2.919  1.00  0.00     0.118 C 
BRANCH  27  28
ATOM     28  N   UNL     1     -12.579   3.767   2.653  1.00  0.00    -0.352 N 
ATOM     29  C   UNL     1     -13.240   2.934   3.519  1.00  0.00     0.251 C 
ATOM     30  H   UNL     1     -12.623   3.503   1.706  1.00  0.00     0.163 HD
ATOM     31  O   UNL     1     -13.646   1.843   3.123  1.00  0.00    -0.269 OA
BRANCH  29  32
ATOM     32  C   UNL     1     -13.452   3.334   4.925  1.00  0.00     0.039 A 
ATOM     33  C   UNL     1     -13.320   2.372   5.929  1.00  0.00     0.014 A 
ATOM     34  C   UNL     1     -13.795   4.648   5.256  1.00  0.00     0.014 A 
ATOM     35  C   UNL     1     -13.477   2.743   7.265  1.00  0.00     0.010 A 
ATOM     36  C   UNL     1     -13.847   5.037   6.589  1.00  0.00     0.010 A 
ATOM     37  C   UNL     1     -13.707   4.085   7.609  1.00  0.00    -0.014 A 
BRANCH  37  38
ATOM     38  C   UNL     1     -13.824   4.505   9.027  1.00  0.00     0.031 A 
ATOM     39  C   UNL     1     -15.105   5.110   9.535  1.00  0.00     0.074 A 
ATOM     40  C   UNL     1     -12.761   4.386   9.846  1.00  0.00     0.049 A 
ATOM     41  N   UNL     1     -15.389   5.561  10.730  1.00  0.00    -0.248 NA
ATOM     42  C   UNL     1     -16.202   5.257   8.565  1.00  0.00     0.031 C 
ATOM     43  C   UNL     1     -11.445   3.873   9.457  1.00  0.00     0.029 A 
ATOM     44  N   UNL     1     -12.618   4.690  11.176  1.00  0.00    -0.354 N 
ATOM     45  C   UNL     1     -16.686   6.054  10.650  1.00  0.00     0.074 A 
ATOM     46  C   UNL     1     -17.110   5.908   9.276  1.00  0.00     0.031 C 
ATOM     47  C   UNL     1     -10.642   3.864  10.532  1.00  0.00     0.029 A 
ATOM     48  C   UNL     1     -11.371   4.402  11.675  1.00  0.00     0.049 A 
ATOM     49  H   UNL     1     -13.341   5.078  11.720  1.00  0.00     0.167 HD
ATOM     50  C   UNL     1     -17.465   6.555  11.638  1.00  0.00     0.037 A 
ATOM     51  C   UNL     1     -10.874   4.553  12.917  1.00  0.00     0.037 A 
ATOM     52  C   UNL     1     -17.049   6.675  13.010  1.00  0.00     0.049 A 
ATOM     53  C   UNL     1     -11.763   5.102  13.999  1.00  0.00     0.074 A 
ATOM     54  C   UNL     1     -17.781   7.115  14.098  1.00  0.00     0.029 A 
ATOM     55  N   UNL     1     -15.785   6.351  13.482  1.00  0.00    -0.354 N 
ATOM     56  N   UNL     1     -13.012   5.494  13.925  1.00  0.00    -0.248 NA
ATOM     57  C   UNL     1     -11.175   5.217  15.340  1.00  0.00     0.031 C 
ATOM     58  C   UNL     1     -16.947   7.101  15.221  1.00  0.00     0.029 A 
ATOM     59  C   UNL     1     -15.711   6.600  14.843  1.00  0.00     0.049 A 
ATOM     60  H   UNL     1     -15.050   5.998  12.931  1.00  0.00     0.167 HD
ATOM     61  C   UNL     1     -13.369   5.872  15.212  1.00  0.00     0.074 A 
ATOM     62  C   UNL     1     -12.209   5.646  16.050  1.00  0.00     0.031 C 
ATOM     63  C   UNL     1     -14.550   6.363  15.662  1.00  0.00     0.037 A 
BRANCH  50  64
ATOM     64  C   UNL     1     -18.850   7.002  11.267  1.00  0.00     0.057 A 
ATOM     65  C   UNL     1     -19.847   6.090  10.892  1.00  0.00     0.134 A 
ATOM     66  C   UNL     1     -19.201   8.357  11.309  1.00  0.00     0.134 A 
ATOM     67  F   UNL     1     -19.575   4.779  10.816  1.00  0.00    -0.206 F 
ATOM     68  C   UNL     1     -21.132   6.512  10.545  1.00  0.00     0.040 A 
ATOM     69  C   UNL     1     -20.491   8.788  10.994  1.00  0.00     0.040 A 
ATOM     70  F   UNL     1     -18.299   9.285  11.664  1.00  0.00    -0.206 F 
ATOM     71  C   UNL     1     -21.459   7.865  10.604  1.00  0.00     0.006 A 
ENDBRANCH  50  64
BRANCH  51  72
ATOM     72  C   UNL     1      -9.478   4.146  13.215  1.00  0.00     0.057 A 
ATOM     73  C   UNL     1      -9.207   3.035  14.024  1.00  0.00     0.134 A 
ATOM     74  C   UNL     1      -8.384   4.857  12.709  1.00  0.00     0.134 A 
ATOM     75  F   UNL     1     -10.213   2.324  14.552  1.00  0.00    -0.206 F 
ATOM     76  C   UNL     1      -7.900   2.661  14.339  1.00  0.00     0.040 A 
ATOM     77  C   UNL     1      -7.071   4.478  12.994  1.00  0.00     0.040 A 
ATOM     78  F   UNL     1      -8.576   5.924  11.920  1.00  0.00    -0.206 F 
ATOM     79  C   UNL     1      -6.827   3.382  13.819  1.00  0.00     0.006 A 
ENDBRANCH  51  72
BRANCH  63  80
ATOM     80  C   UNL     1     -14.657   6.646  17.133  1.00  0.00     0.057 A 
ATOM     81  C   UNL     1     -13.978   7.713  17.735  1.00  0.00     0.134 A 
ATOM     82  C   UNL     1     -15.469   5.851  17.952  1.00  0.00     0.134 A 
ATOM     83  F   UNL     1     -13.175   8.506  17.008  1.00  0.00    -0.206 F 
ATOM     84  C   UNL     1     -14.077   7.960  19.105  1.00  0.00     0.040 A 
ATOM     85  C   UNL     1     -15.599   6.106  19.317  1.00  0.00     0.040 A 
ATOM     86  F   UNL     1     -16.155   4.820  17.437  1.00  0.00    -0.206 F 
ATOM     87  C   UNL     1     -14.895   7.157  19.899  1.00  0.00     0.006 A 
ENDBRANCH  63  80
ENDBRANCH  37  38
ENDBRANCH  29  32
ENDBRANCH  27  28
ENDBRANCH   1  27
TORSDOF 12
