REMARK SMILES COc1cc(Cn2cc(C(=O)NCCCNC(=O)c3ccc(-c4c5nc(c(-c6c(F)cccc6F)c6ccc([nH]6)c(-c6c(F)cccc6F)c6nc(c(-c7c(F)cccc7F)c7ccc4[nH]7)C=C6)C=C5)cc3)c(=O)[nH]c2=O)ccn1
REMARK SMILES IDX 13 1 12 2 10 3 11 4 9 6 7 7 8 8 76 9 75 10 77 11 73 12 74 14
REMARK SMILES IDX 6 15 5 16 3 17 4 18 80 19 79 20 78 21 2 22 1 23 14 24 15 25
REMARK SMILES IDX 16 26 17 27 18 29 19 30 20 31 72 32 21 33 71 34 22 35 23 36
REMARK SMILES IDX 24 37 65 38 25 39 70 40 64 41 66 42 26 43 69 44 63 45 62 46
REMARK SMILES IDX 27 48 53 49 36 50 52 51 37 52 40 53 51 54 67 55 38 56 39 57
REMARK SMILES IDX 50 59 68 60 41 61 28 62 29 63 34 64 30 65 31 66 33 67 35 68
REMARK SMILES IDX 32 69 54 70 55 71 60 72 56 73 57 74 59 75 61 76 58 77 42 78
REMARK SMILES IDX 43 79 48 80 44 81 45 82 47 83 49 84 46 85
REMARK H PARENT 12 5 75 13 16 28 66 47 40 58
REMARK Flexibility Score: inf
ROOT
ATOM      1  C   UNL     1       1.519   4.161  -7.214  1.00  0.00     0.118 C 
ENDROOT
BRANCH   1   2
ATOM      2  N   UNL     1       2.525   4.019  -8.252  1.00  0.00    -0.352 N 
ATOM      3  C   UNL     1       3.795   3.518  -8.257  1.00  0.00     0.258 C 
ATOM      4  O   UNL     1       4.431   3.648  -9.303  1.00  0.00    -0.269 OA
ATOM      5  H   UNL     1       2.230   4.351  -9.130  1.00  0.00     0.163 HD
BRANCH   3   6
ATOM      6  C   UNL     1       4.394   2.828  -7.079  1.00  0.00     0.121 A 
ATOM      7  N   UNL     1       4.683   2.538  -4.712  1.00  0.00    -0.295 N 
ATOM      8  C   UNL     1       4.185   3.213  -5.813  1.00  0.00     0.110 A 
ATOM      9  C   UNL     1       5.591   1.499  -4.850  1.00  0.00     0.328 A 
ATOM     10  N   UNL     1       5.923   1.188  -6.140  1.00  0.00    -0.273 N 
ATOM     11  O   UNL     1       6.076   0.874  -3.911  1.00  0.00    -0.248 OA
ATOM     12  C   UNL     1       5.342   1.695  -7.272  1.00  0.00     0.266 A 
ATOM     13  H   UNL     1       6.651   0.537  -6.267  1.00  0.00     0.175 HD
ATOM     14  O   UNL     1       5.586   1.195  -8.365  1.00  0.00    -0.268 OA
BRANCH   7  15
ATOM     15  C   UNL     1       4.199   2.880  -3.370  1.00  0.00     0.162 C 
BRANCH  15  16
ATOM     16  C   UNL     1       2.809   2.339  -3.108  1.00  0.00    -0.021 A 
ATOM     17  C   UNL     1       1.328   0.681  -2.228  1.00  0.00     0.213 A 
ATOM     18  C   UNL     1       2.625   1.115  -2.460  1.00  0.00     0.074 A 
ATOM     19  N   UNL     1       0.220   1.323  -2.649  1.00  0.00    -0.222 NA
ATOM     20  C   UNL     1       0.415   2.485  -3.297  1.00  0.00     0.115 A 
ATOM     21  C   UNL     1       1.668   3.037  -3.520  1.00  0.00     0.026 A 
BRANCH  17  22
ATOM     22  O   UNL     1       1.121  -0.465  -1.504  1.00  0.00    -0.481 OA
ATOM     23  C   UNL     1       1.046  -0.113  -0.123  1.00  0.00     0.280 C 
ENDBRANCH  17  22
ENDBRANCH  15  16
ENDBRANCH   7  15
ENDBRANCH   3   6
ENDBRANCH   1   2
BRANCH   1  24
ATOM     24  C   UNL     1       1.560   5.573  -6.625  1.00  0.00     0.042 C 
BRANCH  24  25
ATOM     25  C   UNL     1       0.789   6.588  -7.462  1.00  0.00     0.118 C 
BRANCH  25  26
ATOM     26  N   UNL     1      -0.652   6.433  -7.310  1.00  0.00    -0.352 N 
ATOM     27  C   UNL     1      -1.610   7.364  -6.975  1.00  0.00     0.251 C 
ATOM     28  H   UNL     1      -0.993   5.523  -7.471  1.00  0.00     0.163 HD
ATOM     29  O   UNL     1      -2.742   6.997  -6.699  1.00  0.00    -0.269 OA
BRANCH  27  30
ATOM     30  C   UNL     1      -1.259   8.802  -6.915  1.00  0.00     0.039 A 
ATOM     31  C   UNL     1      -0.427   9.379  -7.875  1.00  0.00     0.014 A 
ATOM     32  C   UNL     1      -1.775   9.584  -5.877  1.00  0.00     0.014 A 
ATOM     33  C   UNL     1       0.033  10.678  -7.698  1.00  0.00     0.010 A 
ATOM     34  C   UNL     1      -1.383  10.920  -5.753  1.00  0.00     0.010 A 
ATOM     35  C   UNL     1      -0.431  11.462  -6.630  1.00  0.00    -0.014 A 
BRANCH  35  36
ATOM     36  C   UNL     1       0.116  12.830  -6.435  1.00  0.00     0.031 A 
ATOM     37  C   UNL     1       0.921  13.164  -5.207  1.00  0.00     0.074 A 
ATOM     38  C   UNL     1      -0.059  13.756  -7.397  1.00  0.00     0.049 A 
ATOM     39  N   UNL     1       1.498  14.292  -4.877  1.00  0.00    -0.248 NA
ATOM     40  C   UNL     1       1.097  12.091  -4.216  1.00  0.00     0.031 C 
ATOM     41  C   UNL     1      -0.803  13.551  -8.641  1.00  0.00     0.029 A 
ATOM     42  N   UNL     1       0.398  15.046  -7.491  1.00  0.00    -0.354 N 
ATOM     43  C   UNL     1       2.088  14.071  -3.638  1.00  0.00     0.074 A 
ATOM     44  C   UNL     1       1.766  12.713  -3.257  1.00  0.00     0.031 C 
ATOM     45  C   UNL     1      -0.706  14.655  -9.397  1.00  0.00     0.029 A 
ATOM     46  C   UNL     1       0.049  15.666  -8.666  1.00  0.00     0.049 A 
ATOM     47  H   UNL     1       0.925  15.485  -6.785  1.00  0.00     0.167 HD
ATOM     48  C   UNL     1       2.842  14.915  -2.892  1.00  0.00     0.037 A 
ATOM     49  C   UNL     1       0.296  16.915  -9.099  1.00  0.00     0.037 A 
ATOM     50  C   UNL     1       3.167  16.265  -3.276  1.00  0.00     0.049 A 
ATOM     51  C   UNL     1       1.071  17.854  -8.220  1.00  0.00     0.074 A 
ATOM     52  C   UNL     1       3.937  17.195  -2.599  1.00  0.00     0.029 A 
ATOM     53  N   UNL     1       2.731  16.880  -4.440  1.00  0.00    -0.354 N 
ATOM     54  N   UNL     1       1.635  17.625  -7.059  1.00  0.00    -0.248 NA
ATOM     55  C   UNL     1       1.233  19.229  -8.710  1.00  0.00     0.031 C 
ATOM     56  C   UNL     1       3.926  18.389  -3.331  1.00  0.00     0.029 A 
ATOM     57  C   UNL     1       3.192  18.186  -4.488  1.00  0.00     0.049 A 
ATOM     58  H   UNL     1       2.176  16.452  -5.132  1.00  0.00     0.167 HD
ATOM     59  C   UNL     1       2.233  18.822  -6.686  1.00  0.00     0.074 A 
ATOM     60  C   UNL     1       1.982  19.765  -7.757  1.00  0.00     0.031 C 
ATOM     61  C   UNL     1       2.925  19.115  -5.558  1.00  0.00     0.037 A 
BRANCH  48  62
ATOM     62  C   UNL     1       3.338  14.403  -1.568  1.00  0.00     0.057 A 
ATOM     63  C   UNL     1       2.823  14.912  -0.368  1.00  0.00     0.134 A 
ATOM     64  C   UNL     1       4.320  13.407  -1.475  1.00  0.00     0.134 A 
ATOM     65  F   UNL     1       1.886  15.871  -0.381  1.00  0.00    -0.206 F 
ATOM     66  C   UNL     1       3.259  14.442   0.873  1.00  0.00     0.040 A 
ATOM     67  C   UNL     1       4.744  12.910  -0.241  1.00  0.00     0.040 A 
ATOM     68  F   UNL     1       4.845  12.864  -2.584  1.00  0.00    -0.206 F 
ATOM     69  C   UNL     1       4.215  13.431   0.938  1.00  0.00     0.006 A 
ENDBRANCH  48  62
BRANCH  49  70
ATOM     70  C   UNL     1      -0.204  17.355 -10.426  1.00  0.00     0.057 A 
ATOM     71  C   UNL     1      -1.573  17.519 -10.673  1.00  0.00     0.134 A 
ATOM     72  C   UNL     1       0.679  17.630 -11.475  1.00  0.00     0.134 A 
ATOM     73  F   UNL     1      -2.471  17.267  -9.709  1.00  0.00    -0.206 F 
ATOM     74  C   UNL     1      -2.046  17.929 -11.920  1.00  0.00     0.040 A 
ATOM     75  C   UNL     1       0.222  18.067 -12.719  1.00  0.00     0.040 A 
ATOM     76  F   UNL     1       2.002  17.510 -11.293  1.00  0.00    -0.206 F 
ATOM     77  C   UNL     1      -1.146  18.212 -12.945  1.00  0.00     0.006 A 
ENDBRANCH  49  70
BRANCH  61  78
ATOM     78  C   UNL     1       3.475  20.508  -5.444  1.00  0.00     0.057 A 
ATOM     79  C   UNL     1       4.852  20.742  -5.548  1.00  0.00     0.134 A 
ATOM     80  C   UNL     1       2.644  21.615  -5.228  1.00  0.00     0.134 A 
ATOM     81  F   UNL     1       5.704  19.725  -5.749  1.00  0.00    -0.206 F 
ATOM     82  C   UNL     1       5.383  22.029  -5.445  1.00  0.00     0.040 A 
ATOM     83  C   UNL     1       3.161  22.910  -5.152  1.00  0.00     0.040 A 
ATOM     84  F   UNL     1       1.315  21.460  -5.137  1.00  0.00    -0.206 F 
ATOM     85  C   UNL     1       4.535  23.118  -5.255  1.00  0.00     0.006 A 
ENDBRANCH  61  78
ENDBRANCH  35  36
ENDBRANCH  27  30
ENDBRANCH  25  26
ENDBRANCH  24  25
ENDBRANCH   1  24
TORSDOF 13
