REMARK SMILES Cc1nn(-c2ccc(C(=O)NCCCNC(=O)c3ccc(-c4c5nc(c(-c6c(F)cccc6F)c6ccc([nH]6)c(-c6c(F)cccc6F)c6nc(c(-c7c(F)cccc7F)c7ccc4[nH]7)C=C6)C=C5)cc3)cc2)c2c1[C@@H](c1ccc[nH]c1=O)SCC(O)=N2
REMARK SMILES IDX 12 1 11 2 9 3 10 4 8 6 5 7 6 8 73 9 7 10 72 11 4 12 1 13
REMARK SMILES IDX 2 14 3 15 75 16 74 17 76 18 77 19 78 20 82 21 79 22 81 23
REMARK SMILES IDX 83 24 80 25 84 27 85 28 88 30 86 31 87 33 13 35 14 36 15 37
REMARK SMILES IDX 16 38 17 40 18 41 19 42 71 43 20 44 70 45 21 46 22 47 23 48
REMARK SMILES IDX 64 49 24 50 69 51 63 52 65 53 25 54 68 55 62 56 61 57 26 59
REMARK SMILES IDX 52 60 35 61 51 62 36 63 39 64 50 65 66 66 37 67 38 68 49 70
REMARK SMILES IDX 67 71 40 72 27 73 28 74 33 75 29 76 30 77 32 78 34 79 31 80
REMARK SMILES IDX 53 81 54 82 59 83 55 84 56 85 58 86 60 87 57 88 41 89 42 90
REMARK SMILES IDX 47 91 43 92 44 93 46 94 48 95 45 96
REMARK H PARENT 11 5 81 26 87 34 15 39 65 58 39 69
REMARK Flexibility Score: 90.00
ROOT
ATOM      1  C   UNL     1      -0.619  -9.115  -3.014  1.00  0.00     0.118 C 
ENDROOT
BRANCH   1   2
ATOM      2  N   UNL     1      -0.222  -8.888  -4.394  1.00  0.00    -0.352 N 
ATOM      3  C   UNL     1       0.156  -7.749  -5.061  1.00  0.00     0.251 C 
ATOM      4  O   UNL     1       0.499  -7.864  -6.238  1.00  0.00    -0.269 OA
ATOM      5  H   UNL     1      -0.224  -9.699  -4.952  1.00  0.00     0.163 HD
BRANCH   3   6
ATOM      6  C   UNL     1       0.205  -6.408  -4.413  1.00  0.00     0.039 A 
ATOM      7  C   UNL     1       0.386  -3.859  -3.296  1.00  0.00     0.067 A 
ATOM      8  C   UNL     1       1.081  -4.143  -4.475  1.00  0.00     0.029 A 
ATOM      9  C   UNL     1      -0.394  -4.820  -2.670  1.00  0.00     0.029 A 
ATOM     10  C   UNL     1       1.012  -5.429  -5.013  1.00  0.00     0.016 A 
ATOM     11  C   UNL     1      -0.531  -6.062  -3.274  1.00  0.00     0.016 A 
BRANCH   7  12
ATOM     12  N   UNL     1       0.308  -2.545  -2.802  1.00  0.00    -0.215 N 
ATOM     13  C   UNL     1       0.404  -0.392  -0.018  1.00  0.00     0.069 C 
ATOM     14  C   UNL     1       0.259  -0.981  -1.379  1.00  0.00     0.067 A 
ATOM     15  N   UNL     1       0.458  -2.294  -1.491  1.00  0.00    -0.171 NA
ATOM     16  C   UNL     1      -0.076  -0.364  -2.641  1.00  0.00     0.038 A 
ATOM     17  C   UNL     1      -0.129  -1.442  -3.522  1.00  0.00     0.164 A 
BRANCH  16  18
ATOM     18  C   UNL     1      -0.433   1.098  -2.862  1.00  0.00     0.118 C 
BRANCH  18  19
ATOM     19  C   UNL     1       0.527   2.083  -2.218  1.00  0.00     0.035 A 
ATOM     20  C   UNL     1       1.809   1.852  -1.864  1.00  0.00     0.012 A 
ATOM     21  C   UNL     1      -0.059   3.425  -1.867  1.00  0.00     0.252 A 
ATOM     22  C   UNL     1       2.568   2.805  -1.089  1.00  0.00     0.018 A 
ATOM     23  N   UNL     1       0.765   4.292  -1.192  1.00  0.00    -0.329 N 
ATOM     24  O   UNL     1      -1.211   3.738  -2.143  1.00  0.00    -0.269 OA
ATOM     25  C   UNL     1       2.034   3.990  -0.782  1.00  0.00     0.086 A 
ATOM     26  H   UNL     1       0.419   5.191  -0.989  1.00  0.00     0.169 HD
ENDBRANCH  18  19
BRANCH  18  27
ATOM     27  S   UNL     1      -0.691   1.659  -4.607  1.00  0.00    -0.139 SA
BRANCH  27  28
ATOM     28  C   UNL     1       0.364   0.523  -5.523  1.00  0.00     0.167 CG0
ATOM     29  G   UNL     1      -0.396  -0.757  -5.689  1.00  0.00     0.000 G0
ENDBRANCH  27  28
ENDBRANCH  18  27
ENDBRANCH  16  18
BRANCH  17  30
ATOM     30  N   UNL     1      -0.610  -1.637  -4.778  1.00  0.00    -0.197 NA
ATOM     31  C   UNL     1      -0.396  -0.757  -5.689  1.00  0.00     0.197 CG0
ATOM     32  G   UNL     1       0.364   0.523  -5.523  1.00  0.00     0.000 G0
BRANCH  31  33
ATOM     33  O   UNL     1      -0.926  -0.984  -6.905  1.00  0.00    -0.496 OA
ATOM     34  H   UNL     1      -0.792  -0.365  -7.597  1.00  0.00     0.295 HD
ENDBRANCH  31  33
ENDBRANCH  17  30
ENDBRANCH   7  12
ENDBRANCH   3   6
ENDBRANCH   1   2
BRANCH   1  35
ATOM     35  C   UNL     1      -2.144  -9.032  -2.842  1.00  0.00     0.042 C 
BRANCH  35  36
ATOM     36  C   UNL     1      -2.809 -10.357  -3.145  1.00  0.00     0.118 C 
BRANCH  36  37
ATOM     37  N   UNL     1      -2.497 -11.366  -2.127  1.00  0.00    -0.352 N 
ATOM     38  C   UNL     1      -2.839 -12.706  -2.093  1.00  0.00     0.251 C 
ATOM     39  H   UNL     1      -1.971 -11.044  -1.359  1.00  0.00     0.163 HD
ATOM     40  O   UNL     1      -2.808 -13.339  -1.054  1.00  0.00    -0.269 OA
BRANCH  38  41
ATOM     41  C   UNL     1      -3.234 -13.350  -3.356  1.00  0.00     0.039 A 
ATOM     42  C   UNL     1      -4.266 -14.290  -3.420  1.00  0.00     0.014 A 
ATOM     43  C   UNL     1      -2.562 -12.945  -4.501  1.00  0.00     0.014 A 
ATOM     44  C   UNL     1      -4.653 -14.764  -4.671  1.00  0.00     0.010 A 
ATOM     45  C   UNL     1      -3.106 -13.210  -5.721  1.00  0.00     0.010 A 
ATOM     46  C   UNL     1      -4.070 -14.201  -5.815  1.00  0.00    -0.014 A 
BRANCH  46  47
ATOM     47  C   UNL     1      -4.489 -14.547  -7.161  1.00  0.00     0.031 A 
ATOM     48  C   UNL     1      -5.921 -14.279  -7.436  1.00  0.00     0.074 A 
ATOM     49  C   UNL     1      -3.583 -14.826  -8.123  1.00  0.00     0.049 A 
ATOM     50  N   UNL     1      -6.840 -15.154  -7.665  1.00  0.00    -0.248 NA
ATOM     51  C   UNL     1      -6.432 -12.907  -7.277  1.00  0.00     0.031 C 
ATOM     52  C   UNL     1      -2.116 -14.836  -8.024  1.00  0.00     0.029 A 
ATOM     53  N   UNL     1      -3.786 -15.046  -9.448  1.00  0.00    -0.354 N 
ATOM     54  C   UNL     1      -8.002 -14.430  -7.907  1.00  0.00     0.074 A 
ATOM     55  C   UNL     1      -7.743 -13.090  -7.450  1.00  0.00     0.031 C 
ATOM     56  C   UNL     1      -1.574 -14.812  -9.261  1.00  0.00     0.029 A 
ATOM     57  C   UNL     1      -2.639 -14.947 -10.235  1.00  0.00     0.049 A 
ATOM     58  H   UNL     1      -4.671 -15.258  -9.823  1.00  0.00     0.167 HD
ATOM     59  C   UNL     1      -8.983 -14.939  -8.702  1.00  0.00     0.037 A 
ATOM     60  C   UNL     1      -2.597 -14.941 -11.591  1.00  0.00     0.037 A 
ATOM     61  C   UNL     1      -8.770 -16.346  -8.942  1.00  0.00     0.049 A 
ATOM     62  C   UNL     1      -3.870 -15.549 -12.062  1.00  0.00     0.074 A 
ATOM     63  C   UNL     1      -8.681 -17.461  -8.131  1.00  0.00     0.029 A 
ATOM     64  N   UNL     1      -8.191 -16.701 -10.138  1.00  0.00    -0.354 N 
ATOM     65  N   UNL     1      -4.171 -16.806 -11.879  1.00  0.00    -0.248 NA
ATOM     66  C   UNL     1      -5.007 -14.660 -12.263  1.00  0.00     0.031 C 
ATOM     67  C   UNL     1      -7.632 -18.243  -8.697  1.00  0.00     0.029 A 
ATOM     68  C   UNL     1      -7.205 -17.616  -9.869  1.00  0.00     0.049 A 
ATOM     69  H   UNL     1      -8.439 -16.359 -11.027  1.00  0.00     0.167 HD
ATOM     70  C   UNL     1      -5.504 -16.797 -11.493  1.00  0.00     0.074 A 
ATOM     71  C   UNL     1      -5.987 -15.456 -11.823  1.00  0.00     0.031 C 
ATOM     72  C   UNL     1      -6.002 -17.757 -10.657  1.00  0.00     0.037 A 
BRANCH  59  73
ATOM     73  C   UNL     1      -9.898 -14.119  -9.573  1.00  0.00     0.057 A 
ATOM     74  C   UNL     1     -10.977 -14.755 -10.212  1.00  0.00     0.134 A 
ATOM     75  C   UNL     1      -9.602 -12.824 -10.041  1.00  0.00     0.134 A 
ATOM     76  F   UNL     1     -11.351 -15.995  -9.861  1.00  0.00    -0.206 F 
ATOM     77  C   UNL     1     -11.656 -14.177 -11.290  1.00  0.00     0.040 A 
ATOM     78  C   UNL     1     -10.308 -12.216 -11.082  1.00  0.00     0.040 A 
ATOM     79  F   UNL     1      -8.556 -12.119  -9.595  1.00  0.00    -0.206 F 
ATOM     80  C   UNL     1     -11.316 -12.906 -11.734  1.00  0.00     0.006 A 
ENDBRANCH  59  73
BRANCH  60  81
ATOM     81  C   UNL     1      -1.684 -14.187 -12.486  1.00  0.00     0.057 A 
ATOM     82  C   UNL     1      -1.632 -14.450 -13.863  1.00  0.00     0.134 A 
ATOM     83  C   UNL     1      -1.041 -13.008 -12.066  1.00  0.00     0.134 A 
ATOM     84  F   UNL     1      -2.243 -15.529 -14.374  1.00  0.00    -0.206 F 
ATOM     85  C   UNL     1      -1.008 -13.579 -14.770  1.00  0.00     0.040 A 
ATOM     86  C   UNL     1      -0.410 -12.134 -12.958  1.00  0.00     0.040 A 
ATOM     87  F   UNL     1      -1.077 -12.615 -10.785  1.00  0.00    -0.206 F 
ATOM     88  C   UNL     1      -0.406 -12.409 -14.319  1.00  0.00     0.006 A 
ENDBRANCH  60  81
BRANCH  72  89
ATOM     89  C   UNL     1      -5.130 -18.946 -10.347  1.00  0.00     0.057 A 
ATOM     90  C   UNL     1      -3.907 -18.873  -9.661  1.00  0.00     0.134 A 
ATOM     91  C   UNL     1      -5.626 -20.227 -10.604  1.00  0.00     0.134 A 
ATOM     92  F   UNL     1      -3.398 -17.700  -9.273  1.00  0.00    -0.206 F 
ATOM     93  C   UNL     1      -3.192 -20.017  -9.291  1.00  0.00     0.040 A 
ATOM     94  C   UNL     1      -4.939 -21.379 -10.210  1.00  0.00     0.040 A 
ATOM     95  F   UNL     1      -6.819 -20.382 -11.199  1.00  0.00    -0.206 F 
ATOM     96  C   UNL     1      -3.712 -21.276  -9.561  1.00  0.00     0.006 A 
ENDBRANCH  72  89
ENDBRANCH  46  47
ENDBRANCH  38  41
ENDBRANCH  36  37
ENDBRANCH  35  36
ENDBRANCH   1  35
TORSDOF 13
