REMARK SMILES O=C(Cc1ccc(=O)n(C(F)F)c1)NCCCNC(=O)c1ccc(-c2c3nc(c(-c4c(F)cccc4F)c4ccc([nH]4)c(-c4c(F)cccc4F)c4nc(c(-c5c(F)cccc5F)c5ccc2[nH]5)C=C4)C=C3)cc1
REMARK SMILES IDX 16 1 15 2 14 3 1 4 2 5 3 7 4 8 5 9 13 10 6 11 9 12 7 13 8 14
REMARK SMILES IDX 10 15 11 16 12 17 17 18 18 19 19 20 20 22 21 23 22 24 74 25
REMARK SMILES IDX 23 26 73 27 24 28 25 29 26 30 67 31 27 32 72 33 66 34 68 35
REMARK SMILES IDX 28 36 71 37 65 38 64 39 29 41 55 42 38 43 54 44 39 45 42 46
REMARK SMILES IDX 53 47 69 48 40 49 41 50 52 52 70 53 43 54 30 55 31 56 36 57
REMARK SMILES IDX 32 58 33 59 35 60 37 61 34 62 56 63 57 64 62 65 58 66 59 67
REMARK SMILES IDX 61 68 63 69 60 70 44 71 45 72 50 73 46 74 47 75 49 76 51 77
REMARK SMILES IDX 48 78
REMARK H PARENT 14 6 18 21 68 40 42 51
REMARK Flexibility Score: inf
ROOT
ATOM      1  C   UNL     1       2.257   3.149   1.564  1.00  0.00     0.042 C 
ENDROOT
BRANCH   1   2
ATOM      2  C   UNL     1       2.014   2.356   0.288  1.00  0.00     0.117 C 
BRANCH   2   3
ATOM      3  N   UNL     1       2.711   1.086   0.275  1.00  0.00    -0.356 N 
ATOM      4  O   UNL     1       1.037  -0.108  -0.766  1.00  0.00    -0.275 OA
ATOM      5  C   UNL     1       2.178  -0.041  -0.325  1.00  0.00     0.224 C 
ATOM      6  H   UNL     1       3.593   1.022   0.708  1.00  0.00     0.163 HD
BRANCH   5   7
ATOM      7  C   UNL     1       3.184  -1.181  -0.451  1.00  0.00     0.137 C 
BRANCH   7   8
ATOM      8  C   UNL     1       3.916  -1.182  -1.774  1.00  0.00    -0.022 A 
ATOM      9  C   UNL     1       4.329   0.066  -2.391  1.00  0.00     0.011 A 
ATOM     10  C   UNL     1       4.226  -2.331  -2.402  1.00  0.00     0.099 A 
ATOM     11  C   UNL     1       4.997   0.082  -3.550  1.00  0.00     0.072 A 
ATOM     12  N   UNL     1       4.938  -2.344  -3.591  1.00  0.00    -0.258 N 
ATOM     13  C   UNL     1       5.356  -1.188  -4.230  1.00  0.00     0.254 A 
ATOM     14  O   UNL     1       5.988  -1.132  -5.279  1.00  0.00    -0.269 OA
BRANCH  12  15
ATOM     15  C   UNL     1       5.291  -3.590  -4.220  1.00  0.00     0.451 C 
ATOM     16  F   UNL     1       4.742  -3.686  -5.455  1.00  0.00    -0.185 F 
ATOM     17  F   UNL     1       6.636  -3.707  -4.346  1.00  0.00    -0.185 F 
ENDBRANCH  12  15
ENDBRANCH   7   8
ENDBRANCH   5   7
ENDBRANCH   2   3
ENDBRANCH   1   2
BRANCH   1  18
ATOM     18  C   UNL     1       3.715   3.490   1.853  1.00  0.00     0.118 C 
BRANCH  18  19
ATOM     19  N   UNL     1       4.319   4.414   0.903  1.00  0.00    -0.352 N 
ATOM     20  C   UNL     1       5.128   5.503   1.151  1.00  0.00     0.251 C 
ATOM     21  H   UNL     1       4.122   4.237  -0.045  1.00  0.00     0.163 HD
ATOM     22  O   UNL     1       5.487   6.226   0.227  1.00  0.00    -0.269 OA
BRANCH  20  23
ATOM     23  C   UNL     1       5.518   5.830   2.542  1.00  0.00     0.039 A 
ATOM     24  C   UNL     1       5.964   4.836   3.414  1.00  0.00     0.014 A 
ATOM     25  C   UNL     1       5.383   7.147   2.993  1.00  0.00     0.014 A 
ATOM     26  C   UNL     1       6.085   5.116   4.772  1.00  0.00     0.010 A 
ATOM     27  C   UNL     1       5.591   7.444   4.344  1.00  0.00     0.010 A 
ATOM     28  C   UNL     1       5.881   6.418   5.258  1.00  0.00    -0.014 A 
BRANCH  28  29
ATOM     29  C   UNL     1       5.942   6.668   6.723  1.00  0.00     0.031 A 
ATOM     30  C   UNL     1       4.715   7.105   7.484  1.00  0.00     0.074 A 
ATOM     31  C   UNL     1       7.089   6.431   7.388  1.00  0.00     0.049 A 
ATOM     32  N   UNL     1       4.572   7.319   8.769  1.00  0.00    -0.248 NA
ATOM     33  C   UNL     1       3.491   7.335   6.702  1.00  0.00     0.031 C 
ATOM     34  C   UNL     1       8.347   6.001   6.775  1.00  0.00     0.029 A 
ATOM     35  N   UNL     1       7.376   6.491   8.728  1.00  0.00    -0.354 N 
ATOM     36  C   UNL     1       3.254   7.723   8.946  1.00  0.00     0.074 A 
ATOM     37  C   UNL     1       2.647   7.757   7.633  1.00  0.00     0.031 C 
ATOM     38  C   UNL     1       9.254   5.784   7.739  1.00  0.00     0.029 A 
ATOM     39  C   UNL     1       8.661   6.111   9.031  1.00  0.00     0.049 A 
ATOM     40  H   UNL     1       6.724   6.778   9.408  1.00  0.00     0.167 HD
ATOM     41  C   UNL     1       2.603   8.026  10.095  1.00  0.00     0.037 A 
ATOM     42  C   UNL     1       9.296   6.042  10.216  1.00  0.00     0.037 A 
ATOM     43  C   UNL     1       3.196   7.975  11.407  1.00  0.00     0.049 A 
ATOM     44  C   UNL     1       8.562   6.421  11.469  1.00  0.00     0.074 A 
ATOM     45  C   UNL     1       2.606   8.236  12.632  1.00  0.00     0.029 A 
ATOM     46  N   UNL     1       4.516   7.641  11.664  1.00  0.00    -0.354 N 
ATOM     47  N   UNL     1       7.311   6.781  11.618  1.00  0.00    -0.248 NA
ATOM     48  C   UNL     1       9.334   6.391  12.719  1.00  0.00     0.031 C 
ATOM     49  C   UNL     1       3.581   8.097  13.627  1.00  0.00     0.029 A 
ATOM     50  C   UNL     1       4.766   7.710  13.025  1.00  0.00     0.049 A 
ATOM     51  H   UNL     1       5.179   7.391  10.980  1.00  0.00     0.167 HD
ATOM     52  C   UNL     1       7.143   7.011  12.977  1.00  0.00     0.074 A 
ATOM     53  C   UNL     1       8.413   6.723  13.611  1.00  0.00     0.031 C 
ATOM     54  C   UNL     1       6.037   7.429  13.641  1.00  0.00     0.037 A 
BRANCH  41  55
ATOM     55  C   UNL     1       1.168   8.454   9.983  1.00  0.00     0.057 A 
ATOM     56  C   UNL     1       0.800   9.786  10.211  1.00  0.00     0.134 A 
ATOM     57  C   UNL     1       0.146   7.544   9.679  1.00  0.00     0.134 A 
ATOM     58  F   UNL     1       1.727  10.706  10.514  1.00  0.00    -0.206 F 
ATOM     59  C   UNL     1      -0.532  10.198  10.140  1.00  0.00     0.040 A 
ATOM     60  C   UNL     1      -1.187   7.949   9.582  1.00  0.00     0.040 A 
ATOM     61  F   UNL     1       0.433   6.256   9.437  1.00  0.00    -0.206 F 
ATOM     62  C   UNL     1      -1.529   9.280   9.818  1.00  0.00     0.006 A 
ENDBRANCH  41  55
BRANCH  42  63
ATOM     63  C   UNL     1      10.711   5.602  10.274  1.00  0.00     0.057 A 
ATOM     64  C   UNL     1      11.744   6.403   9.772  1.00  0.00     0.134 A 
ATOM     65  C   UNL     1      11.064   4.377  10.849  1.00  0.00     0.134 A 
ATOM     66  F   UNL     1      11.468   7.587   9.206  1.00  0.00    -0.206 F 
ATOM     67  C   UNL     1      13.077   5.997   9.831  1.00  0.00     0.040 A 
ATOM     68  C   UNL     1      12.396   3.969  10.938  1.00  0.00     0.040 A 
ATOM     69  F   UNL     1      10.120   3.576  11.365  1.00  0.00    -0.206 F 
ATOM     70  C   UNL     1      13.406   4.780  10.423  1.00  0.00     0.006 A 
ENDBRANCH  42  63
BRANCH  54  71
ATOM     71  C   UNL     1       6.159   7.583  15.127  1.00  0.00     0.057 A 
ATOM     72  C   UNL     1       5.552   6.666  15.994  1.00  0.00     0.134 A 
ATOM     73  C   UNL     1       6.876   8.641  15.701  1.00  0.00     0.134 A 
ATOM     74  F   UNL     1       4.847   5.633  15.509  1.00  0.00    -0.206 F 
ATOM     75  C   UNL     1       5.657   6.794  17.380  1.00  0.00     0.040 A 
ATOM     76  C   UNL     1       7.008   8.766  17.084  1.00  0.00     0.040 A 
ATOM     77  F   UNL     1       7.495   9.542  14.923  1.00  0.00    -0.206 F 
ATOM     78  C   UNL     1       6.394   7.842  17.928  1.00  0.00     0.006 A 
ENDBRANCH  54  71
ENDBRANCH  28  29
ENDBRANCH  20  23
ENDBRANCH  18  19
ENDBRANCH   1  18
TORSDOF 12
