REMARK SMILES Cc1c(CC(=O)NCCCNC(=O)c2ccc(-c3c4nc(c(-c5c(F)cccc5F)c5ccc([nH]5)c(-c5c(F)cccc5F)c5nc(c(-c6c(F)cccc6F)c6ccc3[nH]6)C=C5)C=C4)cc2)cc(-c2ccc(S(C)(=O)=O)cc2)n1-c1ccccc1
REMARK SMILES IDX 8 1 7 2 5 3 6 4 4 6 3 7 1 8 2 9 80 10 68 11 69 12 81 13
REMARK SMILES IDX 82 14 86 15 83 16 85 17 84 18 70 19 71 20 79 21 72 22 78 23
REMARK SMILES IDX 73 24 74 25 75 26 76 27 77 28 9 29 10 30 11 31 12 32 13 34
REMARK SMILES IDX 14 35 15 36 67 37 16 38 66 39 17 40 18 41 19 42 60 43 20 44
REMARK SMILES IDX 65 45 59 46 61 47 21 48 64 49 58 50 57 51 22 53 48 54 31 55
REMARK SMILES IDX 47 56 32 57 35 58 46 59 62 60 33 61 34 62 45 64 63 65 36 66
REMARK SMILES IDX 23 67 24 68 29 69 25 70 26 71 28 72 30 73 27 74 49 75 50 76
REMARK SMILES IDX 55 77 51 78 52 79 54 80 56 81 53 82 37 83 38 84 43 85 39 86
REMARK SMILES IDX 40 87 42 88 44 89 41 90
REMARK H PARENT 7 5 11 33 61 52 35 63
REMARK Flexibility Score: inf
ROOT
ATOM      1  C   UNL     1      -3.587  -0.176   1.447  1.00  0.00     0.117 C 
ENDROOT
BRANCH   1   2
ATOM      2  N   UNL     1      -2.831  -1.086   0.593  1.00  0.00    -0.356 N 
ATOM      3  C   UNL     1      -1.720  -1.851   0.845  1.00  0.00     0.224 C 
ATOM      4  O   UNL     1      -1.463  -2.748   0.033  1.00  0.00    -0.275 OA
ATOM      5  H   UNL     1      -3.179  -1.165  -0.325  1.00  0.00     0.163 HD
BRANCH   3   6
ATOM      6  C   UNL     1      -0.835  -1.663   2.074  1.00  0.00     0.137 C 
BRANCH   6   7
ATOM      7  C   UNL     1      -0.299  -0.276   2.211  1.00  0.00    -0.017 A 
ATOM      8  C   UNL     1       0.899   0.051  -0.076  1.00  0.00     0.065 C 
ATOM      9  C   UNL     1       0.361   0.479   1.253  1.00  0.00     0.024 A 
ATOM     10  N   UNL     1       0.511   1.769   1.750  1.00  0.00    -0.314 N 
ATOM     11  C   UNL     1      -0.322   0.503   3.393  1.00  0.00     0.033 A 
ATOM     12  C   UNL     1       0.158   1.768   3.099  1.00  0.00     0.053 A 
BRANCH  10  13
ATOM     13  C   UNL     1       0.893   2.901   0.984  1.00  0.00     0.046 A 
ATOM     14  C   UNL     1       1.907   3.751   1.433  1.00  0.00     0.026 A 
ATOM     15  C   UNL     1       0.200   3.184  -0.200  1.00  0.00     0.026 A 
ATOM     16  C   UNL     1       2.238   4.877   0.680  1.00  0.00     0.002 A 
ATOM     17  C   UNL     1       0.523   4.323  -0.935  1.00  0.00     0.002 A 
ATOM     18  C   UNL     1       1.545   5.165  -0.498  1.00  0.00     0.000 A 
ENDBRANCH  10  13
BRANCH  12  19
ATOM     19  C   UNL     1       0.113   2.939   3.976  1.00  0.00    -0.001 A 
ATOM     20  C   UNL     1      -0.691   4.040   3.645  1.00  0.00     0.011 A 
ATOM     21  C   UNL     1       0.826   2.946   5.182  1.00  0.00     0.011 A 
ATOM     22  C   UNL     1      -0.753   5.150   4.485  1.00  0.00     0.021 A 
ATOM     23  C   UNL     1       0.770   4.056   6.029  1.00  0.00     0.021 A 
ATOM     24  C   UNL     1      -0.008   5.158   5.665  1.00  0.00     0.067 A 
BRANCH  24  25
ATOM     25  S   UNL     1      -0.074   6.585   6.719  1.00  0.00     0.175 S 
ATOM     26  C   UNL     1       0.701   7.855   5.751  1.00  0.00     0.163 C 
ATOM     27  O   UNL     1      -1.486   6.929   6.872  1.00  0.00    -0.224 OA
ATOM     28  O   UNL     1       0.758   6.333   7.867  1.00  0.00    -0.224 OA
ENDBRANCH  24  25
ENDBRANCH  12  19
ENDBRANCH   6   7
ENDBRANCH   3   6
ENDBRANCH   1   2
BRANCH   1  29
ATOM     29  C   UNL     1      -3.668   1.325   1.021  1.00  0.00     0.042 C 
BRANCH  29  30
ATOM     30  C   UNL     1      -4.248   1.751  -0.378  1.00  0.00     0.118 C 
BRANCH  30  31
ATOM     31  N   UNL     1      -5.486   2.579  -0.286  1.00  0.00    -0.352 N 
ATOM     32  C   UNL     1      -6.034   3.796  -0.691  1.00  0.00     0.251 C 
ATOM     33  H   UNL     1      -6.154   2.093   0.250  1.00  0.00     0.163 HD
ATOM     34  O   UNL     1      -7.168   3.995  -0.227  1.00  0.00    -0.269 OA
BRANCH  32  35
ATOM     35  C   UNL     1      -5.520   4.904  -1.612  1.00  0.00     0.039 A 
ATOM     36  C   UNL     1      -5.954   6.242  -1.425  1.00  0.00     0.014 A 
ATOM     37  C   UNL     1      -4.876   4.720  -2.817  1.00  0.00     0.014 A 
ATOM     38  C   UNL     1      -5.765   7.335  -2.390  1.00  0.00     0.010 A 
ATOM     39  C   UNL     1      -4.698   5.825  -3.777  1.00  0.00     0.010 A 
ATOM     40  C   UNL     1      -5.165   7.188  -3.664  1.00  0.00    -0.014 A 
BRANCH  40  41
ATOM     41  C   UNL     1      -5.561   8.338  -4.877  1.00  0.00     0.031 A 
ATOM     42  C   UNL     1      -7.020   8.072  -5.212  1.00  0.00     0.074 A 
ATOM     43  C   UNL     1      -5.124   9.095  -6.008  1.00  0.00     0.049 A 
ATOM     44  N   UNL     1      -7.222   7.513  -6.368  1.00  0.00    -0.248 NA
ATOM     45  C   UNL     1      -8.069   7.761  -4.241  1.00  0.00     0.031 C 
ATOM     46  C   UNL     1      -6.032  10.030  -6.808  1.00  0.00     0.029 A 
ATOM     47  N   UNL     1      -3.963   9.224  -6.809  1.00  0.00    -0.354 N 
ATOM     48  C   UNL     1      -7.823   6.347  -6.022  1.00  0.00     0.074 A 
ATOM     49  C   UNL     1      -8.520   6.614  -4.770  1.00  0.00     0.031 C 
ATOM     50  C   UNL     1      -5.420  10.591  -7.881  1.00  0.00     0.029 A 
ATOM     51  C   UNL     1      -4.069  10.081  -7.987  1.00  0.00     0.049 A 
ATOM     52  H   UNL     1      -3.125   8.758  -6.583  1.00  0.00     0.167 HD
ATOM     53  C   UNL     1      -7.390   5.184  -6.570  1.00  0.00     0.037 A 
ATOM     54  C   UNL     1      -3.205  10.270  -9.054  1.00  0.00     0.037 A 
ATOM     55  C   UNL     1      -6.058   5.240  -7.193  1.00  0.00     0.049 A 
ATOM     56  C   UNL     1      -2.942   8.870  -9.485  1.00  0.00     0.074 A 
ATOM     57  C   UNL     1      -4.823   5.745  -6.835  1.00  0.00     0.029 A 
ATOM     58  N   UNL     1      -5.833   4.896  -8.513  1.00  0.00    -0.354 N 
ATOM     59  N   UNL     1      -3.627   8.229 -10.393  1.00  0.00    -0.248 NA
ATOM     60  C   UNL     1      -1.834   8.147  -8.879  1.00  0.00     0.031 C 
ATOM     61  C   UNL     1      -3.827   5.266  -7.693  1.00  0.00     0.029 A 
ATOM     62  C   UNL     1      -4.535   5.298  -8.870  1.00  0.00     0.049 A 
ATOM     63  H   UNL     1      -6.476   4.444  -9.105  1.00  0.00     0.167 HD
ATOM     64  C   UNL     1      -3.295   6.908 -10.167  1.00  0.00     0.074 A 
ATOM     65  C   UNL     1      -2.067   6.942  -9.389  1.00  0.00     0.031 C 
ATOM     66  C   UNL     1      -4.294   5.984 -10.116  1.00  0.00     0.037 A 
BRANCH  53  67
ATOM     67  C   UNL     1      -8.190   3.931  -6.453  1.00  0.00     0.057 A 
ATOM     68  C   UNL     1      -9.577   3.925  -6.205  1.00  0.00     0.134 A 
ATOM     69  C   UNL     1      -7.629   2.700  -6.819  1.00  0.00     0.134 A 
ATOM     70  F   UNL     1     -10.254   5.037  -5.888  1.00  0.00    -0.206 F 
ATOM     71  C   UNL     1     -10.359   2.785  -6.358  1.00  0.00     0.040 A 
ATOM     72  C   UNL     1      -8.415   1.572  -7.051  1.00  0.00     0.040 A 
ATOM     73  F   UNL     1      -6.311   2.563  -7.027  1.00  0.00    -0.206 F 
ATOM     74  C   UNL     1      -9.787   1.616  -6.832  1.00  0.00     0.006 A 
ENDBRANCH  53  67
BRANCH  54  75
ATOM     75  C   UNL     1      -2.799  11.176 -10.231  1.00  0.00     0.057 A 
ATOM     76  C   UNL     1      -3.545  11.970 -11.111  1.00  0.00     0.134 A 
ATOM     77  C   UNL     1      -1.416  11.097 -10.584  1.00  0.00     0.134 A 
ATOM     78  F   UNL     1      -4.862  12.142 -10.941  1.00  0.00    -0.206 F 
ATOM     79  C   UNL     1      -2.954  12.618 -12.243  1.00  0.00     0.040 A 
ATOM     80  C   UNL     1      -0.828  11.698 -11.711  1.00  0.00     0.040 A 
ATOM     81  F   UNL     1      -0.570  10.399  -9.809  1.00  0.00    -0.206 F 
ATOM     82  C   UNL     1      -1.599  12.474 -12.551  1.00  0.00     0.006 A 
ENDBRANCH  54  75
BRANCH  66  83
ATOM     83  C   UNL     1      -5.346   6.042 -11.152  1.00  0.00     0.057 A 
ATOM     84  C   UNL     1      -5.110   5.326 -12.323  1.00  0.00     0.134 A 
ATOM     85  C   UNL     1      -6.638   6.526 -10.912  1.00  0.00     0.134 A 
ATOM     86  F   UNL     1      -3.884   4.850 -12.591  1.00  0.00    -0.206 F 
ATOM     87  C   UNL     1      -6.152   5.000 -13.182  1.00  0.00     0.040 A 
ATOM     88  C   UNL     1      -7.695   6.177 -11.748  1.00  0.00     0.040 A 
ATOM     89  F   UNL     1      -6.925   7.209  -9.795  1.00  0.00    -0.206 F 
ATOM     90  C   UNL     1      -7.454   5.394 -12.876  1.00  0.00     0.006 A 
ENDBRANCH  66  83
ENDBRANCH  40  41
ENDBRANCH  32  35
ENDBRANCH  30  31
ENDBRANCH  29  30
ENDBRANCH   1  29
TORSDOF 14
