REMARK SMILES COc1ccc(C[N@@H+]2C[C@@H](C(=O)NCCCNC(=O)c3ccc(-c4c5nc(c(-c6c(F)cccc6F)c6ccc([nH]6)c(-c6c(F)cccc6F)c6nc(c(-c7c(F)cccc7F)c7ccc4[nH]7)C=C6)C=C5)cc3)[C@H](c3ccccc3OC)C2)c(OC)c1
REMARK SMILES IDX 14 1 13 2 11 3 12 4 10 6 8 7 9 8 83 9 74 11 7 12 6 13 3 14
REMARK SMILES IDX 4 15 87 16 5 17 84 18 2 19 1 20 85 21 86 22 75 23 76 24
REMARK SMILES IDX 80 25 77 26 79 27 78 28 81 29 82 30 15 31 16 32 17 33 18 34
REMARK SMILES IDX 19 36 20 37 21 38 73 39 22 40 72 41 23 42 24 43 25 44 66 45
REMARK SMILES IDX 26 46 71 47 65 48 67 49 27 50 70 51 64 52 63 53 28 55 54 56
REMARK SMILES IDX 37 57 53 58 38 59 41 60 52 61 68 62 39 63 40 64 51 66 69 67
REMARK SMILES IDX 42 68 29 69 30 70 35 71 31 72 32 73 34 74 36 75 33 76 55 77
REMARK SMILES IDX 56 78 61 79 57 80 58 81 60 82 62 83 59 84 43 85 44 86 49 87
REMARK SMILES IDX 45 88 46 89 48 90 50 91 47 92
REMARK H PARENT 13 5 8 10 17 35 67 54 41 65
REMARK Flexibility Score: inf
ROOT
ATOM      1  C   UNL     1      -0.436  -1.370   9.331  1.00  0.00     0.117 C 
ENDROOT
BRANCH   1   2
ATOM      2  N   UNL     1      -1.267  -1.049   8.186  1.00  0.00    -0.356 N 
ATOM      3  C   UNL     1      -1.013  -0.969   6.858  1.00  0.00     0.229 C 
ATOM      4  O   UNL     1      -1.981  -0.689   6.144  1.00  0.00    -0.275 OA
ATOM      5  H   UNL     1      -2.202  -0.850   8.421  1.00  0.00     0.163 HD
BRANCH   3   6
ATOM      6  C   UNL     1       0.316  -1.339   6.241  1.00  0.00     0.146 C 
ATOM      7  N   UNL     1       1.936  -3.093   6.298  1.00  0.00    -0.330 N 
ATOM      8  C   UNL     1       0.534  -2.824   6.548  1.00  0.00     0.276 C 
ATOM      9  C   UNL     1       2.636  -1.851   6.656  1.00  0.00     0.272 C 
ATOM     10  H   UNL     1       2.294  -3.854   6.876  1.00  0.00     0.348 HD
ATOM     11  C   UNL     1       1.644  -0.636   6.590  1.00  0.00     0.096 C 
BRANCH   7  12
ATOM     12  C   UNL     1       2.219  -3.674   4.968  1.00  0.00     0.303 C 
BRANCH  12  13
ATOM     13  C   UNL     1       1.789  -2.891   3.740  1.00  0.00     0.048 A 
ATOM     14  C   UNL     1       0.876  -1.099   1.782  1.00  0.00     0.122 A 
ATOM     15  C   UNL     1      -0.028  -1.918   2.443  1.00  0.00     0.047 A 
ATOM     16  C   UNL     1       2.244  -1.239   2.017  1.00  0.00     0.093 A 
ATOM     17  C   UNL     1       0.430  -2.846   3.375  1.00  0.00     0.017 A 
ATOM     18  C   UNL     1       2.707  -2.149   2.980  1.00  0.00     0.131 A 
BRANCH  14  19
ATOM     19  O   UNL     1       0.327  -0.116   1.006  1.00  0.00    -0.497 OA
ATOM     20  C   UNL     1       0.931   0.028  -0.271  1.00  0.00     0.278 C 
ENDBRANCH  14  19
BRANCH  18  21
ATOM     21  O   UNL     1       4.032  -2.321   3.290  1.00  0.00    -0.496 OA
ATOM     22  C   UNL     1       4.962  -2.020   2.256  1.00  0.00     0.278 C 
ENDBRANCH  18  21
ENDBRANCH  12  13
ENDBRANCH   7  12
BRANCH  11  23
ATOM     23  C   UNL     1       2.064   0.545   5.684  1.00  0.00     0.004 A 
ATOM     24  C   UNL     1       3.285   0.525   4.973  1.00  0.00     0.008 A 
ATOM     25  C   UNL     1       1.291   1.714   5.517  1.00  0.00     0.122 A 
ATOM     26  C   UNL     1       3.687   1.547   4.103  1.00  0.00     0.001 A 
ATOM     27  C   UNL     1       1.699   2.749   4.649  1.00  0.00     0.047 A 
ATOM     28  C   UNL     1       2.891   2.664   3.937  1.00  0.00     0.004 A 
BRANCH  25  29
ATOM     29  O   UNL     1       0.040   1.881   6.045  1.00  0.00    -0.496 OA
ATOM     30  C   UNL     1       0.013   2.113   7.446  1.00  0.00     0.278 C 
ENDBRANCH  25  29
ENDBRANCH  11  23
ENDBRANCH   3   6
ENDBRANCH   1   2
BRANCH   1  31
ATOM     31  C   UNL     1      -0.475  -0.276  10.386  1.00  0.00     0.042 C 
BRANCH  31  32
ATOM     32  C   UNL     1      -1.879   0.174  10.769  1.00  0.00     0.118 C 
BRANCH  32  33
ATOM     33  N   UNL     1      -2.697  -0.908  11.301  1.00  0.00    -0.352 N 
ATOM     34  C   UNL     1      -3.165  -1.120  12.572  1.00  0.00     0.251 C 
ATOM     35  H   UNL     1      -2.955  -1.595  10.644  1.00  0.00     0.163 HD
ATOM     36  O   UNL     1      -3.684  -2.200  12.861  1.00  0.00    -0.269 OA
BRANCH  34  37
ATOM     37  C   UNL     1      -3.020  -0.076  13.605  1.00  0.00     0.039 A 
ATOM     38  C   UNL     1      -2.625  -0.447  14.892  1.00  0.00     0.014 A 
ATOM     39  C   UNL     1      -3.270   1.266  13.310  1.00  0.00     0.014 A 
ATOM     40  C   UNL     1      -2.408   0.536  15.859  1.00  0.00     0.010 A 
ATOM     41  C   UNL     1      -2.951   2.249  14.239  1.00  0.00     0.010 A 
ATOM     42  C   UNL     1      -2.525   1.896  15.527  1.00  0.00    -0.014 A 
BRANCH  42  43
ATOM     43  C   UNL     1      -2.221   2.962  16.515  1.00  0.00     0.031 A 
ATOM     44  C   UNL     1      -3.293   3.933  16.931  1.00  0.00     0.074 A 
ATOM     45  C   UNL     1      -0.966   3.097  16.988  1.00  0.00     0.049 A 
ATOM     46  N   UNL     1      -3.205   4.974  17.720  1.00  0.00    -0.248 NA
ATOM     47  C   UNL     1      -4.634   3.725  16.362  1.00  0.00     0.031 C 
ATOM     48  C   UNL     1       0.173   2.251  16.625  1.00  0.00     0.029 A 
ATOM     49  N   UNL     1      -0.436   4.005  17.870  1.00  0.00    -0.354 N 
ATOM     50  C   UNL     1      -4.469   5.549  17.728  1.00  0.00     0.074 A 
ATOM     51  C   UNL     1      -5.290   4.781  16.819  1.00  0.00     0.031 C 
ATOM     52  C   UNL     1       1.259   2.662  17.299  1.00  0.00     0.029 A 
ATOM     53  C   UNL     1       0.906   3.825  18.106  1.00  0.00     0.049 A 
ATOM     54  H   UNL     1      -0.966   4.718  18.294  1.00  0.00     0.167 HD
ATOM     55  C   UNL     1      -4.915   6.604  18.449  1.00  0.00     0.037 A 
ATOM     56  C   UNL     1       1.758   4.525  18.879  1.00  0.00     0.037 A 
ATOM     57  C   UNL     1      -4.103   7.352  19.372  1.00  0.00     0.049 A 
ATOM     58  C   UNL     1       1.242   5.705  19.656  1.00  0.00     0.074 A 
ATOM     59  C   UNL     1      -4.476   8.400  20.195  1.00  0.00     0.029 A 
ATOM     60  N   UNL     1      -2.751   7.132  19.591  1.00  0.00    -0.354 N 
ATOM     61  N   UNL     1       0.026   6.193  19.709  1.00  0.00    -0.248 NA
ATOM     62  C   UNL     1       2.216   6.429  20.485  1.00  0.00     0.031 C 
ATOM     63  C   UNL     1      -3.338   8.849  20.873  1.00  0.00     0.029 A 
ATOM     64  C   UNL     1      -2.269   8.043  20.516  1.00  0.00     0.049 A 
ATOM     65  H   UNL     1      -2.214   6.432  19.154  1.00  0.00     0.167 HD
ATOM     66  C   UNL     1       0.083   7.260  20.596  1.00  0.00     0.074 A 
ATOM     67  C   UNL     1       1.448   7.337  21.071  1.00  0.00     0.031 C 
ATOM     68  C   UNL     1      -0.907   8.103  20.983  1.00  0.00     0.037 A 
BRANCH  55  69
ATOM     69  C   UNL     1      -6.350   7.011  18.270  1.00  0.00     0.057 A 
ATOM     70  C   UNL     1      -7.409   6.211  18.723  1.00  0.00     0.134 A 
ATOM     71  C   UNL     1      -6.678   8.232  17.669  1.00  0.00     0.134 A 
ATOM     72  F   UNL     1      -7.166   5.023  19.297  1.00  0.00    -0.206 F 
ATOM     73  C   UNL     1      -8.740   6.598  18.559  1.00  0.00     0.040 A 
ATOM     74  C   UNL     1      -8.005   8.644  17.527  1.00  0.00     0.040 A 
ATOM     75  F   UNL     1      -5.716   9.050  17.217  1.00  0.00    -0.206 F 
ATOM     76  C   UNL     1      -9.040   7.822  17.966  1.00  0.00     0.006 A 
ENDBRANCH  55  69
BRANCH  56  77
ATOM     77  C   UNL     1       3.186   4.125  18.969  1.00  0.00     0.057 A 
ATOM     78  C   UNL     1       3.717   3.606  20.156  1.00  0.00     0.134 A 
ATOM     79  C   UNL     1       4.057   4.266  17.882  1.00  0.00     0.134 A 
ATOM     80  F   UNL     1       2.938   3.464  21.238  1.00  0.00    -0.206 F 
ATOM     81  C   UNL     1       5.066   3.267  20.268  1.00  0.00     0.040 A 
ATOM     82  C   UNL     1       5.402   3.904  17.971  1.00  0.00     0.040 A 
ATOM     83  F   UNL     1       3.610   4.748  16.713  1.00  0.00    -0.206 F 
ATOM     84  C   UNL     1       5.912   3.411  19.170  1.00  0.00     0.006 A 
ENDBRANCH  56  77
BRANCH  68  85
ATOM     85  C   UNL     1      -0.557   9.157  21.993  1.00  0.00     0.057 A 
ATOM     86  C   UNL     1       0.251  10.255  21.669  1.00  0.00     0.134 A 
ATOM     87  C   UNL     1      -1.067   9.092  23.296  1.00  0.00     0.134 A 
ATOM     88  F   UNL     1       0.782  10.371  20.443  1.00  0.00    -0.206 F 
ATOM     89  C   UNL     1       0.559  11.236  22.613  1.00  0.00     0.040 A 
ATOM     90  C   UNL     1      -0.791  10.083  24.239  1.00  0.00     0.040 A 
ATOM     91  F   UNL     1      -1.856   8.073  23.669  1.00  0.00    -0.206 F 
ATOM     92  C   UNL     1       0.031  11.155  23.900  1.00  0.00     0.006 A 
ENDBRANCH  68  85
ENDBRANCH  42  43
ENDBRANCH  34  37
ENDBRANCH  32  33
ENDBRANCH  31  32
ENDBRANCH   1  31
TORSDOF 16
