REMARK SMILES Cc1ccccc1[C@@H]1[NH2+][C@@H](C(=O)NCCCNC(=O)c2ccc(-c3c4nc(c(-c5c(F)cccc5F)c5ccc([nH]5)c(-c5c(F)cccc5F)c5nc(c(-c6c(F)cccc6F)c6ccc3[nH]6)C=C5)C=C4)cc2)CC2=c3ccccc3=N[C@@H]21
REMARK SMILES IDX 15 1 14 2 13 3 11 4 12 5 10 7 8 8 9 9 83 10 75 13 82 14
REMARK SMILES IDX 74 15 76 16 81 17 77 18 80 19 78 20 79 21 7 22 1 23 2 24
REMARK SMILES IDX 3 25 4 26 6 27 5 28 16 29 17 30 18 31 19 33 20 34 21 35
REMARK SMILES IDX 73 36 22 37 72 38 23 39 24 40 25 41 66 42 26 43 71 44 65 45
REMARK SMILES IDX 67 46 27 47 70 48 64 49 63 50 28 52 54 53 37 54 53 55 38 56
REMARK SMILES IDX 41 57 52 58 68 59 39 60 40 61 51 63 69 64 42 65 29 66 30 67
REMARK SMILES IDX 35 68 31 69 32 70 34 71 36 72 33 73 55 74 56 75 61 76 57 77
REMARK SMILES IDX 58 78 60 79 62 80 59 81 43 82 44 83 49 84 45 85 46 86 48 87
REMARK SMILES IDX 50 88 47 89
REMARK H PARENT 13 6 9 11 9 12 17 32 67 51 41 62
REMARK Flexibility Score: inf
ROOT
ATOM      1  C   UNL     1       3.856   5.369  -1.318  1.00  0.00     0.042 C 
ENDROOT
BRANCH   1   2
ATOM      2  C   UNL     1       2.832   6.526  -1.466  1.00  0.00     0.118 C 
BRANCH   2   3
ATOM      3  N   UNL     1       1.451   6.575  -0.946  1.00  0.00    -0.351 N 
ATOM      4  C   UNL     1       0.936   6.337   0.331  1.00  0.00     0.278 C 
ATOM      5  O   UNL     1      -0.031   6.961   0.756  1.00  0.00    -0.268 OA
ATOM      6  H   UNL     1       0.774   6.820  -1.617  1.00  0.00     0.163 HD
BRANCH   4   7
ATOM      7  C   UNL     1       1.588   5.180   1.062  1.00  0.00     0.277 C 
ATOM      8  C   UNL     1       0.670   2.876   0.739  1.00  0.00     0.243 C 
ATOM      9  N   UNL     1       1.375   4.041   0.153  1.00  0.00    -0.327 N 
ATOM     10  C   UNL     1       1.716   2.304   1.779  1.00  0.00     0.196 C 
ATOM     11  H   UNL     1       0.827   4.372  -0.641  1.00  0.00     0.347 HD
ATOM     12  H   UNL     1       2.305   3.707  -0.097  1.00  0.00     0.347 HD
ATOM     13  C   UNL     1       2.215   3.504   2.630  1.00  0.00    -0.024 C 
ATOM     14  N   UNL     1       2.971   1.829   1.099  1.00  0.00    -0.270 NA
ATOM     15  C   UNL     1       1.375   4.790   2.538  1.00  0.00     0.109 C 
ATOM     16  C   UNL     1       3.557   3.581   2.624  1.00  0.00     0.002 A 
ATOM     17  C   UNL     1       3.916   2.571   1.600  1.00  0.00     0.066 A 
ATOM     18  C   UNL     1       4.433   4.698   2.881  1.00  0.00     0.010 A 
ATOM     19  C   UNL     1       5.311   2.628   1.089  1.00  0.00     0.028 A 
ATOM     20  C   UNL     1       5.627   4.758   2.270  1.00  0.00     0.001 A 
ATOM     21  C   UNL     1       6.081   3.686   1.403  1.00  0.00     0.002 A 
BRANCH   8  22
ATOM     22  C   UNL     1      -0.003   2.120  -0.427  1.00  0.00     0.015 A 
ATOM     23  C   UNL     1      -1.520   0.662   1.045  1.00  0.00     0.045 C 
ATOM     24  C   UNL     1      -1.086   1.226  -0.275  1.00  0.00    -0.042 A 
ATOM     25  C   UNL     1      -1.935   0.954  -1.381  1.00  0.00     0.004 A 
ATOM     26  C   UNL     1      -1.747   1.563  -2.615  1.00  0.00     0.000 A 
ATOM     27  C   UNL     1       0.207   2.628  -1.730  1.00  0.00     0.010 A 
ATOM     28  C   UNL     1      -0.675   2.409  -2.774  1.00  0.00     0.001 A 
ENDBRANCH   8  22
ENDBRANCH   4   7
ENDBRANCH   2   3
ENDBRANCH   1   2
BRANCH   1  29
ATOM     29  C   UNL     1       3.801   4.168  -2.278  1.00  0.00     0.118 C 
BRANCH  29  30
ATOM     30  N   UNL     1       5.144   3.596  -2.498  1.00  0.00    -0.352 N 
ATOM     31  C   UNL     1       5.550   2.534  -3.289  1.00  0.00     0.251 C 
ATOM     32  H   UNL     1       5.869   4.042  -2.003  1.00  0.00     0.163 HD
ATOM     33  O   UNL     1       6.733   2.320  -3.480  1.00  0.00    -0.269 OA
BRANCH  31  34
ATOM     34  C   UNL     1       4.527   1.718  -3.973  1.00  0.00     0.039 A 
ATOM     35  C   UNL     1       4.568   1.629  -5.369  1.00  0.00     0.014 A 
ATOM     36  C   UNL     1       3.468   1.173  -3.252  1.00  0.00     0.014 A 
ATOM     37  C   UNL     1       3.422   1.237  -6.059  1.00  0.00     0.010 A 
ATOM     38  C   UNL     1       2.331   0.781  -3.939  1.00  0.00     0.010 A 
ATOM     39  C   UNL     1       2.271   0.924  -5.332  1.00  0.00    -0.014 A 
BRANCH  39  40
ATOM     40  C   UNL     1       0.937   1.065  -5.912  1.00  0.00     0.031 A 
ATOM     41  C   UNL     1       0.061  -0.063  -6.260  1.00  0.00     0.074 A 
ATOM     42  C   UNL     1       0.421   2.311  -5.994  1.00  0.00     0.049 A 
ATOM     43  N   UNL     1      -0.913   0.036  -7.104  1.00  0.00    -0.248 NA
ATOM     44  C   UNL     1       0.202  -1.389  -5.682  1.00  0.00     0.031 C 
ATOM     45  C   UNL     1      -0.981   2.693  -6.166  1.00  0.00     0.029 A 
ATOM     46  N   UNL     1       1.098   3.527  -5.965  1.00  0.00    -0.354 N 
ATOM     47  C   UNL     1      -1.703  -1.074  -6.950  1.00  0.00     0.074 A 
ATOM     48  C   UNL     1      -0.919  -1.973  -6.125  1.00  0.00     0.031 C 
ATOM     49  C   UNL     1      -1.053   4.011  -6.405  1.00  0.00     0.029 A 
ATOM     50  C   UNL     1       0.300   4.482  -6.620  1.00  0.00     0.049 A 
ATOM     51  H   UNL     1       1.980   3.690  -5.559  1.00  0.00     0.167 HD
ATOM     52  C   UNL     1      -2.992  -1.066  -7.404  1.00  0.00     0.037 A 
ATOM     53  C   UNL     1       0.751   5.039  -7.784  1.00  0.00     0.037 A 
ATOM     54  C   UNL     1      -3.382   0.227  -7.978  1.00  0.00     0.049 A 
ATOM     55  C   UNL     1      -0.056   4.644  -9.010  1.00  0.00     0.074 A 
ATOM     56  C   UNL     1      -4.170   1.282  -7.543  1.00  0.00     0.029 A 
ATOM     57  N   UNL     1      -2.718   0.702  -9.096  1.00  0.00    -0.354 N 
ATOM     58  N   UNL     1      -1.128   3.900  -8.987  1.00  0.00    -0.248 NA
ATOM     59  C   UNL     1       0.349   4.977 -10.377  1.00  0.00     0.031 C 
ATOM     60  C   UNL     1      -3.990   2.382  -8.431  1.00  0.00     0.029 A 
ATOM     61  C   UNL     1      -3.088   1.999  -9.405  1.00  0.00     0.049 A 
ATOM     62  H   UNL     1      -2.061   0.180  -9.610  1.00  0.00     0.167 HD
ATOM     63  C   UNL     1      -1.477   3.557 -10.265  1.00  0.00     0.074 A 
ATOM     64  C   UNL     1      -0.539   4.279 -11.104  1.00  0.00     0.031 C 
ATOM     65  C   UNL     1      -2.464   2.655 -10.544  1.00  0.00     0.037 A 
BRANCH  52  66
ATOM     66  C   UNL     1      -3.968  -2.173  -7.084  1.00  0.00     0.057 A 
ATOM     67  C   UNL     1      -5.341  -1.926  -6.898  1.00  0.00     0.134 A 
ATOM     68  C   UNL     1      -3.596  -3.521  -6.934  1.00  0.00     0.134 A 
ATOM     69  F   UNL     1      -5.882  -0.724  -7.130  1.00  0.00    -0.206 F 
ATOM     70  C   UNL     1      -6.239  -2.909  -6.462  1.00  0.00     0.040 A 
ATOM     71  C   UNL     1      -4.469  -4.503  -6.444  1.00  0.00     0.040 A 
ATOM     72  F   UNL     1      -2.378  -3.950  -7.294  1.00  0.00    -0.206 F 
ATOM     73  C   UNL     1      -5.796  -4.193  -6.188  1.00  0.00     0.006 A 
ENDBRANCH  52  66
BRANCH  53  74
ATOM     74  C   UNL     1       2.229   5.238  -7.757  1.00  0.00     0.057 A 
ATOM     75  C   UNL     1       2.771   6.102  -6.784  1.00  0.00     0.134 A 
ATOM     76  C   UNL     1       3.102   4.321  -8.351  1.00  0.00     0.134 A 
ATOM     77  F   UNL     1       1.985   6.992  -6.156  1.00  0.00    -0.206 F 
ATOM     78  C   UNL     1       4.088   5.976  -6.337  1.00  0.00     0.040 A 
ATOM     79  C   UNL     1       4.429   4.202  -7.925  1.00  0.00     0.040 A 
ATOM     80  F   UNL     1       2.659   3.444  -9.262  1.00  0.00    -0.206 F 
ATOM     81  C   UNL     1       4.912   5.001  -6.889  1.00  0.00     0.006 A 
ENDBRANCH  53  74
BRANCH  65  82
ATOM     82  C   UNL     1      -2.889   2.301 -11.942  1.00  0.00     0.057 A 
ATOM     83  C   UNL     1      -3.053   3.265 -12.947  1.00  0.00     0.134 A 
ATOM     84  C   UNL     1      -3.263   0.989 -12.296  1.00  0.00     0.134 A 
ATOM     85  F   UNL     1      -2.818   4.564 -12.706  1.00  0.00    -0.206 F 
ATOM     86  C   UNL     1      -3.489   2.936 -14.237  1.00  0.00     0.040 A 
ATOM     87  C   UNL     1      -3.747   0.656 -13.563  1.00  0.00     0.040 A 
ATOM     88  F   UNL     1      -3.157  -0.033 -11.435  1.00  0.00    -0.206 F 
ATOM     89  C   UNL     1      -3.845   1.628 -14.546  1.00  0.00     0.006 A 
ENDBRANCH  65  82
ENDBRANCH  39  40
ENDBRANCH  31  34
ENDBRANCH  29  30
ENDBRANCH   1  29
TORSDOF 11
