REMARK SMILES C[C@H]1[C@H](C(=O)NCCCNC(=O)c2ccc(-c3c4nc(c(-c5c(F)cccc5F)c5ccc([nH]5)c(-c5c(F)cccc5F)c5nc(c(-c6c(F)cccc6F)c6ccc3[nH]6)C=C5)C=C4)cc2)CCN1C(=O)NCc1cnn(C)c1
REMARK SMILES IDX 7 1 6 2 4 3 5 4 3 6 1 7 2 8 69 9 67 10 68 11 70 12 71 13
REMARK SMILES IDX 72 14 73 16 74 17 75 18 79 19 76 20 77 21 78 22 8 23 9 24
REMARK SMILES IDX 10 25 11 26 12 28 13 29 14 30 66 31 15 32 65 33 16 34 17 35
REMARK SMILES IDX 18 36 59 37 19 38 64 39 58 40 60 41 20 42 63 43 57 44 56 45
REMARK SMILES IDX 21 47 47 48 30 49 46 50 31 51 34 52 45 53 61 54 32 55 33 56
REMARK SMILES IDX 44 58 62 59 35 60 22 61 23 62 28 63 24 64 25 65 27 66 29 67
REMARK SMILES IDX 26 68 48 69 49 70 54 71 50 72 51 73 53 74 55 75 52 76 36 77
REMARK SMILES IDX 37 78 42 79 38 80 39 81 41 82 43 83 40 84
REMARK H PARENT 6 5 72 15 10 27 60 46 34 57
REMARK Flexibility Score: inf
ROOT
ATOM      1  C   UNL     1      -1.361   0.637   2.812  1.00  0.00     0.117 C 
ENDROOT
BRANCH   1   2
ATOM      2  N   UNL     1      -0.803   1.891   2.336  1.00  0.00    -0.356 N 
ATOM      3  C   UNL     1      -0.286   2.266   1.139  1.00  0.00     0.225 C 
ATOM      4  O   UNL     1       0.141   3.422   1.058  1.00  0.00    -0.275 OA
ATOM      5  H   UNL     1      -0.799   2.607   3.012  1.00  0.00     0.163 HD
BRANCH   3   6
ATOM      6  C   UNL     1      -0.169   1.342  -0.063  1.00  0.00     0.102 C 
ATOM      7  C   UNL     1       1.889   0.260  -1.008  1.00  0.00     0.032 C 
ATOM      8  C   UNL     1       0.878   0.238   0.146  1.00  0.00     0.096 C 
ATOM      9  N   UNL     1       0.123  -1.010   0.144  1.00  0.00    -0.321 N 
ATOM     10  C   UNL     1      -1.459   0.657  -0.505  1.00  0.00     0.037 C 
ATOM     11  C   UNL     1      -1.132  -0.828  -0.570  1.00  0.00     0.122 C 
BRANCH   9  12
ATOM     12  C   UNL     1       0.399  -2.231   0.673  1.00  0.00     0.317 C 
ATOM     13  O   UNL     1      -0.422  -3.153   0.605  1.00  0.00    -0.249 OA
ATOM     14  N   UNL     1       1.538  -2.532   1.310  1.00  0.00    -0.334 N 
ATOM     15  H   UNL     1       1.483  -3.417   1.736  1.00  0.00     0.165 HD
BRANCH  14  16
ATOM     16  C   UNL     1       2.826  -1.918   1.545  1.00  0.00     0.157 C 
BRANCH  16  17
ATOM     17  C   UNL     1       3.060  -1.819   3.007  1.00  0.00     0.009 A 
ATOM     18  C   UNL     1       3.296  -0.643   3.757  1.00  0.00     0.140 A 
ATOM     19  C   UNL     1       3.132  -2.829   3.949  1.00  0.00     0.113 A 
ATOM     20  N   UNL     1       3.461  -0.883   5.058  1.00  0.00    -0.181 NA
ATOM     21  N   UNL     1       3.383  -2.223   5.146  1.00  0.00    -0.275 N 
ATOM     22  C   UNL     1       3.553  -2.864   6.427  1.00  0.00     0.173 C 
ENDBRANCH  16  17
ENDBRANCH  14  16
ENDBRANCH   9  12
ENDBRANCH   3   6
ENDBRANCH   1   2
BRANCH   1  23
ATOM     23  C   UNL     1      -0.454  -0.069   3.811  1.00  0.00     0.042 C 
BRANCH  23  24
ATOM     24  C   UNL     1      -0.220   0.689   5.114  1.00  0.00     0.118 C 
BRANCH  24  25
ATOM     25  N   UNL     1      -1.444   0.882   5.880  1.00  0.00    -0.352 N 
ATOM     26  C   UNL     1      -1.769   0.503   7.157  1.00  0.00     0.251 C 
ATOM     27  H   UNL     1      -2.157   1.364   5.401  1.00  0.00     0.163 HD
ATOM     28  O   UNL     1      -2.933   0.621   7.538  1.00  0.00    -0.269 OA
BRANCH  26  29
ATOM     29  C   UNL     1      -0.757  -0.055   8.083  1.00  0.00     0.039 A 
ATOM     30  C   UNL     1      -1.143  -1.086   8.947  1.00  0.00     0.014 A 
ATOM     31  C   UNL     1       0.539   0.461   8.160  1.00  0.00     0.014 A 
ATOM     32  C   UNL     1      -0.223  -1.631   9.846  1.00  0.00     0.010 A 
ATOM     33  C   UNL     1       1.477  -0.128   9.009  1.00  0.00     0.010 A 
ATOM     34  C   UNL     1       1.104  -1.175   9.864  1.00  0.00    -0.014 A 
BRANCH  34  35
ATOM     35  C   UNL     1       2.113  -1.784  10.767  1.00  0.00     0.031 A 
ATOM     36  C   UNL     1       2.729  -0.978  11.877  1.00  0.00     0.074 A 
ATOM     37  C   UNL     1       2.525  -3.048  10.548  1.00  0.00     0.049 A 
ATOM     38  N   UNL     1       3.666  -1.320  12.726  1.00  0.00    -0.248 NA
ATOM     39  C   UNL     1       2.237   0.398  12.047  1.00  0.00     0.031 C 
ATOM     40  C   UNL     1       2.029  -3.930   9.490  1.00  0.00     0.029 A 
ATOM     41  N   UNL     1       3.473  -3.803  11.192  1.00  0.00    -0.354 N 
ATOM     42  C   UNL     1       3.875  -0.205  13.527  1.00  0.00     0.074 A 
ATOM     43  C   UNL     1       3.008   0.841  13.030  1.00  0.00     0.031 C 
ATOM     44  C   UNL     1       2.687  -5.098   9.546  1.00  0.00     0.029 A 
ATOM     45  C   UNL     1       3.656  -5.045  10.637  1.00  0.00     0.049 A 
ATOM     46  H   UNL     1       3.974  -3.484  11.977  1.00  0.00     0.167 HD
ATOM     47  C   UNL     1       4.695  -0.073  14.598  1.00  0.00     0.037 A 
ATOM     48  C   UNL     1       4.510  -6.032  10.966  1.00  0.00     0.037 A 
ATOM     49  C   UNL     1       5.546  -1.117  15.106  1.00  0.00     0.049 A 
ATOM     50  C   UNL     1       5.417  -5.860  12.150  1.00  0.00     0.074 A 
ATOM     51  C   UNL     1       6.367  -1.096  16.220  1.00  0.00     0.029 A 
ATOM     52  N   UNL     1       5.686  -2.370  14.530  1.00  0.00    -0.354 N 
ATOM     53  N   UNL     1       5.553  -4.824  12.941  1.00  0.00    -0.248 NA
ATOM     54  C   UNL     1       6.272  -7.002  12.501  1.00  0.00     0.031 C 
ATOM     55  C   UNL     1       7.029  -2.327  16.299  1.00  0.00     0.029 A 
ATOM     56  C   UNL     1       6.592  -3.126  15.255  1.00  0.00     0.049 A 
ATOM     57  H   UNL     1       5.211  -2.677  13.724  1.00  0.00     0.167 HD
ATOM     58  C   UNL     1       6.486  -5.197  13.898  1.00  0.00     0.074 A 
ATOM     59  C   UNL     1       6.876  -6.559  13.594  1.00  0.00     0.031 C 
ATOM     60  C   UNL     1       6.972  -4.479  14.939  1.00  0.00     0.037 A 
BRANCH  47  61
ATOM     61  C   UNL     1       4.697   1.252  15.302  1.00  0.00     0.057 A 
ATOM     62  C   UNL     1       3.614   1.665  16.090  1.00  0.00     0.134 A 
ATOM     63  C   UNL     1       5.800   2.110  15.219  1.00  0.00     0.134 A 
ATOM     64  F   UNL     1       2.522   0.893  16.203  1.00  0.00    -0.206 F 
ATOM     65  C   UNL     1       3.618   2.896  16.750  1.00  0.00     0.040 A 
ATOM     66  C   UNL     1       5.825   3.333  15.892  1.00  0.00     0.040 A 
ATOM     67  F   UNL     1       6.872   1.772  14.487  1.00  0.00    -0.206 F 
ATOM     68  C   UNL     1       4.729   3.731  16.655  1.00  0.00     0.006 A 
ENDBRANCH  47  61
BRANCH  48  69
ATOM     69  C   UNL     1       4.521  -7.286  10.176  1.00  0.00     0.057 A 
ATOM     70  C   UNL     1       3.978  -8.468  10.691  1.00  0.00     0.134 A 
ATOM     71  C   UNL     1       5.062  -7.328   8.886  1.00  0.00     0.134 A 
ATOM     72  F   UNL     1       3.457  -8.488  11.926  1.00  0.00    -0.206 F 
ATOM     73  C   UNL     1       3.989  -9.655   9.958  1.00  0.00     0.040 A 
ATOM     74  C   UNL     1       5.064  -8.504   8.135  1.00  0.00     0.040 A 
ATOM     75  F   UNL     1       5.580  -6.222   8.331  1.00  0.00    -0.206 F 
ATOM     76  C   UNL     1       4.531  -9.674   8.674  1.00  0.00     0.006 A 
ENDBRANCH  48  69
BRANCH  60  77
ATOM     77  C   UNL     1       7.959  -5.162  15.837  1.00  0.00     0.057 A 
ATOM     78  C   UNL     1       9.281  -5.393  15.438  1.00  0.00     0.134 A 
ATOM     79  C   UNL     1       7.588  -5.576  17.122  1.00  0.00     0.134 A 
ATOM     80  F   UNL     1       9.694  -5.034  14.212  1.00  0.00    -0.206 F 
ATOM     81  C   UNL     1      10.194  -6.032  16.278  1.00  0.00     0.040 A 
ATOM     82  C   UNL     1       8.498  -6.196  17.979  1.00  0.00     0.040 A 
ATOM     83  F   UNL     1       6.337  -5.380  17.567  1.00  0.00    -0.206 F 
ATOM     84  C   UNL     1       9.804  -6.431  17.555  1.00  0.00     0.006 A 
ENDBRANCH  60  77
ENDBRANCH  34  35
ENDBRANCH  26  29
ENDBRANCH  24  25
ENDBRANCH  23  24
ENDBRANCH   1  23
TORSDOF 13
