REMARK SMILES O=C(NCCCNC(=O)[C@H]1CCCC[C@H]1C(=O)N1CCN(S(=O)(=O)c2ccc(F)cc2)CC1)c1ccc(-c2c3nc(c(-c4c(F)cccc4F)c4ccc([nH]4)c(-c4c(F)cccc4F)c4nc(c(-c5c(F)cccc5F)c5ccc2[nH]5)C=C4)C=C3)cc1
REMARK SMILES IDX 5 1 4 2 3 3 1 4 2 5 34 7 35 8 87 9 36 10 86 11 37 12 38 13
REMARK SMILES IDX 39 14 80 15 40 16 85 17 79 18 81 19 41 20 84 21 78 22 77 23
REMARK SMILES IDX 42 25 68 26 51 27 67 28 52 29 55 30 66 31 82 32 53 33 54 34
REMARK SMILES IDX 65 36 83 37 56 38 43 39 44 40 49 41 45 42 46 43 48 44 50 45
REMARK SMILES IDX 47 46 69 47 70 48 75 49 71 50 72 51 74 52 76 53 73 54 57 55
REMARK SMILES IDX 58 56 63 57 59 58 60 59 62 60 64 61 61 62 6 63 7 64 8 65
REMARK SMILES IDX 9 67 10 68 11 69 15 70 12 71 14 72 13 73 16 74 17 75 18 76
REMARK SMILES IDX 19 77 33 78 20 79 32 80 21 81 22 82 23 83 24 84 25 85 26 86
REMARK SMILES IDX 31 87 27 88 30 89 28 90 29 91
REMARK H PARENT 3 6 81 24 55 35 7 66
REMARK Flexibility Score: inf
ROOT
ATOM      1  C   UNL     1       9.091   3.223  -0.116  1.00  0.00     0.042 C 
ENDROOT
BRANCH   1   2
ATOM      2  C   UNL     1       8.843   2.874  -1.572  1.00  0.00     0.118 C 
BRANCH   2   3
ATOM      3  N   UNL     1       9.735   3.590  -2.477  1.00  0.00    -0.352 N 
ATOM      4  O   UNL     1      11.657   3.930  -3.622  1.00  0.00    -0.269 OA
ATOM      5  C   UNL     1      10.889   3.145  -3.079  1.00  0.00     0.251 C 
ATOM      6  H   UNL     1       9.476   4.517  -2.684  1.00  0.00     0.163 HD
BRANCH   5   7
ATOM      7  C   UNL     1      11.191   1.702  -3.046  1.00  0.00     0.039 A 
ATOM      8  C   UNL     1      10.168   0.789  -3.303  1.00  0.00     0.014 A 
ATOM      9  C   UNL     1      12.477   1.256  -2.738  1.00  0.00     0.014 A 
ATOM     10  C   UNL     1      10.373  -0.555  -3.058  1.00  0.00     0.010 A 
ATOM     11  C   UNL     1      12.722  -0.117  -2.645  1.00  0.00     0.010 A 
ATOM     12  C   UNL     1      11.666  -1.029  -2.791  1.00  0.00    -0.014 A 
BRANCH  12  13
ATOM     13  C   UNL     1      11.889  -2.492  -2.842  1.00  0.00     0.031 A 
ATOM     14  C   UNL     1      12.367  -3.263  -1.650  1.00  0.00     0.074 A 
ATOM     15  C   UNL     1      11.604  -3.116  -4.004  1.00  0.00     0.049 A 
ATOM     16  N   UNL     1      12.609  -4.545  -1.556  1.00  0.00    -0.248 NA
ATOM     17  C   UNL     1      12.611  -2.514  -0.407  1.00  0.00     0.031 C 
ATOM     18  C   UNL     1      11.137  -2.446  -5.225  1.00  0.00     0.029 A 
ATOM     19  N   UNL     1      11.631  -4.440  -4.351  1.00  0.00    -0.354 N 
ATOM     20  C   UNL     1      13.053  -4.755  -0.258  1.00  0.00     0.074 A 
ATOM     21  C   UNL     1      13.059  -3.467   0.402  1.00  0.00     0.031 C 
ATOM     22  C   UNL     1      10.861  -3.363  -6.158  1.00  0.00     0.029 A 
ATOM     23  C   UNL     1      11.232  -4.673  -5.645  1.00  0.00     0.049 A 
ATOM     24  H   UNL     1      11.910  -5.155  -3.734  1.00  0.00     0.167 HD
ATOM     25  C   UNL     1      13.419  -5.924   0.316  1.00  0.00     0.037 A 
ATOM     26  C   UNL     1      11.206  -5.810  -6.363  1.00  0.00     0.037 A 
ATOM     27  C   UNL     1      13.381  -7.199  -0.356  1.00  0.00     0.049 A 
ATOM     28  C   UNL     1      11.657  -7.076  -5.705  1.00  0.00     0.074 A 
ATOM     29  C   UNL     1      13.689  -8.447   0.157  1.00  0.00     0.029 A 
ATOM     30  N   UNL     1      13.020  -7.388  -1.682  1.00  0.00    -0.354 N 
ATOM     31  N   UNL     1      12.049  -7.263  -4.468  1.00  0.00    -0.248 NA
ATOM     32  C   UNL     1      11.682  -8.284  -6.537  1.00  0.00     0.031 C 
ATOM     33  C   UNL     1      13.569  -9.383  -0.872  1.00  0.00     0.029 A 
ATOM     34  C   UNL     1      13.132  -8.728  -2.013  1.00  0.00     0.049 A 
ATOM     35  H   UNL     1      12.726  -6.676  -2.296  1.00  0.00     0.167 HD
ATOM     36  C   UNL     1      12.366  -8.608  -4.371  1.00  0.00     0.074 A 
ATOM     37  C   UNL     1      12.091  -9.197  -5.667  1.00  0.00     0.031 C 
ATOM     38  C   UNL     1      12.854  -9.291  -3.309  1.00  0.00     0.037 A 
BRANCH  25  39
ATOM     39  C   UNL     1      13.901  -5.911   1.736  1.00  0.00     0.057 A 
ATOM     40  C   UNL     1      15.245  -6.179   2.030  1.00  0.00     0.134 A 
ATOM     41  C   UNL     1      13.017  -5.782   2.814  1.00  0.00     0.134 A 
ATOM     42  F   UNL     1      16.142  -6.322   1.042  1.00  0.00    -0.206 F 
ATOM     43  C   UNL     1      15.686  -6.351   3.343  1.00  0.00     0.040 A 
ATOM     44  C   UNL     1      13.451  -5.932   4.133  1.00  0.00     0.040 A 
ATOM     45  F   UNL     1      11.719  -5.517   2.601  1.00  0.00    -0.206 F 
ATOM     46  C   UNL     1      14.786  -6.234   4.399  1.00  0.00     0.006 A 
ENDBRANCH  25  39
BRANCH  26  47
ATOM     47  C   UNL     1      10.785  -5.773  -7.785  1.00  0.00     0.057 A 
ATOM     48  C   UNL     1      11.535  -5.082  -8.748  1.00  0.00     0.134 A 
ATOM     49  C   UNL     1       9.609  -6.397  -8.213  1.00  0.00     0.134 A 
ATOM     50  F   UNL     1      12.667  -4.451  -8.400  1.00  0.00    -0.206 F 
ATOM     51  C   UNL     1      11.120  -4.992 -10.076  1.00  0.00     0.040 A 
ATOM     52  C   UNL     1       9.199  -6.345  -9.546  1.00  0.00     0.040 A 
ATOM     53  F   UNL     1       8.854  -7.083  -7.343  1.00  0.00    -0.206 F 
ATOM     54  C   UNL     1       9.951  -5.633 -10.480  1.00  0.00     0.006 A 
ENDBRANCH  26  47
BRANCH  38  55
ATOM     55  C   UNL     1      13.119 -10.753  -3.500  1.00  0.00     0.057 A 
ATOM     56  C   UNL     1      12.318 -11.713  -2.870  1.00  0.00     0.134 A 
ATOM     57  C   UNL     1      14.214 -11.205  -4.246  1.00  0.00     0.134 A 
ATOM     58  F   UNL     1      11.260 -11.342  -2.134  1.00  0.00    -0.206 F 
ATOM     59  C   UNL     1      12.610 -13.074  -2.959  1.00  0.00     0.040 A 
ATOM     60  C   UNL     1      14.499 -12.565  -4.365  1.00  0.00     0.040 A 
ATOM     61  F   UNL     1      15.008 -10.333  -4.885  1.00  0.00    -0.206 F 
ATOM     62  C   UNL     1      13.702 -13.502  -3.710  1.00  0.00     0.006 A 
ENDBRANCH  38  55
ENDBRANCH  12  13
ENDBRANCH   5   7
ENDBRANCH   2   3
ENDBRANCH   1   2
BRANCH   1  63
ATOM     63  C   UNL     1       8.707   4.646   0.225  1.00  0.00     0.117 C 
BRANCH  63  64
ATOM     64  N   UNL     1       7.332   4.940  -0.119  1.00  0.00    -0.356 N 
ATOM     65  C   UNL     1       6.665   6.045   0.305  1.00  0.00     0.223 C 
ATOM     66  H   UNL     1       6.852   4.302  -0.695  1.00  0.00     0.163 HD
ATOM     67  O   UNL     1       6.283   6.802  -0.583  1.00  0.00    -0.275 OA
BRANCH  65  68
ATOM     68  C   UNL     1       6.347   6.231   1.788  1.00  0.00     0.091 C 
ATOM     69  C   UNL     1       7.574   6.796   2.525  1.00  0.00     0.014 C 
ATOM     70  C   UNL     1       5.200   7.234   2.042  1.00  0.00     0.091 C 
ATOM     71  C   UNL     1       8.034   8.091   1.863  1.00  0.00     0.001 C 
ATOM     72  C   UNL     1       5.518   8.642   1.502  1.00  0.00     0.014 C 
ATOM     73  C   UNL     1       6.926   9.144   1.859  1.00  0.00     0.001 C 
BRANCH  70  74
ATOM     74  C   UNL     1       3.727   6.857   1.767  1.00  0.00     0.226 C 
ATOM     75  O   UNL     1       2.900   6.988   2.675  1.00  0.00    -0.275 OA
ATOM     76  N   UNL     1       3.307   6.619   0.477  1.00  0.00    -0.340 N 
ATOM     77  C   UNL     1       2.033   7.192   0.027  1.00  0.00     0.136 C 
ATOM     78  C   UNL     1       3.667   5.417  -0.261  1.00  0.00     0.136 C 
ATOM     79  C   UNL     1       2.045   7.465  -1.493  1.00  0.00     0.124 C 
ATOM     80  C   UNL     1       3.761   5.729  -1.760  1.00  0.00     0.124 C 
ATOM     81  N   UNL     1       2.471   6.260  -2.299  1.00  0.00    -0.194 NA
BRANCH  81  82
ATOM     82  S   UNL     1       1.225   5.157  -2.651  1.00  0.00     0.243 S 
ATOM     83  O   UNL     1       0.925   4.404  -1.454  1.00  0.00    -0.207 OA
ATOM     84  O   UNL     1       0.185   5.886  -3.348  1.00  0.00    -0.207 OA
BRANCH  82  85
ATOM     85  C   UNL     1       1.968   4.026  -3.815  1.00  0.00     0.082 A 
ATOM     86  C   UNL     1       2.759   2.970  -3.336  1.00  0.00     0.025 A 
ATOM     87  C   UNL     1       1.709   4.152  -5.184  1.00  0.00     0.025 A 
ATOM     88  C   UNL     1       3.367   2.096  -4.237  1.00  0.00     0.040 A 
ATOM     89  C   UNL     1       2.291   3.249  -6.077  1.00  0.00     0.040 A 
ATOM     90  C   UNL     1       3.127   2.243  -5.598  1.00  0.00     0.123 A 
ATOM     91  F   UNL     1       3.705   1.397  -6.460  1.00  0.00    -0.207 F 
ENDBRANCH  82  85
ENDBRANCH  81  82
ENDBRANCH  70  74
ENDBRANCH  65  68
ENDBRANCH  63  64
ENDBRANCH   1  63
TORSDOF 13
