REMARK SMILES C[C@@H]1Oc2c(C(=O)NCCCNC(=O)c3ccc(-c4c5nc(c(-c6c(F)cccc6F)c6ccc([nH]6)c(-c6c(F)cccc6F)c6nc(c(-c7c(F)cccc7F)c7ccc4[nH]7)C=C6)C=C5)cc3)cccc2[C@@H]1C
REMARK SMILES IDX 11 1 10 2 9 3 8 4 6 5 7 6 5 8 1 9 2 10 3 11 73 12 4 13 72 14
REMARK SMILES IDX 74 15 71 16 69 17 70 18 12 19 13 20 14 22 15 23 16 24 68 25
REMARK SMILES IDX 17 26 67 27 18 28 19 29 20 30 61 31 21 32 66 33 60 34 62 35
REMARK SMILES IDX 22 36 65 37 59 38 58 39 23 41 49 42 32 43 48 44 33 45 36 46
REMARK SMILES IDX 47 47 63 48 34 49 35 50 46 52 64 53 37 54 24 55 25 56 30 57
REMARK SMILES IDX 26 58 27 59 29 60 31 61 28 62 50 63 51 64 56 65 52 66 53 67
REMARK SMILES IDX 55 68 57 69 54 70 38 71 39 72 44 73 40 74 41 75 43 76 45 77
REMARK SMILES IDX 42 78
REMARK H PARENT 8 7 12 21 62 40 36 51
REMARK Flexibility Score: inf
ROOT
ATOM      1  C   UNL     1      -7.106  -3.377  -4.549  1.00  0.00     0.118 C 
ENDROOT
BRANCH   1   2
ATOM      2  C   UNL     1      -6.674  -2.049  -3.932  1.00  0.00     0.042 C 
BRANCH   2   3
ATOM      3  C   UNL     1      -6.030  -2.208  -2.554  1.00  0.00     0.118 C 
BRANCH   3   4
ATOM      4  N   UNL     1      -4.668  -2.695  -2.676  1.00  0.00    -0.352 N 
ATOM      5  C   UNL     1      -3.438  -2.084  -2.727  1.00  0.00     0.255 C 
ATOM      6  O   UNL     1      -2.483  -2.843  -2.896  1.00  0.00    -0.269 OA
ATOM      7  H   UNL     1      -4.614  -3.676  -2.735  1.00  0.00     0.163 HD
BRANCH   5   8
ATOM      8  C   UNL     1      -3.226  -0.611  -2.579  1.00  0.00     0.082 A 
ATOM      9  C   UNL     1       1.476  -0.418  -2.040  1.00  0.00     0.053 C 
ATOM     10  C   UNL     1       0.148   0.007  -1.427  1.00  0.00     0.177 C 
ATOM     11  O   UNL     1      -0.875  -0.898  -1.909  1.00  0.00    -0.489 OA
ATOM     12  C   UNL     1      -0.290   1.463  -1.700  1.00  0.00     0.060 C 
ATOM     13  C   UNL     1      -1.981  -0.129  -2.169  1.00  0.00     0.136 A 
ATOM     14  C   UNL     1      -1.725   1.232  -2.026  1.00  0.00     0.001 A 
ATOM     15  C   UNL     1       0.419   2.182  -2.845  1.00  0.00     0.017 C 
ATOM     16  C   UNL     1      -2.710   2.176  -2.254  1.00  0.00     0.008 A 
ATOM     17  C   UNL     1      -4.194   0.358  -2.882  1.00  0.00     0.018 A 
ATOM     18  C   UNL     1      -3.951   1.732  -2.695  1.00  0.00     0.001 A 
ENDBRANCH   5   8
ENDBRANCH   3   4
ENDBRANCH   2   3
ENDBRANCH   1   2
BRANCH   1  19
ATOM     19  N   UNL     1      -8.306  -3.913  -3.918  1.00  0.00    -0.352 N 
ATOM     20  C   UNL     1      -9.521  -4.252  -4.469  1.00  0.00     0.251 C 
ATOM     21  H   UNL     1      -8.237  -4.055  -2.946  1.00  0.00     0.163 HD
ATOM     22  O   UNL     1     -10.471  -4.502  -3.739  1.00  0.00    -0.269 OA
BRANCH  20  23
ATOM     23  C   UNL     1      -9.691  -4.286  -5.939  1.00  0.00     0.039 A 
ATOM     24  C   UNL     1      -8.716  -4.847  -6.765  1.00  0.00     0.014 A 
ATOM     25  C   UNL     1     -10.860  -3.758  -6.499  1.00  0.00     0.014 A 
ATOM     26  C   UNL     1      -8.829  -4.732  -8.147  1.00  0.00     0.010 A 
ATOM     27  C   UNL     1     -11.009  -3.716  -7.889  1.00  0.00     0.010 A 
ATOM     28  C   UNL     1      -9.972  -4.156  -8.725  1.00  0.00    -0.014 A 
BRANCH  28  29
ATOM     29  C   UNL     1     -10.046  -4.000 -10.202  1.00  0.00     0.031 A 
ATOM     30  C   UNL     1     -10.065  -2.629 -10.825  1.00  0.00     0.074 A 
ATOM     31  C   UNL     1     -10.036  -5.094 -10.987  1.00  0.00     0.049 A 
ATOM     32  N   UNL     1     -10.111  -2.296 -12.091  1.00  0.00    -0.248 NA
ATOM     33  C   UNL     1     -10.033  -1.480  -9.907  1.00  0.00     0.031 C 
ATOM     34  C   UNL     1     -10.008  -6.477 -10.507  1.00  0.00     0.029 A 
ATOM     35  N   UNL     1     -10.027  -5.216 -12.353  1.00  0.00    -0.354 N 
ATOM     36  C   UNL     1     -10.127  -0.907 -12.121  1.00  0.00     0.074 A 
ATOM     37  C   UNL     1     -10.122  -0.458 -10.745  1.00  0.00     0.031 C 
ATOM     38  C   UNL     1      -9.939  -7.306 -11.560  1.00  0.00     0.029 A 
ATOM     39  C   UNL     1      -9.976  -6.518 -12.787  1.00  0.00     0.049 A 
ATOM     40  H   UNL     1     -10.054  -4.444 -12.964  1.00  0.00     0.167 HD
ATOM     41  C   UNL     1     -10.129  -0.080 -13.194  1.00  0.00     0.037 A 
ATOM     42  C   UNL     1      -9.976  -7.022 -14.035  1.00  0.00     0.037 A 
ATOM     43  C   UNL     1     -10.120  -0.525 -14.563  1.00  0.00     0.049 A 
ATOM     44  C   UNL     1     -10.032  -6.084 -15.206  1.00  0.00     0.074 A 
ATOM     45  C   UNL     1     -10.105   0.236 -15.720  1.00  0.00     0.029 A 
ATOM     46  N   UNL     1     -10.125  -1.854 -14.961  1.00  0.00    -0.354 N 
ATOM     47  N   UNL     1     -10.037  -4.773 -15.216  1.00  0.00    -0.248 NA
ATOM     48  C   UNL     1     -10.094  -6.698 -16.540  1.00  0.00     0.031 C 
ATOM     49  C   UNL     1     -10.141  -0.633 -16.817  1.00  0.00     0.029 A 
ATOM     50  C   UNL     1     -10.136  -1.935 -16.344  1.00  0.00     0.049 A 
ATOM     51  H   UNL     1     -10.121  -2.626 -14.350  1.00  0.00     0.167 HD
ATOM     52  C   UNL     1     -10.092  -4.405 -16.554  1.00  0.00     0.074 A 
ATOM     53  C   UNL     1     -10.092  -5.631 -17.326  1.00  0.00     0.031 C 
ATOM     54  C   UNL     1     -10.145  -3.164 -17.095  1.00  0.00     0.037 A 
BRANCH  41  55
ATOM     55  C   UNL     1     -10.158   1.397 -12.925  1.00  0.00     0.057 A 
ATOM     56  C   UNL     1     -11.308   2.151 -13.194  1.00  0.00     0.134 A 
ATOM     57  C   UNL     1      -9.042   2.080 -12.422  1.00  0.00     0.134 A 
ATOM     58  F   UNL     1     -12.409   1.562 -13.682  1.00  0.00    -0.206 F 
ATOM     59  C   UNL     1     -11.348   3.528 -12.970  1.00  0.00     0.040 A 
ATOM     60  C   UNL     1      -9.078   3.453 -12.172  1.00  0.00     0.040 A 
ATOM     61  F   UNL     1      -7.914   1.416 -12.130  1.00  0.00    -0.206 F 
ATOM     62  C   UNL     1     -10.232   4.182 -12.451  1.00  0.00     0.006 A 
ENDBRANCH  41  55
BRANCH  42  63
ATOM     63  C   UNL     1      -9.938  -8.491 -14.242  1.00  0.00     0.057 A 
ATOM     64  C   UNL     1     -11.030  -9.301 -13.905  1.00  0.00     0.134 A 
ATOM     65  C   UNL     1      -8.816  -9.118 -14.794  1.00  0.00     0.134 A 
ATOM     66  F   UNL     1     -12.134  -8.761 -13.369  1.00  0.00    -0.206 F 
ATOM     67  C   UNL     1     -11.002 -10.682 -14.099  1.00  0.00     0.040 A 
ATOM     68  C   UNL     1      -8.784 -10.495 -15.018  1.00  0.00     0.040 A 
ATOM     69  F   UNL     1      -7.748  -8.392 -15.157  1.00  0.00    -0.206 F 
ATOM     70  C   UNL     1      -9.879 -11.282 -14.665  1.00  0.00     0.006 A 
ENDBRANCH  42  63
BRANCH  54  71
ATOM     71  C   UNL     1     -10.193  -3.080 -18.592  1.00  0.00     0.057 A 
ATOM     72  C   UNL     1      -9.079  -2.648 -19.322  1.00  0.00     0.134 A 
ATOM     73  C   UNL     1     -11.347  -3.420 -19.310  1.00  0.00     0.134 A 
ATOM     74  F   UNL     1      -7.946  -2.302 -18.693  1.00  0.00    -0.206 F 
ATOM     75  C   UNL     1      -9.110  -2.560 -20.714  1.00  0.00     0.040 A 
ATOM     76  C   UNL     1     -11.382  -3.360 -20.704  1.00  0.00     0.040 A 
ATOM     77  F   UNL     1     -12.442  -3.857 -18.670  1.00  0.00    -0.206 F 
ATOM     78  C   UNL     1     -10.261  -2.924 -21.409  1.00  0.00     0.006 A 
ENDBRANCH  54  71
ENDBRANCH  28  29
ENDBRANCH  20  23
ENDBRANCH   1  19
TORSDOF 10
