REMARK SMILES [NH3+][C@H](CSCc1ccco1)C(=O)NCCCNC(=O)c1ccc(-c2c3nc(c(-c4c(F)cccc4F)c4ccc([nH]4)c(-c4c(F)cccc4F)c4nc(c(-c5c(F)cccc5F)c5ccc2[nH]5)C=C4)C=C3)cc1
REMARK SMILES IDX 14 1 13 2 11 3 12 4 2 6 1 7 3 11 4 12 5 13 6 14 7 15 10 16
REMARK SMILES IDX 8 17 9 18 15 19 16 20 17 21 18 22 19 24 20 25 21 26 73 27
REMARK SMILES IDX 22 28 72 29 23 30 24 31 25 32 66 33 26 34 71 35 65 36 67 37
REMARK SMILES IDX 27 38 70 39 64 40 63 41 28 43 54 44 37 45 53 46 38 47 41 48
REMARK SMILES IDX 52 49 68 50 39 51 40 52 51 54 69 55 42 56 29 57 30 58 35 59
REMARK SMILES IDX 31 60 32 61 34 62 36 63 33 64 55 65 56 66 61 67 57 68 58 69
REMARK SMILES IDX 60 70 62 71 59 72 43 73 44 74 49 75 45 76 46 77 48 78 50 79
REMARK SMILES IDX 47 80
REMARK H PARENT 13 5 1 8 1 9 1 10 17 23 67 42 41 53
REMARK Flexibility Score: inf
ROOT
ATOM      1  C   UNL     1      -1.176   0.584   2.180  1.00  0.00     0.118 C 
ENDROOT
BRANCH   1   2
ATOM      2  N   UNL     1      -1.710  -0.371   1.226  1.00  0.00    -0.351 N 
ATOM      3  C   UNL     1      -1.091  -1.283   0.425  1.00  0.00     0.279 C 
ATOM      4  O   UNL     1      -1.798  -1.897  -0.378  1.00  0.00    -0.268 OA
ATOM      5  H   UNL     1      -2.691  -0.358   1.144  1.00  0.00     0.163 HD
BRANCH   3   6
ATOM      6  C   UNL     1       0.423  -1.558   0.529  1.00  0.00     0.280 C 
BRANCH   6   7
ATOM      7  N   UNL     1       0.769  -1.930   1.921  1.00  0.00    -0.347 N 
ATOM      8  H   UNL     1       0.191  -2.716   2.216  1.00  0.00     0.345 HD
ATOM      9  H   UNL     1       0.602  -1.134   2.537  1.00  0.00     0.345 HD
ATOM     10  H   UNL     1       1.753  -2.195   1.968  1.00  0.00     0.345 HD
ENDBRANCH   6   7
BRANCH   6  11
ATOM     11  C   UNL     1       1.205  -0.381  -0.082  1.00  0.00     0.145 C 
BRANCH  11  12
ATOM     12  S   UNL     1       2.976  -0.647  -0.483  1.00  0.00    -0.147 SA
BRANCH  12  13
ATOM     13  C   UNL     1       3.656  -1.285   1.076  1.00  0.00     0.145 C 
BRANCH  13  14
ATOM     14  C   UNL     1       3.594  -0.397   2.275  1.00  0.00     0.113 A 
ATOM     15  C   UNL     1       4.134  -0.539   3.541  1.00  0.00     0.046 A 
ATOM     16  O   UNL     1       2.867   0.759   2.224  1.00  0.00    -0.468 OA
ATOM     17  C   UNL     1       3.724   0.590   4.289  1.00  0.00     0.042 A 
ATOM     18  C   UNL     1       2.961   1.353   3.440  1.00  0.00     0.195 A 
ENDBRANCH  13  14
ENDBRANCH  12  13
ENDBRANCH  11  12
ENDBRANCH   6  11
ENDBRANCH   3   6
ENDBRANCH   1   2
BRANCH   1  19
ATOM     19  C   UNL     1      -1.475   2.018   1.763  1.00  0.00     0.042 C 
BRANCH  19  20
ATOM     20  C   UNL     1      -2.960   2.361   1.773  1.00  0.00     0.118 C 
BRANCH  20  21
ATOM     21  N   UNL     1      -3.546   2.271   3.104  1.00  0.00    -0.352 N 
ATOM     22  C   UNL     1      -4.113   3.246   3.889  1.00  0.00     0.251 C 
ATOM     23  H   UNL     1      -3.533   1.371   3.504  1.00  0.00     0.163 HD
ATOM     24  O   UNL     1      -4.364   3.014   5.065  1.00  0.00    -0.269 OA
BRANCH  22  25
ATOM     25  C   UNL     1      -4.396   4.580   3.320  1.00  0.00     0.039 A 
ATOM     26  C   UNL     1      -4.077   5.715   4.070  1.00  0.00     0.014 A 
ATOM     27  C   UNL     1      -4.970   4.713   2.054  1.00  0.00     0.014 A 
ATOM     28  C   UNL     1      -4.254   6.983   3.513  1.00  0.00     0.010 A 
ATOM     29  C   UNL     1      -5.067   5.971   1.468  1.00  0.00     0.010 A 
ATOM     30  C   UNL     1      -4.703   7.118   2.189  1.00  0.00    -0.014 A 
BRANCH  30  31
ATOM     31  C   UNL     1      -4.767   8.445   1.528  1.00  0.00     0.031 A 
ATOM     32  C   UNL     1      -6.083   8.995   1.053  1.00  0.00     0.074 A 
ATOM     33  C   UNL     1      -3.626   9.119   1.284  1.00  0.00     0.049 A 
ATOM     34  N   UNL     1      -6.326  10.089   0.377  1.00  0.00    -0.248 NA
ATOM     35  C   UNL     1      -7.281   8.197   1.356  1.00  0.00     0.031 C 
ATOM     36  C   UNL     1      -2.282   8.670   1.656  1.00  0.00     0.029 A 
ATOM     37  N   UNL     1      -3.410  10.318   0.652  1.00  0.00    -0.354 N 
ATOM     38  C   UNL     1      -7.698  10.105   0.165  1.00  0.00     0.074 A 
ATOM     39  C   UNL     1      -8.228   8.886   0.737  1.00  0.00     0.031 C 
ATOM     40  C   UNL     1      -1.387   9.590   1.265  1.00  0.00     0.029 A 
ATOM     41  C   UNL     1      -2.084  10.668   0.572  1.00  0.00     0.049 A 
ATOM     42  H   UNL     1      -4.137  10.874   0.291  1.00  0.00     0.167 HD
ATOM     43  C   UNL     1      -8.450  11.059  -0.433  1.00  0.00     0.037 A 
ATOM     44  C   UNL     1      -1.494  11.728  -0.010  1.00  0.00     0.037 A 
ATOM     45  C   UNL     1      -7.918  12.276  -0.991  1.00  0.00     0.049 A 
ATOM     46  C   UNL     1      -2.348  12.756  -0.699  1.00  0.00     0.074 A 
ATOM     47  C   UNL     1      -8.604  13.331  -1.567  1.00  0.00     0.029 A 
ATOM     48  N   UNL     1      -6.570  12.595  -1.053  1.00  0.00    -0.354 N 
ATOM     49  N   UNL     1      -3.652  12.795  -0.829  1.00  0.00    -0.248 NA
ATOM     50  C   UNL     1      -1.649  13.888  -1.322  1.00  0.00     0.031 C 
ATOM     51  C   UNL     1      -7.667  14.262  -2.028  1.00  0.00     0.029 A 
ATOM     52  C   UNL     1      -6.401  13.815  -1.687  1.00  0.00     0.049 A 
ATOM     53  H   UNL     1      -5.840  12.037  -0.698  1.00  0.00     0.167 HD
ATOM     54  C   UNL     1      -3.931  13.963  -1.525  1.00  0.00     0.074 A 
ATOM     55  C   UNL     1      -2.662  14.615  -1.772  1.00  0.00     0.031 C 
ATOM     56  C   UNL     1      -5.130  14.452  -1.927  1.00  0.00     0.037 A 
BRANCH  43  57
ATOM     57  C   UNL     1      -9.931  10.823  -0.519  1.00  0.00     0.057 A 
ATOM     58  C   UNL     1     -10.752  10.847   0.616  1.00  0.00     0.134 A 
ATOM     59  C   UNL     1     -10.550  10.607  -1.757  1.00  0.00     0.134 A 
ATOM     60  F   UNL     1     -10.223  11.039   1.834  1.00  0.00    -0.206 F 
ATOM     61  C   UNL     1     -12.129  10.637   0.527  1.00  0.00     0.040 A 
ATOM     62  C   UNL     1     -11.930  10.425  -1.862  1.00  0.00     0.040 A 
ATOM     63  F   UNL     1      -9.826  10.578  -2.886  1.00  0.00    -0.206 F 
ATOM     64  C   UNL     1     -12.723  10.433  -0.717  1.00  0.00     0.006 A 
ENDBRANCH  43  57
BRANCH  44  65
ATOM     65  C   UNL     1      -0.016  11.877   0.034  1.00  0.00     0.057 A 
ATOM     66  C   UNL     1       0.585  12.899   0.778  1.00  0.00     0.134 A 
ATOM     67  C   UNL     1       0.829  11.012  -0.672  1.00  0.00     0.134 A 
ATOM     68  F   UNL     1      -0.172  13.771   1.461  1.00  0.00    -0.206 F 
ATOM     69  C   UNL     1       1.970  13.071   0.800  1.00  0.00     0.040 A 
ATOM     70  C   UNL     1       2.217  11.155  -0.636  1.00  0.00     0.040 A 
ATOM     71  F   UNL     1       0.317  10.007  -1.398  1.00  0.00    -0.206 F 
ATOM     72  C   UNL     1       2.790  12.193   0.095  1.00  0.00     0.006 A 
ENDBRANCH  44  65
BRANCH  56  73
ATOM     73  C   UNL     1      -5.128  15.766  -2.653  1.00  0.00     0.057 A 
ATOM     74  C   UNL     1      -4.637  15.890  -3.959  1.00  0.00     0.134 A 
ATOM     75  C   UNL     1      -5.656  16.916  -2.050  1.00  0.00     0.134 A 
ATOM     76  F   UNL     1      -4.104  14.831  -4.588  1.00  0.00    -0.206 F 
ATOM     77  C   UNL     1      -4.649  17.114  -4.630  1.00  0.00     0.040 A 
ATOM     78  C   UNL     1      -5.701  18.138  -2.722  1.00  0.00     0.040 A 
ATOM     79  F   UNL     1      -6.151  16.866  -0.804  1.00  0.00    -0.206 F 
ATOM     80  C   UNL     1      -5.189  18.241  -4.014  1.00  0.00     0.006 A 
ENDBRANCH  56  73
ENDBRANCH  30  31
ENDBRANCH  22  25
ENDBRANCH  20  21
ENDBRANCH  19  20
ENDBRANCH   1  19
TORSDOF 15
