REMARK SMILES Cc1c(CC(=O)N[C@H](CO)C(=O)NCCCNC(=O)c2ccc(-c3c4nc(c(-c5c(F)cccc5F)c5ccc([nH]5)c(-c5c(F)cccc5F)c5nc(c(-c6c(F)cccc6F)c6ccc3[nH]6)C=C5)C=C4)cc2)cc(-c2ccc(S(C)(=O)=O)cc2)n1-c1cccc(F)c1
REMARK SMILES IDX 11 1 12 2 13 3 8 5 7 6 5 7 6 8 4 10 3 11 1 12 2 13 86 14
REMARK SMILES IDX 74 15 75 16 87 17 88 18 93 19 89 20 91 21 90 22 92 23 76 24
REMARK SMILES IDX 77 25 85 26 78 27 84 28 79 29 80 30 81 31 82 32 83 33 9 34
REMARK SMILES IDX 10 35 14 37 15 38 16 39 17 40 18 41 19 43 20 44 21 45 73 46
REMARK SMILES IDX 22 47 72 48 23 49 24 50 25 51 66 52 26 53 71 54 65 55 67 56
REMARK SMILES IDX 27 57 70 58 64 59 63 60 28 62 54 63 37 64 53 65 38 66 41 67
REMARK SMILES IDX 52 68 68 69 39 70 40 71 51 73 69 74 42 75 29 76 30 77 35 78
REMARK SMILES IDX 31 79 32 80 34 81 36 82 33 83 55 84 56 85 61 86 57 87 58 88
REMARK SMILES IDX 60 89 62 90 59 91 43 92 44 93 49 94 45 95 46 96 48 97 50 98
REMARK SMILES IDX 47 99
REMARK H PARENT 13 4 7 9 10 36 17 42 67 61 41 72
REMARK Flexibility Score: inf
ROOT
ATOM      1  C   UNL     1       3.358  -4.116  -2.125  1.00  0.00     0.244 C 
ATOM      2  O   UNL     1       2.857  -5.128  -2.609  1.00  0.00    -0.273 OA
ATOM      3  N   UNL     1       4.595  -4.172  -1.591  1.00  0.00    -0.354 N 
ATOM      4  H   UNL     1       4.933  -5.095  -1.524  1.00  0.00     0.163 HD
ENDROOT
BRANCH   1   5
ATOM      5  C   UNL     1       2.767  -2.766  -2.217  1.00  0.00     0.197 C 
BRANCH   5   6
ATOM      6  N   UNL     1       3.471  -2.029  -3.307  1.00  0.00    -0.342 N 
ATOM      7  C   UNL     1       4.653  -2.097  -4.003  1.00  0.00     0.225 C 
ATOM      8  O   UNL     1       4.783  -1.175  -4.827  1.00  0.00    -0.275 OA
ATOM      9  H   UNL     1       2.927  -1.270  -3.620  1.00  0.00     0.164 HD
BRANCH   7  10
ATOM     10  C   UNL     1       5.792  -3.181  -3.943  1.00  0.00     0.137 C 
BRANCH  10  11
ATOM     11  C   UNL     1       6.617  -3.142  -2.660  1.00  0.00    -0.017 A 
ATOM     12  C   UNL     1       7.055  -0.209  -2.368  1.00  0.00     0.065 C 
ATOM     13  C   UNL     1       6.944  -1.586  -1.799  1.00  0.00     0.024 A 
ATOM     14  N   UNL     1       7.109  -1.927  -0.019  1.00  0.00    -0.313 N 
ATOM     15  C   UNL     1       6.743  -4.574  -1.283  1.00  0.00     0.033 A 
ATOM     16  C   UNL     1       7.009  -3.737   0.314  1.00  0.00     0.053 A 
BRANCH  14  17
ATOM     17  C   UNL     1       7.691  -1.009   0.919  1.00  0.00     0.049 A 
ATOM     18  C   UNL     1       8.806  -1.456   1.652  1.00  0.00     0.027 A 
ATOM     19  C   UNL     1       7.216   0.287   1.094  1.00  0.00     0.065 A 
ATOM     20  C   UNL     1       9.471  -0.608   2.532  1.00  0.00     0.005 A 
ATOM     21  C   UNL     1       7.859   1.105   2.031  1.00  0.00     0.125 A 
ATOM     22  C   UNL     1       8.985   0.677   2.735  1.00  0.00     0.039 A 
ATOM     23  F   UNL     1       7.379   2.333   2.274  1.00  0.00    -0.207 F 
ENDBRANCH  14  17
BRANCH  16  24
ATOM     24  C   UNL     1       6.831  -4.238   1.679  1.00  0.00    -0.001 A 
ATOM     25  C   UNL     1       6.375  -3.421   2.732  1.00  0.00     0.011 A 
ATOM     26  C   UNL     1       7.080  -5.576   1.930  1.00  0.00     0.011 A 
ATOM     27  C   UNL     1       6.333  -3.895   4.043  1.00  0.00     0.021 A 
ATOM     28  C   UNL     1       6.991  -6.068   3.227  1.00  0.00     0.021 A 
ATOM     29  C   UNL     1       6.688  -5.214   4.285  1.00  0.00     0.067 A 
BRANCH  29  30
ATOM     30  S   UNL     1       6.757  -5.810   5.949  1.00  0.00     0.175 S 
ATOM     31  C   UNL     1       7.954  -4.773   6.752  1.00  0.00     0.163 C 
ATOM     32  O   UNL     1       5.460  -5.570   6.544  1.00  0.00    -0.224 OA
ATOM     33  O   UNL     1       7.317  -7.141   5.900  1.00  0.00    -0.224 OA
ENDBRANCH  29  30
ENDBRANCH  16  24
ENDBRANCH  10  11
ENDBRANCH   7  10
ENDBRANCH   5   6
BRANCH   5  34
ATOM     34  C   UNL     1       2.707  -2.176  -0.783  1.00  0.00     0.191 C 
BRANCH  34  35
ATOM     35  O   UNL     1       1.401  -2.300  -0.211  1.00  0.00    -0.394 OA
ATOM     36  H   UNL     1       0.763  -1.809  -0.752  1.00  0.00     0.210 HD
ENDBRANCH  34  35
ENDBRANCH   5  34
ENDBRANCH   1   5
BRANCH   3  37
ATOM     37  C   UNL     1       5.748  -2.996  -0.985  1.00  0.00     0.117 C 
BRANCH  37  38
ATOM     38  C   UNL     1       8.007  -3.186  -1.278  1.00  0.00     0.042 C 
BRANCH  38  39
ATOM     39  C   UNL     1       8.991  -4.696  -1.229  1.00  0.00     0.118 C 
BRANCH  39  40
ATOM     40  N   UNL     1      10.385  -4.492  -0.932  1.00  0.00    -0.352 N 
ATOM     41  C   UNL     1      11.113  -4.967   0.152  1.00  0.00     0.251 C 
ATOM     42  H   UNL     1      10.886  -3.946  -1.580  1.00  0.00     0.163 HD
ATOM     43  O   UNL     1      12.237  -4.482   0.299  1.00  0.00    -0.269 OA
BRANCH  41  44
ATOM     44  C   UNL     1      10.558  -5.933   1.225  1.00  0.00     0.039 A 
ATOM     45  C   UNL     1      10.563  -5.486   2.533  1.00  0.00     0.014 A 
ATOM     46  C   UNL     1      10.172  -7.290   1.113  1.00  0.00     0.014 A 
ATOM     47  C   UNL     1      10.085  -6.311   3.635  1.00  0.00     0.010 A 
ATOM     48  C   UNL     1       9.778  -8.177   2.292  1.00  0.00     0.010 A 
ATOM     49  C   UNL     1       9.668  -7.723   3.635  1.00  0.00    -0.014 A 
BRANCH  49  50
ATOM     50  C   UNL     1       9.652  -8.559   5.214  1.00  0.00     0.031 A 
ATOM     51  C   UNL     1      10.936  -7.931   5.676  1.00  0.00     0.074 A 
ATOM     52  C   UNL     1       9.072  -9.571   6.117  1.00  0.00     0.049 A 
ATOM     53  N   UNL     1      11.935  -8.097   4.846  1.00  0.00    -0.248 NA
ATOM     54  C   UNL     1      11.131  -6.766   6.548  1.00  0.00     0.031 C 
ATOM     55  C   UNL     1       7.992 -10.578   5.863  1.00  0.00     0.029 A 
ATOM     56  N   UNL     1       9.310  -9.995   7.555  1.00  0.00    -0.354 N 
ATOM     57  C   UNL     1      13.006  -7.389   5.306  1.00  0.00     0.074 A 
ATOM     58  C   UNL     1      12.377  -6.402   6.185  1.00  0.00     0.031 C 
ATOM     59  C   UNL     1       7.574 -11.291   6.972  1.00  0.00     0.029 A 
ATOM     60  C   UNL     1       8.329 -10.984   8.199  1.00  0.00     0.049 A 
ATOM     61  H   UNL     1      10.076  -9.643   8.063  1.00  0.00     0.167 HD
ATOM     62  C   UNL     1      14.028  -8.255   5.573  1.00  0.00     0.037 A 
ATOM     63  C   UNL     1       8.233 -11.596   9.519  1.00  0.00     0.037 A 
ATOM     64  C   UNL     1      13.883  -8.794   6.903  1.00  0.00     0.049 A 
ATOM     65  C   UNL     1       9.619 -11.662   9.959  1.00  0.00     0.074 A 
ATOM     66  C   UNL     1      13.484  -8.206   8.096  1.00  0.00     0.029 A 
ATOM     67  N   UNL     1      13.591 -10.133   7.007  1.00  0.00    -0.354 N 
ATOM     68  N   UNL     1      10.467 -12.515   9.480  1.00  0.00    -0.248 NA
ATOM     69  C   UNL     1      10.110 -10.698  10.925  1.00  0.00     0.031 C 
ATOM     70  C   UNL     1      12.466  -9.059   8.551  1.00  0.00     0.029 A 
ATOM     71  C   UNL     1      12.769 -10.326   8.085  1.00  0.00     0.049 A 
ATOM     72  H   UNL     1      13.919 -10.838   6.404  1.00  0.00     0.167 HD
ATOM     73  C   UNL     1      11.598 -11.767   9.528  1.00  0.00     0.074 A 
ATOM     74  C   UNL     1      11.396 -10.779  10.591  1.00  0.00     0.031 C 
ATOM     75  C   UNL     1      12.268 -11.630   8.359  1.00  0.00     0.037 A 
BRANCH  62  76
ATOM     76  C   UNL     1      14.360  -9.099   4.348  1.00  0.00     0.057 A 
ATOM     77  C   UNL     1      15.556  -8.852   3.684  1.00  0.00     0.134 A 
ATOM     78  C   UNL     1      13.475 -10.021   3.729  1.00  0.00     0.134 A 
ATOM     79  F   UNL     1      16.464  -8.021   4.218  1.00  0.00    -0.206 F 
ATOM     80  C   UNL     1      15.844  -9.446   2.450  1.00  0.00     0.040 A 
ATOM     81  C   UNL     1      13.714 -10.553   2.462  1.00  0.00     0.040 A 
ATOM     82  F   UNL     1      12.351 -10.442   4.334  1.00  0.00    -0.206 F 
ATOM     83  C   UNL     1      14.909 -10.269   1.820  1.00  0.00     0.006 A 
ENDBRANCH  62  76
BRANCH  63  84
ATOM     84  C   UNL     1       7.436 -12.427  10.726  1.00  0.00     0.057 A 
ATOM     85  C   UNL     1       8.111 -13.238  11.745  1.00  0.00     0.134 A 
ATOM     86  C   UNL     1       6.167 -12.043  11.187  1.00  0.00     0.134 A 
ATOM     87  F   UNL     1       9.346 -13.726  11.550  1.00  0.00    -0.206 F 
ATOM     88  C   UNL     1       7.607 -13.543  13.053  1.00  0.00     0.040 A 
ATOM     89  C   UNL     1       5.649 -12.357  12.498  1.00  0.00     0.040 A 
ATOM     90  F   UNL     1       5.396 -11.263  10.422  1.00  0.00    -0.206 F 
ATOM     91  C   UNL     1       6.370 -13.078  13.446  1.00  0.00     0.006 A 
ENDBRANCH  63  84
BRANCH  75  92
ATOM     92  C   UNL     1      12.309 -12.789   7.397  1.00  0.00     0.057 A 
ATOM     93  C   UNL     1      11.213 -13.382   6.745  1.00  0.00     0.134 A 
ATOM     94  C   UNL     1      13.558 -13.353   7.125  1.00  0.00     0.134 A 
ATOM     95  F   UNL     1       9.983 -12.870   6.833  1.00  0.00    -0.206 F 
ATOM     96  C   UNL     1      11.349 -14.521   5.938  1.00  0.00     0.040 A 
ATOM     97  C   UNL     1      13.716 -14.461   6.290  1.00  0.00     0.040 A 
ATOM     98  F   UNL     1      14.666 -12.802   7.643  1.00  0.00    -0.206 F 
ATOM     99  C   UNL     1      12.605 -15.070   5.717  1.00  0.00     0.006 A 
ENDBRANCH  75  92
ENDBRANCH  49  50
ENDBRANCH  41  44
ENDBRANCH  39  40
ENDBRANCH  38  39
ENDBRANCH  37  38
ENDBRANCH   3  37
TORSDOF 18
