REMARK SMILES C[C@H]1[C@H](C(=O)NCCCNC(=O)c2ccc(-c3c4nc(c(-c5c(F)cccc5F)c5ccc([nH]5)c(-c5c(F)cccc5F)c5nc(c(-c6c(F)cccc6F)c6ccc3[nH]6)C=C5)C=C4)cc2)CC[N@@H+]1Cc1ccc(C(F)(F)F)cc1
REMARK SMILES IDX 7 1 6 2 4 3 5 4 3 6 1 7 2 8 69 9 67 10 68 11 70 13 71 14
REMARK SMILES IDX 72 15 80 16 73 17 79 18 74 19 75 20 76 21 77 22 78 23 8 24
REMARK SMILES IDX 9 25 10 26 11 27 12 29 13 30 14 31 66 32 15 33 65 34 16 35
REMARK SMILES IDX 17 36 18 37 59 38 19 39 64 40 58 41 60 42 20 43 63 44 57 45
REMARK SMILES IDX 56 46 21 48 47 49 30 50 46 51 31 52 34 53 45 54 61 55 32 56
REMARK SMILES IDX 33 57 44 59 62 60 35 61 22 62 23 63 28 64 24 65 25 66 27 67
REMARK SMILES IDX 29 68 26 69 48 70 49 71 54 72 50 73 51 74 53 75 55 76 52 77
REMARK SMILES IDX 36 78 37 79 42 80 38 81 39 82 41 83 43 84 40 85
REMARK H PARENT 6 5 69 12 10 28 60 47 34 58
REMARK Flexibility Score: inf
ROOT
ATOM      1  C   UNL     1      -0.534   1.598   3.052  1.00  0.00     0.117 C 
ENDROOT
BRANCH   1   2
ATOM      2  N   UNL     1       0.079   2.576   2.185  1.00  0.00    -0.356 N 
ATOM      3  C   UNL     1       0.410   2.494   0.872  1.00  0.00     0.229 C 
ATOM      4  O   UNL     1       0.884   3.517   0.363  1.00  0.00    -0.275 OA
ATOM      5  H   UNL     1       0.290   3.437   2.614  1.00  0.00     0.163 HD
BRANCH   3   6
ATOM      6  C   UNL     1       0.180   1.261   0.003  1.00  0.00     0.142 C 
ATOM      7  C   UNL     1       2.014  -0.443  -0.162  1.00  0.00     0.076 C 
ATOM      8  C   UNL     1       0.675  -0.110   0.510  1.00  0.00     0.193 C 
ATOM      9  N   UNL     1      -0.328  -1.097   0.061  1.00  0.00    -0.328 N 
ATOM     10  C   UNL     1      -1.266   1.020  -0.403  1.00  0.00     0.081 C 
ATOM     11  C   UNL     1      -1.221  -0.426  -0.876  1.00  0.00     0.263 C 
ATOM     12  H   UNL     1       0.170  -1.842  -0.426  1.00  0.00     0.348 HD
BRANCH   9  13
ATOM     13  C   UNL     1      -0.925  -2.016   1.048  1.00  0.00     0.299 C 
BRANCH  13  14
ATOM     14  C   UNL     1      -1.959  -1.497   2.040  1.00  0.00     0.006 A 
ATOM     15  C   UNL     1      -1.747  -1.611   3.424  1.00  0.00     0.010 A 
ATOM     16  C   UNL     1      -3.160  -0.905   1.627  1.00  0.00     0.010 A 
ATOM     17  C   UNL     1      -2.597  -0.970   4.340  1.00  0.00     0.013 A 
ATOM     18  C   UNL     1      -3.988  -0.233   2.529  1.00  0.00     0.013 A 
ATOM     19  C   UNL     1      -3.684  -0.209   3.891  1.00  0.00     0.056 A 
BRANCH  19  20
ATOM     20  C   UNL     1      -4.447   0.699   4.826  1.00  0.00     0.416 C 
ATOM     21  F   UNL     1      -4.811   0.104   5.990  1.00  0.00    -0.166 F 
ATOM     22  F   UNL     1      -3.715   1.806   5.146  1.00  0.00    -0.166 F 
ATOM     23  F   UNL     1      -5.600   1.182   4.278  1.00  0.00    -0.166 F 
ENDBRANCH  19  20
ENDBRANCH  13  14
ENDBRANCH   9  13
ENDBRANCH   3   6
ENDBRANCH   1   2
BRANCH   1  24
ATOM     24  C   UNL     1       0.448   1.043   4.081  1.00  0.00     0.042 C 
BRANCH  24  25
ATOM     25  C   UNL     1       0.444   1.805   5.401  1.00  0.00     0.118 C 
BRANCH  25  26
ATOM     26  N   UNL     1      -0.837   1.726   6.099  1.00  0.00    -0.352 N 
ATOM     27  C   UNL     1      -1.250   1.037   7.207  1.00  0.00     0.251 C 
ATOM     28  H   UNL     1      -1.543   2.279   5.692  1.00  0.00     0.163 HD
ATOM     29  O   UNL     1      -2.459   1.006   7.466  1.00  0.00    -0.269 OA
BRANCH  27  30
ATOM     30  C   UNL     1      -0.328   0.304   8.094  1.00  0.00     0.039 A 
ATOM     31  C   UNL     1      -0.807  -0.839   8.753  1.00  0.00     0.014 A 
ATOM     32  C   UNL     1       0.956   0.768   8.372  1.00  0.00     0.014 A 
ATOM     33  C   UNL     1       0.009  -1.529   9.652  1.00  0.00     0.010 A 
ATOM     34  C   UNL     1       1.802   0.026   9.188  1.00  0.00     0.010 A 
ATOM     35  C   UNL     1       1.330  -1.113   9.857  1.00  0.00    -0.014 A 
BRANCH  35  36
ATOM     36  C   UNL     1       2.231  -1.798  10.814  1.00  0.00     0.031 A 
ATOM     37  C   UNL     1       2.777  -1.031  11.987  1.00  0.00     0.074 A 
ATOM     38  C   UNL     1       2.631  -3.061  10.576  1.00  0.00     0.049 A 
ATOM     39  N   UNL     1       3.736  -1.351  12.817  1.00  0.00    -0.248 NA
ATOM     40  C   UNL     1       2.196   0.301  12.227  1.00  0.00     0.031 C 
ATOM     41  C   UNL     1       2.191  -3.893   9.455  1.00  0.00     0.029 A 
ATOM     42  N   UNL     1       3.520  -3.855  11.253  1.00  0.00    -0.354 N 
ATOM     43  C   UNL     1       3.903  -0.246  13.643  1.00  0.00     0.074 A 
ATOM     44  C   UNL     1       2.978   0.768  13.187  1.00  0.00     0.031 C 
ATOM     45  C   UNL     1       2.808  -5.083   9.524  1.00  0.00     0.029 A 
ATOM     46  C   UNL     1       3.717  -5.080  10.665  1.00  0.00     0.049 A 
ATOM     47  H   UNL     1       3.973  -3.574  12.081  1.00  0.00     0.167 HD
ATOM     48  C   UNL     1       4.740  -0.099  14.698  1.00  0.00     0.037 A 
ATOM     49  C   UNL     1       4.555  -6.079  10.999  1.00  0.00     0.037 A 
ATOM     50  C   UNL     1       5.617  -1.137  15.172  1.00  0.00     0.049 A 
ATOM     51  C   UNL     1       5.443  -5.910  12.199  1.00  0.00     0.074 A 
ATOM     52  C   UNL     1       6.467  -1.120  16.263  1.00  0.00     0.029 A 
ATOM     53  N   UNL     1       5.740  -2.389  14.586  1.00  0.00    -0.354 N 
ATOM     54  N   UNL     1       5.580  -4.869  12.986  1.00  0.00    -0.248 NA
ATOM     55  C   UNL     1       6.287  -7.056  12.563  1.00  0.00     0.031 C 
ATOM     56  C   UNL     1       7.124  -2.354  16.322  1.00  0.00     0.029 A 
ATOM     57  C   UNL     1       6.654  -3.153  15.291  1.00  0.00     0.049 A 
ATOM     58  H   UNL     1       5.250  -2.689  13.787  1.00  0.00     0.167 HD
ATOM     59  C   UNL     1       6.510  -5.239  13.948  1.00  0.00     0.074 A 
ATOM     60  C   UNL     1       6.888  -6.607  13.656  1.00  0.00     0.031 C 
ATOM     61  C   UNL     1       7.010  -4.513  14.978  1.00  0.00     0.037 A 
BRANCH  48  62
ATOM     62  C   UNL     1       4.738   1.228  15.402  1.00  0.00     0.057 A 
ATOM     63  C   UNL     1       3.644   1.661  16.165  1.00  0.00     0.134 A 
ATOM     64  C   UNL     1       5.844   2.083  15.321  1.00  0.00     0.134 A 
ATOM     65  F   UNL     1       2.546   0.898  16.272  1.00  0.00    -0.206 F 
ATOM     66  C   UNL     1       3.636   2.910  16.790  1.00  0.00     0.040 A 
ATOM     67  C   UNL     1       5.860   3.322  15.966  1.00  0.00     0.040 A 
ATOM     68  F   UNL     1       6.927   1.732  14.612  1.00  0.00    -0.206 F 
ATOM     69  C   UNL     1       4.750   3.742  16.696  1.00  0.00     0.006 A 
ENDBRANCH  48  62
BRANCH  49  70
ATOM     70  C   UNL     1       4.573  -7.328  10.199  1.00  0.00     0.057 A 
ATOM     71  C   UNL     1       4.036  -8.516  10.708  1.00  0.00     0.134 A 
ATOM     72  C   UNL     1       5.103  -7.362   8.904  1.00  0.00     0.134 A 
ATOM     73  F   UNL     1       3.527  -8.548  11.948  1.00  0.00    -0.206 F 
ATOM     74  C   UNL     1       4.039  -9.697   9.965  1.00  0.00     0.040 A 
ATOM     75  C   UNL     1       5.092  -8.531   8.140  1.00  0.00     0.040 A 
ATOM     76  F   UNL     1       5.621  -6.254   8.354  1.00  0.00    -0.206 F 
ATOM     77  C   UNL     1       4.562  -9.705   8.674  1.00  0.00     0.006 A 
ENDBRANCH  49  70
BRANCH  61  78
ATOM     78  C   UNL     1       7.996  -5.201  15.873  1.00  0.00     0.057 A 
ATOM     79  C   UNL     1       9.309  -5.459  15.463  1.00  0.00     0.134 A 
ATOM     80  C   UNL     1       7.632  -5.586  17.170  1.00  0.00     0.134 A 
ATOM     81  F   UNL     1       9.713  -5.126  14.227  1.00  0.00    -0.206 F 
ATOM     82  C   UNL     1      10.220  -6.101  16.302  1.00  0.00     0.040 A 
ATOM     83  C   UNL     1       8.541  -6.206  18.027  1.00  0.00     0.040 A 
ATOM     84  F   UNL     1       6.391  -5.359  17.625  1.00  0.00    -0.206 F 
ATOM     85  C   UNL     1       9.838  -6.471  17.590  1.00  0.00     0.006 A 
ENDBRANCH  61  78
ENDBRANCH  35  36
ENDBRANCH  27  30
ENDBRANCH  25  26
ENDBRANCH  24  25
ENDBRANCH   1  24
TORSDOF 13
