REMARK SMILES Cc1cc(F)cc(N[C@H](C(=O)NCCCNC(=O)c2ccc(-c3c4nc(c(-c5c(F)cccc5F)c5ccc([nH]5)c(-c5c(F)cccc5F)c5nc(c(-c6c(F)cccc6F)c6ccc3[nH]6)C=C5)C=C4)cc2)c2cc(C)cc(C)c2)c1
REMARK SMILES IDX 14 1 13 2 12 3 10 4 11 5 9 7 8 8 7 10 1 11 2 12 3 13 81 14
REMARK SMILES IDX 4 15 5 16 6 17 73 18 74 19 80 20 75 21 78 22 76 23 77 24
REMARK SMILES IDX 79 25 15 26 16 27 17 28 18 30 19 31 20 32 72 33 21 34 71 35
REMARK SMILES IDX 22 36 23 37 24 38 65 39 25 40 70 41 64 42 66 43 26 44 69 45
REMARK SMILES IDX 63 46 62 47 27 49 53 50 36 51 52 52 37 53 40 54 51 55 67 56
REMARK SMILES IDX 38 57 39 58 50 60 68 61 41 62 28 63 29 64 34 65 30 66 31 67
REMARK SMILES IDX 33 68 35 69 32 70 54 71 55 72 60 73 56 74 57 75 59 76 61 77
REMARK SMILES IDX 58 78 42 79 43 80 48 81 44 82 45 83 47 84 49 85 46 86
REMARK H PARENT 12 6 8 9 16 29 66 48 40 59
REMARK Flexibility Score: inf
ROOT
ATOM      1  C   UNL     1       0.940  -3.406  -3.718  1.00  0.00     0.042 C 
ENDROOT
BRANCH   1   2
ATOM      2  C   UNL     1       0.619  -4.202  -2.468  1.00  0.00     0.117 C 
BRANCH   2   3
ATOM      3  N   UNL     1       0.968  -3.514  -1.244  1.00  0.00    -0.354 N 
ATOM      4  C   UNL     1       0.448  -3.643   0.012  1.00  0.00     0.247 C 
ATOM      5  O   UNL     1       1.002  -2.948   0.874  1.00  0.00    -0.272 OA
ATOM      6  H   UNL     1       1.691  -2.852  -1.329  1.00  0.00     0.163 HD
BRANCH   4   7
ATOM      7  C   UNL     1      -0.824  -4.484   0.327  1.00  0.00     0.200 C 
BRANCH   7   8
ATOM      8  N   UNL     1      -1.135  -5.591  -0.617  1.00  0.00    -0.370 N 
ATOM      9  H   UNL     1      -1.965  -5.458  -1.130  1.00  0.00     0.161 HD
BRANCH   8  10
ATOM     10  C   UNL     1      -0.478  -6.771  -0.908  1.00  0.00     0.038 A 
ATOM     11  C   UNL     1      -0.348  -9.221  -3.870  1.00  0.00     0.044 C 
ATOM     12  C   UNL     1      -0.066  -8.574  -2.549  1.00  0.00    -0.046 A 
ATOM     13  C   UNL     1       0.894  -9.136  -1.710  1.00  0.00     0.042 A 
ATOM     14  C   UNL     1      -0.762  -7.422  -2.126  1.00  0.00     0.029 A 
ATOM     15  C   UNL     1       1.182  -8.512  -0.515  1.00  0.00     0.125 A 
ATOM     16  F   UNL     1       2.110  -9.032   0.301  1.00  0.00    -0.207 F 
ATOM     17  C   UNL     1       0.535  -7.338  -0.145  1.00  0.00     0.065 A 
ENDBRANCH   8  10
ENDBRANCH   7   8
BRANCH   7  18
ATOM     18  C   UNL     1      -0.935  -4.959   1.772  1.00  0.00    -0.016 A 
ATOM     19  C   UNL     1       0.183  -5.473   2.441  1.00  0.00     0.009 A 
ATOM     20  C   UNL     1      -2.187  -5.064   2.393  1.00  0.00     0.009 A 
ATOM     21  C   UNL     1       0.029  -6.342   3.520  1.00  0.00    -0.051 A 
ATOM     22  C   UNL     1      -2.329  -5.769   3.595  1.00  0.00    -0.051 A 
ATOM     23  C   UNL     1       1.144  -7.289   3.858  1.00  0.00     0.044 C 
ATOM     24  C   UNL     1      -1.230  -6.470   4.108  1.00  0.00     0.006 A 
ATOM     25  C   UNL     1      -3.664  -5.883   4.266  1.00  0.00     0.044 C 
ENDBRANCH   7  18
ENDBRANCH   4   7
ENDBRANCH   2   3
ENDBRANCH   1   2
BRANCH   1  26
ATOM     26  C   UNL     1       2.411  -3.068  -3.883  1.00  0.00     0.118 C 
BRANCH  26  27
ATOM     27  N   UNL     1       3.254  -4.236  -4.099  1.00  0.00    -0.352 N 
ATOM     28  C   UNL     1       3.946  -4.633  -5.219  1.00  0.00     0.251 C 
ATOM     29  H   UNL     1       3.342  -4.835  -3.323  1.00  0.00     0.163 HD
ATOM     30  O   UNL     1       4.480  -5.739  -5.254  1.00  0.00    -0.269 OA
BRANCH  28  31
ATOM     31  C   UNL     1       4.013  -3.748  -6.401  1.00  0.00     0.039 A 
ATOM     32  C   UNL     1       3.838  -4.296  -7.673  1.00  0.00     0.014 A 
ATOM     33  C   UNL     1       4.221  -2.376  -6.256  1.00  0.00     0.014 A 
ATOM     34  C   UNL     1       3.777  -3.454  -8.786  1.00  0.00     0.010 A 
ATOM     35  C   UNL     1       4.036  -1.531  -7.343  1.00  0.00     0.010 A 
ATOM     36  C   UNL     1       3.823  -2.060  -8.624  1.00  0.00    -0.014 A 
BRANCH  36  37
ATOM     37  C   UNL     1       3.669  -1.133  -9.775  1.00  0.00     0.031 A 
ATOM     38  C   UNL     1       4.771  -0.161 -10.107  1.00  0.00     0.074 A 
ATOM     39  C   UNL     1       2.513  -1.109 -10.470  1.00  0.00     0.049 A 
ATOM     40  N   UNL     1       4.794   0.788 -11.008  1.00  0.00    -0.248 NA
ATOM     41  C   UNL     1       5.998  -0.242  -9.295  1.00  0.00     0.031 C 
ATOM     42  C   UNL     1       1.349  -1.961 -10.214  1.00  0.00     0.029 A 
ATOM     43  N   UNL     1       2.123  -0.330 -11.531  1.00  0.00    -0.354 N 
ATOM     44  C   UNL     1       6.016   1.430 -10.850  1.00  0.00     0.074 A 
ATOM     45  C   UNL     1       6.686   0.801  -9.734  1.00  0.00     0.031 C 
ATOM     46  C   UNL     1       0.392  -1.683 -11.114  1.00  0.00     0.029 A 
ATOM     47  C   UNL     1       0.852  -0.602 -11.979  1.00  0.00     0.049 A 
ATOM     48  H   UNL     1       2.700   0.359 -11.933  1.00  0.00     0.167 HD
ATOM     49  C   UNL     1       6.545   2.436 -11.585  1.00  0.00     0.037 A 
ATOM     50  C   UNL     1       0.137  -0.036 -12.970  1.00  0.00     0.037 A 
ATOM     51  C   UNL     1       5.898   3.024 -12.726  1.00  0.00     0.049 A 
ATOM     52  C   UNL     1       0.753   1.080 -13.771  1.00  0.00     0.074 A 
ATOM     53  C   UNL     1       6.388   3.985 -13.591  1.00  0.00     0.029 A 
ATOM     54  N   UNL     1       4.621   2.705 -13.160  1.00  0.00    -0.354 N 
ATOM     55  N   UNL     1       1.945   1.615 -13.665  1.00  0.00    -0.248 NA
ATOM     56  C   UNL     1      -0.076   1.668 -14.832  1.00  0.00     0.031 C 
ATOM     57  C   UNL     1       5.386   4.290 -14.517  1.00  0.00     0.029 A 
ATOM     58  C   UNL     1       4.295   3.475 -14.264  1.00  0.00     0.049 A 
ATOM     59  H   UNL     1       4.033   2.032 -12.746  1.00  0.00     0.167 HD
ATOM     60  C   UNL     1       2.022   2.572 -14.669  1.00  0.00     0.074 A 
ATOM     61  C   UNL     1       0.763   2.535 -15.380  1.00  0.00     0.031 C 
ATOM     62  C   UNL     1       3.044   3.408 -14.974  1.00  0.00     0.037 A 
BRANCH  49  63
ATOM     63  C   UNL     1       7.892   2.964 -11.187  1.00  0.00     0.057 A 
ATOM     64  C   UNL     1       9.065   2.217 -11.363  1.00  0.00     0.134 A 
ATOM     65  C   UNL     1       8.024   4.263 -10.680  1.00  0.00     0.134 A 
ATOM     66  F   UNL     1       9.008   0.962 -11.832  1.00  0.00    -0.206 F 
ATOM     67  C   UNL     1      10.318   2.737 -11.032  1.00  0.00     0.040 A 
ATOM     68  C   UNL     1       9.274   4.804 -10.373  1.00  0.00     0.040 A 
ATOM     69  F   UNL     1       6.943   5.034 -10.491  1.00  0.00    -0.206 F 
ATOM     70  C   UNL     1      10.425   4.038 -10.546  1.00  0.00     0.006 A 
ENDBRANCH  49  63
BRANCH  50  71
ATOM     71  C   UNL     1      -1.235  -0.516 -13.284  1.00  0.00     0.057 A 
ATOM     72  C   UNL     1      -1.515  -1.153 -14.500  1.00  0.00     0.134 A 
ATOM     73  C   UNL     1      -2.307  -0.308 -12.407  1.00  0.00     0.134 A 
ATOM     74  F   UNL     1      -0.536  -1.365 -15.392  1.00  0.00    -0.206 F 
ATOM     75  C   UNL     1      -2.812  -1.534 -14.847  1.00  0.00     0.040 A 
ATOM     76  C   UNL     1      -3.604  -0.711 -12.729  1.00  0.00     0.040 A 
ATOM     77  F   UNL     1      -2.107   0.288 -11.223  1.00  0.00    -0.206 F 
ATOM     78  C   UNL     1      -3.862  -1.314 -13.958  1.00  0.00     0.006 A 
ENDBRANCH  50  71
BRANCH  62  79
ATOM     79  C   UNL     1       2.866   4.311 -16.160  1.00  0.00     0.057 A 
ATOM     80  C   UNL     1       1.992   5.405 -16.136  1.00  0.00     0.134 A 
ATOM     81  C   UNL     1       3.616   4.107 -17.325  1.00  0.00     0.134 A 
ATOM     82  F   UNL     1       1.236   5.648 -15.055  1.00  0.00    -0.206 F 
ATOM     83  C   UNL     1       1.851   6.248 -17.239  1.00  0.00     0.040 A 
ATOM     84  C   UNL     1       3.507   4.961 -18.422  1.00  0.00     0.040 A 
ATOM     85  F   UNL     1       4.481   3.084 -17.409  1.00  0.00    -0.206 F 
ATOM     86  C   UNL     1       2.617   6.031 -18.384  1.00  0.00     0.006 A 
ENDBRANCH  62  79
ENDBRANCH  36  37
ENDBRANCH  28  31
ENDBRANCH  26  27
ENDBRANCH   1  26
TORSDOF 13
