REMARK SMILES CO[C@H]1C[C@@H](C(=O)NCCCNC(=O)c2ccc(-c3c4nc(c(-c5c(F)cccc5F)c5ccc([nH]5)c(-c5c(F)cccc5F)c5nc(c(-c6c(F)cccc6F)c6ccc3[nH]6)C=C5)C=C4)cc2)N(C(=O)CSc2cccs2)C1
REMARK SMILES IDX 9 1 8 2 6 3 7 4 5 6 3 7 4 8 79 9 69 10 2 11 1 12 70 13 71 14
REMARK SMILES IDX 72 15 73 16 74 17 75 18 78 19 76 20 77 21 10 22 11 23 12 24
REMARK SMILES IDX 13 25 14 27 15 28 16 29 68 30 17 31 67 32 18 33 19 34 20 35
REMARK SMILES IDX 61 36 21 37 66 38 60 39 62 40 22 41 65 42 59 43 58 44 23 46
REMARK SMILES IDX 49 47 32 48 48 49 33 50 36 51 47 52 63 53 34 54 35 55 46 57
REMARK SMILES IDX 64 58 37 59 24 60 25 61 30 62 26 63 27 64 29 65 31 66 28 67
REMARK SMILES IDX 50 68 51 69 56 70 52 71 53 72 55 73 57 74 54 75 38 76 39 77
REMARK SMILES IDX 44 78 40 79 41 80 43 81 45 82 42 83
REMARK H PARENT 8 5 12 26 62 45 36 56
REMARK Flexibility Score: inf
ROOT
ATOM      1  C   UNL     1       2.419   5.169  -2.916  1.00  0.00     0.117 C 
ENDROOT
BRANCH   1   2
ATOM      2  N   UNL     1       2.985   4.796  -1.631  1.00  0.00    -0.354 N 
ATOM      3  C   UNL     1       2.663   3.836  -0.726  1.00  0.00     0.242 C 
ATOM      4  O   UNL     1       3.382   3.768   0.278  1.00  0.00    -0.273 OA
ATOM      5  H   UNL     1       3.754   5.350  -1.362  1.00  0.00     0.163 HD
BRANCH   3   6
ATOM      6  C   UNL     1       1.617   2.738  -0.982  1.00  0.00     0.177 C 
ATOM      7  C   UNL     1       1.249   0.851  -2.455  1.00  0.00     0.139 C 
ATOM      8  C   UNL     1       2.348   1.633  -1.752  1.00  0.00     0.069 C 
ATOM      9  C   UNL     1       0.212   1.933  -2.767  1.00  0.00     0.152 C 
ATOM     10  N   UNL     1       0.412   2.986  -1.775  1.00  0.00    -0.327 N 
BRANCH   7  11
ATOM     11  O   UNL     1       1.683   0.228  -3.661  1.00  0.00    -0.380 OA
ATOM     12  C   UNL     1       2.782  -0.658  -3.491  1.00  0.00     0.195 C 
ENDBRANCH   7  11
BRANCH  10  13
ATOM     13  C   UNL     1      -0.628   3.846  -1.484  1.00  0.00     0.233 C 
ATOM     14  O   UNL     1      -1.664   3.834  -2.156  1.00  0.00    -0.274 OA
BRANCH  13  15
ATOM     15  C   UNL     1      -0.464   4.846  -0.350  1.00  0.00     0.175 C 
BRANCH  15  16
ATOM     16  S   UNL     1      -1.161   4.204   1.191  1.00  0.00    -0.105 SA
BRANCH  16  17
ATOM     17  C   UNL     1      -2.855   4.570   0.918  1.00  0.00     0.060 A 
ATOM     18  C   UNL     1      -3.818   3.656   0.552  1.00  0.00     0.027 A 
ATOM     19  S   UNL     1      -3.498   6.146   1.080  1.00  0.00    -0.137 S 
ATOM     20  C   UNL     1      -5.092   4.266   0.365  1.00  0.00     0.013 A 
ATOM     21  C   UNL     1      -5.057   5.621   0.609  1.00  0.00     0.066 A 
ENDBRANCH  16  17
ENDBRANCH  15  16
ENDBRANCH  13  15
ENDBRANCH  10  13
ENDBRANCH   3   6
ENDBRANCH   1   2
BRANCH   1  22
ATOM     22  C   UNL     1       1.663   6.496  -2.846  1.00  0.00     0.042 C 
BRANCH  22  23
ATOM     23  C   UNL     1       2.511   7.687  -2.400  1.00  0.00     0.118 C 
BRANCH  23  24
ATOM     24  N   UNL     1       3.398   8.155  -3.450  1.00  0.00    -0.352 N 
ATOM     25  C   UNL     1       3.442   9.373  -4.084  1.00  0.00     0.251 C 
ATOM     26  H   UNL     1       4.069   7.501  -3.754  1.00  0.00     0.163 HD
ATOM     27  O   UNL     1       4.122   9.499  -5.098  1.00  0.00    -0.269 OA
BRANCH  25  28
ATOM     28  C   UNL     1       2.679  10.535  -3.569  1.00  0.00     0.039 A 
ATOM     29  C   UNL     1       2.050  11.381  -4.488  1.00  0.00     0.014 A 
ATOM     30  C   UNL     1       2.640  10.845  -2.206  1.00  0.00     0.014 A 
ATOM     31  C   UNL     1       1.359  12.512  -4.043  1.00  0.00     0.010 A 
ATOM     32  C   UNL     1       1.897  11.939  -1.756  1.00  0.00     0.010 A 
ATOM     33  C   UNL     1       1.264  12.794  -2.671  1.00  0.00    -0.014 A 
BRANCH  33  34
ATOM     34  C   UNL     1       0.532  13.996  -2.188  1.00  0.00     0.031 A 
ATOM     35  C   UNL     1       1.274  15.117  -1.508  1.00  0.00     0.074 A 
ATOM     36  C   UNL     1      -0.805  14.071  -2.328  1.00  0.00     0.049 A 
ATOM     37  N   UNL     1       0.806  16.224  -0.989  1.00  0.00    -0.248 NA
ATOM     38  C   UNL     1       2.731  14.962  -1.375  1.00  0.00     0.031 C 
ATOM     39  C   UNL     1      -1.652  13.041  -2.932  1.00  0.00     0.029 A 
ATOM     40  N   UNL     1      -1.689  15.058  -1.967  1.00  0.00    -0.354 N 
ATOM     41  C   UNL     1       1.903  16.886  -0.453  1.00  0.00     0.074 A 
ATOM     42  C   UNL     1       3.055  16.037  -0.671  1.00  0.00     0.031 C 
ATOM     43  C   UNL     1      -2.928  13.459  -2.919  1.00  0.00     0.029 A 
ATOM     44  C   UNL     1      -2.994  14.771  -2.282  1.00  0.00     0.049 A 
ATOM     45  H   UNL     1      -1.412  15.893  -1.525  1.00  0.00     0.167 HD
ATOM     46  C   UNL     1       1.954  18.099   0.148  1.00  0.00     0.037 A 
ATOM     47  C   UNL     1      -4.120  15.483  -2.079  1.00  0.00     0.037 A 
ATOM     48  C   UNL     1       0.819  18.964   0.336  1.00  0.00     0.049 A 
ATOM     49  C   UNL     1      -4.036  16.832  -1.423  1.00  0.00     0.074 A 
ATOM     50  C   UNL     1       0.784  20.238   0.875  1.00  0.00     0.029 A 
ATOM     51  N   UNL     1      -0.484  18.642  -0.013  1.00  0.00    -0.354 N 
ATOM     52  N   UNL     1      -2.982  17.470  -0.976  1.00  0.00    -0.248 NA
ATOM     53  C   UNL     1      -5.300  17.563  -1.248  1.00  0.00     0.031 C 
ATOM     54  C   UNL     1      -0.545  20.676   0.882  1.00  0.00     0.029 A 
ATOM     55  C   UNL     1      -1.332  19.688   0.314  1.00  0.00     0.049 A 
ATOM     56  H   UNL     1      -0.765  17.797  -0.431  1.00  0.00     0.167 HD
ATOM     57  C   UNL     1      -3.449  18.683  -0.489  1.00  0.00     0.074 A 
ATOM     58  C   UNL     1      -4.881  18.699  -0.706  1.00  0.00     0.031 C 
ATOM     59  C   UNL     1      -2.754  19.693   0.088  1.00  0.00     0.037 A 
BRANCH  46  60
ATOM     60  C   UNL     1       3.290  18.569   0.645  1.00  0.00     0.057 A 
ATOM     61  C   UNL     1       4.300  18.980  -0.235  1.00  0.00     0.134 A 
ATOM     62  C   UNL     1       3.558  18.643   2.017  1.00  0.00     0.134 A 
ATOM     63  F   UNL     1       4.111  18.923  -1.562  1.00  0.00    -0.206 F 
ATOM     64  C   UNL     1       5.538  19.425   0.233  1.00  0.00     0.040 A 
ATOM     65  C   UNL     1       4.784  19.109   2.497  1.00  0.00     0.040 A 
ATOM     66  F   UNL     1       2.632  18.271   2.914  1.00  0.00    -0.206 F 
ATOM     67  C   UNL     1       5.780  19.496   1.603  1.00  0.00     0.006 A 
ENDBRANCH  46  60
BRANCH  47  68
ATOM     68  C   UNL     1      -5.426  14.944  -2.531  1.00  0.00     0.057 A 
ATOM     69  C   UNL     1      -6.086  15.489  -3.638  1.00  0.00     0.134 A 
ATOM     70  C   UNL     1      -6.044  13.876  -1.870  1.00  0.00     0.134 A 
ATOM     71  F   UNL     1      -5.551  16.526  -4.298  1.00  0.00    -0.206 F 
ATOM     72  C   UNL     1      -7.321  15.001  -4.065  1.00  0.00     0.040 A 
ATOM     73  C   UNL     1      -7.269  13.364  -2.299  1.00  0.00     0.040 A 
ATOM     74  F   UNL     1      -5.459  13.309  -0.805  1.00  0.00    -0.206 F 
ATOM     75  C   UNL     1      -7.914  13.931  -3.397  1.00  0.00     0.006 A 
ENDBRANCH  47  68
BRANCH  59  76
ATOM     76  C   UNL     1      -3.527  20.910   0.499  1.00  0.00     0.057 A 
ATOM     77  C   UNL     1      -4.355  20.909   1.629  1.00  0.00     0.134 A 
ATOM     78  C   UNL     1      -3.414  22.105  -0.222  1.00  0.00     0.134 A 
ATOM     79  F   UNL     1      -4.515  19.792   2.353  1.00  0.00    -0.206 F 
ATOM     80  C   UNL     1      -5.059  22.051   2.016  1.00  0.00     0.040 A 
ATOM     81  C   UNL     1      -4.095  23.259   0.168  1.00  0.00     0.040 A 
ATOM     82  F   UNL     1      -2.631  22.173  -1.309  1.00  0.00    -0.206 F 
ATOM     83  C   UNL     1      -4.925  23.232   1.288  1.00  0.00     0.006 A 
ENDBRANCH  59  76
ENDBRANCH  33  34
ENDBRANCH  25  28
ENDBRANCH  23  24
ENDBRANCH  22  23
ENDBRANCH   1  22
TORSDOF 15
