REMARK SMILES O=C(NCCCNC(=O)C1(Cc2ccccc2Cl)CCN(c2ncnc3[nH]ccc23)CC1)c1ccc(-c2c3nc(c(-c4c(F)cccc4F)c4ccc([nH]4)c(-c4c(F)cccc4F)c4nc(c(-c5c(F)cccc5F)c5ccc2[nH]5)C=C4)C=C3)cc1
REMARK SMILES IDX 5 1 4 2 3 3 1 4 2 5 33 7 34 8 86 9 35 10 85 11 36 12 37 13
REMARK SMILES IDX 38 14 79 15 39 16 84 17 78 18 80 19 40 20 83 21 77 22 76 23
REMARK SMILES IDX 41 25 67 26 50 27 66 28 51 29 54 30 65 31 81 32 52 33 53 34
REMARK SMILES IDX 64 36 82 37 55 38 42 39 43 40 48 41 44 42 45 43 47 44 49 45
REMARK SMILES IDX 46 46 68 47 69 48 74 49 70 50 71 51 73 52 75 53 72 54 56 55
REMARK SMILES IDX 57 56 62 57 58 58 59 59 61 60 63 61 60 62 6 63 7 64 8 65
REMARK SMILES IDX 9 67 10 68 19 69 32 70 20 71 31 72 21 73 11 74 12 75 13 76
REMARK SMILES IDX 17 77 14 78 16 79 18 80 15 81 22 82 23 83 30 84 24 85 26 86
REMARK SMILES IDX 29 87 25 88 27 89 28 90
REMARK H PARENT 3 6 80 24 54 35 7 66 27 91
REMARK Flexibility Score: inf
ROOT
ATOM      1  C   UNL     1       4.838   1.300  -1.581  1.00  0.00     0.042 C 
ENDROOT
BRANCH   1   2
ATOM      2  C   UNL     1       4.431   1.293  -0.119  1.00  0.00     0.118 C 
BRANCH   2   3
ATOM      3  N   UNL     1       2.999   1.029   0.037  1.00  0.00    -0.352 N 
ATOM      4  O   UNL     1       1.116  -0.209   0.123  1.00  0.00    -0.269 OA
ATOM      5  C   UNL     1       2.330  -0.142   0.300  1.00  0.00     0.251 C 
ATOM      6  H   UNL     1       2.421   1.820  -0.062  1.00  0.00     0.163 HD
BRANCH   5   7
ATOM      7  C   UNL     1       3.071  -1.321   0.788  1.00  0.00     0.039 A 
ATOM      8  C   UNL     1       4.140  -1.148   1.661  1.00  0.00     0.014 A 
ATOM      9  C   UNL     1       2.693  -2.611   0.401  1.00  0.00     0.014 A 
ATOM     10  C   UNL     1       4.966  -2.213   1.956  1.00  0.00     0.010 A 
ATOM     11  C   UNL     1       3.429  -3.715   0.850  1.00  0.00     0.010 A 
ATOM     12  C   UNL     1       4.592  -3.520   1.609  1.00  0.00    -0.014 A 
BRANCH  12  13
ATOM     13  C   UNL     1       5.403  -4.632   2.166  1.00  0.00     0.031 A 
ATOM     14  C   UNL     1       6.122  -5.608   1.282  1.00  0.00     0.074 A 
ATOM     15  C   UNL     1       5.561  -4.677   3.506  1.00  0.00     0.049 A 
ATOM     16  N   UNL     1       6.930  -6.579   1.627  1.00  0.00    -0.248 NA
ATOM     17  C   UNL     1       5.906  -5.496  -0.169  1.00  0.00     0.031 C 
ATOM     18  C   UNL     1       4.890  -3.785   4.461  1.00  0.00     0.029 A 
ATOM     19  N   UNL     1       6.372  -5.447   4.296  1.00  0.00    -0.354 N 
ATOM     20  C   UNL     1       7.295  -7.210   0.445  1.00  0.00     0.074 A 
ATOM     21  C   UNL     1       6.610  -6.523  -0.628  1.00  0.00     0.031 C 
ATOM     22  C   UNL     1       5.397  -3.982   5.684  1.00  0.00     0.029 A 
ATOM     23  C   UNL     1       6.347  -5.083   5.622  1.00  0.00     0.049 A 
ATOM     24  H   UNL     1       6.919  -6.188   3.949  1.00  0.00     0.167 HD
ATOM     25  C   UNL     1       8.128  -8.265   0.280  1.00  0.00     0.037 A 
ATOM     26  C   UNL     1       7.001  -5.591   6.681  1.00  0.00     0.037 A 
ATOM     27  C   UNL     1       8.821  -8.925   1.357  1.00  0.00     0.049 A 
ATOM     28  C   UNL     1       7.923  -6.750   6.460  1.00  0.00     0.074 A 
ATOM     29  C   UNL     1       9.687 -10.004   1.294  1.00  0.00     0.029 A 
ATOM     30  N   UNL     1       8.734  -8.562   2.694  1.00  0.00    -0.354 N 
ATOM     31  N   UNL     1       8.244  -7.342   5.336  1.00  0.00    -0.248 NA
ATOM     32  C   UNL     1       8.555  -7.324   7.652  1.00  0.00     0.031 C 
ATOM     33  C   UNL     1      10.098 -10.313   2.596  1.00  0.00     0.029 A 
ATOM     34  C   UNL     1       9.522  -9.402   3.465  1.00  0.00     0.049 A 
ATOM     35  H   UNL     1       8.193  -7.818   3.043  1.00  0.00     0.167 HD
ATOM     36  C   UNL     1       9.109  -8.367   5.685  1.00  0.00     0.074 A 
ATOM     37  C   UNL     1       9.297  -8.284   7.120  1.00  0.00     0.031 C 
ATOM     38  C   UNL     1       9.682  -9.305   4.893  1.00  0.00     0.037 A 
BRANCH  25  39
ATOM     39  C   UNL     1       8.327  -8.788  -1.113  1.00  0.00     0.057 A 
ATOM     40  C   UNL     1       9.105  -8.106  -2.056  1.00  0.00     0.134 A 
ATOM     41  C   UNL     1       7.785 -10.023  -1.495  1.00  0.00     0.134 A 
ATOM     42  F   UNL     1       9.641  -6.912  -1.760  1.00  0.00    -0.206 F 
ATOM     43  C   UNL     1       9.331  -8.629  -3.331  1.00  0.00     0.040 A 
ATOM     44  C   UNL     1       8.021 -10.566  -2.759  1.00  0.00     0.040 A 
ATOM     45  F   UNL     1       7.033 -10.730  -0.638  1.00  0.00    -0.206 F 
ATOM     46  C   UNL     1       8.796  -9.867  -3.682  1.00  0.00     0.006 A 
ENDBRANCH  25  39
BRANCH  26  47
ATOM     47  C   UNL     1       6.770  -5.030   8.036  1.00  0.00     0.057 A 
ATOM     48  C   UNL     1       7.782  -4.359   8.731  1.00  0.00     0.134 A 
ATOM     49  C   UNL     1       5.524  -5.146   8.665  1.00  0.00     0.134 A 
ATOM     50  F   UNL     1       9.002  -4.228   8.189  1.00  0.00    -0.206 F 
ATOM     51  C   UNL     1       7.566  -3.834  10.007  1.00  0.00     0.040 A 
ATOM     52  C   UNL     1       5.285  -4.599   9.925  1.00  0.00     0.040 A 
ATOM     53  F   UNL     1       4.509  -5.771   8.049  1.00  0.00    -0.206 F 
ATOM     54  C   UNL     1       6.312  -3.947  10.604  1.00  0.00     0.006 A 
ENDBRANCH  26  47
BRANCH  38  55
ATOM     55  C   UNL     1      10.565 -10.303   5.578  1.00  0.00     0.057 A 
ATOM     56  C   UNL     1      10.033 -11.318   6.384  1.00  0.00     0.134 A 
ATOM     57  C   UNL     1      11.956 -10.241   5.440  1.00  0.00     0.134 A 
ATOM     58  F   UNL     1       8.708 -11.416   6.569  1.00  0.00    -0.206 F 
ATOM     59  C   UNL     1      10.859 -12.219   7.056  1.00  0.00     0.040 A 
ATOM     60  C   UNL     1      12.790 -11.152   6.087  1.00  0.00     0.040 A 
ATOM     61  F   UNL     1      12.524  -9.294   4.679  1.00  0.00    -0.206 F 
ATOM     62  C   UNL     1      12.242 -12.139   6.905  1.00  0.00     0.006 A 
ENDBRANCH  38  55
ENDBRANCH  12  13
ENDBRANCH   5   7
ENDBRANCH   2   3
ENDBRANCH   1   2
BRANCH   1  63
ATOM     63  C   UNL     1       4.351   2.569  -2.240  1.00  0.00     0.117 C 
BRANCH  63  64
ATOM     64  N   UNL     1       5.269   3.663  -2.025  1.00  0.00    -0.356 N 
ATOM     65  C   UNL     1       5.366   4.680  -2.920  1.00  0.00     0.226 C 
ATOM     66  H   UNL     1       5.833   3.672  -1.218  1.00  0.00     0.163 HD
ATOM     67  O   UNL     1       4.947   5.778  -2.546  1.00  0.00    -0.274 OA
BRANCH  65  68
ATOM     68  C   UNL     1       6.071   4.488  -4.282  1.00  0.00     0.057 C 
ATOM     69  C   UNL     1       5.249   5.302  -5.303  1.00  0.00     0.039 C 
ATOM     70  C   UNL     1       6.261   3.030  -4.808  1.00  0.00     0.039 C 
ATOM     71  C   UNL     1       3.931   4.593  -5.592  1.00  0.00     0.119 C 
ATOM     72  C   UNL     1       5.117   2.369  -5.590  1.00  0.00     0.119 C 
ATOM     73  N   UNL     1       4.259   3.337  -6.231  1.00  0.00    -0.356 N 
BRANCH  68  74
ATOM     74  C   UNL     1       7.529   5.053  -4.112  1.00  0.00     0.054 C 
BRANCH  74  75
ATOM     75  C   UNL     1       7.695   6.522  -3.785  1.00  0.00    -0.028 A 
ATOM     76  C   UNL     1       7.684   7.449  -4.845  1.00  0.00     0.005 A 
ATOM     77  C   UNL     1       7.853   7.011  -2.477  1.00  0.00     0.044 A 
ATOM     78  C   UNL     1       7.774   8.820  -4.605  1.00  0.00     0.000 A 
ATOM     79  C   UNL     1       7.933   8.388  -2.240  1.00  0.00     0.021 A 
ATOM     80  Cl  UNL     1       7.986   5.964  -1.106  1.00  0.00    -0.084 Cl
ATOM     81  C   UNL     1       7.885   9.290  -3.301  1.00  0.00     0.002 A 
ENDBRANCH  74  75
ENDBRANCH  68  74
BRANCH  73  82
ATOM     82  C   UNL     1       3.337   2.829  -7.125  1.00  0.00     0.141 A 
ATOM     83  N   UNL     1       2.553   1.774  -6.799  1.00  0.00    -0.219 NA
ATOM     84  C   UNL     1       3.288   3.312  -8.439  1.00  0.00     0.061 A 
ATOM     85  C   UNL     1       1.746   1.260  -7.751  1.00  0.00     0.226 A 
ATOM     86  C   UNL     1       2.447   2.657  -9.320  1.00  0.00     0.142 A 
ATOM     87  C   UNL     1       3.964   4.324  -9.176  1.00  0.00     0.033 A 
ATOM     88  N   UNL     1       1.635   1.627  -9.042  1.00  0.00    -0.218 NA
ATOM     89  N   UNL     1       2.614   3.224 -10.555  1.00  0.00    -0.346 N 
ATOM     90  C   UNL     1       3.537   4.239 -10.483  1.00  0.00     0.085 A 
ATOM     91  H   UNL     1       2.142   2.946 -11.373  1.00  0.00     0.167 HD
ENDBRANCH  73  82
ENDBRANCH  65  68
ENDBRANCH  63  64
ENDBRANCH   1  63
TORSDOF 13
