REMARK SMILES Cc1cccc(C(=O)NCCCNC(=O)c2ccc(-c3c4nc(c(-c5c(F)cccc5F)c5ccc([nH]5)c(-c5c(F)cccc5F)c5nc(c(-c6c(F)cccc6F)c6ccc3[nH]6)C=C5)C=C4)cc2)c1NC(=O)N[C@@H]1CCCC1(C)C
REMARK SMILES IDX 11 1 10 2 9 3 7 4 8 5 6 7 1 8 2 9 3 10 70 11 4 12 5 13 71 14
REMARK SMILES IDX 72 15 73 17 74 18 75 20 76 21 79 22 77 23 78 24 80 25 81 26
REMARK SMILES IDX 12 27 13 28 14 29 15 31 16 32 17 33 69 34 18 35 68 36 19 37
REMARK SMILES IDX 20 38 21 39 62 40 22 41 67 42 61 43 63 44 23 45 66 46 60 47
REMARK SMILES IDX 59 48 24 50 50 51 33 52 49 53 34 54 37 55 48 56 64 57 35 58
REMARK SMILES IDX 36 59 47 61 65 62 38 63 25 64 26 65 31 66 27 67 28 68 30 69
REMARK SMILES IDX 32 70 29 71 51 72 52 73 57 74 53 75 54 76 56 77 58 78 55 79
REMARK SMILES IDX 39 80 40 81 45 82 41 83 42 84 44 85 46 86 43 87
REMARK H PARENT 9 6 71 16 74 19 13 30 63 49 37 60
REMARK Flexibility Score: inf
ROOT
ATOM      1  C   UNL     1       2.679   4.102  -0.501  1.00  0.00     0.042 C 
ENDROOT
BRANCH   1   2
ATOM      2  C   UNL     1       2.471   3.691   0.947  1.00  0.00     0.118 C 
BRANCH   2   3
ATOM      3  N   UNL     1       1.109   3.820   1.433  1.00  0.00    -0.352 N 
ATOM      4  C   UNL     1       0.214   2.828   1.765  1.00  0.00     0.253 C 
ATOM      5  O   UNL     1      -0.628   3.068   2.623  1.00  0.00    -0.269 OA
ATOM      6  H   UNL     1       0.780   4.742   1.539  1.00  0.00     0.163 HD
BRANCH   4   7
ATOM      7  C   UNL     1       0.328   1.476   1.167  1.00  0.00     0.063 A 
ATOM      8  C   UNL     1       2.540   0.225  -1.404  1.00  0.00     0.046 C 
ATOM      9  C   UNL     1       1.308   0.144  -0.540  1.00  0.00    -0.027 A 
ATOM     10  C   UNL     1       1.126  -1.009   0.230  1.00  0.00     0.005 A 
ATOM     11  C   UNL     1       0.594   1.291  -0.184  1.00  0.00     0.058 A 
ATOM     12  C   UNL     1       0.489  -0.918   1.464  1.00  0.00     0.001 A 
ATOM     13  C   UNL     1       0.208   0.346   1.985  1.00  0.00     0.016 A 
BRANCH  11  14
ATOM     14  N   UNL     1       0.071   2.107  -1.212  1.00  0.00    -0.307 N 
ATOM     15  C   UNL     1      -0.984   2.966  -1.208  1.00  0.00     0.319 C 
ATOM     16  H   UNL     1       0.547   2.043  -2.071  1.00  0.00     0.171 HD
ATOM     17  O   UNL     1      -0.956   3.937  -1.968  1.00  0.00    -0.248 OA
ATOM     18  N   UNL     1      -2.110   2.739  -0.481  1.00  0.00    -0.335 N 
ATOM     19  H   UNL     1      -2.611   3.547  -0.227  1.00  0.00     0.165 HD
BRANCH  18  20
ATOM     20  C   UNL     1      -2.689   1.481  -0.020  1.00  0.00     0.089 C 
ATOM     21  C   UNL     1      -3.395   0.710  -1.140  1.00  0.00     0.025 C 
ATOM     22  C   UNL     1      -3.791   1.549   1.078  1.00  0.00    -0.015 C 
ATOM     23  C   UNL     1      -4.156  -0.388  -0.396  1.00  0.00     0.003 C 
ATOM     24  C   UNL     1      -4.303   0.091   1.052  1.00  0.00     0.008 C 
ATOM     25  C   UNL     1      -3.276   1.886   2.477  1.00  0.00     0.013 C 
ATOM     26  C   UNL     1      -4.946   2.519   0.767  1.00  0.00     0.013 C 
ENDBRANCH  18  20
ENDBRANCH  11  14
ENDBRANCH   4   7
ENDBRANCH   2   3
ENDBRANCH   1   2
BRANCH   1  27
ATOM     27  C   UNL     1       2.188   5.495  -0.850  1.00  0.00     0.118 C 
BRANCH  27  28
ATOM     28  N   UNL     1       3.106   6.542  -0.423  1.00  0.00    -0.352 N 
ATOM     29  C   UNL     1       3.130   7.886  -0.716  1.00  0.00     0.251 C 
ATOM     30  H   UNL     1       3.829   6.237   0.172  1.00  0.00     0.163 HD
ATOM     31  O   UNL     1       4.051   8.573  -0.269  1.00  0.00    -0.269 OA
BRANCH  29  32
ATOM     32  C   UNL     1       1.989   8.542  -1.397  1.00  0.00     0.039 A 
ATOM     33  C   UNL     1       1.602   9.800  -0.914  1.00  0.00     0.014 A 
ATOM     34  C   UNL     1       1.189   7.885  -2.327  1.00  0.00     0.014 A 
ATOM     35  C   UNL     1       0.315  10.266  -1.158  1.00  0.00     0.010 A 
ATOM     36  C   UNL     1      -0.117   8.293  -2.497  1.00  0.00     0.010 A 
ATOM     37  C   UNL     1      -0.567   9.445  -1.854  1.00  0.00    -0.014 A 
BRANCH  37  38
ATOM     38  C   UNL     1      -1.997   9.687  -1.914  1.00  0.00     0.031 A 
ATOM     39  C   UNL     1      -2.567  10.397  -3.069  1.00  0.00     0.074 A 
ATOM     40  C   UNL     1      -2.781   9.206  -0.927  1.00  0.00     0.049 A 
ATOM     41  N   UNL     1      -3.674  11.056  -3.045  1.00  0.00    -0.248 NA
ATOM     42  C   UNL     1      -1.882  10.459  -4.354  1.00  0.00     0.031 C 
ATOM     43  C   UNL     1      -4.237   9.130  -0.900  1.00  0.00     0.029 A 
ATOM     44  N   UNL     1      -2.387   8.883   0.379  1.00  0.00    -0.354 N 
ATOM     45  C   UNL     1      -3.979  11.405  -4.341  1.00  0.00     0.074 A 
ATOM     46  C   UNL     1      -2.803  11.066  -5.108  1.00  0.00     0.031 C 
ATOM     47  C   UNL     1      -4.639   9.072   0.381  1.00  0.00     0.029 A 
ATOM     48  C   UNL     1      -3.460   9.268   1.209  1.00  0.00     0.049 A 
ATOM     49  H   UNL     1      -1.537   8.472   0.658  1.00  0.00     0.167 HD
ATOM     50  C   UNL     1      -5.245  11.817  -4.638  1.00  0.00     0.037 A 
ATOM     51  C   UNL     1      -3.314  10.263   2.133  1.00  0.00     0.037 A 
ATOM     52  C   UNL     1      -6.068  11.880  -3.434  1.00  0.00     0.049 A 
ATOM     53  C   UNL     1      -4.262  11.421   1.930  1.00  0.00     0.074 A 
ATOM     54  C   UNL     1      -6.931  10.965  -2.852  1.00  0.00     0.029 A 
ATOM     55  N   UNL     1      -5.807  12.845  -2.469  1.00  0.00    -0.354 N 
ATOM     56  N   UNL     1      -4.832  11.705   0.791  1.00  0.00    -0.248 NA
ATOM     57  C   UNL     1      -4.626  12.360   2.988  1.00  0.00     0.031 C 
ATOM     58  C   UNL     1      -7.136  11.349  -1.505  1.00  0.00     0.029 A 
ATOM     59  C   UNL     1      -6.423  12.514  -1.278  1.00  0.00     0.049 A 
ATOM     60  H   UNL     1      -5.260  13.651  -2.614  1.00  0.00     0.167 HD
ATOM     61  C   UNL     1      -5.604  12.828   0.936  1.00  0.00     0.074 A 
ATOM     62  C   UNL     1      -5.455  13.191   2.333  1.00  0.00     0.031 C 
ATOM     63  C   UNL     1      -6.295  13.369  -0.109  1.00  0.00     0.037 A 
BRANCH  50  64
ATOM     64  C   UNL     1      -5.803  11.841  -6.042  1.00  0.00     0.057 A 
ATOM     65  C   UNL     1      -7.160  11.550  -6.284  1.00  0.00     0.134 A 
ATOM     66  C   UNL     1      -5.047  12.079  -7.202  1.00  0.00     0.134 A 
ATOM     67  F   UNL     1      -8.043  11.415  -5.286  1.00  0.00    -0.206 F 
ATOM     68  C   UNL     1      -7.685  11.375  -7.571  1.00  0.00     0.040 A 
ATOM     69  C   UNL     1      -5.543  11.854  -8.495  1.00  0.00     0.040 A 
ATOM     70  F   UNL     1      -3.810  12.589  -7.137  1.00  0.00    -0.206 F 
ATOM     71  C   UNL     1      -6.866  11.483  -8.683  1.00  0.00     0.006 A 
ENDBRANCH  50  64
BRANCH  51  72
ATOM     72  C   UNL     1      -1.926  10.387   2.655  1.00  0.00     0.057 A 
ATOM     73  C   UNL     1      -1.366   9.302   3.355  1.00  0.00     0.134 A 
ATOM     74  C   UNL     1      -1.042  11.357   2.175  1.00  0.00     0.134 A 
ATOM     75  F   UNL     1      -2.160   8.339   3.850  1.00  0.00    -0.206 F 
ATOM     76  C   UNL     1       0.015   9.126   3.464  1.00  0.00     0.040 A 
ATOM     77  C   UNL     1       0.345  11.199   2.293  1.00  0.00     0.040 A 
ATOM     78  F   UNL     1      -1.494  12.416   1.490  1.00  0.00    -0.206 F 
ATOM     79  C   UNL     1       0.877  10.061   2.901  1.00  0.00     0.006 A 
ENDBRANCH  51  72
BRANCH  63  80
ATOM     80  C   UNL     1      -6.985  14.709  -0.118  1.00  0.00     0.057 A 
ATOM     81  C   UNL     1      -6.561  15.818   0.627  1.00  0.00     0.134 A 
ATOM     82  C   UNL     1      -8.033  14.966  -1.033  1.00  0.00     0.134 A 
ATOM     83  F   UNL     1      -5.511  15.745   1.456  1.00  0.00    -0.206 F 
ATOM     84  C   UNL     1      -7.163  17.077   0.507  1.00  0.00     0.040 A 
ATOM     85  C   UNL     1      -8.604  16.229  -1.199  1.00  0.00     0.040 A 
ATOM     86  F   UNL     1      -8.530  14.003  -1.824  1.00  0.00    -0.206 F 
ATOM     87  C   UNL     1      -8.178  17.291  -0.417  1.00  0.00     0.006 A 
ENDBRANCH  63  80
ENDBRANCH  37  38
ENDBRANCH  29  32
ENDBRANCH  27  28
ENDBRANCH   1  27
TORSDOF 12
