REMARK SMILES COc1ccc(S(=O)(=O)N[C@H]2C=C[C@@H](C(=O)NCCCNC(=O)c3ccc(-c4c5nc(c(-c6c(F)cccc6F)c6ccc([nH]6)c(-c6c(F)cccc6F)c6nc(c(-c7c(F)cccc7F)c7ccc4[nH]7)C=C6)C=C5)cc3)C2)cc1
REMARK SMILES IDX 18 1 17 2 15 3 16 4 14 6 11 7 12 8 78 9 13 10 10 11 7 13
REMARK SMILES IDX 8 14 9 15 6 16 3 17 4 18 80 19 5 20 79 21 2 22 1 23 19 24
REMARK SMILES IDX 20 25 21 26 22 27 23 29 24 30 25 31 77 32 26 33 76 34 27 35
REMARK SMILES IDX 28 36 29 37 70 38 30 39 75 40 69 41 71 42 31 43 74 44 68 45
REMARK SMILES IDX 67 46 32 48 58 49 41 50 57 51 42 52 45 53 56 54 72 55 43 56
REMARK SMILES IDX 44 57 55 59 73 60 46 61 33 62 34 63 39 64 35 65 36 66 38 67
REMARK SMILES IDX 40 68 37 69 59 70 60 71 65 72 61 73 62 74 64 75 66 76 63 77
REMARK SMILES IDX 47 78 48 79 53 80 49 81 50 82 52 83 54 84 51 85
REMARK H PARENT 17 5 10 12 21 28 71 47 45 58
REMARK Flexibility Score: inf
ROOT
ATOM      1  C   UNL     1       4.927   3.330  -0.679  1.00  0.00     0.117 C 
ENDROOT
BRANCH   1   2
ATOM      2  N   UNL     1       4.990   1.988  -1.242  1.00  0.00    -0.356 N 
ATOM      3  C   UNL     1       5.467   1.453  -2.396  1.00  0.00     0.226 C 
ATOM      4  O   UNL     1       5.299   0.229  -2.508  1.00  0.00    -0.274 OA
ATOM      5  H   UNL     1       4.595   1.310  -0.647  1.00  0.00     0.163 HD
BRANCH   3   6
ATOM      6  C   UNL     1       6.106   2.217  -3.570  1.00  0.00     0.103 C 
ATOM      7  C   UNL     1       4.839   4.001  -4.707  1.00  0.00     0.093 C 
ATOM      8  C   UNL     1       6.038   4.523  -3.967  1.00  0.00    -0.011 C 
ATOM      9  C   UNL     1       5.142   2.500  -4.741  1.00  0.00     0.042 C 
ATOM     10  C   UNL     1       6.718   3.556  -3.338  1.00  0.00    -0.016 C 
BRANCH   7  11
ATOM     11  N   UNL     1       3.660   4.344  -3.895  1.00  0.00    -0.204 NA
ATOM     12  H   UNL     1       3.659   3.727  -3.084  1.00  0.00     0.142 HD
BRANCH  11  13
ATOM     13  S   UNL     1       2.130   4.222  -4.627  1.00  0.00     0.241 S 
ATOM     14  O   UNL     1       2.296   3.790  -5.995  1.00  0.00    -0.207 OA
ATOM     15  O   UNL     1       1.472   5.462  -4.276  1.00  0.00    -0.207 OA
BRANCH  13  16
ATOM     16  C   UNL     1       1.304   2.929  -3.733  1.00  0.00     0.082 A 
ATOM     17  C   UNL     1       0.046   0.944  -2.204  1.00  0.00     0.118 A 
ATOM     18  C   UNL     1      -0.710   1.903  -2.889  1.00  0.00     0.048 A 
ATOM     19  C   UNL     1       1.430   0.960  -2.320  1.00  0.00     0.048 A 
ATOM     20  C   UNL     1      -0.086   2.906  -3.645  1.00  0.00     0.025 A 
ATOM     21  C   UNL     1       2.044   1.956  -3.071  1.00  0.00     0.025 A 
BRANCH  17  22
ATOM     22  O   UNL     1      -0.653   0.027  -1.469  1.00  0.00    -0.497 OA
ATOM     23  C   UNL     1       0.061  -0.544  -0.375  1.00  0.00     0.278 C 
ENDBRANCH  17  22
ENDBRANCH  13  16
ENDBRANCH  11  13
ENDBRANCH   7  11
ENDBRANCH   3   6
ENDBRANCH   1   2
BRANCH   1  24
ATOM     24  C   UNL     1       3.499   3.815  -0.402  1.00  0.00     0.042 C 
BRANCH  24  25
ATOM     25  C   UNL     1       2.686   2.970   0.581  1.00  0.00     0.118 C 
BRANCH  25  26
ATOM     26  N   UNL     1       2.970   3.314   1.965  1.00  0.00    -0.352 N 
ATOM     27  C   UNL     1       2.135   3.822   2.933  1.00  0.00     0.251 C 
ATOM     28  H   UNL     1       3.898   3.160   2.253  1.00  0.00     0.163 HD
ATOM     29  O   UNL     1       2.618   4.260   3.974  1.00  0.00    -0.269 OA
BRANCH  27  30
ATOM     30  C   UNL     1       0.663   3.853   2.748  1.00  0.00     0.039 A 
ATOM     31  C   UNL     1      -0.045   4.987   3.159  1.00  0.00     0.014 A 
ATOM     32  C   UNL     1      -0.036   2.746   2.259  1.00  0.00     0.014 A 
ATOM     33  C   UNL     1      -1.440   5.026   3.045  1.00  0.00     0.010 A 
ATOM     34  C   UNL     1      -1.425   2.804   2.095  1.00  0.00     0.010 A 
ATOM     35  C   UNL     1      -2.144   3.940   2.498  1.00  0.00    -0.014 A 
BRANCH  35  36
ATOM     36  C   UNL     1      -3.626   3.983   2.358  1.00  0.00     0.031 A 
ATOM     37  C   UNL     1      -4.503   3.068   3.171  1.00  0.00     0.074 A 
ATOM     38  C   UNL     1      -4.193   4.826   1.473  1.00  0.00     0.049 A 
ATOM     39  N   UNL     1      -5.808   2.947   3.161  1.00  0.00    -0.248 NA
ATOM     40  C   UNL     1      -3.823   2.157   4.103  1.00  0.00     0.031 C 
ATOM     41  C   UNL     1      -3.466   5.738   0.590  1.00  0.00     0.029 A 
ATOM     42  N   UNL     1      -5.513   5.043   1.163  1.00  0.00    -0.354 N 
ATOM     43  C   UNL     1      -6.104   1.943   4.075  1.00  0.00     0.074 A 
ATOM     44  C   UNL     1      -4.840   1.457   4.587  1.00  0.00     0.031 C 
ATOM     45  C   UNL     1      -4.348   6.425  -0.152  1.00  0.00     0.029 A 
ATOM     46  C   UNL     1      -5.700   5.985   0.181  1.00  0.00     0.049 A 
ATOM     47  H   UNL     1      -6.255   4.569   1.603  1.00  0.00     0.167 HD
ATOM     48  C   UNL     1      -7.315   1.480   4.470  1.00  0.00     0.037 A 
ATOM     49  C   UNL     1      -6.830   6.441  -0.393  1.00  0.00     0.037 A 
ATOM     50  C   UNL     1      -8.579   1.969   3.979  1.00  0.00     0.049 A 
ATOM     51  C   UNL     1      -8.164   5.916   0.061  1.00  0.00     0.074 A 
ATOM     52  C   UNL     1      -9.856   1.594   4.360  1.00  0.00     0.029 A 
ATOM     53  N   UNL     1      -8.724   2.937   2.998  1.00  0.00    -0.354 N 
ATOM     54  N   UNL     1      -8.428   5.011   0.971  1.00  0.00    -0.248 NA
ATOM     55  C   UNL     1      -9.356   6.485  -0.585  1.00  0.00     0.031 C 
ATOM     56  C   UNL     1     -10.775   2.310   3.584  1.00  0.00     0.029 A 
ATOM     57  C   UNL     1     -10.070   3.160   2.749  1.00  0.00     0.049 A 
ATOM     58  H   UNL     1      -7.982   3.399   2.546  1.00  0.00     0.167 HD
ATOM     59  C   UNL     1      -9.813   4.913   1.019  1.00  0.00     0.074 A 
ATOM     60  C   UNL     1     -10.334   5.863   0.059  1.00  0.00     0.031 C 
ATOM     61  C   UNL     1     -10.581   4.107   1.791  1.00  0.00     0.037 A 
BRANCH  48  62
ATOM     62  C   UNL     1      -7.330   0.384   5.495  1.00  0.00     0.057 A 
ATOM     63  C   UNL     1      -6.985   0.621   6.832  1.00  0.00     0.134 A 
ATOM     64  C   UNL     1      -7.720  -0.917   5.151  1.00  0.00     0.134 A 
ATOM     65  F   UNL     1      -6.594   1.843   7.226  1.00  0.00    -0.206 F 
ATOM     66  C   UNL     1      -6.996  -0.401   7.783  1.00  0.00     0.040 A 
ATOM     67  C   UNL     1      -7.760  -1.942   6.098  1.00  0.00     0.040 A 
ATOM     68  F   UNL     1      -8.073  -1.211   3.890  1.00  0.00    -0.206 F 
ATOM     69  C   UNL     1      -7.389  -1.687   7.417  1.00  0.00     0.006 A 
ENDBRANCH  48  62
BRANCH  49  70
ATOM     70  C   UNL     1      -6.747   7.471  -1.457  1.00  0.00     0.057 A 
ATOM     71  C   UNL     1      -7.130   8.795  -1.213  1.00  0.00     0.134 A 
ATOM     72  C   UNL     1      -6.272   7.160  -2.736  1.00  0.00     0.134 A 
ATOM     73  F   UNL     1      -7.611   9.147  -0.012  1.00  0.00    -0.206 F 
ATOM     74  C   UNL     1      -7.054   9.771  -2.207  1.00  0.00     0.040 A 
ATOM     75  C   UNL     1      -6.170   8.131  -3.733  1.00  0.00     0.040 A 
ATOM     76  F   UNL     1      -5.886   5.909  -3.029  1.00  0.00    -0.206 F 
ATOM     77  C   UNL     1      -6.566   9.441  -3.470  1.00  0.00     0.006 A 
ENDBRANCH  49  70
BRANCH  61  78
ATOM     78  C   UNL     1     -12.070   4.230   1.646  1.00  0.00     0.057 A 
ATOM     79  C   UNL     1     -12.745   3.725   0.528  1.00  0.00     0.134 A 
ATOM     80  C   UNL     1     -12.839   4.828   2.652  1.00  0.00     0.134 A 
ATOM     81  F   UNL     1     -12.065   3.153  -0.477  1.00  0.00    -0.206 F 
ATOM     82  C   UNL     1     -14.133   3.828   0.407  1.00  0.00     0.040 A 
ATOM     83  C   UNL     1     -14.228   4.917   2.552  1.00  0.00     0.040 A 
ATOM     84  F   UNL     1     -12.254   5.326   3.752  1.00  0.00    -0.206 F 
ATOM     85  C   UNL     1     -14.879   4.420   1.425  1.00  0.00     0.006 A 
ENDBRANCH  61  78
ENDBRANCH  35  36
ENDBRANCH  27  30
ENDBRANCH  25  26
ENDBRANCH  24  25
ENDBRANCH   1  24
TORSDOF 14
