REMARK SMILES CCC(CC)(NC(=O)NC[C@H](C)[NH+]1CCCCC1)C(=O)NCCCNC(=O)c1ccc(-c2c3nc(c(-c4c(F)cccc4F)c4ccc([nH]4)c(-c4c(F)cccc4F)c4nc(c(-c5c(F)cccc5F)c5ccc2[nH]5)C=C4)C=C3)cc1
REMARK SMILES IDX 22 1 21 2 19 3 20 4 3 6 2 7 1 8 4 9 5 10 6 11 7 12 8 14 9 15
REMARK SMILES IDX 10 17 11 18 12 19 13 20 14 21 18 22 15 24 17 25 16 26 23 27
REMARK SMILES IDX 24 28 25 29 26 30 27 32 28 33 29 34 81 35 30 36 80 37 31 38
REMARK SMILES IDX 32 39 33 40 74 41 34 42 79 43 73 44 75 45 35 46 78 47 72 48
REMARK SMILES IDX 71 49 36 51 62 52 45 53 61 54 46 55 49 56 60 57 76 58 47 59
REMARK SMILES IDX 48 60 59 62 77 63 50 64 37 65 38 66 43 67 39 68 40 69 42 70
REMARK SMILES IDX 44 71 41 72 63 73 64 74 69 75 65 76 66 77 68 78 70 79 67 80
REMARK SMILES IDX 51 81 52 82 57 83 53 84 54 85 56 86 58 87 55 88
REMARK H PARENT 21 5 6 13 9 16 13 23 25 31 75 50 49 61
REMARK Flexibility Score: inf
ROOT
ATOM      1  C   UNL     1       2.883  -1.944   4.614  1.00  0.00     0.117 C 
ENDROOT
BRANCH   1   2
ATOM      2  N   UNL     1       3.810  -1.604   3.514  1.00  0.00    -0.354 N 
ATOM      3  C   UNL     1       5.174  -1.606   3.281  1.00  0.00     0.245 C 
ATOM      4  O   UNL     1       5.552  -1.341   2.135  1.00  0.00    -0.272 OA
ATOM      5  H   UNL     1       3.317  -1.287   2.723  1.00  0.00     0.163 HD
BRANCH   3   6
ATOM      6  C   UNL     1       6.134  -2.207   4.313  1.00  0.00     0.120 C 
BRANCH   6   7
ATOM      7  C   UNL     1       7.670  -1.986   4.245  1.00  0.00     0.035 C 
ATOM      8  C   UNL     1       8.383  -2.142   2.913  1.00  0.00     0.007 C 
ENDBRANCH   6   7
BRANCH   6   9
ATOM      9  C   UNL     1       5.784  -3.715   4.005  1.00  0.00     0.035 C 
ATOM     10  C   UNL     1       6.465  -4.869   4.702  1.00  0.00     0.007 C 
ENDBRANCH   6   9
BRANCH   6  11
ATOM     11  N   UNL     1       5.697  -1.675   5.608  1.00  0.00    -0.324 N 
ATOM     12  C   UNL     1       5.423  -0.421   6.026  1.00  0.00     0.315 C 
ATOM     13  H   UNL     1       5.583  -2.362   6.304  1.00  0.00     0.166 HD
ATOM     14  O   UNL     1       5.344  -0.260   7.250  1.00  0.00    -0.249 OA
ATOM     15  N   UNL     1       5.062   0.630   5.254  1.00  0.00    -0.332 N 
ATOM     16  H   UNL     1       4.408   1.196   5.725  1.00  0.00     0.165 HD
BRANCH  15  17
ATOM     17  C   UNL     1       5.359   1.188   3.902  1.00  0.00     0.182 C 
BRANCH  17  18
ATOM     18  C   UNL     1       4.193   1.721   2.945  1.00  0.00     0.200 C 
ATOM     19  C   UNL     1       3.049   0.836   2.457  1.00  0.00     0.077 C 
BRANCH  18  20
ATOM     20  N   UNL     1       4.792   2.412   1.758  1.00  0.00    -0.331 N 
ATOM     21  C   UNL     1       4.630   1.671   0.480  1.00  0.00     0.262 C 
ATOM     22  C   UNL     1       4.248   3.771   1.654  1.00  0.00     0.262 C 
ATOM     23  H   UNL     1       5.799   2.451   1.917  1.00  0.00     0.348 HD
ATOM     24  C   UNL     1       5.195   2.385  -0.738  1.00  0.00     0.062 C 
ATOM     25  C   UNL     1       4.851   4.522   0.472  1.00  0.00     0.062 C 
ATOM     26  C   UNL     1       4.597   3.779  -0.832  1.00  0.00     0.012 C 
ENDBRANCH  18  20
ENDBRANCH  17  18
ENDBRANCH  15  17
ENDBRANCH   6  11
ENDBRANCH   3   6
ENDBRANCH   1   2
BRANCH   1  27
ATOM     27  C   UNL     1       2.257  -0.945   5.649  1.00  0.00     0.042 C 
BRANCH  27  28
ATOM     28  C   UNL     1       1.667   0.462   5.413  1.00  0.00     0.118 C 
BRANCH  28  29
ATOM     29  N   UNL     1       0.630   0.571   4.397  1.00  0.00    -0.352 N 
ATOM     30  C   UNL     1      -0.396   1.470   4.238  1.00  0.00     0.251 C 
ATOM     31  H   UNL     1       0.672  -0.123   3.700  1.00  0.00     0.163 HD
ATOM     32  O   UNL     1      -1.003   1.503   3.176  1.00  0.00    -0.269 OA
BRANCH  30  33
ATOM     33  C   UNL     1      -0.863   2.315   5.354  1.00  0.00     0.039 A 
ATOM     34  C   UNL     1      -2.234   2.264   5.632  1.00  0.00     0.014 A 
ATOM     35  C   UNL     1      -0.023   3.142   6.101  1.00  0.00     0.014 A 
ATOM     36  C   UNL     1      -2.756   2.984   6.700  1.00  0.00     0.010 A 
ATOM     37  C   UNL     1      -0.537   3.823   7.207  1.00  0.00     0.010 A 
ATOM     38  C   UNL     1      -1.903   3.734   7.521  1.00  0.00    -0.014 A 
BRANCH  38  39
ATOM     39  C   UNL     1      -2.448   4.367   8.744  1.00  0.00     0.031 A 
ATOM     40  C   UNL     1      -2.538   5.858   8.860  1.00  0.00     0.074 A 
ATOM     41  C   UNL     1      -2.860   3.567   9.746  1.00  0.00     0.049 A 
ATOM     42  N   UNL     1      -3.050   6.579   9.823  1.00  0.00    -0.248 NA
ATOM     43  C   UNL     1      -1.956   6.645   7.762  1.00  0.00     0.031 C 
ATOM     44  C   UNL     1      -2.756   2.104   9.748  1.00  0.00     0.029 A 
ATOM     45  N   UNL     1      -3.457   3.857  10.943  1.00  0.00    -0.354 N 
ATOM     46  C   UNL     1      -2.851   7.902   9.450  1.00  0.00     0.074 A 
ATOM     47  C   UNL     1      -2.119   7.884   8.202  1.00  0.00     0.031 C 
ATOM     48  C   UNL     1      -3.315   1.624  10.870  1.00  0.00     0.029 A 
ATOM     49  C   UNL     1      -3.785   2.743  11.677  1.00  0.00     0.049 A 
ATOM     50  H   UNL     1      -3.634   4.776  11.249  1.00  0.00     0.167 HD
ATOM     51  C   UNL     1      -3.265   9.025  10.084  1.00  0.00     0.037 A 
ATOM     52  C   UNL     1      -4.409   2.640  12.864  1.00  0.00     0.037 A 
ATOM     53  C   UNL     1      -3.996   9.016  11.325  1.00  0.00     0.049 A 
ATOM     54  C   UNL     1      -4.872   3.900  13.536  1.00  0.00     0.074 A 
ATOM     55  C   UNL     1      -4.503  10.086  12.040  1.00  0.00     0.029 A 
ATOM     56  N   UNL     1      -4.317   7.869  12.040  1.00  0.00    -0.354 N 
ATOM     57  N   UNL     1      -4.748   5.144  13.136  1.00  0.00    -0.248 NA
ATOM     58  C   UNL     1      -5.576   3.744  14.814  1.00  0.00     0.031 C 
ATOM     59  C   UNL     1      -5.089   9.590  13.210  1.00  0.00     0.029 A 
ATOM     60  C   UNL     1      -4.999   8.207  13.198  1.00  0.00     0.049 A 
ATOM     61  H   UNL     1      -4.092   6.951  11.765  1.00  0.00     0.167 HD
ATOM     62  C   UNL     1      -5.378   5.918  14.099  1.00  0.00     0.074 A 
ATOM     63  C   UNL     1      -5.906   4.998  15.088  1.00  0.00     0.031 C 
ATOM     64  C   UNL     1      -5.507   7.267  14.167  1.00  0.00     0.037 A 
BRANCH  51  65
ATOM     65  C   UNL     1      -2.933  10.344   9.445  1.00  0.00     0.057 A 
ATOM     66  C   UNL     1      -3.519  10.751   8.238  1.00  0.00     0.134 A 
ATOM     67  C   UNL     1      -2.030  11.228  10.049  1.00  0.00     0.134 A 
ATOM     68  F   UNL     1      -4.382   9.948   7.596  1.00  0.00    -0.206 F 
ATOM     69  C   UNL     1      -3.198  11.972   7.641  1.00  0.00     0.040 A 
ATOM     70  C   UNL     1      -1.723  12.465   9.478  1.00  0.00     0.040 A 
ATOM     71  F   UNL     1      -1.433  10.907  11.206  1.00  0.00    -0.206 F 
ATOM     72  C   UNL     1      -2.302  12.836   8.266  1.00  0.00     0.006 A 
ENDBRANCH  51  65
BRANCH  52  73
ATOM     73  C   UNL     1      -4.667   1.304  13.459  1.00  0.00     0.057 A 
ATOM     74  C   UNL     1      -5.967   0.796  13.569  1.00  0.00     0.134 A 
ATOM     75  C   UNL     1      -3.621   0.498  13.927  1.00  0.00     0.134 A 
ATOM     76  F   UNL     1      -7.013   1.522  13.148  1.00  0.00    -0.206 F 
ATOM     77  C   UNL     1      -6.221  -0.450  14.144  1.00  0.00     0.040 A 
ATOM     78  C   UNL     1      -3.857  -0.762  14.478  1.00  0.00     0.040 A 
ATOM     79  F   UNL     1      -2.350   0.918  13.837  1.00  0.00    -0.206 F 
ATOM     80  C   UNL     1      -5.162  -1.236  14.596  1.00  0.00     0.006 A 
ENDBRANCH  52  73
BRANCH  64  81
ATOM     81  C   UNL     1      -6.274   7.809  15.337  1.00  0.00     0.057 A 
ATOM     82  C   UNL     1      -5.771   7.755  16.644  1.00  0.00     0.134 A 
ATOM     83  C   UNL     1      -7.533   8.395  15.152  1.00  0.00     0.134 A 
ATOM     84  F   UNL     1      -4.576   7.194  16.890  1.00  0.00    -0.206 F 
ATOM     85  C   UNL     1      -6.511   8.224  17.729  1.00  0.00     0.040 A 
ATOM     86  C   UNL     1      -8.267   8.899  16.225  1.00  0.00     0.040 A 
ATOM     87  F   UNL     1      -8.068   8.489  13.925  1.00  0.00    -0.206 F 
ATOM     88  C   UNL     1      -7.761   8.803  17.520  1.00  0.00     0.006 A 
ENDBRANCH  64  81
ENDBRANCH  38  39
ENDBRANCH  30  33
ENDBRANCH  28  29
ENDBRANCH  27  28
ENDBRANCH   1  27
TORSDOF 16
