REMARK SMILES C[C@@H](NC(=O)[C@@H](C)NC(=O)C(C)(C)C)C(=O)NCCCNC(=O)c1ccc(-c2c3nc(c(-c4c(F)cccc4F)c4ccc([nH]4)c(-c4c(F)cccc4F)c4nc(c(-c5c(F)cccc5F)c5ccc2[nH]5)C=C4)C=C3)cc1
REMARK SMILES IDX 18 1 17 2 15 3 16 4 2 6 1 7 3 8 4 9 5 11 6 12 7 13 8 14 9 15
REMARK SMILES IDX 10 17 11 18 12 19 13 20 14 21 19 22 20 23 21 24 22 25 23 27
REMARK SMILES IDX 24 28 25 29 77 30 26 31 76 32 27 33 28 34 29 35 70 36 30 37
REMARK SMILES IDX 75 38 69 39 71 40 31 41 74 42 68 43 67 44 32 46 58 47 41 48
REMARK SMILES IDX 57 49 42 50 45 51 56 52 72 53 43 54 44 55 55 57 73 58 46 59
REMARK SMILES IDX 33 60 34 61 39 62 35 63 36 64 38 65 40 66 37 67 59 68 60 69
REMARK SMILES IDX 65 70 61 71 62 72 64 73 66 74 63 75 47 76 48 77 53 78 49 79
REMARK SMILES IDX 50 80 52 81 54 82 51 83
REMARK H PARENT 17 5 3 10 8 16 21 26 71 45 45 56
REMARK Flexibility Score: inf
ROOT
ATOM      1  C   UNL     1      -0.469   1.421   1.479  1.00  0.00     0.117 C 
ENDROOT
BRANCH   1   2
ATOM      2  N   UNL     1      -1.051   0.740   0.332  1.00  0.00    -0.354 N 
ATOM      3  C   UNL     1      -0.818  -0.502  -0.173  1.00  0.00     0.242 C 
ATOM      4  O   UNL     1      -1.537  -0.874  -1.105  1.00  0.00    -0.273 OA
ATOM      5  H   UNL     1      -1.725   1.264  -0.158  1.00  0.00     0.163 HD
BRANCH   3   6
ATOM      6  C   UNL     1       0.413  -1.329   0.229  1.00  0.00     0.168 C 
ATOM      7  C   UNL     1       1.618  -0.666  -0.456  1.00  0.00     0.041 C 
BRANCH   6   8
ATOM      8  N   UNL     1       0.706  -1.506   1.650  1.00  0.00    -0.343 N 
ATOM      9  C   UNL     1       0.118  -2.247   2.627  1.00  0.00     0.242 C 
ATOM     10  H   UNL     1       1.481  -0.985   1.961  1.00  0.00     0.164 HD
ATOM     11  O   UNL     1       0.804  -2.412   3.645  1.00  0.00    -0.273 OA
BRANCH   9  12
ATOM     12  C   UNL     1      -1.366  -2.691   2.635  1.00  0.00     0.168 C 
ATOM     13  C   UNL     1      -2.259  -1.476   2.828  1.00  0.00     0.041 C 
BRANCH  12  14
ATOM     14  N   UNL     1      -1.829  -3.512   1.530  1.00  0.00    -0.344 N 
ATOM     15  C   UNL     1      -2.782  -4.489   1.497  1.00  0.00     0.226 C 
ATOM     16  H   UNL     1      -1.385  -3.336   0.669  1.00  0.00     0.164 HD
ATOM     17  O   UNL     1      -2.970  -4.999   0.386  1.00  0.00    -0.275 OA
BRANCH  15  18
ATOM     18  C   UNL     1      -3.584  -4.976   2.744  1.00  0.00     0.041 C 
ATOM     19  C   UNL     1      -2.685  -5.668   3.779  1.00  0.00     0.021 C 
ATOM     20  C   UNL     1      -4.406  -3.863   3.407  1.00  0.00     0.021 C 
ATOM     21  C   UNL     1      -4.607  -6.036   2.261  1.00  0.00     0.021 C 
ENDBRANCH  15  18
ENDBRANCH  12  14
ENDBRANCH   9  12
ENDBRANCH   6   8
ENDBRANCH   3   6
ENDBRANCH   1   2
BRANCH   1  22
ATOM     22  C   UNL     1      -1.314   2.615   1.923  1.00  0.00     0.042 C 
BRANCH  22  23
ATOM     23  C   UNL     1      -2.797   2.311   2.145  1.00  0.00     0.118 C 
BRANCH  23  24
ATOM     24  N   UNL     1      -3.133   1.850   3.484  1.00  0.00    -0.352 N 
ATOM     25  C   UNL     1      -3.858   2.451   4.490  1.00  0.00     0.251 C 
ATOM     26  H   UNL     1      -2.783   0.958   3.710  1.00  0.00     0.163 HD
ATOM     27  O   UNL     1      -4.013   1.877   5.559  1.00  0.00    -0.269 OA
BRANCH  25  28
ATOM     28  C   UNL     1      -4.377   3.822   4.307  1.00  0.00     0.039 A 
ATOM     29  C   UNL     1      -4.086   4.774   5.288  1.00  0.00     0.014 A 
ATOM     30  C   UNL     1      -5.073   4.192   3.157  1.00  0.00     0.014 A 
ATOM     31  C   UNL     1      -4.369   6.119   5.048  1.00  0.00     0.010 A 
ATOM     32  C   UNL     1      -5.258   5.541   2.873  1.00  0.00     0.010 A 
ATOM     33  C   UNL     1      -4.882   6.521   3.804  1.00  0.00    -0.014 A 
BRANCH  33  34
ATOM     34  C   UNL     1      -4.976   7.958   3.436  1.00  0.00     0.031 A 
ATOM     35  C   UNL     1      -6.301   8.567   3.075  1.00  0.00     0.074 A 
ATOM     36  C   UNL     1      -3.848   8.691   3.333  1.00  0.00     0.049 A 
ATOM     37  N   UNL     1      -6.562   9.767   2.621  1.00  0.00    -0.248 NA
ATOM     38  C   UNL     1      -7.485   7.704   3.207  1.00  0.00     0.031 C 
ATOM     39  C   UNL     1      -2.491   8.204   3.592  1.00  0.00     0.029 A 
ATOM     40  N   UNL     1      -3.662  10.002   2.969  1.00  0.00    -0.354 N 
ATOM     41  C   UNL     1      -7.931   9.793   2.391  1.00  0.00     0.074 A 
ATOM     42  C   UNL     1      -8.439   8.476   2.708  1.00  0.00     0.031 C 
ATOM     43  C   UNL     1      -1.618   9.207   3.408  1.00  0.00     0.029 A 
ATOM     44  C   UNL     1      -2.345  10.395   2.976  1.00  0.00     0.049 A 
ATOM     45  H   UNL     1      -4.402  10.603   2.725  1.00  0.00     0.167 HD
ATOM     46  C   UNL     1      -8.700  10.828   1.976  1.00  0.00     0.037 A 
ATOM     47  C   UNL     1      -1.782  11.577   2.660  1.00  0.00     0.037 A 
ATOM     48  C   UNL     1      -8.202  12.149   1.701  1.00  0.00     0.049 A 
ATOM     49  C   UNL     1      -2.660  12.713   2.217  1.00  0.00     0.074 A 
ATOM     50  C   UNL     1      -8.915  13.284   1.353  1.00  0.00     0.029 A 
ATOM     51  N   UNL     1      -6.865  12.513   1.745  1.00  0.00    -0.354 N 
ATOM     52  N   UNL     1      -3.961  12.741   2.069  1.00  0.00    -0.248 NA
ATOM     53  C   UNL     1      -1.990  13.981   1.897  1.00  0.00     0.031 C 
ATOM     54  C   UNL     1      -8.004  14.327   1.152  1.00  0.00     0.029 A 
ATOM     55  C   UNL     1      -6.729  13.851   1.411  1.00  0.00     0.049 A 
ATOM     56  H   UNL     1      -6.123  11.911   1.979  1.00  0.00     0.167 HD
ATOM     57  C   UNL     1      -4.269  14.030   1.657  1.00  0.00     0.074 A 
ATOM     58  C   UNL     1      -3.019  14.760   1.595  1.00  0.00     0.031 C 
ATOM     59  C   UNL     1      -5.478  14.561   1.353  1.00  0.00     0.037 A 
BRANCH  46  60
ATOM     60  C   UNL     1     -10.168  10.570   1.807  1.00  0.00     0.057 A 
ATOM     61  C   UNL     1     -11.014  10.376   2.908  1.00  0.00     0.134 A 
ATOM     62  C   UNL     1     -10.748  10.540   0.533  1.00  0.00     0.134 A 
ATOM     63  F   UNL     1     -10.519  10.380   4.154  1.00  0.00    -0.206 F 
ATOM     64  C   UNL     1     -12.379  10.135   2.745  1.00  0.00     0.040 A 
ATOM     65  C   UNL     1     -12.116  10.325   0.359  1.00  0.00     0.040 A 
ATOM     66  F   UNL     1      -9.995  10.723  -0.562  1.00  0.00    -0.206 F 
ATOM     67  C   UNL     1     -12.935  10.116   1.467  1.00  0.00     0.006 A 
ENDBRANCH  46  60
BRANCH  47  68
ATOM     68  C   UNL     1      -0.313  11.755   2.770  1.00  0.00     0.057 A 
ATOM     69  C   UNL     1       0.241  12.546   3.783  1.00  0.00     0.134 A 
ATOM     70  C   UNL     1       0.569  11.148   1.868  1.00  0.00     0.134 A 
ATOM     71  F   UNL     1      -0.555  13.168   4.665  1.00  0.00    -0.206 F 
ATOM     72  C   UNL     1       1.619  12.742   3.886  1.00  0.00     0.040 A 
ATOM     73  C   UNL     1       1.951  11.318   1.973  1.00  0.00     0.040 A 
ATOM     74  F   UNL     1       0.101  10.371   0.881  1.00  0.00    -0.206 F 
ATOM     75  C   UNL     1       2.479  12.123   2.981  1.00  0.00     0.006 A 
ENDBRANCH  47  68
BRANCH  59  76
ATOM     76  C   UNL     1      -5.507  16.003   0.946  1.00  0.00     0.057 A 
ATOM     77  C   UNL     1      -5.060  16.420  -0.314  1.00  0.00     0.134 A 
ATOM     78  C   UNL     1      -6.020  16.980   1.809  1.00  0.00     0.134 A 
ATOM     79  F   UNL     1      -4.543  15.534  -1.179  1.00  0.00    -0.206 F 
ATOM     80  C   UNL     1      -5.106  17.762  -0.695  1.00  0.00     0.040 A 
ATOM     81  C   UNL     1      -6.092  18.320   1.431  1.00  0.00     0.040 A 
ATOM     82  F   UNL     1      -6.470  16.643   3.027  1.00  0.00    -0.206 F 
ATOM     83  C   UNL     1      -5.630  18.715   0.177  1.00  0.00     0.006 A 
ENDBRANCH  59  76
ENDBRANCH  33  34
ENDBRANCH  25  28
ENDBRANCH  23  24
ENDBRANCH  22  23
ENDBRANCH   1  22
TORSDOF 14
