REMARK SMILES [NH3+][C@@H](Cc1cn(-c2nc(Cl)nc(N3CCOCC3)n2)c2ccccc12)C(=O)NCCCNC(=O)c1ccc(-c2c3nc(c(-c4c(F)cccc4F)c4ccc([nH]4)c(-c4c(F)cccc4F)c4nc(c(-c5c(F)cccc5F)c5ccc2[nH]5)C=C4)C=C3)cc1
REMARK SMILES IDX 29 1 28 2 26 3 27 4 2 6 1 7 3 11 4 12 5 13 25 14 6 15 20 16
REMARK SMILES IDX 24 17 21 18 23 19 22 20 7 21 8 22 19 23 9 24 12 25 10 26
REMARK SMILES IDX 11 27 13 28 14 29 18 30 15 31 17 32 16 33 30 34 31 35 32 36
REMARK SMILES IDX 33 37 34 39 35 40 36 41 88 42 37 43 87 44 38 45 39 46 40 47
REMARK SMILES IDX 81 48 41 49 86 50 80 51 82 52 42 53 85 54 79 55 78 56 43 58
REMARK SMILES IDX 69 59 52 60 68 61 53 62 56 63 67 64 83 65 54 66 55 67 66 69
REMARK SMILES IDX 84 70 57 71 44 72 45 73 50 74 46 75 47 76 49 77 51 78 48 79
REMARK SMILES IDX 70 80 71 81 76 82 72 83 73 84 75 85 77 86 74 87 58 88 59 89
REMARK SMILES IDX 64 90 60 91 61 92 63 93 65 94 62 95
REMARK H PARENT 28 5 1 8 1 9 1 10 32 38 82 57 56 68
REMARK Flexibility Score: inf
ROOT
ATOM      1  C   UNL     1      -2.102  -1.770   0.713  1.00  0.00     0.118 C 
ENDROOT
BRANCH   1   2
ATOM      2  N   UNL     1      -1.963  -1.083  -0.554  1.00  0.00    -0.351 N 
ATOM      3  C   UNL     1      -0.914  -0.876  -1.389  1.00  0.00     0.278 C 
ATOM      4  O   UNL     1      -1.224  -0.400  -2.495  1.00  0.00    -0.268 OA
ATOM      5  H   UNL     1      -2.803  -0.684  -0.876  1.00  0.00     0.163 HD
BRANCH   3   6
ATOM      6  C   UNL     1       0.599  -1.068  -1.074  1.00  0.00     0.275 C 
BRANCH   6   7
ATOM      7  N   UNL     1       1.163   0.164  -0.486  1.00  0.00    -0.347 N 
ATOM      8  H   UNL     1       2.153   0.022  -0.286  1.00  0.00     0.345 HD
ATOM      9  H   UNL     1       0.669   0.385   0.379  1.00  0.00     0.345 HD
ATOM     10  H   UNL     1       1.056   0.935  -1.145  1.00  0.00     0.345 HD
ENDBRANCH   6   7
BRANCH   6  11
ATOM     11  C   UNL     1       1.199  -2.385  -0.567  1.00  0.00     0.113 C 
BRANCH  11  12
ATOM     12  C   UNL     1       1.108  -2.845   0.862  1.00  0.00    -0.015 A 
ATOM     13  C   UNL     1       1.116  -4.194   1.185  1.00  0.00     0.099 A 
ATOM     14  C   UNL     1       0.995  -2.147   2.117  1.00  0.00     0.004 A 
ATOM     15  N   UNL     1       0.744  -4.342   2.497  1.00  0.00    -0.285 N 
ATOM     16  C   UNL     1       0.654  -3.099   3.091  1.00  0.00     0.056 A 
ATOM     17  C   UNL     1       1.052  -0.797   2.532  1.00  0.00     0.010 A 
ATOM     18  C   UNL     1       0.342  -2.749   4.417  1.00  0.00     0.027 A 
ATOM     19  C   UNL     1       0.763  -0.438   3.853  1.00  0.00     0.001 A 
ATOM     20  C   UNL     1       0.411  -1.405   4.780  1.00  0.00     0.002 A 
BRANCH  15  21
ATOM     21  C   UNL     1       0.519  -5.588   3.127  1.00  0.00     0.240 A 
ATOM     22  N   UNL     1      -0.707  -5.850   3.562  1.00  0.00    -0.181 NA
ATOM     23  N   UNL     1       1.568  -6.406   3.219  1.00  0.00    -0.176 NA
ATOM     24  C   UNL     1      -0.819  -7.087   4.020  1.00  0.00     0.228 A 
ATOM     25  C   UNL     1       1.343  -7.569   3.817  1.00  0.00     0.231 A 
ATOM     26  Cl  UNL     1      -2.377  -7.556   4.539  1.00  0.00    -0.041 Cl
ATOM     27  N   UNL     1       0.139  -7.994   4.160  1.00  0.00    -0.182 NA
BRANCH  25  28
ATOM     28  N   UNL     1       2.419  -8.312   4.204  1.00  0.00    -0.336 N 
ATOM     29  C   UNL     1       3.572  -7.656   4.811  1.00  0.00     0.148 C 
ATOM     30  C   UNL     1       2.626  -9.646   3.664  1.00  0.00     0.148 C 
ATOM     31  C   UNL     1       4.794  -7.762   3.895  1.00  0.00     0.181 C 
ATOM     32  C   UNL     1       3.903  -9.658   2.800  1.00  0.00     0.181 C 
ATOM     33  O   UNL     1       5.037  -9.127   3.510  1.00  0.00    -0.378 OA
ENDBRANCH  25  28
ENDBRANCH  15  21
ENDBRANCH  11  12
ENDBRANCH   6  11
ENDBRANCH   3   6
ENDBRANCH   1   2
BRANCH   1  34
ATOM     34  C   UNL     1      -2.382  -0.855   1.912  1.00  0.00     0.042 C 
BRANCH  34  35
ATOM     35  C   UNL     1      -3.781  -0.977   2.522  1.00  0.00     0.118 C 
BRANCH  35  36
ATOM     36  N   UNL     1      -4.213  -2.346   2.727  1.00  0.00    -0.352 N 
ATOM     37  C   UNL     1      -4.279  -3.250   3.747  1.00  0.00     0.251 C 
ATOM     38  H   UNL     1      -4.557  -2.735   1.891  1.00  0.00     0.163 HD
ATOM     39  O   UNL     1      -4.835  -4.307   3.453  1.00  0.00    -0.269 OA
BRANCH  37  40
ATOM     40  C   UNL     1      -3.727  -3.106   5.122  1.00  0.00     0.039 A 
ATOM     41  C   UNL     1      -2.949  -2.060   5.616  1.00  0.00     0.014 A 
ATOM     42  C   UNL     1      -3.970  -4.211   5.965  1.00  0.00     0.014 A 
ATOM     43  C   UNL     1      -2.336  -2.179   6.874  1.00  0.00     0.010 A 
ATOM     44  C   UNL     1      -3.358  -4.334   7.203  1.00  0.00     0.010 A 
ATOM     45  C   UNL     1      -2.475  -3.351   7.628  1.00  0.00    -0.014 A 
BRANCH  45  46
ATOM     46  C   UNL     1      -1.764  -3.510   8.904  1.00  0.00     0.031 A 
ATOM     47  C   UNL     1      -2.156  -2.535   9.964  1.00  0.00     0.074 A 
ATOM     48  C   UNL     1      -0.967  -4.572   9.171  1.00  0.00     0.049 A 
ATOM     49  N   UNL     1      -1.405  -1.712  10.622  1.00  0.00    -0.248 NA
ATOM     50  C   UNL     1      -3.592  -2.392  10.257  1.00  0.00     0.031 C 
ATOM     51  C   UNL     1      -0.720  -5.736   8.309  1.00  0.00     0.029 A 
ATOM     52  N   UNL     1      -0.287  -4.902  10.312  1.00  0.00    -0.354 N 
ATOM     53  C   UNL     1      -2.242  -1.081  11.545  1.00  0.00     0.074 A 
ATOM     54  C   UNL     1      -3.588  -1.418  11.167  1.00  0.00     0.031 C 
ATOM     55  C   UNL     1      -0.148  -6.726   9.031  1.00  0.00     0.029 A 
ATOM     56  C   UNL     1       0.137  -6.230  10.366  1.00  0.00     0.049 A 
ATOM     57  H   UNL     1      -0.113  -4.256  11.035  1.00  0.00     0.167 HD
ATOM     58  C   UNL     1      -1.753  -0.532  12.691  1.00  0.00     0.037 A 
ATOM     59  C   UNL     1       0.652  -6.895  11.433  1.00  0.00     0.037 A 
ATOM     60  C   UNL     1      -0.334  -0.305  12.592  1.00  0.00     0.049 A 
ATOM     61  C   UNL     1       1.101  -5.889  12.417  1.00  0.00     0.074 A 
ATOM     62  C   UNL     1       0.495   0.491  11.830  1.00  0.00     0.029 A 
ATOM     63  N   UNL     1       0.474  -1.233  13.192  1.00  0.00    -0.354 N 
ATOM     64  N   UNL     1       2.130  -5.111  12.244  1.00  0.00    -0.248 NA
ATOM     65  C   UNL     1       0.166  -5.470  13.448  1.00  0.00     0.031 C 
ATOM     66  C   UNL     1       1.697  -0.261  11.675  1.00  0.00     0.029 A 
ATOM     67  C   UNL     1       1.556  -1.453  12.386  1.00  0.00     0.049 A 
ATOM     68  H   UNL     1       0.305  -1.670  14.058  1.00  0.00     0.167 HD
ATOM     69  C   UNL     1       1.745  -3.902  12.799  1.00  0.00     0.074 A 
ATOM     70  C   UNL     1       0.597  -4.221  13.642  1.00  0.00     0.031 C 
ATOM     71  C   UNL     1       2.220  -2.729  12.287  1.00  0.00     0.037 A 
BRANCH  58  72
ATOM     72  C   UNL     1      -2.441  -0.616  14.043  1.00  0.00     0.057 A 
ATOM     73  C   UNL     1      -3.460  -1.536  14.364  1.00  0.00     0.134 A 
ATOM     74  C   UNL     1      -1.830  -0.002  15.155  1.00  0.00     0.134 A 
ATOM     75  F   UNL     1      -4.124  -2.233  13.437  1.00  0.00    -0.206 F 
ATOM     76  C   UNL     1      -3.792  -1.873  15.680  1.00  0.00     0.040 A 
ATOM     77  C   UNL     1      -2.122  -0.368  16.476  1.00  0.00     0.040 A 
ATOM     78  F   UNL     1      -0.855   0.906  14.992  1.00  0.00    -0.206 F 
ATOM     79  C   UNL     1      -3.094  -1.323  16.741  1.00  0.00     0.006 A 
ENDBRANCH  58  72
BRANCH  59  80
ATOM     80  C   UNL     1       0.588  -8.335  11.781  1.00  0.00     0.057 A 
ATOM     81  C   UNL     1      -0.537  -9.107  11.449  1.00  0.00     0.134 A 
ATOM     82  C   UNL     1       1.489  -8.920  12.684  1.00  0.00     0.134 A 
ATOM     83  F   UNL     1      -1.502  -8.613  10.660  1.00  0.00    -0.206 F 
ATOM     84  C   UNL     1      -0.761 -10.379  11.990  1.00  0.00     0.040 A 
ATOM     85  C   UNL     1       1.275 -10.191  13.237  1.00  0.00     0.040 A 
ATOM     86  F   UNL     1       2.571  -8.246  13.101  1.00  0.00    -0.206 F 
ATOM     87  C   UNL     1       0.140 -10.921  12.898  1.00  0.00     0.006 A 
ENDBRANCH  59  80
BRANCH  71  88
ATOM     88  C   UNL     1       3.399  -2.821  11.361  1.00  0.00     0.057 A 
ATOM     89  C   UNL     1       4.585  -2.176  11.721  1.00  0.00     0.134 A 
ATOM     90  C   UNL     1       3.366  -3.437  10.101  1.00  0.00     0.134 A 
ATOM     91  F   UNL     1       4.669  -1.518  12.888  1.00  0.00    -0.206 F 
ATOM     92  C   UNL     1       5.698  -2.160  10.879  1.00  0.00     0.040 A 
ATOM     93  C   UNL     1       4.484  -3.459   9.263  1.00  0.00     0.040 A 
ATOM     94  F   UNL     1       2.245  -3.996   9.629  1.00  0.00    -0.206 F 
ATOM     95  C   UNL     1       5.655  -2.815   9.651  1.00  0.00     0.006 A 
ENDBRANCH  71  88
ENDBRANCH  45  46
ENDBRANCH  37  40
ENDBRANCH  35  36
ENDBRANCH  34  35
ENDBRANCH   1  34
TORSDOF 15
