REMARK SMILES C[C@H](C(=O)NCCCNC(=O)c1ccc(-c2c3nc(c(-c4c(F)cccc4F)c4ccc([nH]4)c(-c4c(F)cccc4F)c4nc(c(-c5c(F)cccc5F)c5ccc2[nH]5)C=C4)C=C3)cc1)[C@@H](C)[N@@H+](C)C[C@H]1C[C@H](O)C1
REMARK SMILES IDX 3 1 4 2 5 3 2 5 1 6 66 7 67 8 68 9 69 10 70 12 71 13 75 14
REMARK SMILES IDX 72 15 73 16 74 17 6 19 7 20 8 21 9 22 10 23 11 25 12 26
REMARK SMILES IDX 13 27 65 28 14 29 64 30 15 31 16 32 17 33 58 34 18 35 63 36
REMARK SMILES IDX 57 37 59 38 19 39 62 40 56 41 55 42 20 44 46 45 29 46 45 47
REMARK SMILES IDX 30 48 33 49 44 50 60 51 31 52 32 53 43 55 61 56 34 57 21 58
REMARK SMILES IDX 22 59 27 60 23 61 24 62 26 63 28 64 25 65 47 66 48 67 53 68
REMARK SMILES IDX 49 69 50 70 52 71 54 72 51 73 35 74 36 75 41 76 37 77 38 78
REMARK SMILES IDX 40 79 42 80 39 81
REMARK H PARENT 5 4 68 11 74 18 9 24 59 43 33 54
REMARK Flexibility Score: inf
ROOT
ATOM      1  C   UNL     1       0.827   0.084  -0.008  1.00  0.00     0.228 C 
ATOM      2  O   UNL     1       0.951  -0.695   0.938  1.00  0.00    -0.275 OA
ATOM      3  N   UNL     1       1.116   1.401   0.211  1.00  0.00    -0.356 N 
ATOM      4  H   UNL     1       1.394   1.604   1.134  1.00  0.00     0.163 HD
ENDROOT
BRANCH   1   5
ATOM      5  C   UNL     1       0.350  -0.379  -1.379  1.00  0.00     0.133 C 
ATOM      6  C   UNL     1       1.146  -1.636  -1.770  1.00  0.00     0.024 C 
BRANCH   5   7
ATOM      7  C   UNL     1      -1.183  -0.668  -1.435  1.00  0.00     0.192 C 
ATOM      8  C   UNL     1      -2.035   0.214  -0.505  1.00  0.00     0.076 C 
BRANCH   7   9
ATOM      9  N   UNL     1      -1.712  -0.787  -2.822  1.00  0.00    -0.334 N 
ATOM     10  C   UNL     1      -3.136  -1.086  -2.907  1.00  0.00     0.332 C 
ATOM     11  H   UNL     1      -1.199  -1.626  -3.093  1.00  0.00     0.348 HD
BRANCH   9  12
ATOM     12  C   UNL     1      -1.254   0.141  -3.865  1.00  0.00     0.265 C 
BRANCH  12  13
ATOM     13  C   UNL     1      -1.705   1.587  -3.698  1.00  0.00     0.049 C 
ATOM     14  C   UNL     1      -3.014   2.020  -4.415  1.00  0.00     0.041 C 
ATOM     15  C   UNL     1      -0.976   2.630  -4.586  1.00  0.00     0.041 C 
ATOM     16  C   UNL     1      -2.326   3.368  -4.731  1.00  0.00     0.115 C 
BRANCH  16  17
ATOM     17  O   UNL     1      -2.571   4.447  -3.806  1.00  0.00    -0.393 OA
ATOM     18  H   UNL     1      -2.404   4.141  -2.901  1.00  0.00     0.210 HD
ENDBRANCH  16  17
ENDBRANCH  12  13
ENDBRANCH   9  12
ENDBRANCH   7   9
ENDBRANCH   5   7
ENDBRANCH   1   5
BRANCH   3  19
ATOM     19  C   UNL     1       1.086   2.559  -0.673  1.00  0.00     0.117 C 
BRANCH  19  20
ATOM     20  C   UNL     1      -0.043   3.530  -0.338  1.00  0.00     0.042 C 
BRANCH  20  21
ATOM     21  C   UNL     1       0.042   4.140   1.056  1.00  0.00     0.118 C 
BRANCH  21  22
ATOM     22  N   UNL     1       1.083   5.148   1.159  1.00  0.00    -0.352 N 
ATOM     23  C   UNL     1       0.992   6.484   1.465  1.00  0.00     0.251 C 
ATOM     24  H   UNL     1       1.995   4.823   0.982  1.00  0.00     0.163 HD
ATOM     25  O   UNL     1       1.976   7.203   1.317  1.00  0.00    -0.269 OA
BRANCH  23  26
ATOM     26  C   UNL     1      -0.278   7.075   1.954  1.00  0.00     0.039 A 
ATOM     27  C   UNL     1      -0.642   8.345   1.496  1.00  0.00     0.014 A 
ATOM     28  C   UNL     1      -1.081   6.423   2.893  1.00  0.00     0.014 A 
ATOM     29  C   UNL     1      -1.828   8.937   1.942  1.00  0.00     0.010 A 
ATOM     30  C   UNL     1      -2.300   6.981   3.280  1.00  0.00     0.010 A 
ATOM     31  C   UNL     1      -2.681   8.250   2.820  1.00  0.00    -0.014 A 
BRANCH  31  32
ATOM     32  C   UNL     1      -3.955   8.860   3.280  1.00  0.00     0.031 A 
ATOM     33  C   UNL     1      -4.154   9.205   4.732  1.00  0.00     0.074 A 
ATOM     34  C   UNL     1      -4.954   9.073   2.401  1.00  0.00     0.049 A 
ATOM     35  N   UNL     1      -5.206   9.711   5.327  1.00  0.00    -0.248 NA
ATOM     36  C   UNL     1      -3.032   8.922   5.641  1.00  0.00     0.031 C 
ATOM     37  C   UNL     1      -4.914   8.739   0.977  1.00  0.00     0.029 A 
ATOM     38  N   UNL     1      -6.201   9.618   2.580  1.00  0.00    -0.354 N 
ATOM     39  C   UNL     1      -4.878   9.793   6.674  1.00  0.00     0.074 A 
ATOM     40  C   UNL     1      -3.550   9.239   6.819  1.00  0.00     0.031 C 
ATOM     41  C   UNL     1      -6.073   9.106   0.407  1.00  0.00     0.029 A 
ATOM     42  C   UNL     1      -6.947   9.677   1.428  1.00  0.00     0.049 A 
ATOM     43  H   UNL     1      -6.530   9.936   3.451  1.00  0.00     0.167 HD
ATOM     44  C   UNL     1      -5.604  10.307   7.696  1.00  0.00     0.037 A 
ATOM     45  C   UNL     1      -8.193  10.141   1.216  1.00  0.00     0.037 A 
ATOM     46  C   UNL     1      -6.913  10.888   7.554  1.00  0.00     0.049 A 
ATOM     47  C   UNL     1      -8.968  10.730   2.360  1.00  0.00     0.074 A 
ATOM     48  C   UNL     1      -7.706  11.477   8.524  1.00  0.00     0.029 A 
ATOM     49  N   UNL     1      -7.619  10.959   6.363  1.00  0.00    -0.354 N 
ATOM     50  N   UNL     1      -8.621  10.851   3.618  1.00  0.00    -0.248 NA
ATOM     51  C   UNL     1     -10.306  11.258   2.053  1.00  0.00     0.031 C 
ATOM     52  C   UNL     1      -8.904  11.881   7.924  1.00  0.00     0.029 A 
ATOM     53  C   UNL     1      -8.842  11.575   6.575  1.00  0.00     0.049 A 
ATOM     54  H   UNL     1      -7.298  10.622   5.495  1.00  0.00     0.167 HD
ATOM     55  C   UNL     1      -9.684  11.485   4.247  1.00  0.00     0.074 A 
ATOM     56  C   UNL     1     -10.683  11.739   3.229  1.00  0.00     0.031 C 
ATOM     57  C   UNL     1      -9.822  11.825   5.551  1.00  0.00     0.037 A 
BRANCH  44  58
ATOM     58  C   UNL     1      -4.986  10.274   9.063  1.00  0.00     0.057 A 
ATOM     59  C   UNL     1      -3.922  11.118   9.407  1.00  0.00     0.134 A 
ATOM     60  C   UNL     1      -5.476   9.414  10.053  1.00  0.00     0.134 A 
ATOM     61  F   UNL     1      -3.399  11.957   8.500  1.00  0.00    -0.206 F 
ATOM     62  C   UNL     1      -3.351  11.090  10.680  1.00  0.00     0.040 A 
ATOM     63  C   UNL     1      -4.928   9.393  11.337  1.00  0.00     0.040 A 
ATOM     64  F   UNL     1      -6.497   8.584   9.790  1.00  0.00    -0.206 F 
ATOM     65  C   UNL     1      -3.858  10.229  11.651  1.00  0.00     0.006 A 
ENDBRANCH  44  58
BRANCH  45  66
ATOM     66  C   UNL     1      -8.776  10.096  -0.147  1.00  0.00     0.057 A 
ATOM     67  C   UNL     1      -8.938  11.264  -0.901  1.00  0.00     0.134 A 
ATOM     68  C   UNL     1      -9.190   8.891  -0.725  1.00  0.00     0.134 A 
ATOM     69  F   UNL     1      -8.578  12.451  -0.391  1.00  0.00    -0.206 F 
ATOM     70  C   UNL     1      -9.506  11.239  -2.175  1.00  0.00     0.040 A 
ATOM     71  C   UNL     1      -9.740   8.847  -2.006  1.00  0.00     0.040 A 
ATOM     72  F   UNL     1      -9.055   7.737  -0.054  1.00  0.00    -0.206 F 
ATOM     73  C   UNL     1      -9.905  10.025  -2.733  1.00  0.00     0.006 A 
ENDBRANCH  45  66
BRANCH  57  74
ATOM     74  C   UNL     1     -11.086  12.531   5.944  1.00  0.00     0.057 A 
ATOM     75  C   UNL     1     -12.307  11.853   6.042  1.00  0.00     0.134 A 
ATOM     76  C   UNL     1     -11.074  13.896   6.253  1.00  0.00     0.134 A 
ATOM     77  F   UNL     1     -12.386  10.547   5.746  1.00  0.00    -0.206 F 
ATOM     78  C   UNL     1     -13.478  12.515   6.415  1.00  0.00     0.040 A 
ATOM     79  C   UNL     1     -12.234  14.564   6.647  1.00  0.00     0.040 A 
ATOM     80  F   UNL     1      -9.934  14.601   6.185  1.00  0.00    -0.206 F 
ATOM     81  C   UNL     1     -13.442  13.873   6.723  1.00  0.00     0.006 A 
ENDBRANCH  57  74
ENDBRANCH  31  32
ENDBRANCH  23  26
ENDBRANCH  21  22
ENDBRANCH  20  21
ENDBRANCH  19  20
ENDBRANCH   3  19
TORSDOF 15
