REMARK SMILES [NH3+][C@H](CS[C@@H]1CC(=O)N(c2ccc3ccccc3c2)C1=O)C(=O)NCCCNC(=O)c1ccc(-c2c3nc(c(-c4c(F)cccc4F)c4ccc([nH]4)c(-c4c(F)cccc4F)c4nc(c(-c5c(F)cccc5F)c5ccc2[nH]5)C=C4)C=C3)cc1
REMARK SMILES IDX 25 1 24 2 22 3 23 4 2 6 1 7 3 11 4 12 5 13 6 14 20 15 7 16
REMARK SMILES IDX 9 17 21 18 8 19 10 20 11 21 19 22 12 23 18 24 13 25 17 26
REMARK SMILES IDX 14 27 16 28 15 29 26 30 27 31 28 32 29 33 30 35 31 36 32 37
REMARK SMILES IDX 84 38 33 39 83 40 34 41 35 42 36 43 77 44 37 45 82 46 76 47
REMARK SMILES IDX 78 48 38 49 81 50 75 51 74 52 39 54 65 55 48 56 64 57 49 58
REMARK SMILES IDX 52 59 63 60 79 61 50 62 51 63 62 65 80 66 53 67 40 68 41 69
REMARK SMILES IDX 46 70 42 71 43 72 45 73 47 74 44 75 66 76 67 77 72 78 68 79
REMARK SMILES IDX 69 80 71 81 73 82 70 83 54 84 55 85 60 86 56 87 57 88 59 89
REMARK SMILES IDX 61 90 58 91
REMARK H PARENT 24 5 1 8 1 9 1 10 28 34 78 53 52 64
REMARK Flexibility Score: inf
ROOT
ATOM      1  C   UNL     1      -1.156  -0.615  -2.248  1.00  0.00     0.118 C 
ENDROOT
BRANCH   1   2
ATOM      2  N   UNL     1      -1.760   0.335  -1.333  1.00  0.00    -0.351 N 
ATOM      3  C   UNL     1      -1.217   1.333  -0.583  1.00  0.00     0.279 C 
ATOM      4  O   UNL     1      -1.975   1.968   0.152  1.00  0.00    -0.268 OA
ATOM      5  H   UNL     1      -2.735   0.241  -1.237  1.00  0.00     0.163 HD
BRANCH   3   6
ATOM      6  C   UNL     1       0.279   1.675  -0.676  1.00  0.00     0.280 C 
BRANCH   6   7
ATOM      7  N   UNL     1       0.606   2.068  -2.069  1.00  0.00    -0.347 N 
ATOM      8  H   UNL     1      -0.012   2.823  -2.364  1.00  0.00     0.345 HD
ATOM      9  H   UNL     1       0.481   1.266  -2.687  1.00  0.00     0.345 HD
ATOM     10  H   UNL     1       1.575   2.384  -2.115  1.00  0.00     0.345 HD
ENDBRANCH   6   7
BRANCH   6  11
ATOM     11  C   UNL     1       1.122   0.538  -0.066  1.00  0.00     0.145 C 
BRANCH  11  12
ATOM     12  S   UNL     1       2.809   0.995   0.466  1.00  0.00    -0.141 SA
BRANCH  12  13
ATOM     13  C   UNL     1       3.551   1.482  -1.120  1.00  0.00     0.146 C 
ATOM     14  C   UNL     1       4.123   0.327  -1.905  1.00  0.00     0.125 C 
ATOM     15  C   UNL     1       4.712   2.412  -0.917  1.00  0.00     0.247 C 
ATOM     16  C   UNL     1       5.373   0.909  -2.498  1.00  0.00     0.235 C 
ATOM     17  N   UNL     1       5.703   2.055  -1.811  1.00  0.00    -0.250 N 
ATOM     18  O   UNL     1       4.659   3.393  -0.184  1.00  0.00    -0.273 OA
ATOM     19  O   UNL     1       5.977   0.345  -3.402  1.00  0.00    -0.274 OA
BRANCH  17  20
ATOM     20  C   UNL     1       6.862   2.849  -2.038  1.00  0.00     0.052 A 
ATOM     21  C   UNL     1       7.543   2.832  -3.261  1.00  0.00     0.027 A 
ATOM     22  C   UNL     1       7.330   3.719  -1.041  1.00  0.00     0.035 A 
ATOM     23  C   UNL     1       8.614   3.703  -3.498  1.00  0.00     0.011 A 
ATOM     24  C   UNL     1       8.402   4.595  -1.258  1.00  0.00    -0.016 A 
ATOM     25  C   UNL     1       9.047   4.600  -2.510  1.00  0.00    -0.018 A 
ATOM     26  C   UNL     1       8.827   5.471  -0.249  1.00  0.00     0.009 A 
ATOM     27  C   UNL     1      10.097   5.505  -2.729  1.00  0.00     0.009 A 
ATOM     28  C   UNL     1       9.873   6.361  -0.479  1.00  0.00     0.001 A 
ATOM     29  C   UNL     1      10.505   6.381  -1.720  1.00  0.00     0.001 A 
ENDBRANCH  17  20
ENDBRANCH  12  13
ENDBRANCH  11  12
ENDBRANCH   6  11
ENDBRANCH   3   6
ENDBRANCH   1   2
BRANCH   1  30
ATOM     30  C   UNL     1      -1.419  -2.049  -1.826  1.00  0.00     0.042 C 
BRANCH  30  31
ATOM     31  C   UNL     1      -2.892  -2.421  -1.838  1.00  0.00     0.118 C 
BRANCH  31  32
ATOM     32  N   UNL     1      -3.491  -2.276  -3.156  1.00  0.00    -0.352 N 
ATOM     33  C   UNL     1      -4.138  -3.205  -3.930  1.00  0.00     0.251 C 
ATOM     34  H   UNL     1      -3.421  -1.377  -3.552  1.00  0.00     0.163 HD
ATOM     35  O   UNL     1      -4.393  -2.950  -5.103  1.00  0.00    -0.269 OA
BRANCH  33  36
ATOM     36  C   UNL     1      -4.516  -4.511  -3.354  1.00  0.00     0.039 A 
ATOM     37  C   UNL     1      -4.393  -5.658  -4.141  1.00  0.00     0.014 A 
ATOM     38  C   UNL     1      -5.017  -4.601  -2.052  1.00  0.00     0.014 A 
ATOM     39  C   UNL     1      -4.740  -6.899  -3.607  1.00  0.00     0.010 A 
ATOM     40  C   UNL     1      -5.263  -5.845  -1.488  1.00  0.00     0.010 A 
ATOM     41  C   UNL     1      -5.160  -7.003  -2.271  1.00  0.00    -0.014 A 
BRANCH  41  42
ATOM     42  C   UNL     1      -5.566  -8.306  -1.694  1.00  0.00     0.031 A 
ATOM     43  C   UNL     1      -6.988  -8.511  -1.246  1.00  0.00     0.074 A 
ATOM     44  C   UNL     1      -4.652  -9.281  -1.532  1.00  0.00     0.049 A 
ATOM     45  N   UNL     1      -7.534  -9.556  -0.680  1.00  0.00    -0.248 NA
ATOM     46  C   UNL     1      -7.911  -7.378  -1.425  1.00  0.00     0.031 C 
ATOM     47  C   UNL     1      -3.232  -9.179  -1.874  1.00  0.00     0.029 A 
ATOM     48  N   UNL     1      -4.785 -10.552  -1.036  1.00  0.00    -0.354 N 
ATOM     49  C   UNL     1      -8.851  -9.197  -0.418  1.00  0.00     0.074 A 
ATOM     50  C   UNL     1      -9.005  -7.820  -0.826  1.00  0.00     0.031 C 
ATOM     51  C   UNL     1      -2.632 -10.351  -1.608  1.00  0.00     0.029 A 
ATOM     52  C   UNL     1      -3.617 -11.274  -1.053  1.00  0.00     0.049 A 
ATOM     53  H   UNL     1      -5.637 -10.913  -0.699  1.00  0.00     0.167 HD
ATOM     54  C   UNL     1      -9.851  -9.957   0.086  1.00  0.00     0.037 A 
ATOM     55  C   UNL     1      -3.375 -12.541  -0.672  1.00  0.00     0.037 A 
ATOM     56  C   UNL     1      -9.704 -11.340   0.449  1.00  0.00     0.049 A 
ATOM     57  C   UNL     1      -4.511 -13.377  -0.151  1.00  0.00     0.074 A 
ATOM     58  C   UNL     1     -10.666 -12.218   0.915  1.00  0.00     0.029 A 
ATOM     59  N   UNL     1      -8.515 -12.049   0.375  1.00  0.00    -0.354 N 
ATOM     60  N   UNL     1      -5.767 -13.046   0.030  1.00  0.00    -0.248 NA
ATOM     61  C   UNL     1      -4.199 -14.768   0.204  1.00  0.00     0.031 C 
ATOM     62  C   UNL     1     -10.051 -13.452   1.152  1.00  0.00     0.029 A 
ATOM     63  C   UNL     1      -8.716 -13.353   0.793  1.00  0.00     0.049 A 
ATOM     64  H   UNL     1      -7.654 -11.679   0.070  1.00  0.00     0.167 HD
ATOM     65  C   UNL     1      -6.401 -14.193   0.486  1.00  0.00     0.074 A 
ATOM     66  C   UNL     1      -5.393 -15.232   0.544  1.00  0.00     0.031 C 
ATOM     67  C   UNL     1      -7.701 -14.374   0.825  1.00  0.00     0.037 A 
BRANCH  54  68
ATOM     68  C   UNL     1     -11.192  -9.304   0.258  1.00  0.00     0.057 A 
ATOM     69  C   UNL     1     -11.985  -8.945  -0.841  1.00  0.00     0.134 A 
ATOM     70  C   UNL     1     -11.703  -9.043   1.535  1.00  0.00     0.134 A 
ATOM     71  F   UNL     1     -11.546  -9.151  -2.092  1.00  0.00    -0.206 F 
ATOM     72  C   UNL     1     -13.223  -8.322  -0.677  1.00  0.00     0.040 A 
ATOM     73  C   UNL     1     -12.953  -8.446   1.712  1.00  0.00     0.040 A 
ATOM     74  F   UNL     1     -10.998  -9.363   2.631  1.00  0.00    -0.206 F 
ATOM     75  C   UNL     1     -13.713  -8.077   0.604  1.00  0.00     0.006 A 
ENDBRANCH  54  68
BRANCH  55  76
ATOM     76  C   UNL     1      -2.014 -13.114  -0.817  1.00  0.00     0.057 A 
ATOM     77  C   UNL     1      -1.741 -14.083  -1.790  1.00  0.00     0.134 A 
ATOM     78  C   UNL     1      -0.958 -12.713   0.009  1.00  0.00     0.134 A 
ATOM     79  F   UNL     1      -2.716 -14.516  -2.602  1.00  0.00    -0.206 F 
ATOM     80  C   UNL     1      -0.473 -14.650  -1.921  1.00  0.00     0.040 A 
ATOM     81  C   UNL     1       0.321 -13.255  -0.126  1.00  0.00     0.040 A 
ATOM     82  F   UNL     1      -1.153 -11.780   0.953  1.00  0.00    -0.206 F 
ATOM     83  C   UNL     1       0.564 -14.233  -1.089  1.00  0.00     0.006 A 
ENDBRANCH  55  76
BRANCH  67  84
ATOM     84  C   UNL     1      -8.114 -15.754   1.241  1.00  0.00     0.057 A 
ATOM     85  C   UNL     1      -7.749 -16.294   2.480  1.00  0.00     0.134 A 
ATOM     86  C   UNL     1      -8.916 -16.537   0.401  1.00  0.00     0.134 A 
ATOM     87  F   UNL     1      -6.972 -15.598   3.323  1.00  0.00    -0.206 F 
ATOM     88  C   UNL     1      -8.147 -17.577   2.859  1.00  0.00     0.040 A 
ATOM     89  C   UNL     1      -9.341 -17.810   0.779  1.00  0.00     0.040 A 
ATOM     90  F   UNL     1      -9.307 -16.072  -0.795  1.00  0.00    -0.206 F 
ATOM     91  C   UNL     1      -8.951 -18.336   2.009  1.00  0.00     0.006 A 
ENDBRANCH  67  84
ENDBRANCH  41  42
ENDBRANCH  33  36
ENDBRANCH  31  32
ENDBRANCH  30  31
ENDBRANCH   1  30
TORSDOF 15
