REMARK SMILES CC(=O)Nc1cccc(-c2cc(F)ccc2C(=O)NCCCNC(=O)c2ccc(-c3c4nc(c(-c5c(F)cccc5F)c5ccc([nH]5)c(-c5c(F)cccc5F)c5nc(c(-c6c(F)cccc6F)c6ccc3[nH]6)C=C5)C=C4)cc2)c1
REMARK SMILES IDX 21 1 20 2 19 3 17 4 18 5 16 7 10 8 11 9 12 10 15 11 13 12
REMARK SMILES IDX 14 13 9 14 5 15 6 16 80 17 7 18 8 19 4 20 1 21 2 22 3 23
REMARK SMILES IDX 22 25 23 26 24 27 25 29 26 30 27 31 79 32 28 33 78 34 29 35
REMARK SMILES IDX 30 36 31 37 72 38 32 39 77 40 71 41 73 42 33 43 76 44 70 45
REMARK SMILES IDX 69 46 34 48 60 49 43 50 59 51 44 52 47 53 58 54 74 55 45 56
REMARK SMILES IDX 46 57 57 59 75 60 48 61 35 62 36 63 41 64 37 65 38 66 40 67
REMARK SMILES IDX 42 68 39 69 61 70 62 71 67 72 63 73 64 74 66 75 68 76 65 77
REMARK SMILES IDX 49 78 50 79 55 80 51 81 52 82 54 83 56 84 53 85
REMARK H PARENT 19 6 4 24 23 28 73 47 47 58
REMARK Flexibility Score: inf
ROOT
ATOM      1  C   UNL     1       3.638   3.807   3.272  1.00  0.00     0.042 C 
ENDROOT
BRANCH   1   2
ATOM      2  C   UNL     1       3.911   2.537   2.508  1.00  0.00     0.118 C 
BRANCH   2   3
ATOM      3  N   UNL     1       4.925   2.517   1.505  1.00  0.00    -0.352 N 
ATOM      4  C   UNL     1       5.633   1.427   1.049  1.00  0.00     0.251 C 
ATOM      5  O   UNL     1       6.224   1.597  -0.024  1.00  0.00    -0.269 OA
ATOM      6  H   UNL     1       5.145   3.383   1.091  1.00  0.00     0.163 HD
BRANCH   4   7
ATOM      7  C   UNL     1       5.845   0.109   1.776  1.00  0.00     0.047 A 
ATOM      8  C   UNL     1       4.979  -0.698   2.577  1.00  0.00    -0.003 A 
ATOM      9  C   UNL     1       5.496  -1.915   3.097  1.00  0.00     0.048 A 
ATOM     10  C   UNL     1       6.796  -2.334   2.849  1.00  0.00     0.123 A 
ATOM     11  C   UNL     1       7.168  -0.368   1.548  1.00  0.00     0.017 A 
ATOM     12  F   UNL     1       7.231  -3.487   3.370  1.00  0.00    -0.207 F 
ATOM     13  C   UNL     1       7.641  -1.570   2.075  1.00  0.00     0.040 A 
BRANCH   8  14
ATOM     14  C   UNL     1       3.582  -0.408   2.978  1.00  0.00    -0.015 A 
ATOM     15  C   UNL     1       1.325   0.350   2.430  1.00  0.00     0.041 A 
ATOM     16  C   UNL     1       1.079   0.578   3.791  1.00  0.00     0.026 A 
ATOM     17  C   UNL     1       2.559  -0.200   2.039  1.00  0.00     0.034 A 
ATOM     18  C   UNL     1       2.038   0.266   4.751  1.00  0.00     0.003 A 
ATOM     19  C   UNL     1       3.280  -0.222   4.347  1.00  0.00     0.009 A 
BRANCH  15  20
ATOM     20  N   UNL     1       0.401   0.912   1.528  1.00  0.00    -0.326 N 
ATOM     21  C   UNL     1       0.859  -0.352  -0.565  1.00  0.00     0.114 C 
ATOM     22  C   UNL     1       0.281   0.821   0.172  1.00  0.00     0.221 C 
ATOM     23  O   UNL     1      -0.332   1.697  -0.441  1.00  0.00    -0.275 OA
ATOM     24  H   UNL     1      -0.285   1.475   1.954  1.00  0.00     0.169 HD
ENDBRANCH  15  20
ENDBRANCH   8  14
ENDBRANCH   4   7
ENDBRANCH   2   3
ENDBRANCH   1   2
BRANCH   1  25
ATOM     25  C   UNL     1       2.699   4.786   2.586  1.00  0.00     0.118 C 
BRANCH  25  26
ATOM     26  N   UNL     1       1.389   4.229   2.229  1.00  0.00    -0.352 N 
ATOM     27  C   UNL     1       0.147   4.280   2.818  1.00  0.00     0.251 C 
ATOM     28  H   UNL     1       1.402   3.710   1.393  1.00  0.00     0.163 HD
ATOM     29  O   UNL     1      -0.714   3.476   2.447  1.00  0.00    -0.269 OA
BRANCH  27  30
ATOM     30  C   UNL     1      -0.167   5.212   3.926  1.00  0.00     0.039 A 
ATOM     31  C   UNL     1      -1.185   4.892   4.833  1.00  0.00     0.014 A 
ATOM     32  C   UNL     1       0.529   6.402   4.095  1.00  0.00     0.014 A 
ATOM     33  C   UNL     1      -1.398   5.693   5.960  1.00  0.00     0.010 A 
ATOM     34  C   UNL     1       0.446   7.091   5.294  1.00  0.00     0.010 A 
ATOM     35  C   UNL     1      -0.529   6.758   6.240  1.00  0.00    -0.014 A 
BRANCH  35  36
ATOM     36  C   UNL     1      -0.617   7.567   7.482  1.00  0.00     0.031 A 
ATOM     37  C   UNL     1      -0.730   9.068   7.386  1.00  0.00     0.074 A 
ATOM     38  C   UNL     1      -0.475   6.973   8.684  1.00  0.00     0.049 A 
ATOM     39  N   UNL     1      -0.621   9.971   8.327  1.00  0.00    -0.248 NA
ATOM     40  C   UNL     1      -0.937   9.633   6.040  1.00  0.00     0.031 C 
ATOM     41  C   UNL     1      -0.290   5.537   8.909  1.00  0.00     0.029 A 
ATOM     42  N   UNL     1      -0.440   7.510   9.947  1.00  0.00    -0.354 N 
ATOM     43  C   UNL     1      -0.714  11.198   7.682  1.00  0.00     0.074 A 
ATOM     44  C   UNL     1      -0.801  10.930   6.265  1.00  0.00     0.031 C 
ATOM     45  C   UNL     1      -0.187   5.305  10.227  1.00  0.00     0.029 A 
ATOM     46  C   UNL     1      -0.243   6.577  10.938  1.00  0.00     0.049 A 
ATOM     47  H   UNL     1      -0.545   8.472  10.127  1.00  0.00     0.167 HD
ATOM     48  C   UNL     1      -0.766  12.439   8.221  1.00  0.00     0.037 A 
ATOM     49  C   UNL     1      -0.106   6.733  12.268  1.00  0.00     0.037 A 
ATOM     50  C   UNL     1      -0.725  12.696   9.635  1.00  0.00     0.049 A 
ATOM     51  C   UNL     1      -0.182   8.119  12.847  1.00  0.00     0.074 A 
ATOM     52  C   UNL     1      -0.822  13.908  10.295  1.00  0.00     0.029 A 
ATOM     53  N   UNL     1      -0.588  11.717  10.608  1.00  0.00    -0.354 N 
ATOM     54  N   UNL     1      -0.324   9.267  12.228  1.00  0.00    -0.248 NA
ATOM     55  C   UNL     1      -0.089   8.232  14.309  1.00  0.00     0.031 C 
ATOM     56  C   UNL     1      -0.704  13.665  11.667  1.00  0.00     0.029 A 
ATOM     57  C   UNL     1      -0.590  12.298  11.864  1.00  0.00     0.049 A 
ATOM     58  H   UNL     1      -0.501  10.752  10.431  1.00  0.00     0.167 HD
ATOM     59  C   UNL     1      -0.370  10.233  13.225  1.00  0.00     0.074 A 
ATOM     60  C   UNL     1      -0.257   9.534  14.488  1.00  0.00     0.031 C 
ATOM     61  C   UNL     1      -0.493  11.578  13.108  1.00  0.00     0.037 A 
BRANCH  48  62
ATOM     62  C   UNL     1      -0.903  13.601   7.278  1.00  0.00     0.057 A 
ATOM     63  C   UNL     1      -2.070  13.808   6.527  1.00  0.00     0.134 A 
ATOM     64  C   UNL     1       0.128  14.538   7.134  1.00  0.00     0.134 A 
ATOM     65  F   UNL     1      -3.091  12.941   6.605  1.00  0.00    -0.206 F 
ATOM     66  C   UNL     1      -2.193  14.882   5.645  1.00  0.00     0.040 A 
ATOM     67  C   UNL     1       0.003  15.636   6.280  1.00  0.00     0.040 A 
ATOM     68  F   UNL     1       1.270  14.406   7.824  1.00  0.00    -0.206 F 
ATOM     69  C   UNL     1      -1.157  15.805   5.526  1.00  0.00     0.006 A 
ENDBRANCH  48  62
BRANCH  49  70
ATOM     70  C   UNL     1       0.098   5.550  13.144  1.00  0.00     0.057 A 
ATOM     71  C   UNL     1      -0.891   5.137  14.045  1.00  0.00     0.134 A 
ATOM     72  C   UNL     1       1.287   4.811  13.112  1.00  0.00     0.134 A 
ATOM     73  F   UNL     1      -2.047   5.810  14.133  1.00  0.00    -0.206 F 
ATOM     74  C   UNL     1      -0.695   4.053  14.903  1.00  0.00     0.040 A 
ATOM     75  C   UNL     1       1.485   3.706  13.943  1.00  0.00     0.040 A 
ATOM     76  F   UNL     1       2.269   5.143  12.262  1.00  0.00    -0.206 F 
ATOM     77  C   UNL     1       0.496   3.332  14.850  1.00  0.00     0.006 A 
ENDBRANCH  49  70
BRANCH  61  78
ATOM     78  C   UNL     1      -0.565  12.374  14.377  1.00  0.00     0.057 A 
ATOM     79  C   UNL     1       0.551  12.560  15.202  1.00  0.00     0.134 A 
ATOM     80  C   UNL     1      -1.761  13.000  14.753  1.00  0.00     0.134 A 
ATOM     81  F   UNL     1       1.722  11.978  14.903  1.00  0.00    -0.206 F 
ATOM     82  C   UNL     1       0.474  13.320  16.370  1.00  0.00     0.040 A 
ATOM     83  C   UNL     1      -1.843  13.787  15.901  1.00  0.00     0.040 A 
ATOM     84  F   UNL     1      -2.864  12.871  14.000  1.00  0.00    -0.206 F 
ATOM     85  C   UNL     1      -0.724  13.943  16.717  1.00  0.00     0.006 A 
ENDBRANCH  61  78
ENDBRANCH  35  36
ENDBRANCH  27  30
ENDBRANCH  25  26
ENDBRANCH   1  25
TORSDOF 12
