REMARK SMILES CCc1nc2sc(C(=O)NCC(=O)NCCCNC(=O)c3ccc(-c4c5nc(c(-c6c(F)cccc6F)c6ccc([nH]6)c(-c6c(F)cccc6F)c6nc(c(-c7c(F)cccc7F)c7ccc4[nH]7)C=C6)C=C5)cc3)c(N)c2c(C(F)(F)F)c1C
REMARK SMILES IDX 15 1 14 2 12 3 13 4 11 6 10 7 8 8 9 9 7 11 3 12 4 13 83 14
REMARK SMILES IDX 5 15 78 16 84 17 6 18 77 19 75 20 2 21 1 22 79 23 80 24
REMARK SMILES IDX 81 25 82 26 76 27 16 30 17 31 18 32 19 33 20 35 21 36 22 37
REMARK SMILES IDX 74 38 23 39 73 40 24 41 25 42 26 43 67 44 27 45 72 46 66 47
REMARK SMILES IDX 68 48 28 49 71 50 65 51 64 52 29 54 55 55 38 56 54 57 39 58
REMARK SMILES IDX 42 59 53 60 69 61 40 62 41 63 52 65 70 66 43 67 30 68 31 69
REMARK SMILES IDX 36 70 32 71 33 72 35 73 37 74 34 75 56 76 57 77 62 78 58 79
REMARK SMILES IDX 59 80 61 81 63 82 60 83 44 84 45 85 50 86 46 87 47 88 49 89
REMARK SMILES IDX 51 90 48 91
REMARK H PARENT 14 5 10 10 76 28 76 29 18 34 68 53 42 64
REMARK Flexibility Score: inf
ROOT
ATOM      1  C   UNL     1       0.438  -2.148   8.511  1.00  0.00     0.117 C 
ENDROOT
BRANCH   1   2
ATOM      2  N   UNL     1       1.247  -1.354   9.418  1.00  0.00    -0.355 N 
ATOM      3  C   UNL     1       2.580  -1.345   9.690  1.00  0.00     0.239 C 
ATOM      4  O   UNL     1       2.975  -0.424  10.418  1.00  0.00    -0.273 OA
ATOM      5  H   UNL     1       0.731  -0.695   9.936  1.00  0.00     0.163 HD
BRANCH   3   6
ATOM      6  C   UNL     1       3.609  -2.312   9.074  1.00  0.00     0.216 C 
BRANCH   6   7
ATOM      7  N   UNL     1       3.203  -3.568   8.488  1.00  0.00    -0.342 N 
ATOM      8  C   UNL     1       2.969  -3.990   7.204  1.00  0.00     0.264 C 
ATOM      9  O   UNL     1       2.855  -5.221   7.134  1.00  0.00    -0.268 OA
ATOM     10  H   UNL     1       3.063  -4.277   9.157  1.00  0.00     0.164 HD
BRANCH   8  11
ATOM     11  C   UNL     1       2.768  -3.112   6.045  1.00  0.00     0.118 A 
ATOM     12  C   UNL     1       1.212  -1.365   1.928  1.00  0.00     0.045 A 
ATOM     13  N   UNL     1       1.520  -2.546   2.502  1.00  0.00    -0.242 NA
ATOM     14  C   UNL     1       1.396  -0.132   2.576  1.00  0.00    -0.017 A 
ATOM     15  C   UNL     1       2.013  -2.503   3.746  1.00  0.00     0.127 A 
ATOM     16  C   UNL     1       2.006  -0.114   3.870  1.00  0.00     0.073 A 
ATOM     17  C   UNL     1       0.978   1.170   1.945  1.00  0.00     0.047 C 
ATOM     18  S   UNL     1       2.336  -3.938   4.579  1.00  0.00    -0.108 S 
ATOM     19  C   UNL     1       2.289  -1.372   4.484  1.00  0.00     0.048 A 
ATOM     20  C   UNL     1       2.765  -1.744   5.801  1.00  0.00     0.066 A 
BRANCH  12  21
ATOM     21  C   UNL     1       0.570  -1.552   0.567  1.00  0.00     0.053 C 
ATOM     22  C   UNL     1       1.068  -0.696  -0.591  1.00  0.00     0.011 C 
ENDBRANCH  12  21
BRANCH  16  23
ATOM     23  C   UNL     1       2.272   1.167   4.632  1.00  0.00     0.417 C 
ATOM     24  F   UNL     1       1.409   1.330   5.678  1.00  0.00    -0.166 F 
ATOM     25  F   UNL     1       3.524   1.202   5.182  1.00  0.00    -0.166 F 
ATOM     26  F   UNL     1       2.192   2.318   3.912  1.00  0.00    -0.166 F 
ENDBRANCH  16  23
BRANCH  20  27
ATOM     27  N   UNL     1       3.047  -0.785   6.710  1.00  0.00    -0.397 N 
ATOM     28  H   UNL     1       3.371  -1.036   7.605  1.00  0.00     0.156 HD
ATOM     29  H   UNL     1       2.929   0.164   6.477  1.00  0.00     0.156 HD
ENDBRANCH  20  27
ENDBRANCH   8  11
ENDBRANCH   6   7
ENDBRANCH   3   6
ENDBRANCH   1   2
BRANCH   1  30
ATOM     30  C   UNL     1      -0.076  -3.452   9.108  1.00  0.00     0.042 C 
BRANCH  30  31
ATOM     31  C   UNL     1      -1.329  -3.217   9.930  1.00  0.00     0.118 C 
BRANCH  31  32
ATOM     32  N   UNL     1      -2.483  -2.857   9.105  1.00  0.00    -0.352 N 
ATOM     33  C   UNL     1      -3.779  -2.611   9.523  1.00  0.00     0.251 C 
ATOM     34  H   UNL     1      -2.317  -2.779   8.137  1.00  0.00     0.163 HD
ATOM     35  O   UNL     1      -4.706  -2.579   8.741  1.00  0.00    -0.269 OA
BRANCH  33  36
ATOM     36  C   UNL     1      -4.000  -2.415  10.967  1.00  0.00     0.039 A 
ATOM     37  C   UNL     1      -4.980  -3.149  11.635  1.00  0.00     0.014 A 
ATOM     38  C   UNL     1      -3.140  -1.562  11.654  1.00  0.00     0.014 A 
ATOM     39  C   UNL     1      -5.025  -3.091  13.025  1.00  0.00     0.010 A 
ATOM     40  C   UNL     1      -3.099  -1.613  13.028  1.00  0.00     0.010 A 
ATOM     41  C   UNL     1      -4.060  -2.347  13.722  1.00  0.00    -0.014 A 
BRANCH  41  42
ATOM     42  C   UNL     1      -3.991  -2.423  15.181  1.00  0.00     0.031 A 
ATOM     43  C   UNL     1      -3.922  -3.799  15.763  1.00  0.00     0.074 A 
ATOM     44  C   UNL     1      -3.786  -1.344  15.967  1.00  0.00     0.049 A 
ATOM     45  N   UNL     1      -4.751  -4.364  16.580  1.00  0.00    -0.248 NA
ATOM     46  C   UNL     1      -2.828  -4.682  15.323  1.00  0.00     0.031 C 
ATOM     47  C   UNL     1      -3.514   0.043  15.570  1.00  0.00     0.029 A 
ATOM     48  N   UNL     1      -3.676  -1.294  17.322  1.00  0.00    -0.354 N 
ATOM     49  C   UNL     1      -4.209  -5.611  16.889  1.00  0.00     0.074 A 
ATOM     50  C   UNL     1      -3.093  -5.802  15.999  1.00  0.00     0.031 C 
ATOM     51  C   UNL     1      -3.048   0.735  16.632  1.00  0.00     0.029 A 
ATOM     52  C   UNL     1      -3.168  -0.100  17.811  1.00  0.00     0.049 A 
ATOM     53  H   UNL     1      -3.935  -2.043  17.907  1.00  0.00     0.167 HD
ATOM     54  C   UNL     1      -4.606  -6.321  17.983  1.00  0.00     0.037 A 
ATOM     55  C   UNL     1      -2.852   0.181  19.096  1.00  0.00     0.037 A 
ATOM     56  C   UNL     1      -5.860  -5.843  18.499  1.00  0.00     0.049 A 
ATOM     57  C   UNL     1      -3.580  -0.785  19.950  1.00  0.00     0.074 A 
ATOM     58  C   UNL     1      -7.147  -5.757  18.008  1.00  0.00     0.029 A 
ATOM     59  N   UNL     1      -5.828  -5.024  19.599  1.00  0.00    -0.354 N 
ATOM     60  N   UNL     1      -4.875  -0.805  20.090  1.00  0.00    -0.248 NA
ATOM     61  C   UNL     1      -2.888  -2.002  20.342  1.00  0.00     0.031 C 
ATOM     62  C   UNL     1      -7.658  -4.531  18.529  1.00  0.00     0.029 A 
ATOM     63  C   UNL     1      -6.670  -3.973  19.343  1.00  0.00     0.049 A 
ATOM     64  H   UNL     1      -5.301  -5.165  20.419  1.00  0.00     0.167 HD
ATOM     65  C   UNL     1      -5.199  -2.150  20.177  1.00  0.00     0.074 A 
ATOM     66  C   UNL     1      -3.932  -2.828  20.441  1.00  0.00     0.031 C 
ATOM     67  C   UNL     1      -6.412  -2.612  19.754  1.00  0.00     0.037 A 
BRANCH  54  68
ATOM     68  C   UNL     1      -3.714  -7.241  18.777  1.00  0.00     0.057 A 
ATOM     69  C   UNL     1      -4.270  -8.095  19.747  1.00  0.00     0.134 A 
ATOM     70  C   UNL     1      -2.311  -7.116  18.822  1.00  0.00     0.134 A 
ATOM     71  F   UNL     1      -5.597  -8.274  19.829  1.00  0.00    -0.206 F 
ATOM     72  C   UNL     1      -3.490  -8.739  20.718  1.00  0.00     0.040 A 
ATOM     73  C   UNL     1      -1.519  -7.792  19.755  1.00  0.00     0.040 A 
ATOM     74  F   UNL     1      -1.649  -6.259  18.035  1.00  0.00    -0.206 F 
ATOM     75  C   UNL     1      -2.109  -8.586  20.725  1.00  0.00     0.006 A 
ENDBRANCH  54  68
BRANCH  55  76
ATOM     76  C   UNL     1      -1.763   1.033  19.617  1.00  0.00     0.057 A 
ATOM     77  C   UNL     1      -1.765   1.468  20.949  1.00  0.00     0.134 A 
ATOM     78  C   UNL     1      -0.557   1.193  18.913  1.00  0.00     0.134 A 
ATOM     79  F   UNL     1      -2.861   1.329  21.708  1.00  0.00    -0.206 F 
ATOM     80  C   UNL     1      -0.620   1.992  21.561  1.00  0.00     0.040 A 
ATOM     81  C   UNL     1       0.592   1.721  19.510  1.00  0.00     0.040 A 
ATOM     82  F   UNL     1      -0.428   0.756  17.651  1.00  0.00    -0.206 F 
ATOM     83  C   UNL     1       0.568   2.105  20.845  1.00  0.00     0.006 A 
ENDBRANCH  55  76
BRANCH  67  84
ATOM     84  C   UNL     1      -7.481  -1.599  19.441  1.00  0.00     0.057 A 
ATOM     85  C   UNL     1      -7.397  -0.665  18.397  1.00  0.00     0.134 A 
ATOM     86  C   UNL     1      -8.702  -1.678  20.117  1.00  0.00     0.134 A 
ATOM     87  F   UNL     1      -6.306  -0.579  17.628  1.00  0.00    -0.206 F 
ATOM     88  C   UNL     1      -8.466   0.175  18.067  1.00  0.00     0.040 A 
ATOM     89  C   UNL     1      -9.789  -0.868  19.777  1.00  0.00     0.040 A 
ATOM     90  F   UNL     1      -8.878  -2.585  21.091  1.00  0.00    -0.206 F 
ATOM     91  C   UNL     1      -9.671   0.068  18.753  1.00  0.00     0.006 A 
ENDBRANCH  67  84
ENDBRANCH  41  42
ENDBRANCH  33  36
ENDBRANCH  31  32
ENDBRANCH  30  31
ENDBRANCH   1  30
TORSDOF 15
