REMARK SMILES O=C(/C=C/c1ccc(Br)cc1-n1ccnc1)NCCCNC(=O)c1ccc(-c2c3nc(c(-c4c(F)cccc4F)c4ccc([nH]4)c(-c4c(F)cccc4F)c4nc(c(-c5c(F)cccc5F)c5ccc2[nH]5)C=C4)C=C3)cc1
REMARK SMILES IDX 19 1 18 2 17 3 1 4 2 5 3 7 4 8 5 9 6 10 11 11 7 12 10 13
REMARK SMILES IDX 8 14 9 15 12 16 13 17 16 18 14 19 15 20 20 21 21 22 22 23
REMARK SMILES IDX 23 25 24 26 25 27 77 28 26 29 76 30 27 31 28 32 29 33 70 34
REMARK SMILES IDX 30 35 75 36 69 37 71 38 31 39 74 40 68 41 67 42 32 44 58 45
REMARK SMILES IDX 41 46 57 47 42 48 45 49 56 50 72 51 43 52 44 53 55 55 73 56
REMARK SMILES IDX 46 57 33 58 34 59 39 60 35 61 36 62 38 63 40 64 37 65 59 66
REMARK SMILES IDX 60 67 65 68 61 69 62 70 64 71 66 72 63 73 47 74 48 75 53 76
REMARK SMILES IDX 49 77 50 78 52 79 54 80 51 81
REMARK H PARENT 17 6 21 24 71 43 45 54
REMARK Flexibility Score: inf
ROOT
ATOM      1  C   UNL     1       1.958  -1.802   2.939  1.00  0.00     0.042 C 
ENDROOT
BRANCH   1   2
ATOM      2  C   UNL     1       1.869  -0.371   2.398  1.00  0.00     0.118 C 
BRANCH   2   3
ATOM      3  N   UNL     1       2.590  -0.152   1.148  1.00  0.00    -0.352 N 
ATOM      4  O   UNL     1       0.733  -0.225  -0.194  1.00  0.00    -0.270 OA
ATOM      5  C   UNL     1       1.940  -0.055  -0.057  1.00  0.00     0.244 C 
ATOM      6  H   UNL     1       3.571  -0.073   1.170  1.00  0.00     0.163 HD
BRANCH   5   7
ATOM      7  C   UNL     1       2.748   0.295  -1.260  1.00  0.00     0.072 C 
ATOM      8  C   UNL     1       4.081   0.400  -1.349  1.00  0.00     0.016 C 
BRANCH   8   9
ATOM      9  C   UNL     1       4.785   0.650  -2.625  1.00  0.00    -0.001 A 
ATOM     10  C   UNL     1       4.497   1.798  -3.375  1.00  0.00     0.011 A 
ATOM     11  C   UNL     1       5.867  -0.150  -3.039  1.00  0.00     0.055 A 
ATOM     12  C   UNL     1       5.267   2.137  -4.497  1.00  0.00     0.016 A 
ATOM     13  C   UNL     1       6.678   0.213  -4.129  1.00  0.00     0.043 A 
ATOM     14  C   UNL     1       6.357   1.350  -4.862  1.00  0.00     0.020 A 
ATOM     15  Br  UNL     1       7.394   1.814  -6.373  1.00  0.00    -0.051 Br
BRANCH  11  16
ATOM     16  N   UNL     1       6.160  -1.352  -2.370  1.00  0.00    -0.306 N 
ATOM     17  C   UNL     1       5.283  -2.332  -1.966  1.00  0.00     0.113 A 
ATOM     18  C   UNL     1       7.400  -1.760  -1.978  1.00  0.00     0.204 A 
ATOM     19  C   UNL     1       6.048  -3.286  -1.348  1.00  0.00     0.131 A 
ATOM     20  N   UNL     1       7.347  -2.892  -1.317  1.00  0.00    -0.245 NA
ENDBRANCH  11  16
ENDBRANCH   8   9
ENDBRANCH   5   7
ENDBRANCH   2   3
ENDBRANCH   1   2
BRANCH   1  21
ATOM     21  C   UNL     1       3.362  -2.207   3.360  1.00  0.00     0.118 C 
BRANCH  21  22
ATOM     22  N   UNL     1       3.874  -1.497   4.538  1.00  0.00    -0.352 N 
ATOM     23  C   UNL     1       5.088  -1.673   5.180  1.00  0.00     0.251 C 
ATOM     24  H   UNL     1       3.280  -0.810   4.919  1.00  0.00     0.163 HD
ATOM     25  O   UNL     1       5.253  -1.268   6.333  1.00  0.00    -0.269 OA
BRANCH  23  26
ATOM     26  C   UNL     1       6.192  -2.348   4.470  1.00  0.00     0.039 A 
ATOM     27  C   UNL     1       7.096  -3.197   5.116  1.00  0.00     0.014 A 
ATOM     28  C   UNL     1       6.304  -2.123   3.103  1.00  0.00     0.014 A 
ATOM     29  C   UNL     1       8.049  -3.875   4.351  1.00  0.00     0.010 A 
ATOM     30  C   UNL     1       7.097  -2.931   2.336  1.00  0.00     0.010 A 
ATOM     31  C   UNL     1       8.025  -3.751   2.951  1.00  0.00    -0.014 A 
BRANCH  31  32
ATOM     32  C   UNL     1       8.884  -4.540   2.078  1.00  0.00     0.031 A 
ATOM     33  C   UNL     1       8.795  -6.001   2.296  1.00  0.00     0.074 A 
ATOM     34  C   UNL     1       9.583  -4.023   1.042  1.00  0.00     0.049 A 
ATOM     35  N   UNL     1       9.695  -6.728   2.866  1.00  0.00    -0.248 NA
ATOM     36  C   UNL     1       7.543  -6.716   2.014  1.00  0.00     0.031 C 
ATOM     37  C   UNL     1       9.636  -2.640   0.554  1.00  0.00     0.029 A 
ATOM     38  N   UNL     1      10.365  -4.677   0.138  1.00  0.00    -0.354 N 
ATOM     39  C   UNL     1       9.229  -8.033   2.817  1.00  0.00     0.074 A 
ATOM     40  C   UNL     1       7.837  -7.943   2.459  1.00  0.00     0.031 C 
ATOM     41  C   UNL     1      10.225  -2.608  -0.667  1.00  0.00     0.029 A 
ATOM     42  C   UNL     1      10.708  -3.934  -0.991  1.00  0.00     0.049 A 
ATOM     43  H   UNL     1      10.665  -5.605   0.272  1.00  0.00     0.167 HD
ATOM     44  C   UNL     1      10.108  -9.073   2.845  1.00  0.00     0.037 A 
ATOM     45  C   UNL     1      11.376  -4.379  -2.088  1.00  0.00     0.037 A 
ATOM     46  C   UNL     1      11.427  -8.620   3.232  1.00  0.00     0.049 A 
ATOM     47  C   UNL     1      12.191  -5.527  -1.632  1.00  0.00     0.074 A 
ATOM     48  C   UNL     1      11.951  -7.987   4.344  1.00  0.00     0.029 A 
ATOM     49  N   UNL     1      12.350  -8.433   2.230  1.00  0.00    -0.354 N 
ATOM     50  N   UNL     1      13.188  -5.404  -0.801  1.00  0.00    -0.248 NA
ATOM     51  C   UNL     1      11.596  -6.851  -1.714  1.00  0.00     0.031 C 
ATOM     52  C   UNL     1      12.893  -7.049   3.824  1.00  0.00     0.029 A 
ATOM     53  C   UNL     1      12.953  -7.219   2.441  1.00  0.00     0.049 A 
ATOM     54  H   UNL     1      12.543  -9.057   1.494  1.00  0.00     0.167 HD
ATOM     55  C   UNL     1      13.034  -6.466   0.074  1.00  0.00     0.074 A 
ATOM     56  C   UNL     1      12.101  -7.378  -0.594  1.00  0.00     0.031 C 
ATOM     57  C   UNL     1      13.432  -6.369   1.377  1.00  0.00     0.037 A 
BRANCH  44  58
ATOM     58  C   UNL     1       9.903 -10.399   2.161  1.00  0.00     0.057 A 
ATOM     59  C   UNL     1      10.846 -11.423   2.374  1.00  0.00     0.134 A 
ATOM     60  C   UNL     1       9.016 -10.616   1.089  1.00  0.00     0.134 A 
ATOM     61  F   UNL     1      11.746 -11.336   3.365  1.00  0.00    -0.206 F 
ATOM     62  C   UNL     1      10.958 -12.530   1.525  1.00  0.00     0.040 A 
ATOM     63  C   UNL     1       9.087 -11.743   0.266  1.00  0.00     0.040 A 
ATOM     64  F   UNL     1       8.105  -9.711   0.714  1.00  0.00    -0.206 F 
ATOM     65  C   UNL     1      10.083 -12.686   0.459  1.00  0.00     0.006 A 
ENDBRANCH  44  58
BRANCH  45  66
ATOM     66  C   UNL     1      11.169  -4.105  -3.534  1.00  0.00     0.057 A 
ATOM     67  C   UNL     1      12.166  -4.368  -4.483  1.00  0.00     0.134 A 
ATOM     68  C   UNL     1       9.883  -3.901  -4.058  1.00  0.00     0.134 A 
ATOM     69  F   UNL     1      13.417  -4.647  -4.091  1.00  0.00    -0.206 F 
ATOM     70  C   UNL     1      11.895  -4.434  -5.861  1.00  0.00     0.040 A 
ATOM     71  C   UNL     1       9.597  -3.943  -5.430  1.00  0.00     0.040 A 
ATOM     72  F   UNL     1       8.833  -3.776  -3.248  1.00  0.00    -0.206 F 
ATOM     73  C   UNL     1      10.605  -4.227  -6.339  1.00  0.00     0.006 A 
ENDBRANCH  45  66
BRANCH  57  74
ATOM     74  C   UNL     1      14.250  -5.168   1.780  1.00  0.00     0.057 A 
ATOM     75  C   UNL     1      13.785  -3.843   1.761  1.00  0.00     0.134 A 
ATOM     76  C   UNL     1      15.508  -5.377   2.351  1.00  0.00     0.134 A 
ATOM     77  F   UNL     1      12.559  -3.542   1.326  1.00  0.00    -0.206 F 
ATOM     78  C   UNL     1      14.548  -2.777   2.250  1.00  0.00     0.040 A 
ATOM     79  C   UNL     1      16.269  -4.326   2.872  1.00  0.00     0.040 A 
ATOM     80  F   UNL     1      16.002  -6.620   2.457  1.00  0.00    -0.206 F 
ATOM     81  C   UNL     1      15.794  -3.019   2.814  1.00  0.00     0.006 A 
ENDBRANCH  57  74
ENDBRANCH  31  32
ENDBRANCH  23  26
ENDBRANCH  21  22
ENDBRANCH   1  21
TORSDOF 12
