REMARK SMILES O=C(NC1(C(=O)NCCCNC(=O)c2ccc(-c3c4nc(c(-c5c(F)cccc5F)c5ccc([nH]5)c(-c5c(F)cccc5F)c5nc(c(-c6c(F)cccc6F)c6ccc3[nH]6)C=C5)C=C4)cc2)CC[NH2+]CC1)OCC1c2ccccc2-c2ccccc21
REMARK SMILES IDX 8 1 7 2 5 3 6 4 4 6 68 7 72 8 69 9 71 10 70 11 3 14 1 15
REMARK SMILES IDX 2 16 73 18 74 19 75 20 76 21 87 22 77 23 81 24 82 25 86 26
REMARK SMILES IDX 78 27 80 28 83 29 85 30 79 31 84 32 9 33 10 34 11 35 12 36
REMARK SMILES IDX 13 38 14 39 15 40 67 41 16 42 66 43 17 44 18 45 19 46 60 47
REMARK SMILES IDX 20 48 65 49 59 50 61 51 21 52 64 53 58 54 57 55 22 57 48 58
REMARK SMILES IDX 31 59 47 60 32 61 35 62 46 63 62 64 33 65 34 66 45 68 63 69
REMARK SMILES IDX 36 70 23 71 24 72 29 73 25 74 26 75 28 76 30 77 27 78 49 79
REMARK SMILES IDX 50 80 55 81 51 82 52 83 54 84 56 85 53 86 37 87 38 88 43 89
REMARK SMILES IDX 39 90 40 91 42 92 44 93 41 94
REMARK H PARENT 7 5 70 12 70 13 3 17 11 37 61 56 35 67
REMARK Flexibility Score: inf
ROOT
ATOM      1  C   UNL     1       6.765   0.259  -2.487  1.00  0.00     0.117 C 
ENDROOT
BRANCH   1   2
ATOM      2  N   UNL     1       5.517  -0.090  -3.138  1.00  0.00    -0.354 N 
ATOM      3  C   UNL     1       4.207   0.143  -2.889  1.00  0.00     0.246 C 
ATOM      4  O   UNL     1       3.458  -0.228  -3.812  1.00  0.00    -0.272 OA
ATOM      5  H   UNL     1       5.655  -0.625  -3.953  1.00  0.00     0.163 HD
BRANCH   3   6
ATOM      6  C   UNL     1       3.542   0.761  -1.613  1.00  0.00     0.132 C 
ATOM      7  C   UNL     1       4.288   1.302  -0.420  1.00  0.00     0.100 C 
ATOM      8  C   UNL     1       2.785   2.045  -2.094  1.00  0.00     0.100 C 
ATOM      9  C   UNL     1       3.245   1.607   0.674  1.00  0.00     0.263 C 
ATOM     10  C   UNL     1       2.478   3.145  -1.032  1.00  0.00     0.263 C 
ATOM     11  N   UNL     1       2.482   2.795   0.381  1.00  0.00    -0.346 N 
ATOM     12  H   UNL     1       2.880   3.573   0.906  1.00  0.00     0.346 HD
ATOM     13  H   UNL     1       1.515   2.606   0.647  1.00  0.00     0.346 HD
BRANCH   6  14
ATOM     14  N   UNL     1       2.647  -0.362  -1.153  1.00  0.00    -0.307 N 
ATOM     15  O   UNL     1       2.072  -2.011   0.327  1.00  0.00    -0.225 OA
ATOM     16  C   UNL     1       2.939  -1.344  -0.212  1.00  0.00     0.408 C 
ATOM     17  H   UNL     1       1.754  -0.405  -1.566  1.00  0.00     0.168 HD
BRANCH  16  18
ATOM     18  O   UNL     1       4.255  -1.409   0.114  1.00  0.00    -0.449 OA
BRANCH  18  19
ATOM     19  C   UNL     1       4.762  -1.455   1.521  1.00  0.00     0.248 C 
BRANCH  19  20
ATOM     20  C   UNL     1       6.209  -0.839   1.484  1.00  0.00     0.088 C 
ATOM     21  C   UNL     1       7.544  -1.557   1.489  1.00  0.00    -0.029 A 
ATOM     22  C   UNL     1       6.645   0.617   1.758  1.00  0.00    -0.029 A 
ATOM     23  C   UNL     1       7.848  -2.899   1.525  1.00  0.00     0.005 A 
ATOM     24  C   UNL     1       8.542  -0.575   1.198  1.00  0.00    -0.014 A 
ATOM     25  C   UNL     1       7.939   0.745   1.214  1.00  0.00    -0.014 A 
ATOM     26  C   UNL     1       6.003   1.750   2.212  1.00  0.00     0.005 A 
ATOM     27  C   UNL     1       9.176  -3.258   1.272  1.00  0.00     0.000 A 
ATOM     28  C   UNL     1       9.849  -0.934   0.947  1.00  0.00     0.009 A 
ATOM     29  C   UNL     1       8.380   1.962   0.717  1.00  0.00     0.009 A 
ATOM     30  C   UNL     1       6.447   2.995   1.738  1.00  0.00     0.000 A 
ATOM     31  C   UNL     1      10.160  -2.291   0.981  1.00  0.00     0.001 A 
ATOM     32  C   UNL     1       7.582   3.087   0.920  1.00  0.00     0.001 A 
ENDBRANCH  19  20
ENDBRANCH  18  19
ENDBRANCH  16  18
ENDBRANCH   6  14
ENDBRANCH   3   6
ENDBRANCH   1   2
BRANCH   1  33
ATOM     33  C   UNL     1       7.643  -0.963  -2.196  1.00  0.00     0.042 C 
BRANCH  33  34
ATOM     34  C   UNL     1       8.578  -1.448  -3.311  1.00  0.00     0.118 C 
BRANCH  34  35
ATOM     35  N   UNL     1       9.685  -0.532  -3.568  1.00  0.00    -0.352 N 
ATOM     36  C   UNL     1      11.052  -0.649  -3.459  1.00  0.00     0.251 C 
ATOM     37  H   UNL     1       9.394   0.353  -3.885  1.00  0.00     0.163 HD
ATOM     38  O   UNL     1      11.721   0.377  -3.595  1.00  0.00    -0.269 OA
BRANCH  36  39
ATOM     39  C   UNL     1      11.764  -1.928  -3.175  1.00  0.00     0.039 A 
ATOM     40  C   UNL     1      13.006  -1.858  -2.520  1.00  0.00     0.014 A 
ATOM     41  C   UNL     1      11.313  -3.177  -3.602  1.00  0.00     0.014 A 
ATOM     42  C   UNL     1      13.742  -3.018  -2.241  1.00  0.00     0.010 A 
ATOM     43  C   UNL     1      12.012  -4.345  -3.256  1.00  0.00     0.010 A 
ATOM     44  C   UNL     1      13.233  -4.284  -2.566  1.00  0.00    -0.014 A 
BRANCH  44  45
ATOM     45  C   UNL     1      13.947  -5.535  -2.166  1.00  0.00     0.031 A 
ATOM     46  C   UNL     1      14.441  -6.518  -3.199  1.00  0.00     0.074 A 
ATOM     47  C   UNL     1      14.106  -5.824  -0.857  1.00  0.00     0.049 A 
ATOM     48  N   UNL     1      15.011  -7.686  -3.025  1.00  0.00    -0.248 NA
ATOM     49  C   UNL     1      14.255  -6.150  -4.610  1.00  0.00     0.031 C 
ATOM     50  C   UNL     1      13.648  -4.987   0.254  1.00  0.00     0.029 A 
ATOM     51  N   UNL     1      14.685  -6.905  -0.236  1.00  0.00    -0.354 N 
ATOM     52  C   UNL     1      15.240  -8.196  -4.298  1.00  0.00     0.074 A 
ATOM     53  C   UNL     1      14.703  -7.231  -5.235  1.00  0.00     0.031 C 
ATOM     54  C   UNL     1      13.976  -5.575   1.415  1.00  0.00     0.029 A 
ATOM     55  C   UNL     1      14.629  -6.850   1.138  1.00  0.00     0.049 A 
ATOM     56  H   UNL     1      15.101  -7.649  -0.728  1.00  0.00     0.167 HD
ATOM     57  C   UNL     1      15.857  -9.348  -4.659  1.00  0.00     0.037 A 
ATOM     58  C   UNL     1      15.042  -7.728   2.073  1.00  0.00     0.037 A 
ATOM     59  C   UNL     1      16.409 -10.306  -3.733  1.00  0.00     0.049 A 
ATOM     60  C   UNL     1      15.704  -9.009   1.645  1.00  0.00     0.074 A 
ATOM     61  C   UNL     1      17.093 -11.478  -4.011  1.00  0.00     0.029 A 
ATOM     62  N   UNL     1      16.341 -10.204  -2.352  1.00  0.00    -0.354 N 
ATOM     63  N   UNL     1      15.963  -9.444   0.435  1.00  0.00    -0.248 NA
ATOM     64  C   UNL     1      16.137  -9.921   2.714  1.00  0.00     0.031 C 
ATOM     65  C   UNL     1      17.396 -12.109  -2.800  1.00  0.00     0.029 A 
ATOM     66  C   UNL     1      16.950 -11.303  -1.766  1.00  0.00     0.049 A 
ATOM     67  H   UNL     1      15.921  -9.462  -1.860  1.00  0.00     0.167 HD
ATOM     68  C   UNL     1      16.612 -10.661   0.600  1.00  0.00     0.074 A 
ATOM     69  C   UNL     1      16.729 -10.886   2.025  1.00  0.00     0.031 C 
ATOM     70  C   UNL     1      17.068 -11.518  -0.346  1.00  0.00     0.037 A 
BRANCH  57  71
ATOM     71  C   UNL     1      15.982  -9.646  -6.128  1.00  0.00     0.057 A 
ATOM     72  C   UNL     1      16.846  -8.918  -6.957  1.00  0.00     0.134 A 
ATOM     73  C   UNL     1      15.282 -10.713  -6.707  1.00  0.00     0.134 A 
ATOM     74  F   UNL     1      17.542  -7.880  -6.468  1.00  0.00    -0.206 F 
ATOM     75  C   UNL     1      16.994  -9.226  -8.311  1.00  0.00     0.040 A 
ATOM     76  C   UNL     1      15.443 -11.048  -8.053  1.00  0.00     0.040 A 
ATOM     77  F   UNL     1      14.447 -11.461  -5.970  1.00  0.00    -0.206 F 
ATOM     78  C   UNL     1      16.297 -10.300  -8.860  1.00  0.00     0.006 A 
ENDBRANCH  57  71
BRANCH  58  79
ATOM     79  C   UNL     1      14.845  -7.433   3.517  1.00  0.00     0.057 A 
ATOM     80  C   UNL     1      15.935  -7.197   4.363  1.00  0.00     0.134 A 
ATOM     81  C   UNL     1      13.569  -7.415   4.093  1.00  0.00     0.134 A 
ATOM     82  F   UNL     1      17.185  -7.222   3.877  1.00  0.00    -0.206 F 
ATOM     83  C   UNL     1      15.767  -6.983   5.733  1.00  0.00     0.040 A 
ATOM     84  C   UNL     1      13.384  -7.171   5.455  1.00  0.00     0.040 A 
ATOM     85  F   UNL     1      12.481  -7.626   3.337  1.00  0.00    -0.206 F 
ATOM     86  C   UNL     1      14.487  -6.966   6.281  1.00  0.00     0.006 A 
ENDBRANCH  58  79
BRANCH  70  87
ATOM     87  C   UNL     1      17.767 -12.760   0.130  1.00  0.00     0.057 A 
ATOM     88  C   UNL     1      17.078 -13.805   0.759  1.00  0.00     0.134 A 
ATOM     89  C   UNL     1      19.145 -12.921  -0.062  1.00  0.00     0.134 A 
ATOM     90  F   UNL     1      15.759 -13.710   0.986  1.00  0.00    -0.206 F 
ATOM     91  C   UNL     1      17.739 -14.950   1.208  1.00  0.00     0.040 A 
ATOM     92  C   UNL     1      19.812 -14.074   0.355  1.00  0.00     0.040 A 
ATOM     93  F   UNL     1      19.866 -11.964  -0.667  1.00  0.00    -0.206 F 
ATOM     94  C   UNL     1      19.110 -15.089   1.001  1.00  0.00     0.006 A 
ENDBRANCH  70  87
ENDBRANCH  44  45
ENDBRANCH  36  39
ENDBRANCH  34  35
ENDBRANCH  33  34
ENDBRANCH   1  33
TORSDOF 14
