REMARK SMILES CC(C)[C@H](NC(=O)[C@H](Cc1ccccc1)n1c(=O)[nH]c2ccccc2c1=O)C(=O)NCCCNC(=O)c1ccc(-c2c3nc(c(-c4c(F)cccc4F)c4ccc([nH]4)c(-c4c(F)cccc4F)c4nc(c(-c5c(F)cccc5F)c5ccc2[nH]5)C=C4)C=C3)cc1
REMARK SMILES IDX 31 1 30 2 28 3 29 4 4 6 2 7 1 8 3 9 5 10 6 11 7 13 8 14
REMARK SMILES IDX 16 15 17 16 26 17 18 18 19 19 25 20 27 21 20 22 24 24 21 25
REMARK SMILES IDX 23 26 22 27 9 28 10 29 11 30 15 31 12 32 14 33 13 34 32 35
REMARK SMILES IDX 33 36 34 37 35 38 36 40 37 41 38 42 90 43 39 44 89 45 40 46
REMARK SMILES IDX 41 47 42 48 83 49 43 50 88 51 82 52 84 53 44 54 87 55 81 56
REMARK SMILES IDX 80 57 45 59 71 60 54 61 70 62 55 63 58 64 69 65 85 66 56 67
REMARK SMILES IDX 57 68 68 70 86 71 59 72 46 73 47 74 52 75 48 76 49 77 51 78
REMARK SMILES IDX 53 79 50 80 72 81 73 82 78 83 74 84 75 85 77 86 79 87 76 88
REMARK SMILES IDX 60 89 61 90 66 91 62 92 63 93 65 94 67 95 64 96
REMARK H PARENT 30 5 5 12 19 23 34 39 84 58 58 69
REMARK Flexibility Score: inf
ROOT
ATOM      1  C   UNL     1      -2.691   2.748   5.017  1.00  0.00     0.117 C 
ENDROOT
BRANCH   1   2
ATOM      2  N   UNL     1      -3.007   1.471   4.401  1.00  0.00    -0.354 N 
ATOM      3  C   UNL     1      -2.265   0.653   3.594  1.00  0.00     0.242 C 
ATOM      4  O   UNL     1      -2.640  -0.516   3.455  1.00  0.00    -0.273 OA
ATOM      5  H   UNL     1      -3.912   1.137   4.598  1.00  0.00     0.163 HD
BRANCH   3   6
ATOM      6  C   UNL     1      -0.973   1.132   2.935  1.00  0.00     0.173 C 
BRANCH   6   7
ATOM      7  C   UNL     1       0.144   0.997   4.034  1.00  0.00     0.015 C 
ATOM      8  C   UNL     1       0.255  -0.472   4.505  1.00  0.00     0.010 C 
ATOM      9  C   UNL     1       1.545   1.458   3.634  1.00  0.00     0.010 C 
ENDBRANCH   6   7
BRANCH   6  10
ATOM     10  N   UNL     1      -1.186   2.469   2.322  1.00  0.00    -0.342 N 
ATOM     11  C   UNL     1      -1.998   2.942   1.311  1.00  0.00     0.244 C 
ATOM     12  H   UNL     1      -0.626   3.170   2.725  1.00  0.00     0.164 HD
ATOM     13  O   UNL     1      -1.631   4.041   0.857  1.00  0.00    -0.273 OA
BRANCH  11  14
ATOM     14  C   UNL     1      -3.300   2.280   0.667  1.00  0.00     0.189 C 
BRANCH  14  15
ATOM     15  N   UNL     1      -3.044   1.605  -0.604  1.00  0.00    -0.247 N 
ATOM     16  C   UNL     1      -2.081   0.622  -0.621  1.00  0.00     0.329 A 
ATOM     17  C   UNL     1      -3.947   1.792  -1.645  1.00  0.00     0.264 A 
ATOM     18  O   UNL     1      -1.038   0.651   0.020  1.00  0.00    -0.248 OA
ATOM     19  N   UNL     1      -2.327  -0.458  -1.400  1.00  0.00    -0.307 N 
ATOM     20  C   UNL     1      -4.043   0.686  -2.621  1.00  0.00     0.064 A 
ATOM     21  O   UNL     1      -4.699   2.760  -1.748  1.00  0.00    -0.268 OA
ATOM     22  C   UNL     1      -3.312  -0.473  -2.372  1.00  0.00     0.055 A 
ATOM     23  H   UNL     1      -1.781  -1.267  -1.270  1.00  0.00     0.171 HD
ATOM     24  C   UNL     1      -4.904   0.739  -3.716  1.00  0.00     0.016 A 
ATOM     25  C   UNL     1      -3.502  -1.621  -3.131  1.00  0.00     0.027 A 
ATOM     26  C   UNL     1      -5.056  -0.394  -4.519  1.00  0.00     0.001 A 
ATOM     27  C   UNL     1      -4.383  -1.579  -4.207  1.00  0.00     0.002 A 
ENDBRANCH  14  15
BRANCH  14  28
ATOM     28  C   UNL     1      -4.176   1.390   1.568  1.00  0.00     0.071 C 
BRANCH  28  29
ATOM     29  C   UNL     1      -5.633   0.980   1.377  1.00  0.00    -0.045 A 
ATOM     30  C   UNL     1      -6.632   1.603   2.139  1.00  0.00     0.004 A 
ATOM     31  C   UNL     1      -5.985  -0.211   0.735  1.00  0.00     0.004 A 
ATOM     32  C   UNL     1      -7.921   1.082   2.280  1.00  0.00     0.000 A 
ATOM     33  C   UNL     1      -7.273  -0.757   0.886  1.00  0.00     0.000 A 
ATOM     34  C   UNL     1      -8.238  -0.115   1.661  1.00  0.00     0.000 A 
ENDBRANCH  28  29
ENDBRANCH  14  28
ENDBRANCH  11  14
ENDBRANCH   6  10
ENDBRANCH   3   6
ENDBRANCH   1   2
BRANCH   1  35
ATOM     35  C   UNL     1      -3.216   4.048   4.393  1.00  0.00     0.042 C 
BRANCH  35  36
ATOM     36  C   UNL     1      -4.705   4.229   4.112  1.00  0.00     0.118 C 
BRANCH  36  37
ATOM     37  N   UNL     1      -5.587   3.512   5.006  1.00  0.00    -0.352 N 
ATOM     38  C   UNL     1      -6.915   3.713   5.280  1.00  0.00     0.251 C 
ATOM     39  H   UNL     1      -5.170   2.765   5.493  1.00  0.00     0.163 HD
ATOM     40  O   UNL     1      -7.457   3.016   6.135  1.00  0.00    -0.269 OA
BRANCH  38  41
ATOM     41  C   UNL     1      -7.708   4.759   4.595  1.00  0.00     0.039 A 
ATOM     42  C   UNL     1      -8.549   5.550   5.386  1.00  0.00     0.014 A 
ATOM     43  C   UNL     1      -7.706   4.929   3.207  1.00  0.00     0.014 A 
ATOM     44  C   UNL     1      -9.342   6.535   4.796  1.00  0.00     0.010 A 
ATOM     45  C   UNL     1      -8.497   5.907   2.614  1.00  0.00     0.010 A 
ATOM     46  C   UNL     1      -9.301   6.729   3.408  1.00  0.00    -0.014 A 
BRANCH  46  47
ATOM     47  C   UNL     1      -9.949   7.898   2.783  1.00  0.00     0.031 A 
ATOM     48  C   UNL     1     -11.179   7.757   1.945  1.00  0.00     0.074 A 
ATOM     49  C   UNL     1      -9.321   9.081   2.903  1.00  0.00     0.049 A 
ATOM     50  N   UNL     1     -11.878   8.689   1.351  1.00  0.00    -0.248 NA
ATOM     51  C   UNL     1     -11.675   6.391   1.724  1.00  0.00     0.031 C 
ATOM     52  C   UNL     1      -8.060   9.288   3.622  1.00  0.00     0.029 A 
ATOM     53  N   UNL     1      -9.638  10.319   2.417  1.00  0.00    -0.354 N 
ATOM     54  C   UNL     1     -12.909   8.028   0.698  1.00  0.00     0.074 A 
ATOM     55  C   UNL     1     -12.706   6.611   0.919  1.00  0.00     0.031 C 
ATOM     56  C   UNL     1      -7.726  10.584   3.553  1.00  0.00     0.029 A 
ATOM     57  C   UNL     1      -8.735  11.289   2.772  1.00  0.00     0.049 A 
ATOM     58  H   UNL     1     -10.435  10.496   1.867  1.00  0.00     0.167 HD
ATOM     59  C   UNL     1     -13.937   8.565  -0.004  1.00  0.00     0.037 A 
ATOM     60  C   UNL     1      -8.734  12.606   2.508  1.00  0.00     0.037 A 
ATOM     61  C   UNL     1     -14.085   9.980  -0.243  1.00  0.00     0.049 A 
ATOM     62  C   UNL     1      -9.878  13.178   1.724  1.00  0.00     0.074 A 
ATOM     63  C   UNL     1     -15.107  10.648  -0.895  1.00  0.00     0.029 A 
ATOM     64  N   UNL     1     -13.163  10.945   0.144  1.00  0.00    -0.354 N 
ATOM     65  N   UNL     1     -10.918  12.564   1.213  1.00  0.00    -0.248 NA
ATOM     66  C   UNL     1      -9.857  14.627   1.495  1.00  0.00     0.031 C 
ATOM     67  C   UNL     1     -14.776  12.008  -0.948  1.00  0.00     0.029 A 
ATOM     68  C   UNL     1     -13.577  12.198  -0.277  1.00  0.00     0.049 A 
ATOM     69  H   UNL     1     -12.335  10.764   0.645  1.00  0.00     0.167 HD
ATOM     70  C   UNL     1     -11.694  13.552   0.627  1.00  0.00     0.074 A 
ATOM     71  C   UNL     1     -11.007  14.809   0.860  1.00  0.00     0.031 C 
ATOM     72  C   UNL     1     -12.870  13.434  -0.038  1.00  0.00     0.037 A 
BRANCH  59  73
ATOM     73  C   UNL     1     -14.964   7.616  -0.557  1.00  0.00     0.057 A 
ATOM     74  C   UNL     1     -15.809   6.873   0.282  1.00  0.00     0.134 A 
ATOM     75  C   UNL     1     -15.122   7.441  -1.938  1.00  0.00     0.134 A 
ATOM     76  F   UNL     1     -15.714   6.987   1.615  1.00  0.00    -0.206 F 
ATOM     77  C   UNL     1     -16.737   5.963  -0.229  1.00  0.00     0.040 A 
ATOM     78  C   UNL     1     -16.067   6.555  -2.462  1.00  0.00     0.040 A 
ATOM     79  F   UNL     1     -14.360   8.126  -2.804  1.00  0.00    -0.206 F 
ATOM     80  C   UNL     1     -16.870   5.804  -1.606  1.00  0.00     0.006 A 
ENDBRANCH  59  73
BRANCH  60  81
ATOM     81  C   UNL     1      -7.662  13.463   3.066  1.00  0.00     0.057 A 
ATOM     82  C   UNL     1      -7.928  14.339   4.125  1.00  0.00     0.134 A 
ATOM     83  C   UNL     1      -6.343  13.393   2.602  1.00  0.00     0.134 A 
ATOM     84  F   UNL     1      -9.173  14.451   4.610  1.00  0.00    -0.206 F 
ATOM     85  C   UNL     1      -6.925  15.125   4.693  1.00  0.00     0.040 A 
ATOM     86  C   UNL     1      -5.325  14.155   3.176  1.00  0.00     0.040 A 
ATOM     87  F   UNL     1      -6.020  12.556   1.605  1.00  0.00    -0.206 F 
ATOM     88  C   UNL     1      -5.617  15.028   4.223  1.00  0.00     0.006 A 
ENDBRANCH  60  81
BRANCH  72  89
ATOM     89  C   UNL     1     -13.495  14.706  -0.532  1.00  0.00     0.057 A 
ATOM     90  C   UNL     1     -12.953  15.434  -1.599  1.00  0.00     0.134 A 
ATOM     91  C   UNL     1     -14.667  15.197   0.057  1.00  0.00     0.134 A 
ATOM     92  F   UNL     1     -11.822  15.028  -2.196  1.00  0.00    -0.206 F 
ATOM     93  C   UNL     1     -13.539  16.621  -2.043  1.00  0.00     0.040 A 
ATOM     94  C   UNL     1     -15.279  16.365  -0.398  1.00  0.00     0.040 A 
ATOM     95  F   UNL     1     -15.241  14.544   1.079  1.00  0.00    -0.206 F 
ATOM     96  C   UNL     1     -14.709  17.085  -1.446  1.00  0.00     0.006 A 
ENDBRANCH  72  89
ENDBRANCH  46  47
ENDBRANCH  38  41
ENDBRANCH  36  37
ENDBRANCH  35  36
ENDBRANCH   1  35
TORSDOF 16
