REMARK SMILES COCC[NH2+]CC(=O)N1CCCCC[C@@H]1C(=O)NCCCNC(=O)c1ccc(-c2c3nc(c(-c4c(F)cccc4F)c4ccc([nH]4)c(-c4c(F)cccc4F)c4nc(c(-c5c(F)cccc5F)c5ccc2[nH]5)C=C4)C=C3)cc1
REMARK SMILES IDX 16 1 17 2 18 3 15 5 9 6 7 7 8 8 6 9 5 10 4 13 3 14 2 15 1 16
REMARK SMILES IDX 10 17 11 18 14 20 13 21 12 22 19 24 20 25 21 26 22 27 23 28
REMARK SMILES IDX 24 30 25 31 26 32 78 33 27 34 77 35 28 36 29 37 30 38 71 39
REMARK SMILES IDX 31 40 76 41 70 42 72 43 32 44 75 45 69 46 68 47 33 49 59 50
REMARK SMILES IDX 42 51 58 52 43 53 46 54 57 55 73 56 44 57 45 58 56 60 74 61
REMARK SMILES IDX 47 62 34 63 35 64 40 65 36 66 37 67 39 68 41 69 38 70 60 71
REMARK SMILES IDX 61 72 66 73 62 74 63 75 65 76 67 77 64 78 48 79 49 80 54 81
REMARK SMILES IDX 50 82 51 83 53 84 55 85 52 86
REMARK H PARENT 18 4 5 11 5 12 22 29 72 48 46 59
REMARK Flexibility Score: 90.00
ROOT
ATOM      1  C   UNL     1      -1.908  -0.870  -1.421  1.00  0.00     0.242 C 
ATOM      2  O   UNL     1      -0.945  -0.948  -0.653  1.00  0.00    -0.273 OA
ATOM      3  N   UNL     1      -2.951  -0.161  -0.944  1.00  0.00    -0.354 N 
ATOM      4  H   UNL     1      -2.744   0.379  -0.146  1.00  0.00     0.163 HD
ENDROOT
BRANCH   1   5
ATOM      5  C   UNL     1      -1.822  -1.488  -2.839  1.00  0.00     0.174 C 
BRANCH   5   6
ATOM      6  N   UNL     1      -1.984  -0.450  -3.850  1.00  0.00    -0.326 N 
BRANCH   6   7
ATOM      7  C   UNL     1      -1.111   0.654  -3.857  1.00  0.00     0.278 C 
ATOM      8  O   UNL     1      -1.544   1.780  -4.120  1.00  0.00    -0.268 OA
BRANCH   7   9
ATOM      9  C   UNL     1       0.417   0.379  -3.822  1.00  0.00     0.362 C 
BRANCH   9  10
ATOM     10  N   UNL     1       1.025   0.140  -2.498  1.00  0.00    -0.337 N 
ATOM     11  H   UNL     1       1.646   0.918  -2.275  1.00  0.00     0.346 HD
ATOM     12  H   UNL     1       0.271   0.062  -1.815  1.00  0.00     0.346 HD
BRANCH  10  13
ATOM     13  C   UNL     1       1.801  -1.112  -2.463  1.00  0.00     0.289 C 
BRANCH  13  14
ATOM     14  C   UNL     1       2.578  -1.409  -1.164  1.00  0.00     0.221 C 
BRANCH  14  15
ATOM     15  O   UNL     1       1.790  -1.363   0.022  1.00  0.00    -0.379 OA
ATOM     16  C   UNL     1       1.889  -0.117   0.700  1.00  0.00     0.195 C 
ENDBRANCH  14  15
ENDBRANCH  13  14
ENDBRANCH  10  13
ENDBRANCH   9  10
ENDBRANCH   7   9
ENDBRANCH   6   7
BRANCH   6  17
ATOM     17  C   UNL     1      -2.675  -0.720  -5.106  1.00  0.00     0.120 C 
BRANCH  17  18
ATOM     18  C   UNL     1      -4.161  -1.027  -5.003  1.00  0.00     0.022 CG0
ATOM     19  G   UNL     1      -4.489  -2.463  -4.612  1.00  0.00     0.000 G0
ENDBRANCH  17  18
ENDBRANCH   6  17
ENDBRANCH   5   6
BRANCH   5  20
ATOM     20  C   UNL     1      -2.485  -2.855  -3.027  1.00  0.00     0.035 C 
BRANCH  20  21
ATOM     21  C   UNL     1      -3.979  -2.962  -3.269  1.00  0.00     0.003 C 
BRANCH  21  22
ATOM     22  C   UNL     1      -4.489  -2.463  -4.612  1.00  0.00     0.002 CG0
ATOM     23  G   UNL     1      -4.161  -1.027  -5.003  1.00  0.00     0.000 G0
ENDBRANCH  21  22
ENDBRANCH  20  21
ENDBRANCH   5  20
ENDBRANCH   1   5
BRANCH   3  24
ATOM     24  C   UNL     1      -4.311  -0.054  -1.395  1.00  0.00     0.117 C 
BRANCH  24  25
ATOM     25  C   UNL     1      -5.212  -0.922  -0.529  1.00  0.00     0.042 C 
BRANCH  25  26
ATOM     26  C   UNL     1      -5.244  -0.460   0.915  1.00  0.00     0.118 C 
BRANCH  26  27
ATOM     27  N   UNL     1      -5.931   0.813   1.057  1.00  0.00    -0.352 N 
ATOM     28  C   UNL     1      -7.197   1.065   1.522  1.00  0.00     0.251 C 
ATOM     29  H   UNL     1      -5.416   1.605   0.779  1.00  0.00     0.163 HD
ATOM     30  O   UNL     1      -7.729   2.146   1.307  1.00  0.00    -0.269 OA
BRANCH  28  31
ATOM     31  C   UNL     1      -7.912   0.019   2.282  1.00  0.00     0.039 A 
ATOM     32  C   UNL     1      -9.287  -0.140   2.099  1.00  0.00     0.014 A 
ATOM     33  C   UNL     1      -7.228  -0.785   3.196  1.00  0.00     0.014 A 
ATOM     34  C   UNL     1      -9.965  -1.118   2.827  1.00  0.00     0.010 A 
ATOM     35  C   UNL     1      -7.873  -1.847   3.806  1.00  0.00     0.010 A 
ATOM     36  C   UNL     1      -9.260  -1.983   3.680  1.00  0.00    -0.014 A 
BRANCH  36  37
ATOM     37  C   UNL     1      -9.963  -2.962   4.540  1.00  0.00     0.031 A 
ATOM     38  C   UNL     1      -9.849  -2.846   6.038  1.00  0.00     0.074 A 
ATOM     39  C   UNL     1     -10.656  -3.972   3.985  1.00  0.00     0.049 A 
ATOM     40  N   UNL     1     -10.349  -3.615   6.971  1.00  0.00    -0.248 NA
ATOM     41  C   UNL     1      -9.019  -1.745   6.558  1.00  0.00     0.031 C 
ATOM     42  C   UNL     1     -10.776  -4.230   2.549  1.00  0.00     0.029 A 
ATOM     43  N   UNL     1     -11.389  -4.973   4.567  1.00  0.00    -0.354 N 
ATOM     44  C   UNL     1      -9.868  -3.109   8.173  1.00  0.00     0.074 A 
ATOM     45  C   UNL     1      -8.972  -2.024   7.850  1.00  0.00     0.031 C 
ATOM     46  C   UNL     1     -11.568  -5.298   2.361  1.00  0.00     0.029 A 
ATOM     47  C   UNL     1     -11.986  -5.813   3.662  1.00  0.00     0.049 A 
ATOM     48  H   UNL     1     -11.478  -5.078   5.542  1.00  0.00     0.167 HD
ATOM     49  C   UNL     1     -10.174  -3.486   9.436  1.00  0.00     0.037 A 
ATOM     50  C   UNL     1     -12.788  -6.874   3.863  1.00  0.00     0.037 A 
ATOM     51  C   UNL     1     -11.105  -4.535   9.748  1.00  0.00     0.049 A 
ATOM     52  C   UNL     1     -13.165  -7.244   5.270  1.00  0.00     0.074 A 
ATOM     53  C   UNL     1     -11.553  -4.954  10.986  1.00  0.00     0.029 A 
ATOM     54  N   UNL     1     -11.733  -5.332   8.800  1.00  0.00    -0.354 N 
ATOM     55  N   UNL     1     -12.771  -6.707   6.400  1.00  0.00    -0.248 NA
ATOM     56  C   UNL     1     -14.113  -8.353   5.430  1.00  0.00     0.031 C 
ATOM     57  C   UNL     1     -12.421  -6.035  10.790  1.00  0.00     0.029 A 
ATOM     58  C   UNL     1     -12.555  -6.252   9.427  1.00  0.00     0.049 A 
ATOM     59  H   UNL     1     -11.613  -5.253   7.827  1.00  0.00     0.167 HD
ATOM     60  C   UNL     1     -13.444  -7.391   7.404  1.00  0.00     0.074 A 
ATOM     61  C   UNL     1     -14.280  -8.374   6.745  1.00  0.00     0.031 C 
ATOM     62  C   UNL     1     -13.380  -7.220   8.748  1.00  0.00     0.037 A 
BRANCH  49  63
ATOM     63  C   UNL     1      -9.491  -2.752  10.556  1.00  0.00     0.057 A 
ATOM     64  C   UNL     1      -9.733  -1.394  10.817  1.00  0.00     0.134 A 
ATOM     65  C   UNL     1      -8.557  -3.404  11.371  1.00  0.00     0.134 A 
ATOM     66  F   UNL     1     -10.602  -0.702  10.065  1.00  0.00    -0.206 F 
ATOM     67  C   UNL     1      -9.036  -0.702  11.809  1.00  0.00     0.040 A 
ATOM     68  C   UNL     1      -7.880  -2.731  12.391  1.00  0.00     0.040 A 
ATOM     69  F   UNL     1      -8.278  -4.702  11.185  1.00  0.00    -0.206 F 
ATOM     70  C   UNL     1      -8.108  -1.373  12.603  1.00  0.00     0.006 A 
ENDBRANCH  49  63
BRANCH  50  71
ATOM     71  C   UNL     1     -13.330  -7.613   2.696  1.00  0.00     0.057 A 
ATOM     72  C   UNL     1     -14.675  -7.499   2.329  1.00  0.00     0.134 A 
ATOM     73  C   UNL     1     -12.509  -8.419   1.898  1.00  0.00     0.134 A 
ATOM     74  F   UNL     1     -15.513  -6.750   3.060  1.00  0.00    -0.206 F 
ATOM     75  C   UNL     1     -15.189  -8.168   1.217  1.00  0.00     0.040 A 
ATOM     76  C   UNL     1     -13.004  -9.075   0.770  1.00  0.00     0.040 A 
ATOM     77  F   UNL     1     -11.207  -8.557   2.189  1.00  0.00    -0.206 F 
ATOM     78  C   UNL     1     -14.350  -8.954   0.429  1.00  0.00     0.006 A 
ENDBRANCH  50  71
BRANCH  62  79
ATOM     79  C   UNL     1     -14.269  -8.088   9.590  1.00  0.00     0.057 A 
ATOM     80  C   UNL     1     -14.030  -9.458   9.755  1.00  0.00     0.134 A 
ATOM     81  C   UNL     1     -15.361  -7.535  10.270  1.00  0.00     0.134 A 
ATOM     82  F   UNL     1     -13.005 -10.051   9.122  1.00  0.00    -0.206 F 
ATOM     83  C   UNL     1     -14.864 -10.253  10.542  1.00  0.00     0.040 A 
ATOM     84  C   UNL     1     -16.185  -8.313  11.083  1.00  0.00     0.040 A 
ATOM     85  F   UNL     1     -15.639  -6.227  10.165  1.00  0.00    -0.206 F 
ATOM     86  C   UNL     1     -15.942  -9.679  11.214  1.00  0.00     0.006 A 
ENDBRANCH  62  79
ENDBRANCH  36  37
ENDBRANCH  28  31
ENDBRANCH  26  27
ENDBRANCH  25  26
ENDBRANCH  24  25
ENDBRANCH   3  24
TORSDOF 16
