REMARK SMILES CC[C@@H](C)c1nc2cc(C(=O)NCCCNC(=O)c3ccc(-c4c5nc(c(-c6c(F)cccc6F)c6ccc([nH]6)c(-c6c(F)cccc6F)c6nc(c(-c7c(F)cccc7F)c7ccc4[nH]7)C=C6)C=C5)cc3)ccc2n1[C@@H](C)CC
REMARK SMILES IDX 14 1 13 2 12 3 10 4 11 5 9 7 5 8 6 9 76 10 7 11 75 12 8 13
REMARK SMILES IDX 74 14 73 15 3 16 4 17 2 18 1 19 77 20 78 21 79 22 80 23
REMARK SMILES IDX 15 24 16 25 17 26 18 28 19 29 20 30 72 31 21 32 71 33 22 34
REMARK SMILES IDX 23 35 24 36 65 37 25 38 70 39 64 40 66 41 26 42 69 43 63 44
REMARK SMILES IDX 62 45 27 47 53 48 36 49 52 50 37 51 40 52 51 53 67 54 38 55
REMARK SMILES IDX 39 56 50 58 68 59 41 60 28 61 29 62 34 63 30 64 31 65 33 66
REMARK SMILES IDX 35 67 32 68 54 69 55 70 60 71 56 72 57 73 59 74 61 75 58 76
REMARK SMILES IDX 42 77 43 78 48 79 44 80 45 81 47 82 49 83 46 84
REMARK H PARENT 12 6 16 27 66 46 40 57
REMARK Flexibility Score: inf
ROOT
ATOM      1  C   UNL     1      -3.068   2.329  10.822  1.00  0.00     0.042 C 
ENDROOT
BRANCH   1   2
ATOM      2  C   UNL     1      -1.687   1.679  10.678  1.00  0.00     0.118 C 
BRANCH   2   3
ATOM      3  N   UNL     1      -1.775   0.349  10.097  1.00  0.00    -0.352 N 
ATOM      4  C   UNL     1      -1.551  -0.171   8.843  1.00  0.00     0.251 C 
ATOM      5  O   UNL     1      -1.653  -1.386   8.727  1.00  0.00    -0.269 OA
ATOM      6  H   UNL     1      -2.058  -0.333  10.748  1.00  0.00     0.163 HD
BRANCH   4   7
ATOM      7  C   UNL     1      -1.176   0.643   7.646  1.00  0.00     0.042 A 
ATOM      8  C   UNL     1       0.461   1.283   3.425  1.00  0.00     0.112 A 
ATOM      9  N   UNL     1       0.308   0.229   4.221  1.00  0.00    -0.233 NA
ATOM     10  N   UNL     1       0.142   2.436   4.139  1.00  0.00    -0.325 N 
ATOM     11  C   UNL     1      -0.222   0.668   5.401  1.00  0.00     0.090 A 
ATOM     12  C   UNL     1      -0.396   2.038   5.361  1.00  0.00     0.068 A 
ATOM     13  C   UNL     1      -0.592  -0.042   6.558  1.00  0.00     0.044 A 
ATOM     14  C   UNL     1      -1.004   2.740   6.410  1.00  0.00     0.029 A 
ATOM     15  C   UNL     1      -1.421   2.010   7.528  1.00  0.00     0.016 A 
BRANCH   8  16
ATOM     16  C   UNL     1       0.989   1.112   1.994  1.00  0.00     0.052 C 
ATOM     17  C   UNL     1       0.607   2.191   0.989  1.00  0.00     0.016 C 
BRANCH  16  18
ATOM     18  C   UNL     1       0.524  -0.270   1.440  1.00  0.00     0.008 C 
ATOM     19  C   UNL     1       0.955  -0.577   0.008  1.00  0.00     0.004 C 
ENDBRANCH  16  18
ENDBRANCH   8  16
BRANCH  10  20
ATOM     20  C   UNL     1       0.319   3.853   3.834  1.00  0.00     0.085 C 
ATOM     21  C   UNL     1       1.772   4.237   3.536  1.00  0.00     0.031 C 
BRANCH  20  22
ATOM     22  C   UNL     1      -0.742   4.476   2.901  1.00  0.00     0.022 C 
ATOM     23  C   UNL     1      -2.171   4.028   3.191  1.00  0.00     0.006 C 
ENDBRANCH  20  22
ENDBRANCH  10  20
ENDBRANCH   4   7
ENDBRANCH   2   3
ENDBRANCH   1   2
BRANCH   1  24
ATOM     24  C   UNL     1      -3.922   1.691  11.921  1.00  0.00     0.118 C 
BRANCH  24  25
ATOM     25  N   UNL     1      -3.339   1.795  13.246  1.00  0.00    -0.352 N 
ATOM     26  C   UNL     1      -3.268   2.762  14.208  1.00  0.00     0.251 C 
ATOM     27  H   UNL     1      -2.884   0.966  13.518  1.00  0.00     0.163 HD
ATOM     28  O   UNL     1      -2.689   2.442  15.250  1.00  0.00    -0.269 OA
BRANCH  26  29
ATOM     29  C   UNL     1      -3.775   4.156  14.079  1.00  0.00     0.039 A 
ATOM     30  C   UNL     1      -4.537   4.654  13.023  1.00  0.00     0.014 A 
ATOM     31  C   UNL     1      -3.417   5.037  15.120  1.00  0.00     0.014 A 
ATOM     32  C   UNL     1      -4.851   6.011  12.962  1.00  0.00     0.010 A 
ATOM     33  C   UNL     1      -3.748   6.387  15.076  1.00  0.00     0.010 A 
ATOM     34  C   UNL     1      -4.427   6.883  13.971  1.00  0.00    -0.014 A 
BRANCH  34  35
ATOM     35  C   UNL     1      -4.809   8.290  13.865  1.00  0.00     0.031 A 
ATOM     36  C   UNL     1      -6.277   8.536  13.855  1.00  0.00     0.074 A 
ATOM     37  C   UNL     1      -3.930   9.314  13.857  1.00  0.00     0.049 A 
ATOM     38  N   UNL     1      -6.997   8.998  12.886  1.00  0.00    -0.248 NA
ATOM     39  C   UNL     1      -7.055   8.111  15.027  1.00  0.00     0.031 C 
ATOM     40  C   UNL     1      -2.492   9.258  14.137  1.00  0.00     0.029 A 
ATOM     41  N   UNL     1      -4.156  10.650  13.667  1.00  0.00    -0.354 N 
ATOM     42  C   UNL     1      -8.296   9.101  13.386  1.00  0.00     0.074 A 
ATOM     43  C   UNL     1      -8.299   8.410  14.647  1.00  0.00     0.031 C 
ATOM     44  C   UNL     1      -2.016  10.513  14.299  1.00  0.00     0.029 A 
ATOM     45  C   UNL     1      -3.073  11.460  13.984  1.00  0.00     0.049 A 
ATOM     46  H   UNL     1      -5.012  11.006  13.335  1.00  0.00     0.167 HD
ATOM     47  C   UNL     1      -9.194   9.960  12.827  1.00  0.00     0.037 A 
ATOM     48  C   UNL     1      -3.037  12.813  13.999  1.00  0.00     0.037 A 
ATOM     49  C   UNL     1      -8.748  10.400  11.531  1.00  0.00     0.049 A 
ATOM     50  C   UNL     1      -4.136  13.317  13.151  1.00  0.00     0.074 A 
ATOM     51  C   UNL     1      -8.700   9.902  10.249  1.00  0.00     0.029 A 
ATOM     52  N   UNL     1      -7.939  11.502  11.572  1.00  0.00    -0.354 N 
ATOM     53  N   UNL     1      -4.152  13.208  11.853  1.00  0.00    -0.248 NA
ATOM     54  C   UNL     1      -5.403  13.700  13.762  1.00  0.00     0.031 C 
ATOM     55  C   UNL     1      -7.668  10.629   9.581  1.00  0.00     0.029 A 
ATOM     56  C   UNL     1      -7.131  11.556  10.473  1.00  0.00     0.049 A 
ATOM     57  H   UNL     1      -7.940  12.167  12.298  1.00  0.00     0.167 HD
ATOM     58  C   UNL     1      -5.490  13.077  11.541  1.00  0.00     0.074 A 
ATOM     59  C   UNL     1      -6.209  13.578  12.704  1.00  0.00     0.031 C 
ATOM     60  C   UNL     1      -5.883  12.278  10.509  1.00  0.00     0.037 A 
BRANCH  47  61
ATOM     61  C   UNL     1     -10.188  10.807  13.607  1.00  0.00     0.057 A 
ATOM     62  C   UNL     1     -10.104  11.067  14.989  1.00  0.00     0.134 A 
ATOM     63  C   UNL     1     -11.033  11.684  12.892  1.00  0.00     0.134 A 
ATOM     64  F   UNL     1      -9.326  10.356  15.810  1.00  0.00    -0.206 F 
ATOM     65  C   UNL     1     -10.745  12.153  15.597  1.00  0.00     0.040 A 
ATOM     66  C   UNL     1     -11.642  12.798  13.483  1.00  0.00     0.040 A 
ATOM     67  F   UNL     1     -11.220  11.537  11.571  1.00  0.00    -0.206 F 
ATOM     68  C   UNL     1     -11.482  13.047  14.839  1.00  0.00     0.006 A 
ENDBRANCH  47  61
BRANCH  48  69
ATOM     69  C   UNL     1      -2.206  13.729  14.805  1.00  0.00     0.057 A 
ATOM     70  C   UNL     1      -1.891  13.422  16.138  1.00  0.00     0.134 A 
ATOM     71  C   UNL     1      -1.946  15.044  14.392  1.00  0.00     0.134 A 
ATOM     72  F   UNL     1      -2.160  12.210  16.646  1.00  0.00    -0.206 F 
ATOM     73  C   UNL     1      -1.376  14.376  17.021  1.00  0.00     0.040 A 
ATOM     74  C   UNL     1      -1.434  16.009  15.266  1.00  0.00     0.040 A 
ATOM     75  F   UNL     1      -2.243  15.438  13.145  1.00  0.00    -0.206 F 
ATOM     76  C   UNL     1      -1.161  15.680  16.591  1.00  0.00     0.006 A 
ENDBRANCH  48  69
BRANCH  60  77
ATOM     77  C   UNL     1      -4.859  11.987   9.460  1.00  0.00     0.057 A 
ATOM     78  C   UNL     1      -5.063  12.493   8.174  1.00  0.00     0.134 A 
ATOM     79  C   UNL     1      -3.717  11.203   9.671  1.00  0.00     0.134 A 
ATOM     80  F   UNL     1      -6.161  13.213   7.896  1.00  0.00    -0.206 F 
ATOM     81  C   UNL     1      -4.160  12.251   7.139  1.00  0.00     0.040 A 
ATOM     82  C   UNL     1      -2.787  10.982   8.652  1.00  0.00     0.040 A 
ATOM     83  F   UNL     1      -3.487  10.615  10.852  1.00  0.00    -0.206 F 
ATOM     84  C   UNL     1      -3.008  11.506   7.381  1.00  0.00     0.006 A 
ENDBRANCH  60  77
ENDBRANCH  34  35
ENDBRANCH  26  29
ENDBRANCH  24  25
ENDBRANCH   1  24
TORSDOF 14
