REMARK SMILES Cc1ccc(-c2cc([C@@H](C)C(=O)NCCCNC(=O)c3ccc(-c4c5nc(c(-c6c(F)cccc6F)c6ccc([nH]6)c(-c6c(F)cccc6F)c6nc(c(-c7c(F)cccc7F)c7ccc4[nH]7)C=C6)C=C5)cc3)ccc2C[C@H]2CCCC2=O)cc1
REMARK SMILES IDX 14 1 13 2 11 3 12 4 9 6 10 7 8 8 6 9 7 10 76 11 75 12 74 13
REMARK SMILES IDX 5 14 1 15 2 16 3 17 85 18 4 19 84 20 77 21 78 22 79 23 82 24
REMARK SMILES IDX 80 25 81 26 83 27 15 28 16 29 17 30 18 31 19 33 20 34 21 35
REMARK SMILES IDX 73 36 22 37 72 38 23 39 24 40 25 41 66 42 26 43 71 44 65 45
REMARK SMILES IDX 67 46 27 47 70 48 64 49 63 50 28 52 54 53 37 54 53 55 38 56
REMARK SMILES IDX 41 57 52 58 68 59 39 60 40 61 51 63 69 64 42 65 29 66 30 67
REMARK SMILES IDX 35 68 31 69 32 70 34 71 36 72 33 73 55 74 56 75 61 76 57 77
REMARK SMILES IDX 58 78 60 79 62 80 59 81 43 82 44 83 49 84 45 85 46 86 48 87
REMARK SMILES IDX 50 88 47 89
REMARK H PARENT 13 5 17 32 67 51 41 62
REMARK Flexibility Score: inf
ROOT
ATOM      1  C   UNL     1      -8.832   0.909  -1.026  1.00  0.00     0.117 C 
ENDROOT
BRANCH   1   2
ATOM      2  N   UNL     1      -8.005   2.053  -1.376  1.00  0.00    -0.356 N 
ATOM      3  C   UNL     1      -6.763   2.159  -1.926  1.00  0.00     0.227 C 
ATOM      4  O   UNL     1      -6.297   3.305  -1.984  1.00  0.00    -0.274 OA
ATOM      5  H   UNL     1      -8.425   2.921  -1.177  1.00  0.00     0.163 HD
BRANCH   3   6
ATOM      6  C   UNL     1      -5.932   0.974  -2.456  1.00  0.00     0.105 C 
ATOM      7  C   UNL     1      -6.654   0.091  -3.471  1.00  0.00     0.023 C 
BRANCH   6   8
ATOM      8  C   UNL     1      -5.172   0.231  -1.367  1.00  0.00    -0.035 A 
ATOM      9  C   UNL     1      -3.116  -0.065  -0.038  1.00  0.00    -0.015 A 
ATOM     10  C   UNL     1      -3.832   0.550  -1.090  1.00  0.00     0.013 A 
ATOM     11  C   UNL     1      -3.822  -0.897   0.860  1.00  0.00    -0.039 A 
ATOM     12  C   UNL     1      -5.124  -1.289   0.523  1.00  0.00     0.004 A 
ATOM     13  C   UNL     1      -5.757  -0.781  -0.610  1.00  0.00     0.005 A 
BRANCH   9  14
ATOM     14  C   UNL     1      -1.646   0.051  -0.007  1.00  0.00    -0.018 A 
ATOM     15  C   UNL     1       2.682   0.190  -0.023  1.00  0.00     0.044 C 
ATOM     16  C   UNL     1       1.182   0.158  -0.030  1.00  0.00    -0.051 A 
ATOM     17  C   UNL     1       0.524  -1.065  -0.158  1.00  0.00     0.004 A 
ATOM     18  C   UNL     1       0.423   1.328   0.098  1.00  0.00     0.004 A 
ATOM     19  C   UNL     1      -0.869  -1.113  -0.160  1.00  0.00     0.009 A 
ATOM     20  C   UNL     1      -0.978   1.276   0.106  1.00  0.00     0.009 A 
ENDBRANCH   9  14
BRANCH  11  21
ATOM     21  C   UNL     1      -3.242  -1.393   2.172  1.00  0.00     0.047 C 
BRANCH  21  22
ATOM     22  C   UNL     1      -3.632  -0.609   3.434  1.00  0.00     0.060 C 
ATOM     23  C   UNL     1      -3.319   0.893   3.443  1.00  0.00     0.012 C 
ATOM     24  C   UNL     1      -5.117  -0.627   3.724  1.00  0.00     0.136 C 
ATOM     25  C   UNL     1      -4.639   1.604   3.167  1.00  0.00     0.009 C 
ATOM     26  C   UNL     1      -5.692   0.757   3.861  1.00  0.00     0.076 C 
ATOM     27  O   UNL     1      -5.776  -1.648   3.882  1.00  0.00    -0.299 OA
ENDBRANCH  21  22
ENDBRANCH  11  21
ENDBRANCH   6   8
ENDBRANCH   3   6
ENDBRANCH   1   2
BRANCH   1  28
ATOM     28  C   UNL     1      -8.519   0.386   0.372  1.00  0.00     0.042 C 
BRANCH  28  29
ATOM     29  C   UNL     1      -9.470   0.857   1.458  1.00  0.00     0.118 C 
BRANCH  29  30
ATOM     30  N   UNL     1     -10.405  -0.183   1.891  1.00  0.00    -0.352 N 
ATOM     31  C   UNL     1     -11.257  -0.192   2.984  1.00  0.00     0.251 C 
ATOM     32  H   UNL     1     -10.432  -0.989   1.326  1.00  0.00     0.163 HD
ATOM     33  O   UNL     1     -12.052  -1.100   3.152  1.00  0.00    -0.269 OA
BRANCH  31  34
ATOM     34  C   UNL     1     -11.281   1.003   3.857  1.00  0.00     0.039 A 
ATOM     35  C   UNL     1     -12.488   1.700   3.948  1.00  0.00     0.014 A 
ATOM     36  C   UNL     1     -10.088   1.579   4.281  1.00  0.00     0.014 A 
ATOM     37  C   UNL     1     -12.452   3.070   4.180  1.00  0.00     0.010 A 
ATOM     38  C   UNL     1     -10.039   2.956   4.398  1.00  0.00     0.010 A 
ATOM     39  C   UNL     1     -11.212   3.707   4.262  1.00  0.00    -0.014 A 
BRANCH  39  40
ATOM     40  C   UNL     1     -11.063   5.138   4.013  1.00  0.00     0.031 A 
ATOM     41  C   UNL     1     -10.716   6.073   5.100  1.00  0.00     0.074 A 
ATOM     42  C   UNL     1     -11.243   5.629   2.764  1.00  0.00     0.049 A 
ATOM     43  N   UNL     1     -11.122   7.299   5.140  1.00  0.00    -0.248 NA
ATOM     44  C   UNL     1      -9.906   5.691   6.252  1.00  0.00     0.031 C 
ATOM     45  C   UNL     1     -10.919   6.973   2.293  1.00  0.00     0.029 A 
ATOM     46  N   UNL     1     -11.958   5.052   1.706  1.00  0.00    -0.354 N 
ATOM     47  C   UNL     1     -10.430   7.928   6.144  1.00  0.00     0.074 A 
ATOM     48  C   UNL     1      -9.738   6.874   6.852  1.00  0.00     0.031 C 
ATOM     49  C   UNL     1     -11.636   7.231   1.188  1.00  0.00     0.029 A 
ATOM     50  C   UNL     1     -12.541   6.115   0.985  1.00  0.00     0.049 A 
ATOM     51  H   UNL     1     -12.037   4.091   1.504  1.00  0.00     0.167 HD
ATOM     52  C   UNL     1     -10.387   9.288   6.202  1.00  0.00     0.037 A 
ATOM     53  C   UNL     1     -13.888   6.220   0.803  1.00  0.00     0.037 A 
ATOM     54  C   UNL     1     -11.119   9.911   5.110  1.00  0.00     0.049 A 
ATOM     55  C   UNL     1     -14.486   7.505   1.324  1.00  0.00     0.074 A 
ATOM     56  C   UNL     1     -10.711  10.400   3.879  1.00  0.00     0.029 A 
ATOM     57  N   UNL     1     -12.505   9.823   5.058  1.00  0.00    -0.354 N 
ATOM     58  N   UNL     1     -13.884   8.291   2.171  1.00  0.00    -0.248 NA
ATOM     59  C   UNL     1     -15.826   7.975   0.983  1.00  0.00     0.031 C 
ATOM     60  C   UNL     1     -11.857  10.588   3.075  1.00  0.00     0.029 A 
ATOM     61  C   UNL     1     -12.964  10.219   3.816  1.00  0.00     0.049 A 
ATOM     62  H   UNL     1     -13.077   9.522   5.800  1.00  0.00     0.167 HD
ATOM     63  C   UNL     1     -14.735   9.301   2.540  1.00  0.00     0.074 A 
ATOM     64  C   UNL     1     -15.924   9.081   1.742  1.00  0.00     0.031 C 
ATOM     65  C   UNL     1     -14.383  10.209   3.498  1.00  0.00     0.037 A 
BRANCH  52  66
ATOM     66  C   UNL     1      -9.403  10.006   7.084  1.00  0.00     0.057 A 
ATOM     67  C   UNL     1      -8.676  11.119   6.625  1.00  0.00     0.134 A 
ATOM     68  C   UNL     1      -9.100   9.597   8.393  1.00  0.00     0.134 A 
ATOM     69  F   UNL     1      -8.910  11.672   5.428  1.00  0.00    -0.206 F 
ATOM     70  C   UNL     1      -7.648  11.710   7.367  1.00  0.00     0.040 A 
ATOM     71  C   UNL     1      -8.042  10.148   9.130  1.00  0.00     0.040 A 
ATOM     72  F   UNL     1      -9.823   8.647   9.005  1.00  0.00    -0.206 F 
ATOM     73  C   UNL     1      -7.302  11.201   8.610  1.00  0.00     0.006 A 
ENDBRANCH  52  66
BRANCH  53  74
ATOM     74  C   UNL     1     -14.593   4.915   0.795  1.00  0.00     0.057 A 
ATOM     75  C   UNL     1     -14.349   4.016  -0.256  1.00  0.00     0.134 A 
ATOM     76  C   UNL     1     -15.198   4.404   1.947  1.00  0.00     0.134 A 
ATOM     77  F   UNL     1     -13.767   4.444  -1.388  1.00  0.00    -0.206 F 
ATOM     78  C   UNL     1     -14.599   2.648  -0.129  1.00  0.00     0.040 A 
ATOM     79  C   UNL     1     -15.459   3.037   2.083  1.00  0.00     0.040 A 
ATOM     80  F   UNL     1     -15.439   5.197   3.000  1.00  0.00    -0.206 F 
ATOM     81  C   UNL     1     -15.126   2.151   1.059  1.00  0.00     0.006 A 
ENDBRANCH  53  74
BRANCH  65  82
ATOM     82  C   UNL     1     -15.288  11.217   4.164  1.00  0.00     0.057 A 
ATOM     83  C   UNL     1     -16.671  11.058   4.326  1.00  0.00     0.134 A 
ATOM     84  C   UNL     1     -14.739  12.349   4.813  1.00  0.00     0.134 A 
ATOM     85  F   UNL     1     -17.314   9.981   3.857  1.00  0.00    -0.206 F 
ATOM     86  C   UNL     1     -17.457  11.978   5.036  1.00  0.00     0.040 A 
ATOM     87  C   UNL     1     -15.505  13.243   5.567  1.00  0.00     0.040 A 
ATOM     88  F   UNL     1     -13.427  12.623   4.764  1.00  0.00    -0.206 F 
ATOM     89  C   UNL     1     -16.874  13.067   5.670  1.00  0.00     0.006 A 
ENDBRANCH  65  82
ENDBRANCH  39  40
ENDBRANCH  31  34
ENDBRANCH  29  30
ENDBRANCH  28  29
ENDBRANCH   1  28
TORSDOF 14
