REMARK SMILES C[C@H](/N=C(\Cc1ccccc1)C(=O)OC(C)(C)C)C(=O)NCCCNC(=O)c1ccc(-c2c3nc(c(-c4c(F)cccc4F)c4ccc([nH]4)c(-c4c(F)cccc4F)c4nc(c(-c5c(F)cccc5F)c5ccc2[nH]5)C=C4)C=C3)cc1
REMARK SMILES IDX 22 1 21 2 19 3 20 4 2 6 1 7 3 8 4 9 5 10 6 11 7 12 11 13
REMARK SMILES IDX 8 14 10 15 9 16 12 17 13 18 14 19 15 20 16 21 17 22 18 23
REMARK SMILES IDX 23 24 24 25 25 26 26 27 27 29 28 30 29 31 81 32 30 33 80 34
REMARK SMILES IDX 31 35 32 36 33 37 74 38 34 39 79 40 73 41 75 42 35 43 78 44
REMARK SMILES IDX 72 45 71 46 36 48 62 49 45 50 61 51 46 52 49 53 60 54 76 55
REMARK SMILES IDX 47 56 48 57 59 59 77 60 50 61 37 62 38 63 43 64 39 65 40 66
REMARK SMILES IDX 42 67 44 68 41 69 63 70 64 71 69 72 65 73 66 74 68 75 70 76
REMARK SMILES IDX 67 77 51 78 52 79 57 80 53 81 54 82 56 83 58 84 55 85
REMARK H PARENT 21 5 25 28 75 47 49 58
REMARK Flexibility Score: inf
ROOT
ATOM      1  C   UNL     1      -1.887   2.146  -0.764  1.00  0.00     0.117 C 
ENDROOT
BRANCH   1   2
ATOM      2  N   UNL     1      -1.928   1.377   0.457  1.00  0.00    -0.354 N 
ATOM      3  C   UNL     1      -0.923   0.874   1.228  1.00  0.00     0.244 C 
ATOM      4  O   UNL     1      -1.274   0.258   2.242  1.00  0.00    -0.273 OA
ATOM      5  H   UNL     1      -2.835   1.183   0.789  1.00  0.00     0.163 HD
BRANCH   3   6
ATOM      6  C   UNL     1       0.571   1.082   0.913  1.00  0.00     0.191 C 
ATOM      7  C   UNL     1       1.074   2.496   1.109  1.00  0.00     0.044 C 
BRANCH   6   8
ATOM      8  N   UNL     1       0.985   0.367  -0.289  1.00  0.00    -0.269 NA
ATOM      9  C   UNL     1       1.391   0.689  -1.459  1.00  0.00     0.125 C 
BRANCH   9  10
ATOM     10  C   UNL     1       1.445   2.058  -2.093  1.00  0.00     0.099 C 
BRANCH  10  11
ATOM     11  C   UNL     1       2.776   2.642  -2.505  1.00  0.00    -0.042 A 
ATOM     12  C   UNL     1       3.145   3.908  -2.022  1.00  0.00     0.004 A 
ATOM     13  C   UNL     1       3.573   2.060  -3.500  1.00  0.00     0.004 A 
ATOM     14  C   UNL     1       4.261   4.576  -2.531  1.00  0.00     0.000 A 
ATOM     15  C   UNL     1       4.694   2.724  -4.004  1.00  0.00     0.000 A 
ATOM     16  C   UNL     1       5.033   3.985  -3.527  1.00  0.00     0.000 A 
ENDBRANCH  10  11
ENDBRANCH   9  10
BRANCH   9  17
ATOM     17  C   UNL     1       1.771  -0.506  -2.356  1.00  0.00     0.353 C 
ATOM     18  O   UNL     1       2.345  -1.486  -1.924  1.00  0.00    -0.245 OA
BRANCH  17  19
ATOM     19  O   UNL     1       1.331  -0.299  -3.613  1.00  0.00    -0.455 OA
BRANCH  19  20
ATOM     20  C   UNL     1       1.526  -1.297  -4.653  1.00  0.00     0.104 C 
ATOM     21  C   UNL     1       2.938  -1.902  -4.683  1.00  0.00     0.056 C 
ATOM     22  C   UNL     1       0.460  -2.385  -4.513  1.00  0.00     0.056 C 
ATOM     23  C   UNL     1       1.305  -0.533  -5.967  1.00  0.00     0.056 C 
ENDBRANCH  19  20
ENDBRANCH  17  19
ENDBRANCH   9  17
ENDBRANCH   6   8
ENDBRANCH   3   6
ENDBRANCH   1   2
BRANCH   1  24
ATOM     24  C   UNL     1      -1.953   1.265  -2.006  1.00  0.00     0.042 C 
BRANCH  24  25
ATOM     25  C   UNL     1      -3.372   1.061  -2.517  1.00  0.00     0.118 C 
BRANCH  25  26
ATOM     26  N   UNL     1      -3.886   2.263  -3.168  1.00  0.00    -0.352 N 
ATOM     27  C   UNL     1      -4.313   2.459  -4.459  1.00  0.00     0.251 C 
ATOM     28  H   UNL     1      -3.934   3.058  -2.591  1.00  0.00     0.163 HD
ATOM     29  O   UNL     1      -4.502   3.602  -4.867  1.00  0.00    -0.269 OA
BRANCH  27  30
ATOM     30  C   UNL     1      -4.533   1.311  -5.367  1.00  0.00     0.039 A 
ATOM     31  C   UNL     1      -4.176   1.431  -6.715  1.00  0.00     0.014 A 
ATOM     32  C   UNL     1      -5.124   0.133  -4.906  1.00  0.00     0.014 A 
ATOM     33  C   UNL     1      -4.347   0.347  -7.582  1.00  0.00     0.010 A 
ATOM     34  C   UNL     1      -5.223  -0.969  -5.749  1.00  0.00     0.010 A 
ATOM     35  C   UNL     1      -4.838  -0.873  -7.095  1.00  0.00    -0.014 A 
BRANCH  35  36
ATOM     36  C   UNL     1      -4.986  -2.070  -7.959  1.00  0.00     0.031 A 
ATOM     37  C   UNL     1      -6.350  -2.662  -8.178  1.00  0.00     0.074 A 
ATOM     38  C   UNL     1      -3.894  -2.691  -8.444  1.00  0.00     0.049 A 
ATOM     39  N   UNL     1      -6.679  -3.819  -8.693  1.00  0.00    -0.248 NA
ATOM     40  C   UNL     1      -7.495  -1.859  -7.720  1.00  0.00     0.031 C 
ATOM     41  C   UNL     1      -2.512  -2.236  -8.278  1.00  0.00     0.029 A 
ATOM     42  N   UNL     1      -3.776  -3.858  -9.155  1.00  0.00    -0.354 N 
ATOM     43  C   UNL     1      -8.060  -3.906  -8.570  1.00  0.00     0.074 A 
ATOM     44  C   UNL     1      -8.506  -2.692  -7.920  1.00  0.00     0.031 C 
ATOM     45  C   UNL     1      -1.687  -3.110  -8.877  1.00  0.00     0.029 A 
ATOM     46  C   UNL     1      -2.477  -4.208  -9.428  1.00  0.00     0.049 A 
ATOM     47  H   UNL     1      -4.551  -4.395  -9.442  1.00  0.00     0.167 HD
ATOM     48  C   UNL     1      -8.882  -4.906  -8.967  1.00  0.00     0.037 A 
ATOM     49  C   UNL     1      -1.978  -5.301 -10.035  1.00  0.00     0.037 A 
ATOM     50  C   UNL     1      -8.444  -6.083  -9.667  1.00  0.00     0.049 A 
ATOM     51  C   UNL     1      -2.915  -6.370 -10.519  1.00  0.00     0.074 A 
ATOM     52  C   UNL     1      -9.206  -7.128 -10.161  1.00  0.00     0.029 A 
ATOM     53  N   UNL     1      -7.125  -6.360  -9.989  1.00  0.00    -0.354 N 
ATOM     54  N   UNL     1      -4.219  -6.435 -10.407  1.00  0.00    -0.248 NA
ATOM     55  C   UNL     1      -2.312  -7.519 -11.210  1.00  0.00     0.031 C 
ATOM     56  C   UNL     1      -8.344  -8.045 -10.773  1.00  0.00     0.029 A 
ATOM     57  C   UNL     1      -7.050  -7.557 -10.680  1.00  0.00     0.049 A 
ATOM     58  H   UNL     1      -6.355  -5.790  -9.761  1.00  0.00     0.167 HD
ATOM     59  C   UNL     1      -4.596  -7.615 -11.034  1.00  0.00     0.074 A 
ATOM     60  C   UNL     1      -3.383  -8.234 -11.528  1.00  0.00     0.031 C 
ATOM     61  C   UNL     1      -5.835  -8.140 -11.185  1.00  0.00     0.037 A 
BRANCH  48  62
ATOM     62  C   UNL     1     -10.339  -4.767  -8.648  1.00  0.00     0.057 A 
ATOM     63  C   UNL     1     -11.166  -3.875  -9.342  1.00  0.00     0.134 A 
ATOM     64  C   UNL     1     -10.927  -5.551  -7.647  1.00  0.00     0.134 A 
ATOM     65  F   UNL     1     -10.659  -3.086 -10.301  1.00  0.00    -0.206 F 
ATOM     66  C   UNL     1     -12.522  -3.751  -9.037  1.00  0.00     0.040 A 
ATOM     67  C   UNL     1     -12.287  -5.451  -7.348  1.00  0.00     0.040 A 
ATOM     68  F   UNL     1     -10.191  -6.427  -6.947  1.00  0.00    -0.206 F 
ATOM     69  C   UNL     1     -13.087  -4.545  -8.041  1.00  0.00     0.006 A 
ENDBRANCH  48  62
BRANCH  49  70
ATOM     70  C   UNL     1      -0.515  -5.429 -10.235  1.00  0.00     0.057 A 
ATOM     71  C   UNL     1       0.051  -5.248 -11.502  1.00  0.00     0.134 A 
ATOM     72  C   UNL     1       0.349  -5.723  -9.175  1.00  0.00     0.134 A 
ATOM     73  F   UNL     1      -0.731  -4.980 -12.558  1.00  0.00    -0.206 F 
ATOM     74  C   UNL     1       1.425  -5.369 -11.712  1.00  0.00     0.040 A 
ATOM     75  C   UNL     1       1.728  -5.830  -9.367  1.00  0.00     0.040 A 
ATOM     76  F   UNL     1      -0.133  -5.895  -7.936  1.00  0.00    -0.206 F 
ATOM     77  C   UNL     1       2.268  -5.657 -10.640  1.00  0.00     0.006 A 
ENDBRANCH  49  70
BRANCH  61  78
ATOM     78  C   UNL     1      -5.949  -9.419 -11.955  1.00  0.00     0.057 A 
ATOM     79  C   UNL     1      -5.641 -10.655 -11.376  1.00  0.00     0.134 A 
ATOM     80  C   UNL     1      -6.424  -9.414 -13.272  1.00  0.00     0.134 A 
ATOM     81  F   UNL     1      -5.170 -10.720 -10.122  1.00  0.00    -0.206 F 
ATOM     82  C   UNL     1      -5.794 -11.846 -12.087  1.00  0.00     0.040 A 
ATOM     83  C   UNL     1      -6.595 -10.599 -13.987  1.00  0.00     0.040 A 
ATOM     84  F   UNL     1      -6.740  -8.259 -13.877  1.00  0.00    -0.206 F 
ATOM     85  C   UNL     1      -6.279 -11.820 -13.394  1.00  0.00     0.006 A 
ENDBRANCH  61  78
ENDBRANCH  35  36
ENDBRANCH  27  30
ENDBRANCH  25  26
ENDBRANCH  24  25
ENDBRANCH   1  24
TORSDOF 16
