REMARK SMILES CC(C)C[C@@H](C[C@H](O)c1ccccc1)C(=O)NCCCNC(=O)c1ccc(-c2c3nc(c(-c4c(F)cccc4F)c4ccc([nH]4)c(-c4c(F)cccc4F)c4nc(c(-c5c(F)cccc5F)c5ccc2[nH]5)C=C4)C=C3)cc1
REMARK SMILES IDX 18 1 17 2 15 3 16 4 5 6 4 7 2 8 1 9 3 10 6 11 7 12 9 13
REMARK SMILES IDX 10 14 14 15 11 16 13 17 12 18 8 19 19 21 20 22 21 23 22 24
REMARK SMILES IDX 23 26 24 27 25 28 77 29 26 30 76 31 27 32 28 33 29 34 70 35
REMARK SMILES IDX 30 36 75 37 69 38 71 39 31 40 74 41 68 42 67 43 32 45 58 46
REMARK SMILES IDX 41 47 57 48 42 49 45 50 56 51 72 52 43 53 44 54 55 56 73 57
REMARK SMILES IDX 46 58 33 59 34 60 39 61 35 62 36 63 38 64 40 65 37 66 59 67
REMARK SMILES IDX 60 68 65 69 61 70 62 71 64 72 66 73 63 74 47 75 48 76 53 77
REMARK SMILES IDX 49 78 50 79 52 80 54 81 51 82
REMARK H PARENT 17 5 8 20 21 25 71 44 45 55
REMARK Flexibility Score: inf
ROOT
ATOM      1  C   UNL     1      -0.876   4.256  -0.925  1.00  0.00     0.117 C 
ENDROOT
BRANCH   1   2
ATOM      2  N   UNL     1      -2.241   4.773  -0.860  1.00  0.00    -0.356 N 
ATOM      3  C   UNL     1      -3.387   4.635  -1.568  1.00  0.00     0.223 C 
ATOM      4  O   UNL     1      -4.333   5.308  -1.129  1.00  0.00    -0.275 OA
ATOM      5  H   UNL     1      -2.359   5.386  -0.098  1.00  0.00     0.163 HD
BRANCH   3   6
ATOM      6  C   UNL     1      -3.634   3.777  -2.834  1.00  0.00     0.081 C 
BRANCH   6   7
ATOM      7  C   UNL     1      -4.142   4.668  -4.008  1.00  0.00     0.016 C 
BRANCH   7   8
ATOM      8  C   UNL     1      -4.396   3.988  -5.372  1.00  0.00    -0.017 C 
ATOM      9  C   UNL     1      -5.899   3.859  -5.632  1.00  0.00     0.007 C 
ATOM     10  C   UNL     1      -3.773   4.791  -6.523  1.00  0.00     0.007 C 
ENDBRANCH   7   8
ENDBRANCH   6   7
BRANCH   6  11
ATOM     11  C   UNL     1      -2.733   2.562  -3.090  1.00  0.00     0.050 C 
BRANCH  11  12
ATOM     12  C   UNL     1      -1.461   2.498  -3.976  1.00  0.00     0.145 C 
BRANCH  12  13
ATOM     13  C   UNL     1      -0.725   3.667  -4.598  1.00  0.00    -0.020 A 
ATOM     14  C   UNL     1       0.286   3.413  -5.544  1.00  0.00     0.006 A 
ATOM     15  C   UNL     1      -0.979   5.005  -4.311  1.00  0.00     0.006 A 
ATOM     16  C   UNL     1       0.978   4.454  -6.175  1.00  0.00     0.000 A 
ATOM     17  C   UNL     1      -0.322   6.055  -4.958  1.00  0.00     0.000 A 
ATOM     18  C   UNL     1       0.660   5.778  -5.894  1.00  0.00     0.000 A 
ENDBRANCH  12  13
BRANCH  12  19
ATOM     19  O   UNL     1      -0.524   1.685  -3.237  1.00  0.00    -0.388 OA
ATOM     20  H   UNL     1      -0.246   2.158  -2.437  1.00  0.00     0.211 HD
ENDBRANCH  12  19
ENDBRANCH  11  12
ENDBRANCH   6  11
ENDBRANCH   3   6
ENDBRANCH   1   2
BRANCH   1  21
ATOM     21  C   UNL     1       0.105   5.291  -1.478  1.00  0.00     0.042 C 
BRANCH  21  22
ATOM     22  C   UNL     1       1.091   5.875  -0.480  1.00  0.00     0.118 C 
BRANCH  22  23
ATOM     23  N   UNL     1       2.240   5.011  -0.246  1.00  0.00    -0.352 N 
ATOM     24  C   UNL     1       3.570   5.149  -0.583  1.00  0.00     0.251 C 
ATOM     25  H   UNL     1       2.030   4.181   0.239  1.00  0.00     0.163 HD
ATOM     26  O   UNL     1       4.322   4.192  -0.421  1.00  0.00    -0.269 OA
BRANCH  24  27
ATOM     27  C   UNL     1       4.116   6.409  -1.155  1.00  0.00     0.039 A 
ATOM     28  C   UNL     1       5.188   6.341  -2.057  1.00  0.00     0.014 A 
ATOM     29  C   UNL     1       3.632   7.661  -0.781  1.00  0.00     0.014 A 
ATOM     30  C   UNL     1       5.715   7.511  -2.623  1.00  0.00     0.010 A 
ATOM     31  C   UNL     1       4.067   8.809  -1.437  1.00  0.00     0.010 A 
ATOM     32  C   UNL     1       5.132   8.756  -2.348  1.00  0.00    -0.014 A 
BRANCH  32  33
ATOM     33  C   UNL     1       5.638  10.031  -2.930  1.00  0.00     0.031 A 
ATOM     34  C   UNL     1       6.079  11.143  -2.009  1.00  0.00     0.074 A 
ATOM     35  C   UNL     1       5.613  10.237  -4.262  1.00  0.00     0.049 A 
ATOM     36  N   UNL     1       6.364  12.390  -2.285  1.00  0.00    -0.248 NA
ATOM     37  C   UNL     1       6.162  10.816  -0.575  1.00  0.00     0.031 C 
ATOM     38  C   UNL     1       5.181   9.264  -5.266  1.00  0.00     0.029 A 
ATOM     39  N   UNL     1       5.938  11.350  -5.000  1.00  0.00    -0.354 N 
ATOM     40  C   UNL     1       6.614  13.000  -1.060  1.00  0.00     0.074 A 
ATOM     41  C   UNL     1       6.388  12.004  -0.037  1.00  0.00     0.031 C 
ATOM     42  C   UNL     1       5.286   9.814  -6.487  1.00  0.00     0.029 A 
ATOM     43  C   UNL     1       5.741  11.194  -6.351  1.00  0.00     0.049 A 
ATOM     44  H   UNL     1       6.280  12.181  -4.598  1.00  0.00     0.167 HD
ATOM     45  C   UNL     1       7.021  14.267  -0.808  1.00  0.00     0.037 A 
ATOM     46  C   UNL     1       5.893  12.069  -7.364  1.00  0.00     0.037 A 
ATOM     47  C   UNL     1       7.298  15.240  -1.831  1.00  0.00     0.049 A 
ATOM     48  C   UNL     1       6.354  13.471  -7.062  1.00  0.00     0.074 A 
ATOM     49  C   UNL     1       7.778  16.530  -1.687  1.00  0.00     0.029 A 
ATOM     50  N   UNL     1       7.127  15.025  -3.190  1.00  0.00    -0.354 N 
ATOM     51  N   UNL     1       6.629  14.020  -5.904  1.00  0.00    -0.248 NA
ATOM     52  C   UNL     1       6.529  14.373  -8.210  1.00  0.00     0.031 C 
ATOM     53  C   UNL     1       7.856  17.110  -2.956  1.00  0.00     0.029 A 
ATOM     54  C   UNL     1       7.478  16.163  -3.895  1.00  0.00     0.049 A 
ATOM     55  H   UNL     1       6.803  14.187  -3.593  1.00  0.00     0.167 HD
ATOM     56  C   UNL     1       7.047  15.315  -6.185  1.00  0.00     0.074 A 
ATOM     57  C   UNL     1       6.993  15.468  -7.624  1.00  0.00     0.031 C 
ATOM     58  C   UNL     1       7.442  16.289  -5.329  1.00  0.00     0.037 A 
BRANCH  45  59
ATOM     59  C   UNL     1       7.199  14.668   0.630  1.00  0.00     0.057 A 
ATOM     60  C   UNL     1       8.217  14.131   1.431  1.00  0.00     0.134 A 
ATOM     61  C   UNL     1       6.357  15.622   1.216  1.00  0.00     0.134 A 
ATOM     62  F   UNL     1       9.053  13.205   0.938  1.00  0.00    -0.206 F 
ATOM     63  C   UNL     1       8.367  14.500   2.769  1.00  0.00     0.040 A 
ATOM     64  C   UNL     1       6.518  16.024   2.543  1.00  0.00     0.040 A 
ATOM     65  F   UNL     1       5.367  16.185   0.507  1.00  0.00    -0.206 F 
ATOM     66  C   UNL     1       7.519  15.455   3.327  1.00  0.00     0.006 A 
ENDBRANCH  45  59
BRANCH  46  67
ATOM     67  C   UNL     1       5.629  11.645  -8.764  1.00  0.00     0.057 A 
ATOM     68  C   UNL     1       6.674  11.516  -9.687  1.00  0.00     0.134 A 
ATOM     69  C   UNL     1       4.333  11.370  -9.218  1.00  0.00     0.134 A 
ATOM     70  F   UNL     1       7.936  11.784  -9.319  1.00  0.00    -0.206 F 
ATOM     71  C   UNL     1       6.440  11.151 -11.014  1.00  0.00     0.040 A 
ATOM     72  C   UNL     1       4.088  10.977 -10.536  1.00  0.00     0.040 A 
ATOM     73  F   UNL     1       3.288  11.466  -8.383  1.00  0.00    -0.206 F 
ATOM     74  C   UNL     1       5.143  10.875 -11.440  1.00  0.00     0.006 A 
ENDBRANCH  46  67
BRANCH  58  75
ATOM     75  C   UNL     1       7.909  17.586  -5.923  1.00  0.00     0.057 A 
ATOM     76  C   UNL     1       7.024  18.503  -6.501  1.00  0.00     0.134 A 
ATOM     77  C   UNL     1       9.262  17.945  -5.857  1.00  0.00     0.134 A 
ATOM     78  F   UNL     1       5.717  18.214  -6.604  1.00  0.00    -0.206 F 
ATOM     79  C   UNL     1       7.470  19.724  -7.011  1.00  0.00     0.040 A 
ATOM     80  C   UNL     1       9.716  19.174  -6.337  1.00  0.00     0.040 A 
ATOM     81  F   UNL     1      10.162  17.116  -5.306  1.00  0.00    -0.206 F 
ATOM     82  C   UNL     1       8.818  20.066  -6.920  1.00  0.00     0.006 A 
ENDBRANCH  58  75
ENDBRANCH  32  33
ENDBRANCH  24  27
ENDBRANCH  22  23
ENDBRANCH  21  22
ENDBRANCH   1  21
TORSDOF 16
