REMARK SMILES COC(=O)c1c(NC(=O)[C@@H]2C[C@@H]2C(=O)NCCCNC(=O)c2ccc(-c3c4nc(c(-c5c(F)cccc5F)c5ccc([nH]5)c(-c5c(F)cccc5F)c5nc(c(-c6c(F)cccc6F)c6ccc3[nH]6)C=C5)C=C4)cc2)sc2c1CC[N@@H+](Cc1ccccc1)C2
REMARK SMILES IDX 16 1 15 2 13 3 14 4 12 6 10 7 11 8 8 9 7 10 9 12 6 13 5 14
REMARK SMILES IDX 78 15 76 16 77 17 79 18 89 19 80 20 81 21 3 23 4 24 2 25
REMARK SMILES IDX 1 26 82 27 83 28 84 29 88 30 85 31 87 32 86 33 17 34 18 35
REMARK SMILES IDX 19 36 20 37 21 39 22 40 23 41 75 42 24 43 74 44 25 45 26 46
REMARK SMILES IDX 27 47 68 48 28 49 73 50 67 51 69 52 29 53 72 54 66 55 65 56
REMARK SMILES IDX 30 58 56 59 39 60 55 61 40 62 43 63 54 64 70 65 41 66 42 67
REMARK SMILES IDX 53 69 71 70 44 71 31 72 32 73 37 74 33 75 34 76 36 77 38 78
REMARK SMILES IDX 35 79 57 80 58 81 63 82 59 83 60 84 62 85 64 86 61 87 45 88
REMARK SMILES IDX 46 89 51 90 47 91 48 92 50 93 52 94 49 95
REMARK H PARENT 15 5 7 11 81 22 19 38 69 57 43 68
REMARK Flexibility Score: inf
ROOT
ATOM      1  C   UNL     1      -1.136  -4.082  -0.470  1.00  0.00     0.117 C 
ENDROOT
BRANCH   1   2
ATOM      2  N   UNL     1      -2.212  -3.289  -1.038  1.00  0.00    -0.356 N 
ATOM      3  C   UNL     1      -2.359  -1.933  -1.137  1.00  0.00     0.223 C 
ATOM      4  O   UNL     1      -3.341  -1.482  -1.717  1.00  0.00    -0.275 OA
ATOM      5  H   UNL     1      -2.957  -3.813  -1.413  1.00  0.00     0.163 HD
BRANCH   3   6
ATOM      6  C   UNL     1      -1.304  -1.021  -0.614  1.00  0.00     0.091 C 
ATOM      7  C   UNL     1      -1.350  -0.357   0.751  1.00  0.00     0.092 C 
ATOM      8  C   UNL     1      -1.686   0.441  -0.477  1.00  0.00     0.028 C 
BRANCH   7   9
ATOM      9  C   UNL     1      -2.353  -0.735   1.749  1.00  0.00     0.228 C 
ATOM     10  N   UNL     1      -2.036  -1.569   2.778  1.00  0.00    -0.317 N 
ATOM     11  H   UNL     1      -2.763  -1.635   3.439  1.00  0.00     0.170 HD
ATOM     12  O   UNL     1      -3.487  -0.264   1.695  1.00  0.00    -0.274 OA
BRANCH  10  13
ATOM     13  C   UNL     1      -0.950  -2.344   3.125  1.00  0.00     0.110 A 
ATOM     14  C   UNL     1       0.342  -2.673   2.724  1.00  0.00     0.098 A 
ATOM     15  C   UNL     1       0.853  -3.771   3.537  1.00  0.00    -0.006 A 
ATOM     16  S   UNL     1      -1.471  -3.299   4.470  1.00  0.00    -0.116 S 
ATOM     17  C   UNL     1      -0.003  -4.115   4.559  1.00  0.00     0.065 A 
ATOM     18  C   UNL     1       2.226  -4.391   3.457  1.00  0.00     0.099 C 
ATOM     19  C   UNL     1       0.354  -5.025   5.691  1.00  0.00     0.310 C 
ATOM     20  C   UNL     1       2.549  -5.292   4.679  1.00  0.00     0.267 C 
ATOM     21  N   UNL     1       1.808  -5.030   5.927  1.00  0.00    -0.326 N 
ATOM     22  H   UNL     1       2.005  -5.824   6.537  1.00  0.00     0.348 HD
BRANCH  14  23
ATOM     23  C   UNL     1       1.173  -2.139   1.647  1.00  0.00     0.341 C 
ATOM     24  O   UNL     1       1.704  -2.857   0.817  1.00  0.00    -0.246 OA
BRANCH  23  25
ATOM     25  O   UNL     1       1.385  -0.796   1.727  1.00  0.00    -0.465 OA
ATOM     26  C   UNL     1       2.154  -0.255   0.647  1.00  0.00     0.282 C 
ENDBRANCH  23  25
ENDBRANCH  14  23
BRANCH  21  27
ATOM     27  C   UNL     1       2.313  -3.918   6.757  1.00  0.00     0.299 C 
BRANCH  27  28
ATOM     28  C   UNL     1       2.369  -2.529   6.151  1.00  0.00     0.006 A 
ATOM     29  C   UNL     1       3.539  -2.066   5.530  1.00  0.00     0.009 A 
ATOM     30  C   UNL     1       1.240  -1.696   6.144  1.00  0.00     0.009 A 
ATOM     31  C   UNL     1       3.544  -0.857   4.831  1.00  0.00     0.001 A 
ATOM     32  C   UNL     1       1.236  -0.501   5.421  1.00  0.00     0.001 A 
ATOM     33  C   UNL     1       2.384  -0.089   4.752  1.00  0.00     0.000 A 
ENDBRANCH  27  28
ENDBRANCH  21  27
ENDBRANCH  10  13
ENDBRANCH   7   9
ENDBRANCH   3   6
ENDBRANCH   1   2
BRANCH   1  34
ATOM     34  C   UNL     1      -1.498  -4.690   0.884  1.00  0.00     0.042 C 
BRANCH  34  35
ATOM     35  C   UNL     1      -2.572  -5.748   0.856  1.00  0.00     0.118 C 
BRANCH  35  36
ATOM     36  N   UNL     1      -2.159  -7.031   0.279  1.00  0.00    -0.352 N 
ATOM     37  C   UNL     1      -2.934  -8.174   0.109  1.00  0.00     0.251 C 
ATOM     38  H   UNL     1      -1.224  -7.091  -0.023  1.00  0.00     0.163 HD
ATOM     39  O   UNL     1      -2.415  -9.275  -0.032  1.00  0.00    -0.269 OA
BRANCH  37  40
ATOM     40  C   UNL     1      -4.404  -8.033   0.112  1.00  0.00     0.039 A 
ATOM     41  C   UNL     1      -5.284  -8.981   0.638  1.00  0.00     0.014 A 
ATOM     42  C   UNL     1      -4.894  -6.838  -0.381  1.00  0.00     0.014 A 
ATOM     43  C   UNL     1      -6.641  -8.656   0.700  1.00  0.00     0.010 A 
ATOM     44  C   UNL     1      -6.096  -6.392   0.062  1.00  0.00     0.010 A 
ATOM     45  C   UNL     1      -7.032  -7.340   0.407  1.00  0.00    -0.014 A 
BRANCH  45  46
ATOM     46  C   UNL     1      -8.402  -6.857   0.479  1.00  0.00     0.031 A 
ATOM     47  C   UNL     1      -9.026  -7.045   1.805  1.00  0.00     0.074 A 
ATOM     48  C   UNL     1      -8.941  -6.064  -0.478  1.00  0.00     0.049 A 
ATOM     49  N   UNL     1      -9.961  -7.874   2.123  1.00  0.00    -0.248 NA
ATOM     50  C   UNL     1      -8.414  -6.361   2.955  1.00  0.00     0.031 C 
ATOM     51  C   UNL     1      -8.302  -5.501  -1.681  1.00  0.00     0.029 A 
ATOM     52  N   UNL     1     -10.176  -5.495  -0.522  1.00  0.00    -0.354 N 
ATOM     53  C   UNL     1     -10.228  -7.632   3.466  1.00  0.00     0.074 A 
ATOM     54  C   UNL     1      -9.101  -6.892   3.967  1.00  0.00     0.031 C 
ATOM     55  C   UNL     1      -9.066  -4.511  -2.191  1.00  0.00     0.029 A 
ATOM     56  C   UNL     1     -10.324  -4.488  -1.474  1.00  0.00     0.049 A 
ATOM     57  H   UNL     1     -10.909  -5.773   0.073  1.00  0.00     0.167 HD
ATOM     58  C   UNL     1     -11.487  -7.795   3.958  1.00  0.00     0.037 A 
ATOM     59  C   UNL     1     -11.405  -3.684  -1.640  1.00  0.00     0.037 A 
ATOM     60  C   UNL     1     -12.293  -8.576   3.045  1.00  0.00     0.049 A 
ATOM     61  C   UNL     1     -12.544  -4.345  -0.956  1.00  0.00     0.074 A 
ATOM     62  C   UNL     1     -12.187  -9.835   2.482  1.00  0.00     0.029 A 
ATOM     63  N   UNL     1     -13.201  -7.901   2.264  1.00  0.00    -0.354 N 
ATOM     64  N   UNL     1     -13.080  -5.463  -1.358  1.00  0.00    -0.248 NA
ATOM     65  C   UNL     1     -12.764  -4.013   0.443  1.00  0.00     0.031 C 
ATOM     66  C   UNL     1     -12.646  -9.680   1.139  1.00  0.00     0.029 A 
ATOM     67  C   UNL     1     -13.081  -8.364   0.980  1.00  0.00     0.049 A 
ATOM     68  H   UNL     1     -13.827  -7.206   2.573  1.00  0.00     0.167 HD
ATOM     69  C   UNL     1     -13.315  -6.180  -0.193  1.00  0.00     0.074 A 
ATOM     70  C   UNL     1     -13.178  -5.203   0.887  1.00  0.00     0.031 C 
ATOM     71  C   UNL     1     -13.299  -7.546  -0.192  1.00  0.00     0.037 A 
BRANCH  58  72
ATOM     72  C   UNL     1     -12.112  -6.905   5.014  1.00  0.00     0.057 A 
ATOM     73  C   UNL     1     -13.418  -7.200   5.449  1.00  0.00     0.134 A 
ATOM     74  C   UNL     1     -11.638  -5.632   5.395  1.00  0.00     0.134 A 
ATOM     75  F   UNL     1     -13.986  -8.384   5.171  1.00  0.00    -0.206 F 
ATOM     76  C   UNL     1     -14.226  -6.261   6.101  1.00  0.00     0.040 A 
ATOM     77  C   UNL     1     -12.420  -4.705   6.089  1.00  0.00     0.040 A 
ATOM     78  F   UNL     1     -10.435  -5.165   5.048  1.00  0.00    -0.206 F 
ATOM     79  C   UNL     1     -13.733  -5.001   6.408  1.00  0.00     0.006 A 
ENDBRANCH  58  72
BRANCH  59  80
ATOM     80  C   UNL     1     -11.460  -2.267  -2.069  1.00  0.00     0.057 A 
ATOM     81  C   UNL     1     -12.664  -1.675  -2.478  1.00  0.00     0.134 A 
ATOM     82  C   UNL     1     -10.398  -1.383  -1.809  1.00  0.00     0.134 A 
ATOM     83  F   UNL     1     -13.747  -2.430  -2.711  1.00  0.00    -0.206 F 
ATOM     84  C   UNL     1     -12.813  -0.285  -2.592  1.00  0.00     0.040 A 
ATOM     85  C   UNL     1     -10.531   0.006  -1.924  1.00  0.00     0.040 A 
ATOM     86  F   UNL     1      -9.223  -1.833  -1.345  1.00  0.00    -0.206 F 
ATOM     87  C   UNL     1     -11.748   0.561  -2.302  1.00  0.00     0.006 A 
ENDBRANCH  59  80
BRANCH  71  88
ATOM     88  C   UNL     1     -13.275  -8.250  -1.524  1.00  0.00     0.057 A 
ATOM     89  C   UNL     1     -12.223  -8.164  -2.449  1.00  0.00     0.134 A 
ATOM     90  C   UNL     1     -14.290  -9.167  -1.814  1.00  0.00     0.134 A 
ATOM     91  F   UNL     1     -11.158  -7.388  -2.219  1.00  0.00    -0.206 F 
ATOM     92  C   UNL     1     -12.203  -8.924  -3.623  1.00  0.00     0.040 A 
ATOM     93  C   UNL     1     -14.267  -9.957  -2.966  1.00  0.00     0.040 A 
ATOM     94  F   UNL     1     -15.304  -9.347  -0.952  1.00  0.00    -0.206 F 
ATOM     95  C   UNL     1     -13.226  -9.830  -3.881  1.00  0.00     0.006 A 
ENDBRANCH  71  88
ENDBRANCH  45  46
ENDBRANCH  37  40
ENDBRANCH  35  36
ENDBRANCH  34  35
ENDBRANCH   1  34
TORSDOF 16
