REMARK SMILES COc1ccc(C(=O)Nc2cc(C(=O)NCCCNC(=O)c3ccc(-c4c5nc(c(-c6c(F)cccc6F)c6ccc([nH]6)c(-c6c(F)cccc6F)c6nc(c(-c7c(F)cccc7F)c7ccc4[nH]7)C=C6)C=C5)cc3)c(Cl)cc2Cl)cc1Cl
REMARK SMILES IDX 16 1 15 2 13 3 14 4 12 6 10 7 11 8 79 9 78 10 80 11 76 12
REMARK SMILES IDX 77 13 9 14 7 15 8 16 6 18 3 19 4 20 82 21 5 22 81 23 83 24
REMARK SMILES IDX 2 25 1 26 17 27 18 28 19 29 20 30 21 32 22 33 23 34 75 35
REMARK SMILES IDX 24 36 74 37 25 38 26 39 27 40 68 41 28 42 73 43 67 44 69 45
REMARK SMILES IDX 29 46 72 47 66 48 65 49 30 51 56 52 39 53 55 54 40 55 43 56
REMARK SMILES IDX 54 57 70 58 41 59 42 60 53 62 71 63 44 64 31 65 32 66 37 67
REMARK SMILES IDX 33 68 34 69 36 70 38 71 35 72 57 73 58 74 63 75 59 76 60 77
REMARK SMILES IDX 62 78 64 79 61 80 45 81 46 82 51 83 47 84 48 85 50 86 52 87
REMARK SMILES IDX 49 88
REMARK H PARENT 15 5 9 17 19 31 69 50 43 61
REMARK Flexibility Score: inf
ROOT
ATOM      1  C   UNL     1       7.802   1.401   1.241  1.00  0.00     0.118 C 
ENDROOT
BRANCH   1   2
ATOM      2  N   UNL     1       6.549   2.111   1.330  1.00  0.00    -0.352 N 
ATOM      3  C   UNL     1       5.625   2.348   2.300  1.00  0.00     0.252 C 
ATOM      4  O   UNL     1       4.674   3.037   1.908  1.00  0.00    -0.269 OA
ATOM      5  H   UNL     1       6.300   2.528   0.473  1.00  0.00     0.163 HD
BRANCH   3   6
ATOM      6  C   UNL     1       5.635   1.933   3.745  1.00  0.00     0.060 A 
ATOM      7  C   UNL     1       4.320   2.277   5.809  1.00  0.00     0.061 A 
ATOM      8  C   UNL     1       4.653   2.629   4.498  1.00  0.00     0.043 A 
ATOM      9  C   UNL     1       5.162   1.419   6.508  1.00  0.00     0.066 A 
ATOM     10  C   UNL     1       6.149   0.735   5.814  1.00  0.00     0.044 A 
ATOM     11  Cl  UNL     1       4.884   1.020   8.163  1.00  0.00    -0.082 Cl
ATOM     12  C   UNL     1       6.319   0.914   4.425  1.00  0.00     0.055 A 
ATOM     13  Cl  UNL     1       7.234  -0.362   3.725  1.00  0.00    -0.083 Cl
BRANCH   7  14
ATOM     14  N   UNL     1       3.102   2.668   6.390  1.00  0.00    -0.321 N 
ATOM     15  C   UNL     1       1.836   2.793   5.845  1.00  0.00     0.255 C 
ATOM     16  O   UNL     1       0.953   3.292   6.544  1.00  0.00    -0.269 OA
ATOM     17  H   UNL     1       3.159   2.891   7.347  1.00  0.00     0.170 HD
BRANCH  15  18
ATOM     18  C   UNL     1       1.455   2.267   4.493  1.00  0.00     0.041 A 
ATOM     19  C   UNL     1       0.690   1.426   1.886  1.00  0.00     0.137 A 
ATOM     20  C   UNL     1      -0.038   2.401   2.585  1.00  0.00     0.049 A 
ATOM     21  C   UNL     1       1.784   0.839   2.529  1.00  0.00     0.083 A 
ATOM     22  C   UNL     1       0.342   2.826   3.863  1.00  0.00     0.018 A 
ATOM     23  C   UNL     1       2.105   1.209   3.849  1.00  0.00     0.038 A 
ATOM     24  Cl  UNL     1       2.881  -0.287   1.803  1.00  0.00    -0.080 Cl
BRANCH  19  25
ATOM     25  O   UNL     1       0.197   1.226   0.628  1.00  0.00    -0.495 OA
ATOM     26  C   UNL     1       0.514   0.032  -0.070  1.00  0.00     0.278 C 
ENDBRANCH  19  25
ENDBRANCH  15  18
ENDBRANCH   7  14
ENDBRANCH   3   6
ENDBRANCH   1   2
BRANCH   1  27
ATOM     27  C   UNL     1       7.590   0.023   0.612  1.00  0.00     0.042 C 
BRANCH  27  28
ATOM     28  C   UNL     1       7.651   0.048  -0.909  1.00  0.00     0.118 C 
BRANCH  28  29
ATOM     29  N   UNL     1       8.997   0.355  -1.382  1.00  0.00    -0.352 N 
ATOM     30  C   UNL     1       9.872  -0.423  -2.094  1.00  0.00     0.251 C 
ATOM     31  H   UNL     1       9.325   1.255  -1.156  1.00  0.00     0.163 HD
ATOM     32  O   UNL     1      11.060  -0.109  -2.160  1.00  0.00    -0.269 OA
BRANCH  30  33
ATOM     33  C   UNL     1       9.387  -1.632  -2.783  1.00  0.00     0.039 A 
ATOM     34  C   UNL     1      10.164  -2.794  -2.767  1.00  0.00     0.014 A 
ATOM     35  C   UNL     1       8.170  -1.606  -3.466  1.00  0.00     0.014 A 
ATOM     36  C   UNL     1       9.691  -3.949  -3.392  1.00  0.00     0.010 A 
ATOM     37  C   UNL     1       7.660  -2.776  -4.008  1.00  0.00     0.010 A 
ATOM     38  C   UNL     1       8.421  -3.955  -3.991  1.00  0.00    -0.014 A 
BRANCH  38  39
ATOM     39  C   UNL     1       7.863  -5.159  -4.651  1.00  0.00     0.031 A 
ATOM     40  C   UNL     1       7.539  -5.104  -6.119  1.00  0.00     0.074 A 
ATOM     41  C   UNL     1       7.550  -6.245  -3.920  1.00  0.00     0.049 A 
ATOM     42  N   UNL     1       6.877  -5.959  -6.854  1.00  0.00    -0.248 NA
ATOM     43  C   UNL     1       7.984  -3.904  -6.847  1.00  0.00     0.031 C 
ATOM     44  C   UNL     1       7.791  -6.401  -2.485  1.00  0.00     0.029 A 
ATOM     45  N   UNL     1       6.933  -7.415  -4.283  1.00  0.00    -0.354 N 
ATOM     46  C   UNL     1       6.797  -5.384  -8.116  1.00  0.00     0.074 A 
ATOM     47  C   UNL     1       7.430  -4.088  -8.035  1.00  0.00     0.031 C 
ATOM     48  C   UNL     1       7.340  -7.604  -2.092  1.00  0.00     0.029 A 
ATOM     49  C   UNL     1       6.731  -8.279  -3.234  1.00  0.00     0.049 A 
ATOM     50  H   UNL     1       6.662  -7.617  -5.208  1.00  0.00     0.167 HD
ATOM     51  C   UNL     1       6.259  -5.902  -9.245  1.00  0.00     0.037 A 
ATOM     52  C   UNL     1       6.105  -9.471  -3.197  1.00  0.00     0.037 A 
ATOM     53  C   UNL     1       5.664  -7.208  -9.321  1.00  0.00     0.049 A 
ATOM     54  C   UNL     1       5.505 -10.020  -4.463  1.00  0.00     0.074 A 
ATOM     55  C   UNL     1       5.145  -7.856 -10.428  1.00  0.00     0.029 A 
ATOM     56  N   UNL     1       5.512  -8.068  -8.243  1.00  0.00    -0.354 N 
ATOM     57  N   UNL     1       5.479  -9.491  -5.663  1.00  0.00    -0.248 NA
ATOM     58  C   UNL     1       4.849 -11.332  -4.373  1.00  0.00     0.031 C 
ATOM     59  C   UNL     1       4.632  -9.086 -10.009  1.00  0.00     0.029 A 
ATOM     60  C   UNL     1       4.889  -9.233  -8.655  1.00  0.00     0.049 A 
ATOM     61  H   UNL     1       5.803  -7.878  -7.322  1.00  0.00     0.167 HD
ATOM     62  C   UNL     1       4.849 -10.423  -6.478  1.00  0.00     0.074 A 
ATOM     63  C   UNL     1       4.505 -11.549  -5.635  1.00  0.00     0.031 C 
ATOM     64  C   UNL     1       4.586 -10.356  -7.805  1.00  0.00     0.037 A 
BRANCH  51  65
ATOM     65  C   UNL     1       6.288  -5.053 -10.484  1.00  0.00     0.057 A 
ATOM     66  C   UNL     1       7.483  -4.747 -11.147  1.00  0.00     0.134 A 
ATOM     67  C   UNL     1       5.099  -4.562 -11.038  1.00  0.00     0.134 A 
ATOM     68  F   UNL     1       8.659  -5.175 -10.664  1.00  0.00    -0.206 F 
ATOM     69  C   UNL     1       7.499  -3.958 -12.299  1.00  0.00     0.040 A 
ATOM     70  C   UNL     1       5.098  -3.799 -12.207  1.00  0.00     0.040 A 
ATOM     71  F   UNL     1       3.917  -4.821 -10.459  1.00  0.00    -0.206 F 
ATOM     72  C   UNL     1       6.302  -3.488 -12.836  1.00  0.00     0.006 A 
ENDBRANCH  51  65
BRANCH  52  73
ATOM     73  C   UNL     1       6.029 -10.236  -1.926  1.00  0.00     0.057 A 
ATOM     74  C   UNL     1       6.735 -11.433  -1.765  1.00  0.00     0.134 A 
ATOM     75  C   UNL     1       5.245  -9.802  -0.850  1.00  0.00     0.134 A 
ATOM     76  F   UNL     1       7.492 -11.910  -2.765  1.00  0.00    -0.206 F 
ATOM     77  C   UNL     1       6.646 -12.185  -0.592  1.00  0.00     0.040 A 
ATOM     78  C   UNL     1       5.168 -10.529   0.339  1.00  0.00     0.040 A 
ATOM     79  F   UNL     1       4.551  -8.657  -0.935  1.00  0.00    -0.206 F 
ATOM     80  C   UNL     1       5.863 -11.730   0.467  1.00  0.00     0.006 A 
ENDBRANCH  52  73
BRANCH  64  81
ATOM     81  C   UNL     1       3.962 -11.556  -8.454  1.00  0.00     0.057 A 
ATOM     82  C   UNL     1       2.618 -11.896  -8.259  1.00  0.00     0.134 A 
ATOM     83  C   UNL     1       4.704 -12.333  -9.353  1.00  0.00     0.134 A 
ATOM     84  F   UNL     1       1.857 -11.199  -7.402  1.00  0.00    -0.206 F 
ATOM     85  C   UNL     1       2.037 -12.974  -8.929  1.00  0.00     0.040 A 
ATOM     86  C   UNL     1       4.127 -13.394 -10.050  1.00  0.00     0.040 A 
ATOM     87  F   UNL     1       5.995 -12.053  -9.592  1.00  0.00    -0.206 F 
ATOM     88  C   UNL     1       2.789 -13.719  -9.836  1.00  0.00     0.006 A 
ENDBRANCH  64  81
ENDBRANCH  38  39
ENDBRANCH  30  33
ENDBRANCH  28  29
ENDBRANCH  27  28
ENDBRANCH   1  27
TORSDOF 13
