REMARK SMILES Cc1ccc(NS(=O)(=O)N2CCCC[C@@H]2C(=O)NCCCNC(=O)c2ccc(-c3c4nc(c(-c5c(F)cccc5F)c5ccc([nH]5)c(-c5c(F)cccc5F)c5nc(c(-c6c(F)cccc6F)c6ccc3[nH]6)C=C5)C=C4)cc2)c(C)n1
REMARK SMILES IDX 19 1 18 2 16 3 17 4 15 6 10 7 11 8 12 9 14 10 13 11 7 12
REMARK SMILES IDX 8 13 9 14 6 15 5 17 1 18 2 19 3 20 81 21 4 22 79 23 80 24
REMARK SMILES IDX 20 25 21 26 22 27 23 28 24 30 25 31 26 32 78 33 27 34 77 35
REMARK SMILES IDX 28 36 29 37 30 38 71 39 31 40 76 41 70 42 72 43 32 44 75 45
REMARK SMILES IDX 69 46 68 47 33 49 59 50 42 51 58 52 43 53 46 54 57 55 73 56
REMARK SMILES IDX 44 57 45 58 56 60 74 61 47 62 34 63 35 64 40 65 36 66 37 67
REMARK SMILES IDX 39 68 41 69 38 70 60 71 61 72 66 73 62 74 63 75 65 76 67 77
REMARK SMILES IDX 64 78 48 79 49 80 54 81 50 82 51 83 53 84 55 85 52 86
REMARK H PARENT 18 5 6 16 22 29 72 48 46 59
REMARK Flexibility Score: inf
ROOT
ATOM      1  C   UNL     1       0.137   1.419  -0.967  1.00  0.00     0.117 C 
ENDROOT
BRANCH   1   2
ATOM      2  N   UNL     1       0.836   0.751  -2.057  1.00  0.00    -0.355 N 
ATOM      3  C   UNL     1       2.136   0.608  -2.416  1.00  0.00     0.238 C 
ATOM      4  O   UNL     1       2.320  -0.235  -3.306  1.00  0.00    -0.273 OA
ATOM      5  H   UNL     1       0.221   0.298  -2.677  1.00  0.00     0.163 HD
BRANCH   3   6
ATOM      6  C   UNL     1       3.326   1.393  -1.851  1.00  0.00     0.163 C 
ATOM      7  N   UNL     1       3.901   0.942  -0.528  1.00  0.00    -0.172 NA
ATOM      8  C   UNL     1       5.141   1.718  -0.192  1.00  0.00     0.105 C 
ATOM      9  C   UNL     1       4.827   3.205  -0.108  1.00  0.00     0.017 C 
ATOM     10  C   UNL     1       3.078   2.911  -1.859  1.00  0.00     0.030 C 
ATOM     11  C   UNL     1       4.310   3.709  -1.446  1.00  0.00     0.004 C 
BRANCH   7  12
ATOM     12  S   UNL     1       4.200  -0.736  -0.398  1.00  0.00     0.302 S 
ATOM     13  O   UNL     1       4.966  -1.004   0.796  1.00  0.00    -0.189 OA
ATOM     14  O   UNL     1       4.688  -1.206  -1.671  1.00  0.00    -0.189 OA
BRANCH  12  15
ATOM     15  N   UNL     1       2.689  -1.360  -0.177  1.00  0.00    -0.269 N 
ATOM     16  H   UNL     1       2.354  -1.947  -0.893  1.00  0.00     0.181 HD
BRANCH  15  17
ATOM     17  C   UNL     1       1.801  -1.151   0.937  1.00  0.00     0.071 A 
ATOM     18  C   UNL     1      -1.705   0.091   3.006  1.00  0.00     0.067 C 
ATOM     19  C   UNL     1      -0.464  -0.503   2.418  1.00  0.00     0.038 A 
ATOM     20  C   UNL     1      -0.510  -1.603   1.586  1.00  0.00     0.026 A 
ATOM     21  N   UNL     1       0.675   0.189   2.610  1.00  0.00    -0.256 NA
ATOM     22  C   UNL     1       0.621  -1.909   0.832  1.00  0.00     0.030 A 
ATOM     23  C   UNL     1       1.804  -0.150   1.919  1.00  0.00     0.062 A 
ATOM     24  C   UNL     1       2.952   0.702   2.344  1.00  0.00     0.069 C 
ENDBRANCH  15  17
ENDBRANCH  12  15
ENDBRANCH   7  12
ENDBRANCH   3   6
ENDBRANCH   1   2
BRANCH   1  25
ATOM     25  C   UNL     1      -1.315   1.774  -1.306  1.00  0.00     0.042 C 
BRANCH  25  26
ATOM     26  C   UNL     1      -2.184   0.618  -1.806  1.00  0.00     0.118 C 
BRANCH  26  27
ATOM     27  N   UNL     1      -2.598  -0.330  -0.783  1.00  0.00    -0.352 N 
ATOM     28  C   UNL     1      -3.677  -0.357   0.068  1.00  0.00     0.251 C 
ATOM     29  H   UNL     1      -1.991  -1.099  -0.682  1.00  0.00     0.163 HD
ATOM     30  O   UNL     1      -3.776  -1.267   0.888  1.00  0.00    -0.269 OA
BRANCH  28  31
ATOM     31  C   UNL     1      -4.708   0.701   0.049  1.00  0.00     0.039 A 
ATOM     32  C   UNL     1      -5.206   1.189   1.267  1.00  0.00     0.014 A 
ATOM     33  C   UNL     1      -5.252   1.154  -1.149  1.00  0.00     0.014 A 
ATOM     34  C   UNL     1      -6.204   2.170   1.277  1.00  0.00     0.010 A 
ATOM     35  C   UNL     1      -6.179   2.187  -1.142  1.00  0.00     0.010 A 
ATOM     36  C   UNL     1      -6.681   2.690   0.069  1.00  0.00    -0.014 A 
BRANCH  36  37
ATOM     37  C   UNL     1      -7.767   3.697  -0.012  1.00  0.00     0.031 A 
ATOM     38  C   UNL     1      -9.039   3.320  -0.722  1.00  0.00     0.074 A 
ATOM     39  C   UNL     1      -7.553   4.964   0.385  1.00  0.00     0.049 A 
ATOM     40  N   UNL     1      -9.971   4.085  -1.224  1.00  0.00    -0.248 NA
ATOM     41  C   UNL     1      -9.251   1.880  -0.952  1.00  0.00     0.031 C 
ATOM     42  C   UNL     1      -6.350   5.453   1.059  1.00  0.00     0.029 A 
ATOM     43  N   UNL     1      -8.327   6.086   0.226  1.00  0.00    -0.354 N 
ATOM     44  C   UNL     1     -10.840   3.228  -1.889  1.00  0.00     0.074 A 
ATOM     45  C   UNL     1     -10.315   1.889  -1.741  1.00  0.00     0.031 C 
ATOM     46  C   UNL     1      -6.456   6.780   1.236  1.00  0.00     0.029 A 
ATOM     47  C   UNL     1      -7.709   7.239   0.646  1.00  0.00     0.049 A 
ATOM     48  H   UNL     1      -9.235   6.067  -0.153  1.00  0.00     0.167 HD
ATOM     49  C   UNL     1     -11.974   3.537  -2.561  1.00  0.00     0.037 A 
ATOM     50  C   UNL     1      -8.097   8.524   0.531  1.00  0.00     0.037 A 
ATOM     51  C   UNL     1     -12.521   4.866  -2.632  1.00  0.00     0.049 A 
ATOM     52  C   UNL     1      -9.400   8.834  -0.154  1.00  0.00     0.074 A 
ATOM     53  C   UNL     1     -13.712   5.280  -3.199  1.00  0.00     0.029 A 
ATOM     54  N   UNL     1     -11.914   5.993  -2.099  1.00  0.00    -0.354 N 
ATOM     55  N   UNL     1     -10.233   8.016  -0.753  1.00  0.00    -0.248 NA
ATOM     56  C   UNL     1      -9.819  10.242  -0.177  1.00  0.00     0.031 C 
ATOM     57  C   UNL     1     -13.815   6.665  -3.030  1.00  0.00     0.029 A 
ATOM     58  C   UNL     1     -12.704   7.106  -2.327  1.00  0.00     0.049 A 
ATOM     59  H   UNL     1     -11.050   6.001  -1.628  1.00  0.00     0.167 HD
ATOM     60  C   UNL     1     -11.282   8.805  -1.204  1.00  0.00     0.074 A 
ATOM     61  C   UNL     1     -10.988  10.164  -0.797  1.00  0.00     0.031 C 
ATOM     62  C   UNL     1     -12.390   8.443  -1.897  1.00  0.00     0.037 A 
BRANCH  49  63
ATOM     63  C   UNL     1     -12.693   2.426  -3.270  1.00  0.00     0.057 A 
ATOM     64  C   UNL     1     -13.374   1.418  -2.577  1.00  0.00     0.134 A 
ATOM     65  C   UNL     1     -12.727   2.382  -4.670  1.00  0.00     0.134 A 
ATOM     66  F   UNL     1     -13.369   1.393  -1.236  1.00  0.00    -0.206 F 
ATOM     67  C   UNL     1     -14.041   0.392  -3.249  1.00  0.00     0.040 A 
ATOM     68  C   UNL     1     -13.414   1.377  -5.354  1.00  0.00     0.040 A 
ATOM     69  F   UNL     1     -12.099   3.318  -5.397  1.00  0.00    -0.206 F 
ATOM     70  C   UNL     1     -14.069   0.374  -4.642  1.00  0.00     0.006 A 
ENDBRANCH  49  63
BRANCH  50  71
ATOM     71  C   UNL     1      -7.245   9.610   1.075  1.00  0.00     0.057 A 
ATOM     72  C   UNL     1      -7.626  10.313   2.224  1.00  0.00     0.134 A 
ATOM     73  C   UNL     1      -6.035   9.971   0.470  1.00  0.00     0.134 A 
ATOM     74  F   UNL     1      -8.783  10.025   2.837  1.00  0.00    -0.206 F 
ATOM     75  C   UNL     1      -6.845  11.348   2.741  1.00  0.00     0.040 A 
ATOM     76  C   UNL     1      -5.233  10.989   0.990  1.00  0.00     0.040 A 
ATOM     77  F   UNL     1      -5.609   9.330  -0.628  1.00  0.00    -0.206 F 
ATOM     78  C   UNL     1      -5.641  11.685   2.126  1.00  0.00     0.006 A 
ENDBRANCH  50  71
BRANCH  62  79
ATOM     79  C   UNL     1     -13.375   9.524  -2.222  1.00  0.00     0.057 A 
ATOM     80  C   UNL     1     -13.133  10.460  -3.234  1.00  0.00     0.134 A 
ATOM     81  C   UNL     1     -14.597   9.599  -1.543  1.00  0.00     0.134 A 
ATOM     82  F   UNL     1     -11.974  10.445  -3.910  1.00  0.00    -0.206 F 
ATOM     83  C   UNL     1     -14.068  11.446  -3.550  1.00  0.00     0.040 A 
ATOM     84  C   UNL     1     -15.549  10.566  -1.865  1.00  0.00     0.040 A 
ATOM     85  F   UNL     1     -14.891   8.725  -0.569  1.00  0.00    -0.206 F 
ATOM     86  C   UNL     1     -15.283  11.496  -2.869  1.00  0.00     0.006 A 
ENDBRANCH  62  79
ENDBRANCH  36  37
ENDBRANCH  28  31
ENDBRANCH  26  27
ENDBRANCH  25  26
ENDBRANCH   1  25
TORSDOF 13
