REMARK SMILES Cc1c(C(=O)NCCCNC(=O)c2ccc(-c3c4nc(c(-c5c(F)cccc5F)c5ccc([nH]5)c(-c5c(F)cccc5F)c5nc(c(-c6c(F)cccc6F)c6ccc3[nH]6)C=C5)C=C4)cc2)cnn1[C@H]1CCS(=O)(=O)C1
REMARK SMILES IDX 8 1 7 2 6 3 4 4 5 5 3 7 1 8 2 9 69 10 67 11 68 12 70 13
REMARK SMILES IDX 71 14 76 15 72 16 73 17 74 18 75 19 9 20 10 21 11 22 12 24
REMARK SMILES IDX 13 25 14 26 66 27 15 28 65 29 16 30 17 31 18 32 59 33 19 34
REMARK SMILES IDX 64 35 58 36 60 37 20 38 63 39 57 40 56 41 21 43 47 44 30 45
REMARK SMILES IDX 46 46 31 47 34 48 45 49 61 50 32 51 33 52 44 54 62 55 35 56
REMARK SMILES IDX 22 57 23 58 28 59 24 60 25 61 27 62 29 63 26 64 48 65 49 66
REMARK SMILES IDX 54 67 50 68 51 69 53 70 55 71 52 72 36 73 37 74 42 75 38 76
REMARK SMILES IDX 39 77 41 78 43 79 40 80
REMARK H PARENT 6 6 10 23 60 42 34 53
REMARK Flexibility Score: inf
ROOT
ATOM      1  C   UNL     1      -2.627   4.851   7.033  1.00  0.00     0.042 C 
ENDROOT
BRANCH   1   2
ATOM      2  C   UNL     1      -2.113   5.902   6.043  1.00  0.00     0.118 C 
BRANCH   2   3
ATOM      3  N   UNL     1      -0.672   6.063   6.108  1.00  0.00    -0.352 N 
ATOM      4  C   UNL     1       0.362   5.536   5.377  1.00  0.00     0.254 C 
ATOM      5  O   UNL     1       1.480   5.973   5.654  1.00  0.00    -0.269 OA
ATOM      6  H   UNL     1      -0.377   6.674   6.821  1.00  0.00     0.163 HD
BRANCH   4   7
ATOM      7  C   UNL     1       0.152   4.545   4.321  1.00  0.00     0.080 A 
ATOM      8  C   UNL     1       2.539   4.521   3.264  1.00  0.00     0.067 C 
ATOM      9  C   UNL     1       1.104   4.132   3.378  1.00  0.00     0.048 A 
ATOM     10  N   UNL     1       0.455   3.268   2.522  1.00  0.00    -0.265 N 
ATOM     11  C   UNL     1      -0.963   3.742   4.019  1.00  0.00     0.149 A 
ATOM     12  N   UNL     1      -0.792   2.981   2.943  1.00  0.00    -0.180 NA
BRANCH  10  13
ATOM     13  C   UNL     1       0.851   2.611   1.285  1.00  0.00     0.123 C 
ATOM     14  C   UNL     1      -0.039   3.041   0.098  1.00  0.00     0.044 C 
ATOM     15  C   UNL     1       2.275   2.797   0.785  1.00  0.00     0.164 C 
ATOM     16  C   UNL     1       0.500   2.342  -1.144  1.00  0.00     0.139 C 
ATOM     17  S   UNL     1       2.250   2.152  -0.869  1.00  0.00     0.152 S 
ATOM     18  O   UNL     1       2.551   0.731  -0.797  1.00  0.00    -0.229 OA
ATOM     19  O   UNL     1       2.974   3.053  -1.727  1.00  0.00    -0.229 OA
ENDBRANCH  10  13
ENDBRANCH   4   7
ENDBRANCH   2   3
ENDBRANCH   1   2
BRANCH   1  20
ATOM     20  C   UNL     1      -2.665   5.375   8.463  1.00  0.00     0.118 C 
BRANCH  20  21
ATOM     21  N   UNL     1      -3.655   6.442   8.645  1.00  0.00    -0.352 N 
ATOM     22  C   UNL     1      -3.904   7.219   9.759  1.00  0.00     0.251 C 
ATOM     23  H   UNL     1      -4.222   6.630   7.862  1.00  0.00     0.163 HD
ATOM     24  O   UNL     1      -4.950   7.850   9.864  1.00  0.00    -0.269 OA
BRANCH  22  25
ATOM     25  C   UNL     1      -2.895   7.273  10.827  1.00  0.00     0.039 A 
ATOM     26  C   UNL     1      -3.256   7.231  12.177  1.00  0.00     0.014 A 
ATOM     27  C   UNL     1      -1.560   7.317  10.447  1.00  0.00     0.014 A 
ATOM     28  C   UNL     1      -2.252   7.139  13.138  1.00  0.00     0.010 A 
ATOM     29  C   UNL     1      -0.592   7.035  11.370  1.00  0.00     0.010 A 
ATOM     30  C   UNL     1      -0.919   7.018  12.722  1.00  0.00    -0.014 A 
BRANCH  30  31
ATOM     31  C   UNL     1       0.159   6.793  13.676  1.00  0.00     0.031 A 
ATOM     32  C   UNL     1      -0.002   5.611  14.566  1.00  0.00     0.074 A 
ATOM     33  C   UNL     1       1.331   7.457  13.588  1.00  0.00     0.049 A 
ATOM     34  N   UNL     1      -0.099   5.604  15.854  1.00  0.00    -0.248 NA
ATOM     35  C   UNL     1      -0.183   4.286  13.951  1.00  0.00     0.031 C 
ATOM     36  C   UNL     1       1.755   8.437  12.578  1.00  0.00     0.029 A 
ATOM     37  N   UNL     1       2.460   7.290  14.324  1.00  0.00    -0.354 N 
ATOM     38  C   UNL     1      -0.161   4.266  16.234  1.00  0.00     0.074 A 
ATOM     39  C   UNL     1      -0.376   3.515  15.024  1.00  0.00     0.031 C 
ATOM     40  C   UNL     1       3.098   8.570  12.613  1.00  0.00     0.029 A 
ATOM     41  C   UNL     1       3.603   7.830  13.753  1.00  0.00     0.049 A 
ATOM     42  H   UNL     1       2.466   6.824  15.191  1.00  0.00     0.167 HD
ATOM     43  C   UNL     1       0.192   3.871  17.490  1.00  0.00     0.037 A 
ATOM     44  C   UNL     1       4.879   7.652  14.171  1.00  0.00     0.037 A 
ATOM     45  C   UNL     1       0.270   4.998  18.387  1.00  0.00     0.049 A 
ATOM     46  C   UNL     1       4.815   7.209  15.588  1.00  0.00     0.074 A 
ATOM     47  C   UNL     1      -0.623   5.968  18.802  1.00  0.00     0.029 A 
ATOM     48  N   UNL     1       1.516   5.483  18.702  1.00  0.00    -0.354 N 
ATOM     49  N   UNL     1       4.408   7.974  16.564  1.00  0.00    -0.248 NA
ATOM     50  C   UNL     1       4.740   5.779  15.848  1.00  0.00     0.031 C 
ATOM     51  C   UNL     1       0.144   7.169  18.857  1.00  0.00     0.029 A 
ATOM     52  C   UNL     1       1.466   6.845  18.550  1.00  0.00     0.049 A 
ATOM     53  H   UNL     1       2.297   4.954  18.985  1.00  0.00     0.167 HD
ATOM     54  C   UNL     1       3.626   7.148  17.359  1.00  0.00     0.074 A 
ATOM     55  C   UNL     1       3.946   5.789  16.924  1.00  0.00     0.031 C 
ATOM     56  C   UNL     1       2.576   7.643  18.081  1.00  0.00     0.037 A 
BRANCH  43  57
ATOM     57  C   UNL     1       0.814   2.541  17.838  1.00  0.00     0.057 A 
ATOM     58  C   UNL     1       0.992   2.199  19.192  1.00  0.00     0.134 A 
ATOM     59  C   UNL     1       1.508   1.726  16.921  1.00  0.00     0.134 A 
ATOM     60  F   UNL     1       0.389   2.900  20.165  1.00  0.00    -0.206 F 
ATOM     61  C   UNL     1       1.862   1.182  19.604  1.00  0.00     0.040 A 
ATOM     62  C   UNL     1       2.338   0.674  17.319  1.00  0.00     0.040 A 
ATOM     63  F   UNL     1       1.505   1.965  15.604  1.00  0.00    -0.206 F 
ATOM     64  C   UNL     1       2.546   0.421  18.665  1.00  0.00     0.006 A 
ENDBRANCH  43  57
BRANCH  44  65
ATOM     65  C   UNL     1       6.111   7.596  13.352  1.00  0.00     0.057 A 
ATOM     66  C   UNL     1       7.380   7.691  13.938  1.00  0.00     0.134 A 
ATOM     67  C   UNL     1       6.087   7.198  12.002  1.00  0.00     0.134 A 
ATOM     68  F   UNL     1       7.510   8.023  15.231  1.00  0.00    -0.206 F 
ATOM     69  C   UNL     1       8.553   7.390  13.231  1.00  0.00     0.040 A 
ATOM     70  C   UNL     1       7.250   6.905  11.282  1.00  0.00     0.040 A 
ATOM     71  F   UNL     1       4.929   6.998  11.356  1.00  0.00    -0.206 F 
ATOM     72  C   UNL     1       8.489   6.986  11.901  1.00  0.00     0.006 A 
ENDBRANCH  44  65
BRANCH  56  73
ATOM     73  C   UNL     1       2.419   9.138  18.176  1.00  0.00     0.057 A 
ATOM     74  C   UNL     1       2.187   9.976  17.074  1.00  0.00     0.134 A 
ATOM     75  C   UNL     1       2.330   9.730  19.440  1.00  0.00     0.134 A 
ATOM     76  F   UNL     1       2.139   9.491  15.830  1.00  0.00    -0.206 F 
ATOM     77  C   UNL     1       1.928  11.342  17.219  1.00  0.00     0.040 A 
ATOM     78  C   UNL     1       2.038  11.087  19.602  1.00  0.00     0.040 A 
ATOM     79  F   UNL     1       2.475   8.985  20.547  1.00  0.00    -0.206 F 
ATOM     80  C   UNL     1       1.847  11.901  18.489  1.00  0.00     0.006 A 
ENDBRANCH  56  73
ENDBRANCH  30  31
ENDBRANCH  22  25
ENDBRANCH  20  21
ENDBRANCH   1  20
TORSDOF 11
