REMARK SMILES Cc1ccc(-c2c(C)sc(NC(=O)[C@H]3CC=CC[C@H]3C(=O)NCCCNC(=O)c3ccc(-c4c5nc(c(-c6c(F)cccc6F)c6ccc([nH]6)c(-c6c(F)cccc6F)c6nc(c(-c7c(F)cccc7F)c7ccc4[nH]7)C=C6)C=C5)cc3)c2C(N)=O)cc1
REMARK SMILES IDX 23 1 22 2 20 3 21 4 19 6 14 7 15 8 16 9 18 10 17 11 12 12
REMARK SMILES IDX 11 13 13 15 10 16 6 17 7 18 83 19 8 20 9 21 5 22 1 23 2 24
REMARK SMILES IDX 3 25 88 26 4 27 87 28 84 29 85 30 86 31 24 34 25 35 26 36
REMARK SMILES IDX 27 37 28 39 29 40 30 41 82 42 31 43 81 44 32 45 33 46 34 47
REMARK SMILES IDX 75 48 35 49 80 50 74 51 76 52 36 53 79 54 73 55 72 56 37 58
REMARK SMILES IDX 63 59 46 60 62 61 47 62 50 63 61 64 77 65 48 66 49 67 60 69
REMARK SMILES IDX 78 70 51 71 38 72 39 73 44 74 40 75 41 76 43 77 45 78 42 79
REMARK SMILES IDX 64 80 65 81 70 82 66 83 67 84 69 85 71 86 68 87 52 88 53 89
REMARK SMILES IDX 58 90 54 91 55 92 57 93 59 94 56 95
REMARK H PARENT 22 5 11 14 85 32 85 33 26 38 76 57 50 68
REMARK Flexibility Score: inf
ROOT
ATOM      1  C   UNL     1      -7.452  -3.167   0.913  1.00  0.00     0.117 C 
ENDROOT
BRANCH   1   2
ATOM      2  N   UNL     1      -8.549  -3.182  -0.019  1.00  0.00    -0.356 N 
ATOM      3  C   UNL     1      -9.045  -2.168  -0.764  1.00  0.00     0.224 C 
ATOM      4  O   UNL     1     -10.185  -2.321  -1.213  1.00  0.00    -0.275 OA
ATOM      5  H   UNL     1      -9.000  -4.051  -0.130  1.00  0.00     0.163 HD
BRANCH   3   6
ATOM      6  C   UNL     1      -8.247  -0.917  -1.105  1.00  0.00     0.095 C 
ATOM      7  C   UNL     1      -8.239   0.299  -0.155  1.00  0.00     0.095 C 
ATOM      8  C   UNL     1      -7.914   1.560  -0.984  1.00  0.00     0.041 C 
ATOM      9  C   UNL     1      -6.940   1.327  -2.122  1.00  0.00    -0.030 C 
ATOM     10  C   UNL     1      -6.927  -1.158  -1.827  1.00  0.00     0.041 C 
ATOM     11  C   UNL     1      -6.465   0.118  -2.470  1.00  0.00    -0.030 C 
BRANCH   7  12
ATOM     12  C   UNL     1      -7.623   0.267   1.274  1.00  0.00     0.229 C 
ATOM     13  N   UNL     1      -6.346  -0.004   1.681  1.00  0.00    -0.317 N 
ATOM     14  H   UNL     1      -6.290  -0.397   2.582  1.00  0.00     0.170 HD
ATOM     15  O   UNL     1      -8.411   0.428   2.226  1.00  0.00    -0.274 OA
BRANCH  13  16
ATOM     16  C   UNL     1      -5.122   0.168   1.073  1.00  0.00     0.109 A 
ATOM     17  C   UNL     1      -2.916   0.196   0.319  1.00  0.00     0.010 A 
ATOM     18  C   UNL     1      -3.554   1.080  -0.537  1.00  0.00     0.012 A 
ATOM     19  C   UNL     1      -3.848  -0.364   1.310  1.00  0.00     0.082 A 
ATOM     20  C   UNL     1      -3.147   1.692  -1.835  1.00  0.00     0.057 C 
ATOM     21  S   UNL     1      -4.960   1.629   0.225  1.00  0.00    -0.122 S 
BRANCH  17  22
ATOM     22  C   UNL     1      -1.470   0.031   0.206  1.00  0.00    -0.016 A 
ATOM     23  C   UNL     1       2.823  -0.190  -0.082  1.00  0.00     0.044 C 
ATOM     24  C   UNL     1       1.328  -0.113  -0.008  1.00  0.00    -0.051 A 
ATOM     25  C   UNL     1       0.544  -1.274  -0.087  1.00  0.00     0.004 A 
ATOM     26  C   UNL     1       0.705   1.120   0.184  1.00  0.00     0.004 A 
ATOM     27  C   UNL     1      -0.852  -1.203   0.006  1.00  0.00     0.009 A 
ATOM     28  C   UNL     1      -0.677   1.186   0.308  1.00  0.00     0.009 A 
ENDBRANCH  17  22
BRANCH  19  29
ATOM     29  C   UNL     1      -3.432  -1.328   2.344  1.00  0.00     0.252 C 
ATOM     30  N   UNL     1      -4.401  -1.951   3.076  1.00  0.00    -0.365 N 
ATOM     31  O   UNL     1      -2.274  -1.615   2.593  1.00  0.00    -0.269 OA
ATOM     32  H   UNL     1      -5.350  -1.750   2.909  1.00  0.00     0.159 HD
ATOM     33  H   UNL     1      -4.151  -2.601   3.772  1.00  0.00     0.159 HD
ENDBRANCH  19  29
ENDBRANCH  13  16
ENDBRANCH   7  12
ENDBRANCH   3   6
ENDBRANCH   1   2
BRANCH   1  34
ATOM     34  C   UNL     1      -7.956  -2.671   2.250  1.00  0.00     0.042 C 
BRANCH  34  35
ATOM     35  C   UNL     1      -8.497  -3.749   3.139  1.00  0.00     0.118 C 
BRANCH  35  36
ATOM     36  N   UNL     1      -7.466  -4.518   3.814  1.00  0.00    -0.352 N 
ATOM     37  C   UNL     1      -7.558  -5.321   4.936  1.00  0.00     0.251 C 
ATOM     38  H   UNL     1      -6.569  -4.460   3.413  1.00  0.00     0.163 HD
ATOM     39  O   UNL     1      -6.526  -5.811   5.389  1.00  0.00    -0.269 OA
BRANCH  37  40
ATOM     40  C   UNL     1      -8.887  -5.770   5.453  1.00  0.00     0.039 A 
ATOM     41  C   UNL     1      -8.938  -7.122   5.819  1.00  0.00     0.014 A 
ATOM     42  C   UNL     1     -10.037  -5.155   4.995  1.00  0.00     0.014 A 
ATOM     43  C   UNL     1      -9.975  -7.904   5.335  1.00  0.00     0.010 A 
ATOM     44  C   UNL     1     -10.894  -5.931   4.271  1.00  0.00     0.010 A 
ATOM     45  C   UNL     1     -10.839  -7.314   4.428  1.00  0.00    -0.014 A 
BRANCH  45  46
ATOM     46  C   UNL     1     -11.893  -7.987   3.715  1.00  0.00     0.031 A 
ATOM     47  C   UNL     1     -13.231  -7.861   4.316  1.00  0.00     0.074 A 
ATOM     48  C   UNL     1     -11.640  -8.420   2.462  1.00  0.00     0.049 A 
ATOM     49  N   UNL     1     -14.244  -8.548   3.952  1.00  0.00    -0.248 NA
ATOM     50  C   UNL     1     -13.536  -6.943   5.417  1.00  0.00     0.031 C 
ATOM     51  C   UNL     1     -12.588  -8.749   1.405  1.00  0.00     0.029 A 
ATOM     52  N   UNL     1     -10.404  -8.841   1.950  1.00  0.00    -0.354 N 
ATOM     53  C   UNL     1     -15.362  -7.977   4.520  1.00  0.00     0.074 A 
ATOM     54  C   UNL     1     -14.866  -7.033   5.484  1.00  0.00     0.031 C 
ATOM     55  C   UNL     1     -11.997  -9.592   0.539  1.00  0.00     0.029 A 
ATOM     56  C   UNL     1     -10.702  -9.934   1.102  1.00  0.00     0.049 A 
ATOM     57  H   UNL     1      -9.518  -8.458   2.140  1.00  0.00     0.167 HD
ATOM     58  C   UNL     1     -16.568  -8.300   3.981  1.00  0.00     0.037 A 
ATOM     59  C   UNL     1     -10.316 -11.197   1.456  1.00  0.00     0.037 A 
ATOM     60  C   UNL     1     -16.369  -9.298   2.936  1.00  0.00     0.049 A 
ATOM     61  C   UNL     1     -11.501 -12.107   1.698  1.00  0.00     0.074 A 
ATOM     62  C   UNL     1     -16.199  -9.194   1.565  1.00  0.00     0.029 A 
ATOM     63  N   UNL     1     -15.893 -10.547   3.303  1.00  0.00    -0.354 N 
ATOM     64  N   UNL     1     -12.679 -11.687   2.079  1.00  0.00    -0.248 NA
ATOM     65  C   UNL     1     -11.477 -13.543   1.443  1.00  0.00     0.031 C 
ATOM     66  C   UNL     1     -15.581 -10.391   1.114  1.00  0.00     0.029 A 
ATOM     67  C   UNL     1     -15.391 -11.217   2.209  1.00  0.00     0.049 A 
ATOM     68  H   UNL     1     -15.910 -10.906   4.220  1.00  0.00     0.167 HD
ATOM     69  C   UNL     1     -13.568 -12.737   2.070  1.00  0.00     0.074 A 
ATOM     70  C   UNL     1     -12.760 -13.875   1.674  1.00  0.00     0.031 C 
ATOM     71  C   UNL     1     -14.897 -12.576   2.357  1.00  0.00     0.037 A 
BRANCH  58  72
ATOM     72  C   UNL     1     -17.874  -7.589   4.205  1.00  0.00     0.057 A 
ATOM     73  C   UNL     1     -18.892  -7.674   3.232  1.00  0.00     0.134 A 
ATOM     74  C   UNL     1     -18.206  -6.808   5.324  1.00  0.00     0.134 A 
ATOM     75  F   UNL     1     -18.749  -8.409   2.122  1.00  0.00    -0.206 F 
ATOM     76  C   UNL     1     -20.116  -7.006   3.341  1.00  0.00     0.040 A 
ATOM     77  C   UNL     1     -19.417  -6.106   5.432  1.00  0.00     0.040 A 
ATOM     78  F   UNL     1     -17.406  -6.721   6.392  1.00  0.00    -0.206 F 
ATOM     79  C   UNL     1     -20.378  -6.204   4.438  1.00  0.00     0.006 A 
ENDBRANCH  58  72
BRANCH  59  80
ATOM     80  C   UNL     1      -9.012 -11.182   2.189  1.00  0.00     0.057 A 
ATOM     81  C   UNL     1      -7.892 -10.710   1.472  1.00  0.00     0.134 A 
ATOM     82  C   UNL     1      -8.960 -11.069   3.581  1.00  0.00     0.134 A 
ATOM     83  F   UNL     1      -7.858 -10.820   0.134  1.00  0.00    -0.206 F 
ATOM     84  C   UNL     1      -6.883  -9.962   2.085  1.00  0.00     0.040 A 
ATOM     85  C   UNL     1      -7.929 -10.353   4.209  1.00  0.00     0.040 A 
ATOM     86  F   UNL     1      -9.974 -11.504   4.342  1.00  0.00    -0.206 F 
ATOM     87  C   UNL     1      -6.931  -9.735   3.455  1.00  0.00     0.006 A 
ENDBRANCH  59  80
BRANCH  71  88
ATOM     88  C   UNL     1     -15.908 -13.647   2.738  1.00  0.00     0.057 A 
ATOM     89  C   UNL     1     -15.581 -14.949   3.135  1.00  0.00     0.134 A 
ATOM     90  C   UNL     1     -17.285 -13.324   2.885  1.00  0.00     0.134 A 
ATOM     91  F   UNL     1     -14.319 -15.389   3.160  1.00  0.00    -0.206 F 
ATOM     92  C   UNL     1     -16.542 -15.864   3.593  1.00  0.00     0.040 A 
ATOM     93  C   UNL     1     -18.233 -14.200   3.418  1.00  0.00     0.040 A 
ATOM     94  F   UNL     1     -17.786 -12.127   2.548  1.00  0.00    -0.206 F 
ATOM     95  C   UNL     1     -17.867 -15.486   3.758  1.00  0.00     0.006 A 
ENDBRANCH  71  88
ENDBRANCH  45  46
ENDBRANCH  37  40
ENDBRANCH  35  36
ENDBRANCH  34  35
ENDBRANCH   1  34
TORSDOF 14
