REMARK SMILES O=C(CCc1nc(-c2ccccc2)c(-c2ccccc2)o1)NCCCNC(=O)c1ccc(-c2c3nc(c(-c4c(F)cccc4F)c4ccc([nH]4)c(-c4c(F)cccc4F)c4nc(c(-c5c(F)cccc5F)c5ccc2[nH]5)C=C4)C=C3)cc1
REMARK SMILES IDX 23 1 22 2 1 3 2 4 3 6 4 7 5 8 6 9 21 10 7 11 14 12 8 13 9 14
REMARK SMILES IDX 13 15 10 16 12 17 11 18 15 19 16 20 20 21 17 22 19 23 18 24
REMARK SMILES IDX 24 25 25 26 26 27 27 28 28 30 29 31 30 32 82 33 31 34 81 35
REMARK SMILES IDX 32 36 33 37 34 38 75 39 35 40 80 41 74 42 76 43 36 44 79 45
REMARK SMILES IDX 73 46 72 47 37 49 63 50 46 51 62 52 47 53 50 54 61 55 77 56
REMARK SMILES IDX 48 57 49 58 60 60 78 61 51 62 38 63 39 64 44 65 40 66 41 67
REMARK SMILES IDX 43 68 45 69 42 70 64 71 65 72 70 73 66 74 67 75 69 76 71 77
REMARK SMILES IDX 68 78 52 79 53 80 58 81 54 82 55 83 57 84 59 85 56 86
REMARK H PARENT 22 5 26 29 76 48 50 59
REMARK Flexibility Score: inf
ROOT
ATOM      1  C   UNL     1       1.700  -2.359   0.265  1.00  0.00     0.117 C 
ENDROOT
BRANCH   1   2
ATOM      2  N   UNL     1       2.595  -1.233   0.102  1.00  0.00    -0.356 N 
ATOM      3  O   UNL     1       1.004   0.420   0.075  1.00  0.00    -0.275 OA
ATOM      4  C   UNL     1       2.185   0.075   0.049  1.00  0.00     0.220 C 
ATOM      5  H   UNL     1       3.559  -1.417   0.023  1.00  0.00     0.163 HD
BRANCH   4   6
ATOM      6  C   UNL     1       3.306   1.093  -0.083  1.00  0.00     0.110 C 
BRANCH   6   7
ATOM      7  C   UNL     1       4.097   1.303   1.209  1.00  0.00     0.107 C 
BRANCH   7   8
ATOM      8  C   UNL     1       5.110   0.231   1.419  1.00  0.00     0.196 A 
ATOM      9  N   UNL     1       4.906  -1.075   1.419  1.00  0.00    -0.213 NA
ATOM     10  O   UNL     1       6.424   0.609   1.561  1.00  0.00    -0.440 OA
ATOM     11  C   UNL     1       6.159  -1.594   1.569  1.00  0.00     0.117 A 
ATOM     12  C   UNL     1       7.092  -0.583   1.641  1.00  0.00     0.162 A 
BRANCH  11  13
ATOM     13  C   UNL     1       6.485  -2.997   1.607  1.00  0.00     0.004 A 
ATOM     14  C   UNL     1       6.451  -3.696   2.816  1.00  0.00     0.010 A 
ATOM     15  C   UNL     1       6.964  -3.622   0.451  1.00  0.00     0.010 A 
ATOM     16  C   UNL     1       6.926  -5.006   2.870  1.00  0.00     0.001 A 
ATOM     17  C   UNL     1       7.467  -4.919   0.516  1.00  0.00     0.001 A 
ATOM     18  C   UNL     1       7.444  -5.612   1.725  1.00  0.00     0.000 A 
ENDBRANCH  11  13
BRANCH  12  19
ATOM     19  C   UNL     1       8.536  -0.588   1.754  1.00  0.00     0.020 A 
ATOM     20  C   UNL     1       9.161  -0.220   2.949  1.00  0.00     0.012 A 
ATOM     21  C   UNL     1       9.302  -1.170   0.733  1.00  0.00     0.012 A 
ATOM     22  C   UNL     1      10.521  -0.486   3.136  1.00  0.00     0.001 A 
ATOM     23  C   UNL     1      10.654  -1.447   0.925  1.00  0.00     0.001 A 
ATOM     24  C   UNL     1      11.260  -1.115   2.133  1.00  0.00     0.000 A 
ENDBRANCH  12  19
ENDBRANCH   7   8
ENDBRANCH   6   7
ENDBRANCH   4   6
ENDBRANCH   1   2
BRANCH   1  25
ATOM     25  C   UNL     1       1.856  -3.398  -0.843  1.00  0.00     0.042 C 
BRANCH  25  26
ATOM     26  C   UNL     1       3.234  -4.052  -0.945  1.00  0.00     0.118 C 
BRANCH  26  27
ATOM     27  N   UNL     1       3.582  -4.865   0.209  1.00  0.00    -0.352 N 
ATOM     28  C   UNL     1       4.220  -6.078   0.305  1.00  0.00     0.251 C 
ATOM     29  H   UNL     1       3.314  -4.478   1.074  1.00  0.00     0.163 HD
ATOM     30  O   UNL     1       4.250  -6.639   1.404  1.00  0.00    -0.269 OA
BRANCH  28  31
ATOM     31  C   UNL     1       4.834  -6.760  -0.867  1.00  0.00     0.039 A 
ATOM     32  C   UNL     1       4.898  -8.161  -0.847  1.00  0.00     0.014 A 
ATOM     33  C   UNL     1       5.367  -6.076  -1.965  1.00  0.00     0.014 A 
ATOM     34  C   UNL     1       5.365  -8.867  -1.958  1.00  0.00     0.010 A 
ATOM     35  C   UNL     1       5.792  -6.776  -3.096  1.00  0.00     0.010 A 
ATOM     36  C   UNL     1       5.744  -8.175  -3.117  1.00  0.00    -0.014 A 
BRANCH  36  37
ATOM     37  C   UNL     1       5.880  -8.884  -4.412  1.00  0.00     0.031 A 
ATOM     38  C   UNL     1       7.200  -9.033  -5.101  1.00  0.00     0.074 A 
ATOM     39  C   UNL     1       4.745  -9.293  -5.011  1.00  0.00     0.049 A 
ATOM     40  N   UNL     1       7.462  -9.574  -6.264  1.00  0.00    -0.248 NA
ATOM     41  C   UNL     1       8.377  -8.489  -4.410  1.00  0.00     0.031 C 
ATOM     42  C   UNL     1       3.397  -9.131  -4.457  1.00  0.00     0.029 A 
ATOM     43  N   UNL     1       4.533  -9.901  -6.221  1.00  0.00    -0.354 N 
ATOM     44  C   UNL     1       8.832  -9.443  -6.445  1.00  0.00     0.074 A 
ATOM     45  C   UNL     1       9.341  -8.733  -5.289  1.00  0.00     0.031 C 
ATOM     46  C   UNL     1       2.501  -9.629  -5.321  1.00  0.00     0.029 A 
ATOM     47  C   UNL     1       3.205 -10.116  -6.500  1.00  0.00     0.049 A 
ATOM     48  H   UNL     1       5.262 -10.159  -6.831  1.00  0.00     0.167 HD
ATOM     49  C   UNL     1       9.589  -9.887  -7.478  1.00  0.00     0.037 A 
ATOM     50  C   UNL     1       2.616 -10.637  -7.591  1.00  0.00     0.037 A 
ATOM     51  C   UNL     1       9.062 -10.582  -8.627  1.00  0.00     0.049 A 
ATOM     52  C   UNL     1       3.477 -11.109  -8.724  1.00  0.00     0.074 A 
ATOM     53  C   UNL     1       9.752 -11.133  -9.694  1.00  0.00     0.029 A 
ATOM     54  N   UNL     1       7.714 -10.805  -8.868  1.00  0.00    -0.354 N 
ATOM     55  N   UNL     1       4.782 -11.068  -8.838  1.00  0.00    -0.248 NA
ATOM     56  C   UNL     1       2.787 -11.706  -9.874  1.00  0.00     0.031 C 
ATOM     57  C   UNL     1       8.818 -11.647 -10.602  1.00  0.00     0.029 A 
ATOM     58  C   UNL     1       7.549 -11.457 -10.080  1.00  0.00     0.049 A 
ATOM     59  H   UNL     1       6.981 -10.538  -8.267  1.00  0.00     0.167 HD
ATOM     60  C   UNL     1       5.074 -11.652 -10.061  1.00  0.00     0.074 A 
ATOM     61  C   UNL     1       3.808 -12.053 -10.644  1.00  0.00     0.031 C 
ATOM     62  C   UNL     1       6.280 -11.839 -10.649  1.00  0.00     0.037 A 
BRANCH  49  63
ATOM     63  C   UNL     1      11.069  -9.639  -7.414  1.00  0.00     0.057 A 
ATOM     64  C   UNL     1      11.892 -10.325  -6.511  1.00  0.00     0.134 A 
ATOM     65  C   UNL     1      11.688  -8.748  -8.300  1.00  0.00     0.134 A 
ATOM     66  F   UNL     1      11.364 -11.190  -5.632  1.00  0.00    -0.206 F 
ATOM     67  C   UNL     1      13.272 -10.117  -6.476  1.00  0.00     0.040 A 
ATOM     68  C   UNL     1      13.070  -8.548  -8.290  1.00  0.00     0.040 A 
ATOM     69  F   UNL     1      10.962  -8.064  -9.197  1.00  0.00    -0.206 F 
ATOM     70  C   UNL     1      13.866  -9.231  -7.372  1.00  0.00     0.006 A 
ENDBRANCH  49  63
BRANCH  50  71
ATOM     71  C   UNL     1       1.139 -10.759  -7.640  1.00  0.00     0.057 A 
ATOM     72  C   UNL     1       0.516 -12.007  -7.536  1.00  0.00     0.134 A 
ATOM     73  C   UNL     1       0.315  -9.633  -7.761  1.00  0.00     0.134 A 
ATOM     74  F   UNL     1       1.255 -13.122  -7.430  1.00  0.00    -0.206 F 
ATOM     75  C   UNL     1      -0.873 -12.135  -7.563  1.00  0.00     0.040 A 
ATOM     76  C   UNL     1      -1.076  -9.744  -7.766  1.00  0.00     0.040 A 
ATOM     77  F   UNL     1       0.851  -8.407  -7.851  1.00  0.00    -0.206 F 
ATOM     78  C   UNL     1      -1.673 -11.000  -7.672  1.00  0.00     0.006 A 
ENDBRANCH  50  71
BRANCH  62  79
ATOM     79  C   UNL     1       6.283 -12.520 -11.985  1.00  0.00     0.057 A 
ATOM     80  C   UNL     1       5.848 -11.866 -13.145  1.00  0.00     0.134 A 
ATOM     81  C   UNL     1       6.744 -13.836 -12.115  1.00  0.00     0.134 A 
ATOM     82  F   UNL     1       5.379 -10.611 -13.082  1.00  0.00    -0.206 F 
ATOM     83  C   UNL     1       5.853 -12.505 -14.385  1.00  0.00     0.040 A 
ATOM     84  C   UNL     1       6.776 -14.477 -13.354  1.00  0.00     0.040 A 
ATOM     85  F   UNL     1       7.177 -14.516 -11.043  1.00  0.00    -0.206 F 
ATOM     86  C   UNL     1       6.324 -13.812 -14.493  1.00  0.00     0.006 A 
ENDBRANCH  62  79
ENDBRANCH  36  37
ENDBRANCH  28  31
ENDBRANCH  26  27
ENDBRANCH  25  26
ENDBRANCH   1  25
TORSDOF 14
