REMARK SMILES CC[C@H](C)[C@H](NC(=O)[C@H](C(C)C)n1c(=O)[nH]c2ccccc2c1=O)C(=O)NCCCNC(=O)c1ccc(-c2c3nc(c(-c4c(F)cccc4F)c4ccc([nH]4)c(-c4c(F)cccc4F)c4nc(c(-c5c(F)cccc5F)c5ccc2[nH]5)C=C4)C=C3)cc1
REMARK SMILES IDX 28 1 27 2 25 3 26 4 5 6 3 7 4 8 2 9 1 10 6 11 7 12 8 14 9 15
REMARK SMILES IDX 13 16 14 17 23 18 15 19 16 20 22 21 24 22 17 23 21 25 18 26
REMARK SMILES IDX 20 27 19 28 10 29 11 30 12 31 29 32 30 33 31 34 32 35 33 37
REMARK SMILES IDX 34 38 35 39 87 40 36 41 86 42 37 43 38 44 39 45 80 46 40 47
REMARK SMILES IDX 85 48 79 49 81 50 41 51 84 52 78 53 77 54 42 56 68 57 51 58
REMARK SMILES IDX 67 59 52 60 55 61 66 62 82 63 53 64 54 65 65 67 83 68 56 69
REMARK SMILES IDX 43 70 44 71 49 72 45 73 46 74 48 75 50 76 47 77 69 78 70 79
REMARK SMILES IDX 75 80 71 81 72 82 74 83 76 84 73 85 57 86 58 87 63 88 59 89
REMARK SMILES IDX 60 90 62 91 64 92 61 93
REMARK H PARENT 27 5 6 13 16 24 31 36 81 55 55 66
REMARK Flexibility Score: inf
ROOT
ATOM      1  C   UNL     1      -4.743  -1.433   0.603  1.00  0.00     0.117 C 
ENDROOT
BRANCH   1   2
ATOM      2  N   UNL     1      -4.167  -2.305  -0.403  1.00  0.00    -0.354 N 
ATOM      3  C   UNL     1      -2.881  -2.612  -0.721  1.00  0.00     0.242 C 
ATOM      4  O   UNL     1      -2.727  -3.541  -1.523  1.00  0.00    -0.273 OA
ATOM      5  H   UNL     1      -4.835  -2.763  -0.963  1.00  0.00     0.163 HD
BRANCH   3   6
ATOM      6  C   UNL     1      -1.643  -1.982  -0.028  1.00  0.00     0.174 C 
BRANCH   6   7
ATOM      7  C   UNL     1      -1.337  -2.711   1.328  1.00  0.00     0.018 C 
ATOM      8  C   UNL     1       0.175  -2.769   1.562  1.00  0.00     0.010 C 
BRANCH   7   9
ATOM      9  C   UNL     1      -2.116  -2.183   2.564  1.00  0.00     0.002 C 
ATOM     10  C   UNL     1      -1.458  -2.339   3.927  1.00  0.00     0.004 C 
ENDBRANCH   7   9
ENDBRANCH   6   7
BRANCH   6  11
ATOM     11  N   UNL     1      -1.737  -0.527   0.084  1.00  0.00    -0.342 N 
ATOM     12  C   UNL     1      -1.532   0.466  -0.822  1.00  0.00     0.244 C 
ATOM     13  H   UNL     1      -1.995  -0.208   0.979  1.00  0.00     0.164 HD
ATOM     14  O   UNL     1      -2.164   1.493  -0.558  1.00  0.00    -0.273 OA
BRANCH  12  15
ATOM     15  C   UNL     1      -0.557   0.337  -2.030  1.00  0.00     0.187 C 
BRANCH  15  16
ATOM     16  N   UNL     1      -1.120   1.036  -3.205  1.00  0.00    -0.247 N 
ATOM     17  C   UNL     1      -1.179   0.325  -4.394  1.00  0.00     0.329 A 
ATOM     18  C   UNL     1      -1.361   2.411  -3.144  1.00  0.00     0.264 A 
ATOM     19  O   UNL     1      -0.771  -0.828  -4.533  1.00  0.00    -0.248 OA
ATOM     20  N   UNL     1      -1.694   0.969  -5.483  1.00  0.00    -0.307 N 
ATOM     21  C   UNL     1      -2.081   3.007  -4.282  1.00  0.00     0.064 A 
ATOM     22  O   UNL     1      -0.965   3.159  -2.254  1.00  0.00    -0.268 OA
ATOM     23  C   UNL     1      -2.190   2.267  -5.451  1.00  0.00     0.055 A 
ATOM     24  H   UNL     1      -1.716   0.485  -6.340  1.00  0.00     0.171 HD
ATOM     25  C   UNL     1      -2.614   4.297  -4.210  1.00  0.00     0.016 A 
ATOM     26  C   UNL     1      -2.791   2.821  -6.581  1.00  0.00     0.027 A 
ATOM     27  C   UNL     1      -3.244   4.845  -5.328  1.00  0.00     0.001 A 
ATOM     28  C   UNL     1      -3.321   4.112  -6.515  1.00  0.00     0.002 A 
ENDBRANCH  15  16
BRANCH  15  29
ATOM     29  C   UNL     1       0.903   0.751  -1.653  1.00  0.00     0.016 C 
ATOM     30  C   UNL     1       1.728  -0.491  -1.286  1.00  0.00     0.010 C 
ATOM     31  C   UNL     1       1.688   1.500  -2.743  1.00  0.00     0.010 C 
ENDBRANCH  15  29
ENDBRANCH  12  15
ENDBRANCH   6  11
ENDBRANCH   3   6
ENDBRANCH   1   2
BRANCH   1  32
ATOM     32  C   UNL     1      -5.504  -0.263   0.003  1.00  0.00     0.042 C 
BRANCH  32  33
ATOM     33  C   UNL     1      -6.853  -0.685  -0.561  1.00  0.00     0.118 C 
BRANCH  33  34
ATOM     34  N   UNL     1      -7.824  -1.011   0.483  1.00  0.00    -0.352 N 
ATOM     35  C   UNL     1      -8.760  -0.235   1.133  1.00  0.00     0.251 C 
ATOM     36  H   UNL     1      -7.805  -1.952   0.773  1.00  0.00     0.163 HD
ATOM     37  O   UNL     1      -9.325  -0.672   2.126  1.00  0.00    -0.269 OA
BRANCH  35  38
ATOM     38  C   UNL     1      -9.057   1.135   0.660  1.00  0.00     0.039 A 
ATOM     39  C   UNL     1      -9.142   1.414  -0.700  1.00  0.00     0.014 A 
ATOM     40  C   UNL     1      -9.263   2.159   1.591  1.00  0.00     0.014 A 
ATOM     41  C   UNL     1      -9.181   2.732  -1.132  1.00  0.00     0.010 A 
ATOM     42  C   UNL     1      -9.439   3.476   1.150  1.00  0.00     0.010 A 
ATOM     43  C   UNL     1      -9.334   3.782  -0.215  1.00  0.00    -0.014 A 
BRANCH  43  44
ATOM     44  C   UNL     1      -9.373   5.181  -0.719  1.00  0.00     0.031 A 
ATOM     45  C   UNL     1      -8.338   6.186  -0.290  1.00  0.00     0.074 A 
ATOM     46  C   UNL     1     -10.306   5.526  -1.627  1.00  0.00     0.049 A 
ATOM     47  N   UNL     1      -8.223   7.447  -0.626  1.00  0.00    -0.248 NA
ATOM     48  C   UNL     1      -7.303   5.721   0.645  1.00  0.00     0.031 C 
ATOM     49  C   UNL     1     -11.358   4.641  -2.134  1.00  0.00     0.029 A 
ATOM     50  N   UNL     1     -10.504   6.699  -2.309  1.00  0.00    -0.354 N 
ATOM     51  C   UNL     1      -7.127   7.931   0.078  1.00  0.00     0.074 A 
ATOM     52  C   UNL     1      -6.627   6.836   0.881  1.00  0.00     0.031 C 
ATOM     53  C   UNL     1     -12.046   5.277  -3.091  1.00  0.00     0.029 A 
ATOM     54  C   UNL     1     -11.543   6.641  -3.205  1.00  0.00     0.049 A 
ATOM     55  H   UNL     1      -9.955   7.504  -2.170  1.00  0.00     0.167 HD
ATOM     56  C   UNL     1      -6.582   9.172   0.052  1.00  0.00     0.037 A 
ATOM     57  C   UNL     1     -12.058   7.587  -4.011  1.00  0.00     0.037 A 
ATOM     58  C   UNL     1      -7.062  10.252  -0.772  1.00  0.00     0.049 A 
ATOM     59  C   UNL     1     -11.465   8.962  -3.991  1.00  0.00     0.074 A 
ATOM     60  C   UNL     1      -6.556  11.534  -0.900  1.00  0.00     0.029 A 
ATOM     61  N   UNL     1      -8.165  10.173  -1.610  1.00  0.00    -0.354 N 
ATOM     62  N   UNL     1     -10.434   9.405  -3.314  1.00  0.00    -0.248 NA
ATOM     63  C   UNL     1     -12.121   9.974  -4.829  1.00  0.00     0.031 C 
ATOM     64  C   UNL     1      -7.379  12.243  -1.784  1.00  0.00     0.029 A 
ATOM     65  C   UNL     1      -8.373  11.392  -2.237  1.00  0.00     0.049 A 
ATOM     66  H   UNL     1      -8.719   9.369  -1.740  1.00  0.00     0.167 HD
ATOM     67  C   UNL     1     -10.322  10.751  -3.634  1.00  0.00     0.074 A 
ATOM     68  C   UNL     1     -11.368  11.040  -4.595  1.00  0.00     0.031 C 
ATOM     69  C   UNL     1      -9.439  11.667  -3.166  1.00  0.00     0.037 A 
BRANCH  56  70
ATOM     70  C   UNL     1      -5.419   9.429   0.967  1.00  0.00     0.057 A 
ATOM     71  C   UNL     1      -5.571  10.242   2.099  1.00  0.00     0.134 A 
ATOM     72  C   UNL     1      -4.152   8.876   0.736  1.00  0.00     0.134 A 
ATOM     73  F   UNL     1      -6.754  10.810   2.376  1.00  0.00    -0.206 F 
ATOM     74  C   UNL     1      -4.508  10.486   2.971  1.00  0.00     0.040 A 
ATOM     75  C   UNL     1      -3.089   9.092   1.616  1.00  0.00     0.040 A 
ATOM     76  F   UNL     1      -3.943   8.080  -0.323  1.00  0.00    -0.206 F 
ATOM     77  C   UNL     1      -3.266   9.902   2.736  1.00  0.00     0.006 A 
ENDBRANCH  56  70
BRANCH  57  78
ATOM     78  C   UNL     1     -13.223   7.261  -4.868  1.00  0.00     0.057 A 
ATOM     79  C   UNL     1     -14.484   7.007  -4.312  1.00  0.00     0.134 A 
ATOM     80  C   UNL     1     -13.098   7.163  -6.257  1.00  0.00     0.134 A 
ATOM     81  F   UNL     1     -14.665   7.080  -2.985  1.00  0.00    -0.206 F 
ATOM     82  C   UNL     1     -15.572   6.642  -5.103  1.00  0.00     0.040 A 
ATOM     83  C   UNL     1     -14.185   6.823  -7.064  1.00  0.00     0.040 A 
ATOM     84  F   UNL     1     -11.921   7.413  -6.848  1.00  0.00    -0.206 F 
ATOM     85  C   UNL     1     -15.424   6.552  -6.486  1.00  0.00     0.006 A 
ENDBRANCH  57  78
BRANCH  69  86
ATOM     86  C   UNL     1      -9.590  13.065  -3.684  1.00  0.00     0.057 A 
ATOM     87  C   UNL     1      -8.684  13.591  -4.612  1.00  0.00     0.134 A 
ATOM     88  C   UNL     1     -10.642  13.890  -3.265  1.00  0.00     0.134 A 
ATOM     89  F   UNL     1      -7.654  12.852  -5.052  1.00  0.00    -0.206 F 
ATOM     90  C   UNL     1      -8.820  14.888  -5.108  1.00  0.00     0.040 A 
ATOM     91  C   UNL     1     -10.802  15.181  -3.771  1.00  0.00     0.040 A 
ATOM     92  F   UNL     1     -11.555  13.437  -2.392  1.00  0.00    -0.206 F 
ATOM     93  C   UNL     1      -9.886  15.684  -4.693  1.00  0.00     0.006 A 
ENDBRANCH  69  86
ENDBRANCH  43  44
ENDBRANCH  35  38
ENDBRANCH  33  34
ENDBRANCH  32  33
ENDBRANCH   1  32
TORSDOF 16
