REMARK SMILES O=C1O[C@@H](c2ccc(O)c(O)c2)[C@H](C(=O)NCCCNC(=O)c2ccc(-c3c4nc(c(-c5c(F)cccc5F)c5ccc([nH]5)c(-c5c(F)cccc5F)c5nc(c(-c6c(F)cccc6F)c6ccc3[nH]6)C=C5)C=C4)cc2)/C1=C\c1ccc(O)c(O)c1
REMARK SMILES IDX 18 1 17 2 16 3 14 4 15 5 13 7 1 8 2 9 3 10 77 11 4 12 78 13
REMARK SMILES IDX 5 14 6 15 12 16 7 17 10 18 8 19 11 20 9 22 79 24 80 25 86 26
REMARK SMILES IDX 81 27 84 28 82 29 85 30 83 32 19 34 20 35 21 36 22 38 23 39
REMARK SMILES IDX 24 40 76 41 25 42 75 43 26 44 27 45 28 46 69 47 29 48 74 49
REMARK SMILES IDX 68 50 70 51 30 52 73 53 67 54 66 55 31 57 57 58 40 59 56 60
REMARK SMILES IDX 41 61 44 62 55 63 71 64 42 65 43 66 54 68 72 69 45 70 32 71
REMARK SMILES IDX 33 72 38 73 34 74 35 75 37 76 39 77 36 78 58 79 59 80 64 81
REMARK SMILES IDX 60 82 61 83 63 84 65 85 62 86 46 87 47 88 52 89 48 90 49 91
REMARK SMILES IDX 51 92 53 93 50 94
REMARK H PARENT 16 6 11 21 9 23 85 31 83 33 20 37 70 56 44 67
REMARK Flexibility Score: inf
ROOT
ATOM      1  C   UNL     1       5.181   1.408   1.501  1.00  0.00     0.042 C 
ENDROOT
BRANCH   1   2
ATOM      2  C   UNL     1       4.031   0.419   1.556  1.00  0.00     0.117 C 
BRANCH   2   3
ATOM      3  N   UNL     1       2.825   0.957   2.157  1.00  0.00    -0.355 N 
ATOM      4  C   UNL     1       1.550   1.092   1.686  1.00  0.00     0.231 C 
ATOM      5  O   UNL     1       0.708   1.456   2.510  1.00  0.00    -0.274 OA
ATOM      6  H   UNL     1       2.949   1.286   3.077  1.00  0.00     0.163 HD
BRANCH   4   7
ATOM      7  C   UNL     1       1.224   0.917   0.199  1.00  0.00     0.161 C 
ATOM      8  O   UNL     1      -1.904  -0.790  -0.110  1.00  0.00    -0.247 OA
ATOM      9  C   UNL     1      -0.742  -0.424  -0.136  1.00  0.00     0.335 C 
ATOM     10  O   UNL     1       0.329  -1.236  -0.285  1.00  0.00    -0.453 OA
ATOM     11  C   UNL     1      -0.250   0.960  -0.039  1.00  0.00     0.054 C 
ATOM     12  C   UNL     1       1.548  -0.476  -0.335  1.00  0.00     0.224 C 
ATOM     13  C   UNL     1      -1.109   1.977  -0.203  1.00  0.00     0.020 C 
BRANCH  12  14
ATOM     14  C   UNL     1       2.173  -0.486  -1.732  1.00  0.00    -0.002 A 
ATOM     15  C   UNL     1       3.241   0.380  -2.065  1.00  0.00     0.012 A 
ATOM     16  C   UNL     1       1.762  -1.416  -2.698  1.00  0.00     0.057 A 
ATOM     17  C   UNL     1       3.878   0.322  -3.309  1.00  0.00     0.050 A 
ATOM     18  C   UNL     1       2.390  -1.459  -3.938  1.00  0.00     0.157 A 
ATOM     19  C   UNL     1       3.444  -0.604  -4.243  1.00  0.00     0.157 A 
BRANCH  18  20
ATOM     20  O   UNL     1       1.966  -2.367  -4.865  1.00  0.00    -0.504 OA
ATOM     21  H   UNL     1       2.379  -2.408  -5.705  1.00  0.00     0.293 HD
ENDBRANCH  18  20
BRANCH  19  22
ATOM     22  O   UNL     1       4.027  -0.717  -5.473  1.00  0.00    -0.504 OA
ATOM     23  H   UNL     1       4.739  -0.155  -5.708  1.00  0.00     0.293 HD
ENDBRANCH  19  22
ENDBRANCH  12  14
BRANCH  13  24
ATOM     24  C   UNL     1      -0.746   3.392  -0.159  1.00  0.00    -0.021 A 
ATOM     25  C   UNL     1       0.115   3.950  -1.117  1.00  0.00     0.012 A 
ATOM     26  C   UNL     1      -1.312   4.209   0.825  1.00  0.00     0.058 A 
ATOM     27  C   UNL     1       0.434   5.311  -1.078  1.00  0.00     0.051 A 
ATOM     28  C   UNL     1      -0.996   5.560   0.852  1.00  0.00     0.157 A 
ATOM     29  C   UNL     1      -0.126   6.108  -0.087  1.00  0.00     0.157 A 
BRANCH  28  30
ATOM     30  O   UNL     1      -1.555   6.356   1.810  1.00  0.00    -0.504 OA
ATOM     31  H   UNL     1      -1.349   7.270   1.838  1.00  0.00     0.293 HD
ENDBRANCH  28  30
BRANCH  29  32
ATOM     32  O   UNL     1       0.145   7.446   0.003  1.00  0.00    -0.504 OA
ATOM     33  H   UNL     1       0.726   7.848  -0.612  1.00  0.00     0.293 HD
ENDBRANCH  29  32
ENDBRANCH  13  24
ENDBRANCH   4   7
ENDBRANCH   2   3
ENDBRANCH   1   2
BRANCH   1  34
ATOM     34  C   UNL     1       5.727   1.793   2.867  1.00  0.00     0.118 C 
BRANCH  34  35
ATOM     35  N   UNL     1       6.237   0.648   3.611  1.00  0.00    -0.352 N 
ATOM     36  C   UNL     1       7.515   0.328   3.999  1.00  0.00     0.251 C 
ATOM     37  H   UNL     1       5.552  -0.005   3.880  1.00  0.00     0.163 HD
ATOM     38  O   UNL     1       7.751  -0.793   4.439  1.00  0.00    -0.269 OA
BRANCH  36  39
ATOM     39  C   UNL     1       8.610   1.312   3.867  1.00  0.00     0.039 A 
ATOM     40  C   UNL     1       9.870   0.872   3.455  1.00  0.00     0.014 A 
ATOM     41  C   UNL     1       8.405   2.662   4.162  1.00  0.00     0.014 A 
ATOM     42  C   UNL     1      10.897   1.798   3.259  1.00  0.00     0.010 A 
ATOM     43  C   UNL     1       9.394   3.593   3.869  1.00  0.00     0.010 A 
ATOM     44  C   UNL     1      10.653   3.172   3.417  1.00  0.00    -0.014 A 
BRANCH  44  45
ATOM     45  C   UNL     1      11.694   4.183   3.105  1.00  0.00     0.031 A 
ATOM     46  C   UNL     1      12.192   5.114   4.178  1.00  0.00     0.074 A 
ATOM     47  C   UNL     1      12.131   4.316   1.837  1.00  0.00     0.049 A 
ATOM     48  N   UNL     1      13.033   6.112   4.079  1.00  0.00    -0.248 NA
ATOM     49  C   UNL     1      11.652   4.920   5.533  1.00  0.00     0.031 C 
ATOM     50  C   UNL     1      11.681   3.513   0.697  1.00  0.00     0.029 A 
ATOM     51  N   UNL     1      13.041   5.185   1.288  1.00  0.00    -0.354 N 
ATOM     52  C   UNL     1      13.106   6.673   5.347  1.00  0.00     0.074 A 
ATOM     53  C   UNL     1      12.187   5.939   6.189  1.00  0.00     0.031 C 
ATOM     54  C   UNL     1      12.329   3.913  -0.408  1.00  0.00     0.029 A 
ATOM     55  C   UNL     1      13.204   5.029  -0.068  1.00  0.00     0.049 A 
ATOM     56  H   UNL     1      13.530   5.856   1.816  1.00  0.00     0.167 HD
ATOM     57  C   UNL     1      13.883   7.696   5.775  1.00  0.00     0.037 A 
ATOM     58  C   UNL     1      13.961   5.719  -0.942  1.00  0.00     0.037 A 
ATOM     59  C   UNL     1      14.820   8.400   4.941  1.00  0.00     0.049 A 
ATOM     60  C   UNL     1      14.818   6.847  -0.436  1.00  0.00     0.074 A 
ATOM     61  C   UNL     1      15.716   9.391   5.303  1.00  0.00     0.029 A 
ATOM     62  N   UNL     1      14.978   8.194   3.579  1.00  0.00    -0.354 N 
ATOM     63  N   UNL     1      14.943   7.306   0.785  1.00  0.00    -0.248 NA
ATOM     64  C   UNL     1      15.644   7.549  -1.428  1.00  0.00     0.031 C 
ATOM     65  C   UNL     1      16.371   9.829   4.148  1.00  0.00     0.029 A 
ATOM     66  C   UNL     1      15.930   9.067   3.079  1.00  0.00     0.049 A 
ATOM     67  H   UNL     1      14.486   7.528   3.047  1.00  0.00     0.167 HD
ATOM     68  C   UNL     1      15.880   8.329   0.713  1.00  0.00     0.074 A 
ATOM     69  C   UNL     1      16.305   8.410  -0.668  1.00  0.00     0.031 C 
ATOM     70  C   UNL     1      16.346   9.132   1.701  1.00  0.00     0.037 A 
BRANCH  57  71
ATOM     71  C   UNL     1      13.757   8.121   7.210  1.00  0.00     0.057 A 
ATOM     72  C   UNL     1      14.216   7.323   8.266  1.00  0.00     0.134 A 
ATOM     73  C   UNL     1      13.228   9.378   7.534  1.00  0.00     0.134 A 
ATOM     74  F   UNL     1      14.724   6.105   8.026  1.00  0.00    -0.206 F 
ATOM     75  C   UNL     1      14.138   7.751   9.592  1.00  0.00     0.040 A 
ATOM     76  C   UNL     1      13.171   9.828   8.854  1.00  0.00     0.040 A 
ATOM     77  F   UNL     1      12.775  10.195   6.572  1.00  0.00    -0.206 F 
ATOM     78  C   UNL     1      13.623   9.012   9.888  1.00  0.00     0.006 A 
ENDBRANCH  57  71
BRANCH  58  79
ATOM     79  C   UNL     1      13.944   5.369  -2.386  1.00  0.00     0.057 A 
ATOM     80  C   UNL     1      15.072   4.833  -3.018  1.00  0.00     0.134 A 
ATOM     81  C   UNL     1      12.808   5.588  -3.176  1.00  0.00     0.134 A 
ATOM     82  F   UNL     1      16.196   4.614  -2.320  1.00  0.00    -0.206 F 
ATOM     83  C   UNL     1      15.083   4.557  -4.387  1.00  0.00     0.040 A 
ATOM     84  C   UNL     1      12.796   5.288  -4.540  1.00  0.00     0.040 A 
ATOM     85  F   UNL     1      11.689   6.088  -2.632  1.00  0.00    -0.206 F 
ATOM     86  C   UNL     1      13.940   4.782  -5.151  1.00  0.00     0.006 A 
ENDBRANCH  58  79
BRANCH  70  87
ATOM     87  C   UNL     1      17.393  10.143   1.332  1.00  0.00     0.057 A 
ATOM     88  C   UNL     1      17.094  11.269   0.555  1.00  0.00     0.134 A 
ATOM     89  C   UNL     1      18.707  10.008   1.797  1.00  0.00     0.134 A 
ATOM     90  F   UNL     1      15.857  11.451   0.068  1.00  0.00    -0.206 F 
ATOM     91  C   UNL     1      18.072  12.212   0.232  1.00  0.00     0.040 A 
ATOM     92  C   UNL     1      19.686  10.960   1.508  1.00  0.00     0.040 A 
ATOM     93  F   UNL     1      19.058   8.959   2.555  1.00  0.00    -0.206 F 
ATOM     94  C   UNL     1      19.370  12.062   0.716  1.00  0.00     0.006 A 
ENDBRANCH  70  87
ENDBRANCH  44  45
ENDBRANCH  36  39
ENDBRANCH  34  35
ENDBRANCH   1  34
TORSDOF 16
