REMARK SMILES O=C(NCCCNC(=O)[C@H](c1c[nH]c2cc(F)ccc12)[NH+]1CC[NH+](CC(=O)N2CCOCC2)CC1)c1ccc(-c2c3nc(c(-c4c(F)cccc4F)c4ccc([nH]4)c(-c4c(F)cccc4F)c4nc(c(-c5c(F)cccc5F)c5ccc2[nH]5)C=C4)C=C3)cc1
REMARK SMILES IDX 5 1 4 2 3 3 1 4 2 5 36 7 37 8 89 9 38 10 88 11 39 12 40 13
REMARK SMILES IDX 41 14 82 15 42 16 87 17 81 18 83 19 43 20 86 21 80 22 79 23
REMARK SMILES IDX 44 25 70 26 53 27 69 28 54 29 57 30 68 31 84 32 55 33 56 34
REMARK SMILES IDX 67 36 85 37 58 38 45 39 46 40 51 41 47 42 48 43 50 44 52 45
REMARK SMILES IDX 49 46 71 47 72 48 77 49 73 50 74 51 76 52 78 53 75 54 59 55
REMARK SMILES IDX 60 56 65 57 61 58 62 59 64 60 66 61 63 62 6 63 7 64 8 65
REMARK SMILES IDX 9 67 10 68 21 69 22 70 35 71 23 73 34 74 24 75 25 77 26 78
REMARK SMILES IDX 27 79 28 80 29 81 33 82 30 83 32 84 31 85 11 86 12 87 20 88
REMARK SMILES IDX 13 89 14 90 19 91 15 93 18 94 16 95 17 96
REMARK H PARENT 3 6 83 24 57 35 7 66 21 72 24 76 13 92
REMARK Flexibility Score: inf
ROOT
ATOM      1  C   UNL     1       9.199   4.725  -4.938  1.00  0.00     0.042 C 
ENDROOT
BRANCH   1   2
ATOM      2  C   UNL     1      10.616   4.386  -4.533  1.00  0.00     0.118 C 
BRANCH   2   3
ATOM      3  N   UNL     1      11.569   4.882  -5.514  1.00  0.00    -0.352 N 
ATOM      4  O   UNL     1      12.853   6.449  -6.498  1.00  0.00    -0.269 OA
ATOM      5  C   UNL     1      12.357   6.009  -5.470  1.00  0.00     0.251 C 
ATOM      6  H   UNL     1      11.664   4.332  -6.325  1.00  0.00     0.163 HD
BRANCH   5   7
ATOM      7  C   UNL     1      12.594   6.682  -4.174  1.00  0.00     0.039 A 
ATOM      8  C   UNL     1      12.695   5.925  -3.010  1.00  0.00     0.014 A 
ATOM      9  C   UNL     1      12.751   8.070  -4.114  1.00  0.00     0.014 A 
ATOM     10  C   UNL     1      12.733   6.550  -1.780  1.00  0.00     0.010 A 
ATOM     11  C   UNL     1      12.985   8.688  -2.880  1.00  0.00     0.010 A 
ATOM     12  C   UNL     1      12.967   7.930  -1.700  1.00  0.00    -0.014 A 
BRANCH  12  13
ATOM     13  C   UNL     1      13.328   8.479  -0.369  1.00  0.00     0.031 A 
ATOM     14  C   UNL     1      12.517   9.549   0.296  1.00  0.00     0.074 A 
ATOM     15  C   UNL     1      14.379   7.918   0.267  1.00  0.00     0.049 A 
ATOM     16  N   UNL     1      12.683  10.080   1.481  1.00  0.00    -0.248 NA
ATOM     17  C   UNL     1      11.386  10.108  -0.459  1.00  0.00     0.031 C 
ATOM     18  C   UNL     1      15.252   6.882  -0.303  1.00  0.00     0.029 A 
ATOM     19  N   UNL     1      14.864   8.086   1.536  1.00  0.00    -0.354 N 
ATOM     20  C   UNL     1      11.691  11.042   1.610  1.00  0.00     0.074 A 
ATOM     21  C   UNL     1      10.945  11.046   0.369  1.00  0.00     0.031 C 
ATOM     22  C   UNL     1      16.094   6.442   0.638  1.00  0.00     0.029 A 
ATOM     23  C   UNL     1      15.905   7.240   1.839  1.00  0.00     0.049 A 
ATOM     24  H   UNL     1      14.504   8.749   2.169  1.00  0.00     0.167 HD
ATOM     25  C   UNL     1      11.429  11.839   2.674  1.00  0.00     0.037 A 
ATOM     26  C   UNL     1      16.652   7.135   2.951  1.00  0.00     0.037 A 
ATOM     27  C   UNL     1      12.181  11.817   3.904  1.00  0.00     0.049 A 
ATOM     28  C   UNL     1      16.349   8.050   4.097  1.00  0.00     0.074 A 
ATOM     29  C   UNL     1      11.998  12.585   5.041  1.00  0.00     0.029 A 
ATOM     30  N   UNL     1      13.259  10.981   4.160  1.00  0.00    -0.354 N 
ATOM     31  N   UNL     1      15.403   8.951   4.204  1.00  0.00    -0.248 NA
ATOM     32  C   UNL     1      17.220   7.941   5.272  1.00  0.00     0.031 C 
ATOM     33  C   UNL     1      12.992  12.246   5.965  1.00  0.00     0.029 A 
ATOM     34  C   UNL     1      13.760  11.226   5.429  1.00  0.00     0.049 A 
ATOM     35  H   UNL     1      13.616  10.312   3.531  1.00  0.00     0.167 HD
ATOM     36  C   UNL     1      15.561   9.516   5.460  1.00  0.00     0.074 A 
ATOM     37  C   UNL     1      16.666   8.822   6.091  1.00  0.00     0.031 C 
ATOM     38  C   UNL     1      14.866  10.527   6.035  1.00  0.00     0.037 A 
BRANCH  25  39
ATOM     39  C   UNL     1      10.291  12.813   2.553  1.00  0.00     0.057 A 
ATOM     40  C   UNL     1       8.955  12.393   2.549  1.00  0.00     0.134 A 
ATOM     41  C   UNL     1      10.533  14.192   2.501  1.00  0.00     0.134 A 
ATOM     42  F   UNL     1       8.652  11.086   2.586  1.00  0.00    -0.206 F 
ATOM     43  C   UNL     1       7.901  13.308   2.482  1.00  0.00     0.040 A 
ATOM     44  C   UNL     1       9.488  15.117   2.460  1.00  0.00     0.040 A 
ATOM     45  F   UNL     1      11.788  14.665   2.506  1.00  0.00    -0.206 F 
ATOM     46  C   UNL     1       8.166  14.675   2.447  1.00  0.00     0.006 A 
ENDBRANCH  25  39
BRANCH  26  47
ATOM     47  C   UNL     1      17.781   6.170   3.004  1.00  0.00     0.057 A 
ATOM     48  C   UNL     1      17.784   5.094   3.898  1.00  0.00     0.134 A 
ATOM     49  C   UNL     1      18.892   6.309   2.161  1.00  0.00     0.134 A 
ATOM     50  F   UNL     1      16.757   4.912   4.740  1.00  0.00    -0.206 F 
ATOM     51  C   UNL     1      18.862   4.210   3.972  1.00  0.00     0.040 A 
ATOM     52  C   UNL     1      19.958   5.410   2.197  1.00  0.00     0.040 A 
ATOM     53  F   UNL     1      18.948   7.311   1.271  1.00  0.00    -0.206 F 
ATOM     54  C   UNL     1      19.950   4.364   3.115  1.00  0.00     0.006 A 
ENDBRANCH  26  47
BRANCH  38  55
ATOM     55  C   UNL     1      15.277  10.912   7.425  1.00  0.00     0.057 A 
ATOM     56  C   UNL     1      16.499  11.548   7.686  1.00  0.00     0.134 A 
ATOM     57  C   UNL     1      14.448  10.630   8.517  1.00  0.00     0.134 A 
ATOM     58  F   UNL     1      17.347  11.829   6.684  1.00  0.00    -0.206 F 
ATOM     59  C   UNL     1      16.899  11.850   8.988  1.00  0.00     0.040 A 
ATOM     60  C   UNL     1      14.822  10.959   9.820  1.00  0.00     0.040 A 
ATOM     61  F   UNL     1      13.262  10.030   8.336  1.00  0.00    -0.206 F 
ATOM     62  C   UNL     1      16.057  11.559  10.059  1.00  0.00     0.006 A 
ENDBRANCH  38  55
ENDBRANCH  12  13
ENDBRANCH   5   7
ENDBRANCH   2   3
ENDBRANCH   1   2
BRANCH   1  63
ATOM     63  C   UNL     1       8.682   3.772  -6.007  1.00  0.00     0.118 C 
BRANCH  63  64
ATOM     64  N   UNL     1       8.484   2.436  -5.451  1.00  0.00    -0.351 N 
ATOM     65  C   UNL     1       7.506   2.025  -4.557  1.00  0.00     0.283 C 
ATOM     66  H   UNL     1       9.120   1.745  -5.746  1.00  0.00     0.163 HD
ATOM     67  O   UNL     1       7.596   0.898  -4.067  1.00  0.00    -0.268 OA
BRANCH  65  68
ATOM     68  C   UNL     1       6.361   3.002  -4.271  1.00  0.00     0.308 C 
BRANCH  68  69
ATOM     69  N   UNL     1       5.123   2.675  -4.979  1.00  0.00    -0.312 N 
ATOM     70  C   UNL     1       4.396   1.416  -4.810  1.00  0.00     0.325 C 
ATOM     71  C   UNL     1       4.228   3.809  -5.037  1.00  0.00     0.325 C 
ATOM     72  H   UNL     1       5.554   2.440  -5.874  1.00  0.00     0.349 HD
ATOM     73  C   UNL     1       2.972   1.468  -4.139  1.00  0.00     0.325 C 
ATOM     74  C   UNL     1       3.188   3.834  -3.911  1.00  0.00     0.325 C 
ATOM     75  N   UNL     1       2.247   2.752  -4.088  1.00  0.00    -0.318 N 
ATOM     76  H   UNL     1       1.650   2.639  -3.268  1.00  0.00     0.348 HD
BRANCH  75  77
ATOM     77  C   UNL     1       1.169   3.046  -5.049  1.00  0.00     0.364 C 
BRANCH  77  78
ATOM     78  C   UNL     1       1.494   3.251  -6.545  1.00  0.00     0.277 C 
ATOM     79  O   UNL     1       1.581   2.264  -7.285  1.00  0.00    -0.268 OA
ATOM     80  N   UNL     1       1.542   4.558  -7.080  1.00  0.00    -0.333 N 
ATOM     81  C   UNL     1       2.315   5.666  -6.500  1.00  0.00     0.148 C 
ATOM     82  C   UNL     1       1.395   4.674  -8.531  1.00  0.00     0.148 C 
ATOM     83  C   UNL     1       2.050   7.058  -7.072  1.00  0.00     0.181 C 
ATOM     84  C   UNL     1       1.023   6.102  -8.944  1.00  0.00     0.181 C 
ATOM     85  O   UNL     1       2.015   7.037  -8.499  1.00  0.00    -0.378 OA
ENDBRANCH  77  78
ENDBRANCH  75  77
ENDBRANCH  68  69
BRANCH  68  86
ATOM     86  C   UNL     1       6.187   3.544  -2.877  1.00  0.00     0.044 A 
ATOM     87  C   UNL     1       5.866   2.891  -1.703  1.00  0.00     0.094 A 
ATOM     88  C   UNL     1       6.186   4.963  -2.564  1.00  0.00     0.009 A 
ATOM     89  N   UNL     1       5.613   3.834  -0.736  1.00  0.00    -0.361 N 
ATOM     90  C   UNL     1       5.796   5.105  -1.235  1.00  0.00     0.049 A 
ATOM     91  C   UNL     1       6.409   6.139  -3.326  1.00  0.00     0.014 A 
ATOM     92  H   UNL     1       5.339   3.630   0.188  1.00  0.00     0.166 HD
ATOM     93  C   UNL     1       5.621   6.362  -0.637  1.00  0.00     0.065 A 
ATOM     94  C   UNL     1       6.268   7.397  -2.741  1.00  0.00     0.040 A 
ATOM     95  C   UNL     1       5.875   7.493  -1.417  1.00  0.00     0.125 A 
ATOM     96  F   UNL     1       5.723   8.710  -0.878  1.00  0.00    -0.207 F 
ENDBRANCH  68  86
ENDBRANCH  65  68
ENDBRANCH  63  64
ENDBRANCH   1  63
TORSDOF 14
