REMARK SMILES O=C(CCC(=O)Nc1ccc(N2CCN(c3ccc(F)cc3)CC2)cc1)NCCCNC(=O)c1ccc(-c2c3nc(c(-c4c(F)cccc4F)c4ccc([nH]4)c(-c4c(F)cccc4F)c4nc(c(-c5c(F)cccc5F)c5ccc2[nH]5)C=C4)C=C3)cc1
REMARK SMILES IDX 1 1 2 2 27 3 3 5 4 6 5 7 6 8 7 9 8 11 9 12 26 13 10 14 25 15
REMARK SMILES IDX 11 16 12 17 13 18 24 19 14 20 23 21 15 22 16 23 17 24 22 25
REMARK SMILES IDX 18 26 21 27 19 28 20 29 28 30 29 31 30 32 31 33 32 34 33 36
REMARK SMILES IDX 34 37 35 38 87 39 36 40 86 41 37 42 38 43 39 44 80 45 40 46
REMARK SMILES IDX 85 47 79 48 81 49 41 50 84 51 78 52 77 53 42 55 68 56 51 57
REMARK SMILES IDX 67 58 52 59 55 60 66 61 82 62 53 63 54 64 65 66 83 67 56 68
REMARK SMILES IDX 43 69 44 70 49 71 45 72 46 73 48 74 50 75 47 76 69 77 70 78
REMARK SMILES IDX 75 79 71 80 72 81 74 82 76 83 73 84 57 85 58 86 63 87 59 88
REMARK SMILES IDX 60 89 62 90 64 91 61 92
REMARK H PARENT 27 4 7 10 31 35 81 54 55 65
REMARK Flexibility Score: inf
ROOT
ATOM      1  O   UNL     1       1.611   1.397   0.131  1.00  0.00    -0.275 OA
ATOM      2  C   UNL     1       2.766   1.055  -0.099  1.00  0.00     0.220 C 
ATOM      3  N   UNL     1       3.194   0.526  -1.296  1.00  0.00    -0.356 N 
ATOM      4  H   UNL     1       4.161   0.424  -1.452  1.00  0.00     0.163 HD
ENDROOT
BRANCH   2   5
ATOM      5  C   UNL     1       3.845   1.119   0.958  1.00  0.00     0.110 C 
BRANCH   5   6
ATOM      6  C   UNL     1       4.003  -0.190   1.728  1.00  0.00     0.110 C 
BRANCH   6   7
ATOM      7  C   UNL     1       4.589  -1.303   0.893  1.00  0.00     0.224 C 
ATOM      8  O   UNL     1       5.813  -1.316   0.700  1.00  0.00    -0.275 OA
ATOM      9  N   UNL     1       3.870  -2.273   0.267  1.00  0.00    -0.326 N 
ATOM     10  H   UNL     1       4.440  -2.991  -0.091  1.00  0.00     0.169 HD
BRANCH   9  11
ATOM     11  C   UNL     1       2.504  -2.495   0.007  1.00  0.00     0.041 A 
ATOM     12  C   UNL     1       2.211  -3.446  -0.982  1.00  0.00     0.028 A 
ATOM     13  C   UNL     1       1.444  -1.775   0.542  1.00  0.00     0.028 A 
ATOM     14  C   UNL     1       0.916  -3.562  -1.508  1.00  0.00     0.028 A 
ATOM     15  C   UNL     1       0.156  -1.882   0.002  1.00  0.00     0.028 A 
ATOM     16  C   UNL     1      -0.120  -2.744  -1.056  1.00  0.00     0.037 A 
BRANCH  16  17
ATOM     17  N   UNL     1      -1.362  -2.814  -1.665  1.00  0.00    -0.368 N 
ATOM     18  C   UNL     1      -2.410  -3.561  -0.944  1.00  0.00     0.138 C 
ATOM     19  C   UNL     1      -1.850  -1.634  -2.413  1.00  0.00     0.138 C 
ATOM     20  C   UNL     1      -3.255  -2.633  -0.042  1.00  0.00     0.138 C 
ATOM     21  C   UNL     1      -2.794  -0.730  -1.583  1.00  0.00     0.138 C 
ATOM     22  N   UNL     1      -3.797  -1.503  -0.826  1.00  0.00    -0.368 N 
BRANCH  22  23
ATOM     23  C   UNL     1      -5.127  -1.568  -1.196  1.00  0.00     0.037 A 
ATOM     24  C   UNL     1      -6.118  -1.649  -0.201  1.00  0.00     0.029 A 
ATOM     25  C   UNL     1      -5.546  -1.583  -2.533  1.00  0.00     0.029 A 
ATOM     26  C   UNL     1      -7.472  -1.760  -0.522  1.00  0.00     0.041 A 
ATOM     27  C   UNL     1      -6.900  -1.707  -2.864  1.00  0.00     0.041 A 
ATOM     28  C   UNL     1      -7.849  -1.797  -1.855  1.00  0.00     0.123 A 
ATOM     29  F   UNL     1      -9.144  -1.923  -2.172  1.00  0.00    -0.207 F 
ENDBRANCH  22  23
ENDBRANCH  16  17
ENDBRANCH   9  11
ENDBRANCH   6   7
ENDBRANCH   5   6
ENDBRANCH   2   5
BRANCH   3  30
ATOM     30  C   UNL     1       2.271   0.114  -2.335  1.00  0.00     0.117 C 
BRANCH  30  31
ATOM     31  C   UNL     1       2.678   0.553  -3.727  1.00  0.00     0.042 C 
BRANCH  31  32
ATOM     32  C   UNL     1       4.085   0.148  -4.140  1.00  0.00     0.118 C 
BRANCH  32  33
ATOM     33  N   UNL     1       4.319  -1.290  -4.230  1.00  0.00    -0.352 N 
ATOM     34  C   UNL     1       5.039  -1.976  -5.189  1.00  0.00     0.251 C 
ATOM     35  H   UNL     1       3.914  -1.839  -3.520  1.00  0.00     0.163 HD
ATOM     36  O   UNL     1       5.134  -3.199  -5.154  1.00  0.00    -0.269 OA
BRANCH  34  37
ATOM     37  C   UNL     1       5.633  -1.210  -6.307  1.00  0.00     0.039 A 
ATOM     38  C   UNL     1       5.273  -1.537  -7.617  1.00  0.00     0.014 A 
ATOM     39  C   UNL     1       6.401  -0.074  -6.045  1.00  0.00     0.014 A 
ATOM     40  C   UNL     1       5.562  -0.643  -8.651  1.00  0.00     0.010 A 
ATOM     41  C   UNL     1       6.600   0.856  -7.058  1.00  0.00     0.010 A 
ATOM     42  C   UNL     1       6.153   0.599  -8.366  1.00  0.00    -0.014 A 
BRANCH  42  43
ATOM     43  C   UNL     1       6.271   1.675  -9.386  1.00  0.00     0.031 A 
ATOM     44  C   UNL     1       7.619   2.260  -9.703  1.00  0.00     0.074 A 
ATOM     45  C   UNL     1       5.162   2.222  -9.926  1.00  0.00     0.049 A 
ATOM     46  N   UNL     1       7.916   3.339 -10.381  1.00  0.00    -0.248 NA
ATOM     47  C   UNL     1       8.786   1.561  -9.142  1.00  0.00     0.031 C 
ATOM     48  C   UNL     1       3.785   1.793  -9.668  1.00  0.00     0.029 A 
ATOM     49  N   UNL     1       5.018   3.282 -10.789  1.00  0.00    -0.354 N 
ATOM     50  C   UNL     1       9.294   3.476 -10.284  1.00  0.00     0.074 A 
ATOM     51  C   UNL     1       9.771   2.388  -9.457  1.00  0.00     0.031 C 
ATOM     52  C   UNL     1       2.942   2.565 -10.372  1.00  0.00     0.029 A 
ATOM     53  C   UNL     1       3.709   3.575 -11.092  1.00  0.00     0.049 A 
ATOM     54  H   UNL     1       5.781   3.784 -11.156  1.00  0.00     0.167 HD
ATOM     55  C   UNL     1      10.094   4.415 -10.844  1.00  0.00     0.037 A 
ATOM     56  C   UNL     1       3.184   4.557 -11.850  1.00  0.00     0.037 A 
ATOM     57  C   UNL     1       9.631   5.458 -11.718  1.00  0.00     0.049 A 
ATOM     58  C   UNL     1       4.096   5.555 -12.505  1.00  0.00     0.074 A 
ATOM     59  C   UNL     1      10.374   6.412 -12.391  1.00  0.00     0.029 A 
ATOM     60  N   UNL     1       8.303   5.672 -12.055  1.00  0.00    -0.354 N 
ATOM     61  N   UNL     1       5.401   5.651 -12.431  1.00  0.00    -0.248 NA
ATOM     62  C   UNL     1       3.464   6.582 -13.347  1.00  0.00     0.031 C 
ATOM     63  C   UNL     1       9.494   7.216 -13.123  1.00  0.00     0.029 A 
ATOM     64  C   UNL     1       8.207   6.743 -12.927  1.00  0.00     0.049 A 
ATOM     65  H   UNL     1       7.543   5.142 -11.724  1.00  0.00     0.167 HD
ATOM     66  C   UNL     1       5.748   6.726 -13.238  1.00  0.00     0.074 A 
ATOM     67  C   UNL     1       4.519   7.250 -13.794  1.00  0.00     0.031 C 
ATOM     68  C   UNL     1       6.978   7.234 -13.493  1.00  0.00     0.037 A 
BRANCH  55  69
ATOM     69  C   UNL     1      11.558   4.345 -10.531  1.00  0.00     0.057 A 
ATOM     70  C   UNL     1      12.380   3.347 -11.069  1.00  0.00     0.134 A 
ATOM     71  C   UNL     1      12.156   5.299  -9.699  1.00  0.00     0.134 A 
ATOM     72  F   UNL     1      11.863   2.395 -11.861  1.00  0.00    -0.206 F 
ATOM     73  C   UNL     1      13.741   3.283 -10.768  1.00  0.00     0.040 A 
ATOM     74  C   UNL     1      13.521   5.261  -9.410  1.00  0.00     0.040 A 
ATOM     75  F   UNL     1      11.425   6.284  -9.155  1.00  0.00    -0.206 F 
ATOM     76  C   UNL     1      14.316   4.246  -9.940  1.00  0.00     0.006 A 
ENDBRANCH  55  69
BRANCH  56  77
ATOM     77  C   UNL     1       1.716   4.636 -12.052  1.00  0.00     0.057 A 
ATOM     78  C   UNL     1       1.144   4.281 -13.279  1.00  0.00     0.134 A 
ATOM     79  C   UNL     1       0.855   5.071 -11.038  1.00  0.00     0.134 A 
ATOM     80  F   UNL     1       1.922   3.876 -14.294  1.00  0.00    -0.206 F 
ATOM     81  C   UNL     1      -0.232   4.370 -13.498  1.00  0.00     0.040 A 
ATOM     82  C   UNL     1      -0.525   5.146 -11.236  1.00  0.00     0.040 A 
ATOM     83  F   UNL     1       1.343   5.418  -9.838  1.00  0.00    -0.206 F 
ATOM     84  C   UNL     1      -1.071   4.801 -12.472  1.00  0.00     0.006 A 
ENDBRANCH  56  77
BRANCH  68  85
ATOM     85  C   UNL     1       7.065   8.378 -14.455  1.00  0.00     0.057 A 
ATOM     86  C   UNL     1       6.729   9.684 -14.080  1.00  0.00     0.134 A 
ATOM     87  C   UNL     1       7.550   8.177 -15.753  1.00  0.00     0.134 A 
ATOM     88  F   UNL     1       6.247   9.936 -12.854  1.00  0.00    -0.206 F 
ATOM     89  C   UNL     1       6.864  10.752 -14.968  1.00  0.00     0.040 A 
ATOM     90  C   UNL     1       7.706   9.239 -16.644  1.00  0.00     0.040 A 
ATOM     91  F   UNL     1       7.893   6.949 -16.169  1.00  0.00    -0.206 F 
ATOM     92  C   UNL     1       7.362  10.531 -16.252  1.00  0.00     0.006 A 
ENDBRANCH  68  85
ENDBRANCH  42  43
ENDBRANCH  34  37
ENDBRANCH  32  33
ENDBRANCH  31  32
ENDBRANCH  30  31
ENDBRANCH   3  30
TORSDOF 15
