REMARK SMILES O=C(NCCCNC(=O)c1ccc(-c2c3nc(c(-c4c(F)cccc4F)c4ccc([nH]4)c(-c4c(F)cccc4F)c4nc(c(-c5c(F)cccc5F)c5ccc2[nH]5)C=C4)C=C3)cc1)c1ccc(NS(=O)(=O)C2=Cc3ccccc3CC2)cc1
REMARK SMILES IDX 4 1 3 2 1 3 2 4 64 6 65 7 83 8 66 9 82 10 67 11 68 12 69 14
REMARK SMILES IDX 70 15 71 16 72 17 73 18 81 19 74 20 80 21 75 22 79 23 76 24
REMARK SMILES IDX 78 25 77 26 5 27 6 28 7 29 8 30 9 32 10 33 11 34 63 35 12 36
REMARK SMILES IDX 62 37 13 38 14 39 15 40 56 41 16 42 61 43 55 44 57 45 17 46
REMARK SMILES IDX 60 47 54 48 53 49 18 51 44 52 27 53 43 54 28 55 31 56 42 57
REMARK SMILES IDX 58 58 29 59 30 60 41 62 59 63 32 64 19 65 20 66 25 67 21 68
REMARK SMILES IDX 22 69 24 70 26 71 23 72 45 73 46 74 51 75 47 76 48 77 50 78
REMARK SMILES IDX 52 79 49 80 33 81 34 82 39 83 35 84 36 85 38 86 40 87 37 88
REMARK H PARENT 3 5 68 13 7 31 57 50 31 61
REMARK Flexibility Score: inf
ROOT
ATOM      1  C   UNL     1       4.455   0.076  -1.403  1.00  0.00     0.118 C 
ENDROOT
BRANCH   1   2
ATOM      2  N   UNL     1       3.016   0.016  -1.195  1.00  0.00    -0.352 N 
ATOM      3  O   UNL     1       1.105  -0.513  -0.132  1.00  0.00    -0.269 OA
ATOM      4  C   UNL     1       2.306  -0.270  -0.057  1.00  0.00     0.251 C 
ATOM      5  H   UNL     1       2.469   0.210  -1.991  1.00  0.00     0.163 HD
BRANCH   4   6
ATOM      6  C   UNL     1       2.970  -0.258   1.264  1.00  0.00     0.039 A 
ATOM      7  C   UNL     1       3.825   0.789   1.615  1.00  0.00     0.016 A 
ATOM      8  C   UNL     1       2.640  -1.231   2.213  1.00  0.00     0.016 A 
ATOM      9  C   UNL     1       4.384   0.837   2.889  1.00  0.00     0.027 A 
ATOM     10  C   UNL     1       3.208  -1.183   3.493  1.00  0.00     0.027 A 
ATOM     11  C   UNL     1       4.094  -0.153   3.828  1.00  0.00     0.049 A 
BRANCH  11  12
ATOM     12  N   UNL     1       4.548  -0.007   5.175  1.00  0.00    -0.280 N 
ATOM     13  H   UNL     1       3.896   0.151   5.896  1.00  0.00     0.180 HD
BRANCH  12  14
ATOM     14  S   UNL     1       6.208  -0.104   5.540  1.00  0.00     0.258 S 
ATOM     15  O   UNL     1       6.310   0.447   6.875  1.00  0.00    -0.202 OA
ATOM     16  O   UNL     1       6.557  -1.498   5.328  1.00  0.00    -0.202 OA
BRANCH  14  17
ATOM     17  C   UNL     1       7.102   0.897   4.389  1.00  0.00     0.066 C 
ATOM     18  C   UNL     1       7.535   2.093   4.847  1.00  0.00     0.026 C 
ATOM     19  C   UNL     1       8.062   0.138   3.505  1.00  0.00     0.055 C 
ATOM     20  C   UNL     1       8.908   2.065   5.429  1.00  0.00    -0.021 A 
ATOM     21  C   UNL     1       9.362  -0.153   4.267  1.00  0.00     0.041 C 
ATOM     22  C   UNL     1       9.322   3.119   6.249  1.00  0.00     0.008 A 
ATOM     23  C   UNL     1       9.780   0.986   5.173  1.00  0.00    -0.040 A 
ATOM     24  C   UNL     1      10.578   3.079   6.857  1.00  0.00     0.001 A 
ATOM     25  C   UNL     1      11.026   0.946   5.809  1.00  0.00     0.004 A 
ATOM     26  C   UNL     1      11.420   1.986   6.651  1.00  0.00     0.000 A 
ENDBRANCH  14  17
ENDBRANCH  12  14
ENDBRANCH  11  12
ENDBRANCH   4   6
ENDBRANCH   1   2
BRANCH   1  27
ATOM     27  C   UNL     1       4.934  -0.990  -2.378  1.00  0.00     0.042 C 
BRANCH  27  28
ATOM     28  C   UNL     1       4.373  -0.845  -3.787  1.00  0.00     0.118 C 
BRANCH  28  29
ATOM     29  N   UNL     1       4.828   0.365  -4.460  1.00  0.00    -0.352 N 
ATOM     30  C   UNL     1       5.675   0.529  -5.530  1.00  0.00     0.251 C 
ATOM     31  H   UNL     1       4.470   1.203  -4.087  1.00  0.00     0.163 HD
ATOM     32  O   UNL     1       6.064   1.655  -5.830  1.00  0.00    -0.269 OA
BRANCH  30  33
ATOM     33  C   UNL     1       6.154  -0.641  -6.297  1.00  0.00     0.039 A 
ATOM     34  C   UNL     1       7.502  -0.701  -6.665  1.00  0.00     0.014 A 
ATOM     35  C   UNL     1       5.291  -1.681  -6.647  1.00  0.00     0.014 A 
ATOM     36  C   UNL     1       8.002  -1.850  -7.282  1.00  0.00     0.010 A 
ATOM     37  C   UNL     1       5.805  -2.858  -7.179  1.00  0.00     0.010 A 
ATOM     38  C   UNL     1       7.170  -2.962  -7.487  1.00  0.00    -0.014 A 
BRANCH  38  39
ATOM     39  C   UNL     1       7.709  -4.257  -7.973  1.00  0.00     0.031 A 
ATOM     40  C   UNL     1       7.225  -4.847  -9.267  1.00  0.00     0.074 A 
ATOM     41  C   UNL     1       8.562  -4.950  -7.193  1.00  0.00     0.049 A 
ATOM     42  N   UNL     1       7.487  -6.018  -9.790  1.00  0.00    -0.248 NA
ATOM     43  C   UNL     1       6.302  -4.024 -10.065  1.00  0.00     0.031 C 
ATOM     44  C   UNL     1       9.066  -4.513  -5.889  1.00  0.00     0.029 A 
ATOM     45  N   UNL     1       9.141  -6.181  -7.374  1.00  0.00    -0.354 N 
ATOM     46  C   UNL     1       6.750  -6.080 -10.965  1.00  0.00     0.074 A 
ATOM     47  C   UNL     1       5.996  -4.848 -11.057  1.00  0.00     0.031 C 
ATOM     48  C   UNL     1       9.891  -5.451  -5.398  1.00  0.00     0.029 A 
ATOM     49  C   UNL     1       9.940  -6.573  -6.327  1.00  0.00     0.049 A 
ATOM     50  H   UNL     1       8.997  -6.731  -8.178  1.00  0.00     0.167 HD
ATOM     51  C   UNL     1       6.720  -7.066 -11.892  1.00  0.00     0.037 A 
ATOM     52  C   UNL     1      10.623  -7.716  -6.129  1.00  0.00     0.037 A 
ATOM     53  C   UNL     1       7.493  -8.278 -11.815  1.00  0.00     0.049 A 
ATOM     54  C   UNL     1      10.564  -8.799  -7.168  1.00  0.00     0.074 A 
ATOM     55  C   UNL     1       7.591  -9.299 -12.744  1.00  0.00     0.029 A 
ATOM     56  N   UNL     1       8.298  -8.633 -10.743  1.00  0.00    -0.354 N 
ATOM     57  N   UNL     1       9.915  -8.815  -8.306  1.00  0.00    -0.248 NA
ATOM     58  C   UNL     1      11.330 -10.023  -6.893  1.00  0.00     0.031 C 
ATOM     59  C   UNL     1       8.425 -10.291 -12.217  1.00  0.00     0.029 A 
ATOM     60  C   UNL     1       8.875  -9.870 -10.976  1.00  0.00     0.049 A 
ATOM     61  H   UNL     1       8.438  -8.086  -9.936  1.00  0.00     0.167 HD
ATOM     62  C   UNL     1      10.203 -10.041  -8.889  1.00  0.00     0.074 A 
ATOM     63  C   UNL     1      11.101 -10.734  -7.988  1.00  0.00     0.031 C 
ATOM     64  C   UNL     1       9.760 -10.549 -10.065  1.00  0.00     0.037 A 
BRANCH  51  65
ATOM     65  C   UNL     1       5.825  -6.871 -13.080  1.00  0.00     0.057 A 
ATOM     66  C   UNL     1       6.132  -5.951 -14.090  1.00  0.00     0.134 A 
ATOM     67  C   UNL     1       4.664  -7.638 -13.234  1.00  0.00     0.134 A 
ATOM     68  F   UNL     1       7.223  -5.177 -13.995  1.00  0.00    -0.206 F 
ATOM     69  C   UNL     1       5.305  -5.785 -15.202  1.00  0.00     0.040 A 
ATOM     70  C   UNL     1       3.841  -7.498 -14.353  1.00  0.00     0.040 A 
ATOM     71  F   UNL     1       4.314  -8.541 -12.305  1.00  0.00    -0.206 F 
ATOM     72  C   UNL     1       4.158  -6.566 -15.339  1.00  0.00     0.006 A 
ENDBRANCH  51  65
BRANCH  52  73
ATOM     73  C   UNL     1      11.428  -7.894  -4.896  1.00  0.00     0.057 A 
ATOM     74  C   UNL     1      12.827  -7.873  -4.941  1.00  0.00     0.134 A 
ATOM     75  C   UNL     1      10.825  -8.088  -3.648  1.00  0.00     0.134 A 
ATOM     76  F   UNL     1      13.461  -7.710  -6.112  1.00  0.00    -0.206 F 
ATOM     77  C   UNL     1      13.598  -8.053  -3.792  1.00  0.00     0.040 A 
ATOM     78  C   UNL     1      11.583  -8.248  -2.487  1.00  0.00     0.040 A 
ATOM     79  F   UNL     1       9.488  -8.110  -3.538  1.00  0.00    -0.206 F 
ATOM     80  C   UNL     1      12.975  -8.236  -2.559  1.00  0.00     0.006 A 
ENDBRANCH  52  73
BRANCH  64  81
ATOM     81  C   UNL     1      10.250 -11.914 -10.445  1.00  0.00     0.057 A 
ATOM     82  C   UNL     1       9.763 -13.068  -9.818  1.00  0.00     0.134 A 
ATOM     83  C   UNL     1      11.193 -12.078 -11.466  1.00  0.00     0.134 A 
ATOM     84  F   UNL     1       8.870 -12.975  -8.821  1.00  0.00    -0.206 F 
ATOM     85  C   UNL     1      10.211 -14.338 -10.183  1.00  0.00     0.040 A 
ATOM     86  C   UNL     1      11.632 -13.344 -11.855  1.00  0.00     0.040 A 
ATOM     87  F   UNL     1      11.694 -11.012 -12.109  1.00  0.00    -0.206 F 
ATOM     88  C   UNL     1      11.144 -14.478 -11.209  1.00  0.00     0.006 A 
ENDBRANCH  64  81
ENDBRANCH  38  39
ENDBRANCH  30  33
ENDBRANCH  28  29
ENDBRANCH  27  28
ENDBRANCH   1  27
TORSDOF 13
