REMARK SMILES CC[C@H]1SC[C@H](C(=O)NCCCNC(=O)c2ccc(-c3c4nc(c(-c5c(F)cccc5F)c5ccc([nH]5)c(-c5c(F)cccc5F)c5nc(c(-c6c(F)cccc6F)c6ccc3[nH]6)C=C5)C=C4)cc2)N1C(=O)Cc1ccc(F)c(F)c1
REMARK SMILES IDX 10 1 9 2 7 3 8 4 6 6 3 7 4 8 70 9 5 10 2 11 1 12 71 13 72 14
REMARK SMILES IDX 73 15 74 16 75 17 81 18 76 19 79 20 77 21 80 22 78 23 11 24
REMARK SMILES IDX 12 25 13 26 14 27 15 29 16 30 17 31 69 32 18 33 68 34 19 35
REMARK SMILES IDX 20 36 21 37 62 38 22 39 67 40 61 41 63 42 23 43 66 44 60 45
REMARK SMILES IDX 59 46 24 48 50 49 33 50 49 51 34 52 37 53 48 54 64 55 35 56
REMARK SMILES IDX 36 57 47 59 65 60 38 61 25 62 26 63 31 64 27 65 28 66 30 67
REMARK SMILES IDX 32 68 29 69 51 70 52 71 57 72 53 73 54 74 56 75 58 76 55 77
REMARK SMILES IDX 39 78 40 79 45 80 41 81 42 82 44 83 46 84 43 85
REMARK H PARENT 9 5 13 28 63 47 37 58
REMARK Flexibility Score: inf
ROOT
ATOM      1  C   UNL     1       5.500   1.166   1.775  1.00  0.00     0.117 C 
ENDROOT
BRANCH   1   2
ATOM      2  N   UNL     1       4.867   0.962   3.071  1.00  0.00    -0.354 N 
ATOM      3  C   UNL     1       3.696   0.296   3.355  1.00  0.00     0.243 C 
ATOM      4  O   UNL     1       3.408   0.077   4.531  1.00  0.00    -0.273 OA
ATOM      5  H   UNL     1       5.338   1.350   3.843  1.00  0.00     0.163 HD
BRANCH   3   6
ATOM      6  C   UNL     1       2.849  -0.184   2.162  1.00  0.00     0.185 C 
ATOM      7  C   UNL     1       1.071  -1.816   1.749  1.00  0.00     0.143 C 
ATOM      8  S   UNL     1       2.579  -2.800   1.601  1.00  0.00    -0.134 SA
ATOM      9  N   UNL     1       1.478  -0.623   2.470  1.00  0.00    -0.318 N 
ATOM     10  C   UNL     1       3.618  -1.340   1.491  1.00  0.00     0.107 C 
BRANCH   7  11
ATOM     11  C   UNL     1       0.492  -1.543   0.334  1.00  0.00     0.033 C 
ATOM     12  C   UNL     1       0.866  -0.233  -0.355  1.00  0.00     0.007 C 
ENDBRANCH   7  11
BRANCH   9  13
ATOM     13  C   UNL     1       0.601   0.249   3.096  1.00  0.00     0.228 C 
ATOM     14  O   UNL     1       0.868   1.446   3.223  1.00  0.00    -0.274 OA
BRANCH  13  15
ATOM     15  C   UNL     1      -0.699  -0.321   3.668  1.00  0.00     0.135 C 
BRANCH  15  16
ATOM     16  C   UNL     1      -1.819  -0.417   2.658  1.00  0.00    -0.036 A 
ATOM     17  C   UNL     1      -2.273   0.731   1.989  1.00  0.00     0.007 A 
ATOM     18  C   UNL     1      -2.390  -1.661   2.341  1.00  0.00     0.046 A 
ATOM     19  C   UNL     1      -3.222   0.627   0.968  1.00  0.00     0.043 A 
ATOM     20  C   UNL     1      -3.319  -1.757   1.308  1.00  0.00     0.159 A 
ATOM     21  C   UNL     1      -3.724  -0.622   0.619  1.00  0.00     0.158 A 
ATOM     22  F   UNL     1      -3.779  -2.964   0.952  1.00  0.00    -0.204 F 
ATOM     23  F   UNL     1      -4.586  -0.723  -0.401  1.00  0.00    -0.204 F 
ENDBRANCH  15  16
ENDBRANCH  13  15
ENDBRANCH   9  13
ENDBRANCH   3   6
ENDBRANCH   1   2
BRANCH   1  24
ATOM     24  C   UNL     1       5.747   2.623   1.440  1.00  0.00     0.042 C 
BRANCH  24  25
ATOM     25  C   UNL     1       6.700   3.324   2.393  1.00  0.00     0.118 C 
BRANCH  25  26
ATOM     26  N   UNL     1       8.019   2.705   2.434  1.00  0.00    -0.352 N 
ATOM     27  C   UNL     1       9.256   3.236   2.165  1.00  0.00     0.251 C 
ATOM     28  H   UNL     1       8.024   1.756   2.698  1.00  0.00     0.163 HD
ATOM     29  O   UNL     1      10.235   2.497   2.104  1.00  0.00    -0.269 OA
BRANCH  27  30
ATOM     30  C   UNL     1       9.409   4.685   1.918  1.00  0.00     0.039 A 
ATOM     31  C   UNL     1      10.263   5.110   0.897  1.00  0.00     0.014 A 
ATOM     32  C   UNL     1       8.714   5.624   2.683  1.00  0.00     0.014 A 
ATOM     33  C   UNL     1      10.356   6.470   0.594  1.00  0.00     0.010 A 
ATOM     34  C   UNL     1       8.730   6.965   2.316  1.00  0.00     0.010 A 
ATOM     35  C   UNL     1       9.555   7.404   1.270  1.00  0.00    -0.014 A 
BRANCH  35  36
ATOM     36  C   UNL     1       9.563   8.842   0.902  1.00  0.00     0.031 A 
ATOM     37  C   UNL     1       9.992   9.877   1.906  1.00  0.00     0.074 A 
ATOM     38  C   UNL     1       9.118   9.221  -0.313  1.00  0.00     0.049 A 
ATOM     39  N   UNL     1      10.003  11.181   1.795  1.00  0.00    -0.248 NA
ATOM     40  C   UNL     1      10.444   9.384   3.218  1.00  0.00     0.031 C 
ATOM     41  C   UNL     1       8.631   8.318  -1.358  1.00  0.00     0.029 A 
ATOM     42  N   UNL     1       8.995  10.469  -0.871  1.00  0.00    -0.354 N 
ATOM     43  C   UNL     1      10.439  11.661   3.024  1.00  0.00     0.074 A 
ATOM     44  C   UNL     1      10.635  10.514   3.882  1.00  0.00     0.031 C 
ATOM     45  C   UNL     1       8.293   9.038  -2.440  1.00  0.00     0.029 A 
ATOM     46  C   UNL     1       8.495  10.454  -2.151  1.00  0.00     0.049 A 
ATOM     47  H   UNL     1       9.242  11.297  -0.399  1.00  0.00     0.167 HD
ATOM     48  C   UNL     1      10.675  12.941   3.396  1.00  0.00     0.037 A 
ATOM     49  C   UNL     1       8.221  11.468  -2.993  1.00  0.00     0.037 A 
ATOM     50  C   UNL     1      10.510  14.078   2.528  1.00  0.00     0.049 A 
ATOM     51  C   UNL     1       8.479  12.882  -2.546  1.00  0.00     0.074 A 
ATOM     52  C   UNL     1      10.797  15.407   2.787  1.00  0.00     0.029 A 
ATOM     53  N   UNL     1      10.007  14.021   1.237  1.00  0.00    -0.354 N 
ATOM     54  N   UNL     1       8.970  13.314  -1.410  1.00  0.00    -0.248 NA
ATOM     55  C   UNL     1       8.146  13.948  -3.501  1.00  0.00     0.031 C 
ATOM     56  C   UNL     1      10.414  16.161   1.675  1.00  0.00     0.029 A 
ATOM     57  C   UNL     1       9.945  15.296   0.699  1.00  0.00     0.049 A 
ATOM     58  H   UNL     1       9.735  13.197   0.772  1.00  0.00     0.167 HD
ATOM     59  C   UNL     1       9.041  14.697  -1.529  1.00  0.00     0.074 A 
ATOM     60  C   UNL     1       8.554  15.028  -2.851  1.00  0.00     0.031 C 
ATOM     61  C   UNL     1       9.472  15.610  -0.625  1.00  0.00     0.037 A 
BRANCH  48  62
ATOM     62  C   UNL     1      11.137  13.187   4.803  1.00  0.00     0.057 A 
ATOM     63  C   UNL     1      12.413  12.810   5.242  1.00  0.00     0.134 A 
ATOM     64  C   UNL     1      10.313  13.857   5.716  1.00  0.00     0.134 A 
ATOM     65  F   UNL     1      13.249  12.154   4.423  1.00  0.00    -0.206 F 
ATOM     66  C   UNL     1      12.844  13.070   6.545  1.00  0.00     0.040 A 
ATOM     67  C   UNL     1      10.743  14.150   7.011  1.00  0.00     0.040 A 
ATOM     68  F   UNL     1       9.081  14.252   5.360  1.00  0.00    -0.206 F 
ATOM     69  C   UNL     1      12.011  13.751   7.430  1.00  0.00     0.006 A 
ENDBRANCH  48  62
BRANCH  49  70
ATOM     70  C   UNL     1       7.689  11.195  -4.354  1.00  0.00     0.057 A 
ATOM     71  C   UNL     1       8.456  11.466  -5.494  1.00  0.00     0.134 A 
ATOM     72  C   UNL     1       6.398  10.691  -4.551  1.00  0.00     0.134 A 
ATOM     73  F   UNL     1       9.694  11.967  -5.371  1.00  0.00    -0.206 F 
ATOM     74  C   UNL     1       7.948  11.276  -6.780  1.00  0.00     0.040 A 
ATOM     75  C   UNL     1       5.888  10.469  -5.832  1.00  0.00     0.040 A 
ATOM     76  F   UNL     1       5.615  10.402  -3.502  1.00  0.00    -0.206 F 
ATOM     77  C   UNL     1       6.660  10.773  -6.951  1.00  0.00     0.006 A 
ENDBRANCH  49  70
BRANCH  61  78
ATOM     78  C   UNL     1       9.484  17.049  -1.050  1.00  0.00     0.057 A 
ATOM     79  C   UNL     1       8.304  17.783  -1.225  1.00  0.00     0.134 A 
ATOM     80  C   UNL     1      10.697  17.721  -1.250  1.00  0.00     0.134 A 
ATOM     81  F   UNL     1       7.108  17.197  -1.063  1.00  0.00    -0.206 F 
ATOM     82  C   UNL     1       8.330  19.125  -1.609  1.00  0.00     0.040 A 
ATOM     83  C   UNL     1      10.737  19.070  -1.603  1.00  0.00     0.040 A 
ATOM     84  F   UNL     1      11.865  17.080  -1.089  1.00  0.00    -0.206 F 
ATOM     85  C   UNL     1       9.550  19.774  -1.791  1.00  0.00     0.006 A 
ENDBRANCH  61  78
ENDBRANCH  35  36
ENDBRANCH  27  30
ENDBRANCH  25  26
ENDBRANCH  24  25
ENDBRANCH   1  24
TORSDOF 14
