REMARK SMILES O=C(C[N@@H+]1C[C@@]2([N+](=O)[O-])CC=C(Cl)[C@@]([N+](=O)[O-])(C1)C2)NCCCNC(=O)c1ccc(-c2c3nc(c(-c4c(F)cccc4F)c4ccc([nH]4)c(-c4c(F)cccc4F)c4nc(c(-c5c(F)cccc5F)c5ccc2[nH]5)C=C4)C=C3)cc1
REMARK SMILES IDX 22 1 21 2 20 3 1 4 2 5 3 7 4 8 5 9 18 10 6 12 14 13 10 14
REMARK SMILES IDX 19 15 12 16 11 17 13 18 7 19 8 20 9 21 15 22 16 23 17 24
REMARK SMILES IDX 23 25 24 26 25 27 26 29 27 30 28 31 80 32 29 33 79 34 30 35
REMARK SMILES IDX 31 36 32 37 73 38 33 39 78 40 72 41 74 42 34 43 77 44 71 45
REMARK SMILES IDX 70 46 35 48 61 49 44 50 60 51 45 52 48 53 59 54 75 55 46 56
REMARK SMILES IDX 47 57 58 59 76 60 49 61 36 62 37 63 42 64 38 65 39 66 41 67
REMARK SMILES IDX 43 68 40 69 62 70 63 71 68 72 64 73 65 74 67 75 69 76 66 77
REMARK SMILES IDX 50 78 51 79 56 80 52 81 53 82 55 83 57 84 54 85
REMARK H PARENT 20 6 4 11 24 28 74 47 48 58
REMARK Flexibility Score: inf
ROOT
ATOM      1  C   UNL     1       2.387  -0.009   3.295  1.00  0.00     0.042 C 
ENDROOT
BRANCH   1   2
ATOM      2  C   UNL     1       2.097   0.873   2.083  1.00  0.00     0.118 C 
BRANCH   2   3
ATOM      3  N   UNL     1       2.718   0.383   0.871  1.00  0.00    -0.351 N 
ATOM      4  O   UNL     1       0.806  -0.407  -0.150  1.00  0.00    -0.269 OA
ATOM      5  C   UNL     1       2.018  -0.207  -0.163  1.00  0.00     0.275 C 
ATOM      6  H   UNL     1       3.694   0.476   0.779  1.00  0.00     0.163 HD
BRANCH   5   7
ATOM      7  C   UNL     1       2.921  -0.653  -1.323  1.00  0.00     0.363 C 
BRANCH   7   8
ATOM      8  N   UNL     1       3.861   0.440  -1.654  1.00  0.00    -0.315 N 
ATOM      9  C   UNL     1       3.266   1.406  -2.606  1.00  0.00     0.350 C 
ATOM     10  C   UNL     1       5.176  -0.057  -2.123  1.00  0.00     0.356 C 
ATOM     11  H   UNL     1       4.038   0.940  -0.782  1.00  0.00     0.348 HD
ATOM     12  C   UNL     1       4.220   2.585  -2.924  1.00  0.00     0.280 C 
ATOM     13  C   UNL     1       6.153   1.129  -2.350  1.00  0.00     0.311 C 
ATOM     14  C   UNL     1       4.498   3.500  -1.700  1.00  0.00     0.121 C 
ATOM     15  C   UNL     1       5.561   2.040  -3.451  1.00  0.00     0.191 C 
ATOM     16  C   UNL     1       6.333   1.913  -1.056  1.00  0.00     0.097 C 
ATOM     17  C   UNL     1       5.576   2.989  -0.771  1.00  0.00     0.004 C 
ATOM     18  Cl  UNL     1       7.431   1.320   0.142  1.00  0.00    -0.081 Cl
BRANCH  12  19
ATOM     19  N   UNL     1       3.531   3.400  -4.009  1.00  0.00     0.032 N 
ATOM     20  O   UNL     1       2.850   4.370  -3.657  1.00  0.00    -0.264 OA
ATOM     21  O   UNL     1       3.654   3.007  -5.176  1.00  0.00    -0.264 OA
ENDBRANCH  12  19
BRANCH  13  22
ATOM     22  N   UNL     1       7.498   0.619  -2.848  1.00  0.00     0.038 N 
ATOM     23  O   UNL     1       7.679  -0.606  -2.881  1.00  0.00    -0.263 OA
ATOM     24  O   UNL     1       8.325   1.465  -3.218  1.00  0.00    -0.263 OA
ENDBRANCH  13  22
ENDBRANCH   7   8
ENDBRANCH   5   7
ENDBRANCH   2   3
ENDBRANCH   1   2
BRANCH   1  25
ATOM     25  C   UNL     1       3.857  -0.081   3.708  1.00  0.00     0.118 C 
BRANCH  25  26
ATOM     26  N   UNL     1       4.399   1.198   4.142  1.00  0.00    -0.352 N 
ATOM     27  C   UNL     1       5.115   1.542   5.260  1.00  0.00     0.251 C 
ATOM     28  H   UNL     1       4.222   1.946   3.526  1.00  0.00     0.163 HD
ATOM     29  O   UNL     1       5.362   2.734   5.458  1.00  0.00    -0.269 OA
BRANCH  27  30
ATOM     30  C   UNL     1       5.574   0.534   6.248  1.00  0.00     0.039 A 
ATOM     31  C   UNL     1       5.570   0.890   7.602  1.00  0.00     0.014 A 
ATOM     32  C   UNL     1       6.054  -0.723   5.873  1.00  0.00     0.014 A 
ATOM     33  C   UNL     1       5.988  -0.025   8.572  1.00  0.00     0.010 A 
ATOM     34  C   UNL     1       6.402  -1.664   6.849  1.00  0.00     0.010 A 
ATOM     35  C   UNL     1       6.375  -1.326   8.210  1.00  0.00    -0.014 A 
BRANCH  35  36
ATOM     36  C   UNL     1       6.722  -2.328   9.256  1.00  0.00     0.031 A 
ATOM     37  C   UNL     1       8.109  -2.905   9.354  1.00  0.00     0.074 A 
ATOM     38  C   UNL     1       5.769  -2.742  10.115  1.00  0.00     0.049 A 
ATOM     39  N   UNL     1       8.588  -3.761  10.224  1.00  0.00    -0.248 NA
ATOM     40  C   UNL     1       9.079  -2.488   8.331  1.00  0.00     0.031 C 
ATOM     41  C   UNL     1       4.369  -2.314  10.093  1.00  0.00     0.029 A 
ATOM     42  N   UNL     1       5.833  -3.611  11.176  1.00  0.00    -0.354 N 
ATOM     43  C   UNL     1       9.908  -3.986   9.852  1.00  0.00     0.074 A 
ATOM     44  C   UNL     1      10.137  -3.221   8.644  1.00  0.00     0.031 C 
ATOM     45  C   UNL     1       3.717  -2.889  11.116  1.00  0.00     0.029 A 
ATOM     46  C   UNL     1       4.641  -3.749  11.847  1.00  0.00     0.049 A 
ATOM     47  H   UNL     1       6.654  -4.090  11.432  1.00  0.00     0.167 HD
ATOM     48  C   UNL     1      10.851  -4.739  10.470  1.00  0.00     0.037 A 
ATOM     49  C   UNL     1       4.327  -4.479  12.934  1.00  0.00     0.037 A 
ATOM     50  C   UNL     1      10.630  -5.491  11.680  1.00  0.00     0.049 A 
ATOM     51  C   UNL     1       5.395  -5.292  13.611  1.00  0.00     0.074 A 
ATOM     52  C   UNL     1      11.538  -6.240  12.409  1.00  0.00     0.029 A 
ATOM     53  N   UNL     1       9.413  -5.593  12.338  1.00  0.00    -0.354 N 
ATOM     54  N   UNL     1       6.658  -5.431  13.291  1.00  0.00    -0.248 NA
ATOM     55  C   UNL     1       4.993  -6.038  14.812  1.00  0.00     0.031 C 
ATOM     56  C   UNL     1      10.861  -6.831  13.482  1.00  0.00     0.029 A 
ATOM     57  C   UNL     1       9.543  -6.406  13.453  1.00  0.00     0.049 A 
ATOM     58  H   UNL     1       8.580  -5.152  12.054  1.00  0.00     0.167 HD
ATOM     59  C   UNL     1       7.208  -6.255  14.265  1.00  0.00     0.074 A 
ATOM     60  C   UNL     1       6.146  -6.565  15.198  1.00  0.00     0.031 C 
ATOM     61  C   UNL     1       8.480  -6.713  14.376  1.00  0.00     0.037 A 
BRANCH  48  62
ATOM     62  C   UNL     1      12.219  -4.784   9.848  1.00  0.00     0.057 A 
ATOM     63  C   UNL     1      13.070  -3.670   9.853  1.00  0.00     0.134 A 
ATOM     64  C   UNL     1      12.708  -5.964   9.273  1.00  0.00     0.134 A 
ATOM     65  F   UNL     1      12.662  -2.506  10.380  1.00  0.00    -0.206 F 
ATOM     66  C   UNL     1      14.345  -3.720   9.286  1.00  0.00     0.040 A 
ATOM     67  C   UNL     1      13.992  -6.035   8.728  1.00  0.00     0.040 A 
ATOM     68  F   UNL     1      11.951  -7.072   9.241  1.00  0.00    -0.206 F 
ATOM     69  C   UNL     1      14.811  -4.908   8.727  1.00  0.00     0.006 A 
ENDBRANCH  48  62
BRANCH  49  70
ATOM     70  C   UNL     1       2.946  -4.442  13.480  1.00  0.00     0.057 A 
ATOM     71  C   UNL     1       2.669  -3.822  14.704  1.00  0.00     0.134 A 
ATOM     72  C   UNL     1       1.876  -5.035  12.800  1.00  0.00     0.134 A 
ATOM     73  F   UNL     1       3.656  -3.253  15.411  1.00  0.00    -0.206 F 
ATOM     74  C   UNL     1       1.382  -3.812  15.244  1.00  0.00     0.040 A 
ATOM     75  C   UNL     1       0.579  -5.009  13.315  1.00  0.00     0.040 A 
ATOM     76  F   UNL     1       2.074  -5.638  11.619  1.00  0.00    -0.206 F 
ATOM     77  C   UNL     1       0.332  -4.404  14.546  1.00  0.00     0.006 A 
ENDBRANCH  49  70
BRANCH  61  78
ATOM     78  C   UNL     1       8.793  -7.569  15.569  1.00  0.00     0.057 A 
ATOM     79  C   UNL     1       8.285  -8.868  15.707  1.00  0.00     0.134 A 
ATOM     80  C   UNL     1       9.613  -7.086  16.598  1.00  0.00     0.134 A 
ATOM     81  F   UNL     1       7.484  -9.388  14.765  1.00  0.00    -0.206 F 
ATOM     82  C   UNL     1       8.546  -9.638  16.842  1.00  0.00     0.040 A 
ATOM     83  C   UNL     1       9.905  -7.858  17.723  1.00  0.00     0.040 A 
ATOM     84  F   UNL     1      10.142  -5.855  16.527  1.00  0.00    -0.206 F 
ATOM     85  C   UNL     1       9.361  -9.134  17.853  1.00  0.00     0.006 A 
ENDBRANCH  61  78
ENDBRANCH  35  36
ENDBRANCH  27  30
ENDBRANCH  25  26
ENDBRANCH   1  25
TORSDOF 13
