REMARK SMILES Cc1ccc(NC(=O)c2ccccc2NC(=O)[C@H]2CCCC[C@H]2C(=O)NCCCNC(=O)c2ccc(-c3c4nc(c(-c5c(F)cccc5F)c5ccc([nH]5)c(-c5c(F)cccc5F)c5nc(c(-c6c(F)cccc6F)c6ccc3[nH]6)C=C5)C=C4)cc2)cc1
REMARK SMILES IDX 27 1 26 2 24 3 25 4 23 6 18 7 19 8 20 9 22 10 21 11 16 12
REMARK SMILES IDX 15 13 17 15 14 16 9 17 10 18 11 19 13 20 12 21 7 22 6 23
REMARK SMILES IDX 8 25 5 26 1 27 2 28 3 29 88 30 4 31 87 32 28 33 29 34 30 35
REMARK SMILES IDX 31 36 32 38 33 39 34 40 86 41 35 42 85 43 36 44 37 45 38 46
REMARK SMILES IDX 79 47 39 48 84 49 78 50 80 51 40 52 83 53 77 54 76 55 41 57
REMARK SMILES IDX 67 58 50 59 66 60 51 61 54 62 65 63 81 64 52 65 53 66 64 68
REMARK SMILES IDX 82 69 55 70 42 71 43 72 48 73 44 74 45 75 47 76 49 77 46 78
REMARK SMILES IDX 68 79 69 80 74 81 70 82 71 83 73 84 75 85 72 86 56 87 57 88
REMARK SMILES IDX 62 89 58 90 59 91 61 92 63 93 60 94
REMARK H PARENT 26 5 15 14 6 24 30 37 80 56 54 67
REMARK Flexibility Score: inf
ROOT
ATOM      1  C   UNL     1       0.652  -1.212   7.250  1.00  0.00     0.117 C 
ENDROOT
BRANCH   1   2
ATOM      2  N   UNL     1      -0.531  -0.549   6.713  1.00  0.00    -0.356 N 
ATOM      3  C   UNL     1      -1.457  -0.857   5.776  1.00  0.00     0.223 C 
ATOM      4  O   UNL     1      -2.264   0.044   5.511  1.00  0.00    -0.275 OA
ATOM      5  H   UNL     1      -0.695   0.327   7.132  1.00  0.00     0.163 HD
BRANCH   3   6
ATOM      6  C   UNL     1      -1.557  -2.167   4.990  1.00  0.00     0.091 C 
ATOM      7  C   UNL     1      -0.855  -2.087   3.615  1.00  0.00     0.091 C 
ATOM      8  C   UNL     1      -1.080  -3.368   2.787  1.00  0.00     0.014 C 
ATOM      9  C   UNL     1      -0.890  -4.666   3.582  1.00  0.00     0.001 C 
ATOM     10  C   UNL     1      -1.366  -3.477   5.750  1.00  0.00     0.014 C 
ATOM     11  C   UNL     1      -1.710  -4.676   4.868  1.00  0.00     0.001 C 
BRANCH   7  12
ATOM     12  C   UNL     1       0.631  -1.865   3.760  1.00  0.00     0.228 C 
ATOM     13  N   UNL     1       1.317  -0.815   3.239  1.00  0.00    -0.325 N 
ATOM     14  H   UNL     1       2.191  -0.711   3.679  1.00  0.00     0.169 HD
ATOM     15  O   UNL     1       1.289  -2.668   4.433  1.00  0.00    -0.274 OA
BRANCH  13  16
ATOM     16  C   UNL     1       1.131   0.168   2.246  1.00  0.00     0.054 A 
ATOM     17  C   UNL     1       2.107   1.183   2.058  1.00  0.00     0.063 A 
ATOM     18  C   UNL     1       1.869   2.215   1.121  1.00  0.00     0.016 A 
ATOM     19  C   UNL     1       0.719   2.231   0.342  1.00  0.00     0.001 A 
ATOM     20  C   UNL     1       0.023   0.166   1.389  1.00  0.00     0.027 A 
ATOM     21  C   UNL     1      -0.193   1.195   0.464  1.00  0.00     0.002 A 
BRANCH  17  22
ATOM     22  C   UNL     1       3.355   1.404   2.844  1.00  0.00     0.257 C 
ATOM     23  N   UNL     1       4.267   0.450   3.220  1.00  0.00    -0.322 N 
ATOM     24  H   UNL     1       4.995   0.826   3.765  1.00  0.00     0.170 HD
ATOM     25  O   UNL     1       3.586   2.555   3.236  1.00  0.00    -0.269 OA
BRANCH  23  26
ATOM     26  C   UNL     1       4.413  -0.923   3.018  1.00  0.00     0.041 A 
ATOM     27  C   UNL     1       4.000  -5.182   3.247  1.00  0.00     0.044 C 
ATOM     28  C   UNL     1       4.269  -3.713   3.112  1.00  0.00    -0.051 A 
ATOM     29  C   UNL     1       3.823  -3.014   1.982  1.00  0.00     0.005 A 
ATOM     30  C   UNL     1       4.906  -3.013   4.138  1.00  0.00     0.005 A 
ATOM     31  C   UNL     1       3.901  -1.619   1.929  1.00  0.00     0.026 A 
ATOM     32  C   UNL     1       5.003  -1.625   4.076  1.00  0.00     0.026 A 
ENDBRANCH  23  26
ENDBRANCH  17  22
ENDBRANCH  13  16
ENDBRANCH   7  12
ENDBRANCH   3   6
ENDBRANCH   1   2
BRANCH   1  33
ATOM     33  C   UNL     1       1.927  -0.761   6.539  1.00  0.00     0.042 C 
BRANCH  33  34
ATOM     34  C   UNL     1       2.901   0.041   7.387  1.00  0.00     0.118 C 
BRANCH  34  35
ATOM     35  N   UNL     1       4.185  -0.642   7.573  1.00  0.00    -0.352 N 
ATOM     36  C   UNL     1       5.426  -0.081   7.836  1.00  0.00     0.251 C 
ATOM     37  H   UNL     1       4.164  -1.624   7.501  1.00  0.00     0.163 HD
ATOM     38  O   UNL     1       6.403  -0.760   8.091  1.00  0.00    -0.269 OA
BRANCH  36  39
ATOM     39  C   UNL     1       5.495   1.394   7.844  1.00  0.00     0.039 A 
ATOM     40  C   UNL     1       5.422   2.027   9.083  1.00  0.00     0.014 A 
ATOM     41  C   UNL     1       5.174   2.059   6.664  1.00  0.00     0.014 A 
ATOM     42  C   UNL     1       4.749   3.240   9.165  1.00  0.00     0.010 A 
ATOM     43  C   UNL     1       4.449   3.233   6.752  1.00  0.00     0.010 A 
ATOM     44  C   UNL     1       4.153   3.765   8.013  1.00  0.00    -0.014 A 
BRANCH  44  45
ATOM     45  C   UNL     1       3.067   4.737   8.092  1.00  0.00     0.031 A 
ATOM     46  C   UNL     1       3.299   6.150   7.745  1.00  0.00     0.074 A 
ATOM     47  C   UNL     1       1.838   4.372   8.528  1.00  0.00     0.049 A 
ATOM     48  N   UNL     1       2.765   7.140   8.381  1.00  0.00    -0.248 NA
ATOM     49  C   UNL     1       4.186   6.555   6.664  1.00  0.00     0.031 C 
ATOM     50  C   UNL     1       0.628   5.190   8.521  1.00  0.00     0.029 A 
ATOM     51  N   UNL     1       1.483   3.232   9.263  1.00  0.00    -0.354 N 
ATOM     52  C   UNL     1       3.013   8.277   7.649  1.00  0.00     0.074 A 
ATOM     53  C   UNL     1       3.961   7.873   6.633  1.00  0.00     0.031 C 
ATOM     54  C   UNL     1      -0.230   4.703   9.430  1.00  0.00     0.029 A 
ATOM     55  C   UNL     1       0.433   3.616  10.125  1.00  0.00     0.049 A 
ATOM     56  H   UNL     1       1.887   2.337   9.191  1.00  0.00     0.167 HD
ATOM     57  C   UNL     1       2.288   9.410   7.874  1.00  0.00     0.037 A 
ATOM     58  C   UNL     1       0.514   3.472  11.478  1.00  0.00     0.037 A 
ATOM     59  C   UNL     1       1.262   9.205   8.891  1.00  0.00     0.049 A 
ATOM     60  C   UNL     1       0.393   4.766  12.245  1.00  0.00     0.074 A 
ATOM     61  C   UNL     1      -0.086   8.899   8.790  1.00  0.00     0.029 A 
ATOM     62  N   UNL     1       1.612   9.003  10.221  1.00  0.00    -0.354 N 
ATOM     63  N   UNL     1       0.457   5.942  11.689  1.00  0.00    -0.248 NA
ATOM     64  C   UNL     1       0.261   4.845  13.699  1.00  0.00     0.031 C 
ATOM     65  C   UNL     1      -0.543   8.483  10.060  1.00  0.00     0.029 A 
ATOM     66  C   UNL     1       0.524   8.541  10.938  1.00  0.00     0.049 A 
ATOM     67  H   UNL     1       2.507   9.166  10.598  1.00  0.00     0.167 HD
ATOM     68  C   UNL     1       0.458   6.908  12.661  1.00  0.00     0.074 A 
ATOM     69  C   UNL     1       0.290   6.174  13.900  1.00  0.00     0.031 C 
ATOM     70  C   UNL     1       0.632   8.227  12.354  1.00  0.00     0.037 A 
BRANCH  57  71
ATOM     71  C   UNL     1       2.301  10.581   6.920  1.00  0.00     0.057 A 
ATOM     72  C   UNL     1       1.140  11.334   6.664  1.00  0.00     0.134 A 
ATOM     73  C   UNL     1       3.429  10.981   6.185  1.00  0.00     0.134 A 
ATOM     74  F   UNL     1       0.019  11.172   7.377  1.00  0.00    -0.206 F 
ATOM     75  C   UNL     1       1.068  12.300   5.652  1.00  0.00     0.040 A 
ATOM     76  C   UNL     1       3.361  11.906   5.133  1.00  0.00     0.040 A 
ATOM     77  F   UNL     1       4.651  10.513   6.478  1.00  0.00    -0.206 F 
ATOM     78  C   UNL     1       2.168  12.555   4.849  1.00  0.00     0.006 A 
ENDBRANCH  57  71
BRANCH  58  79
ATOM     79  C   UNL     1       1.338   2.312  11.894  1.00  0.00     0.057 A 
ATOM     80  C   UNL     1       0.867   1.019  11.609  1.00  0.00     0.134 A 
ATOM     81  C   UNL     1       2.696   2.449  12.187  1.00  0.00     0.134 A 
ATOM     82  F   UNL     1      -0.430   0.822  11.323  1.00  0.00    -0.206 F 
ATOM     83  C   UNL     1       1.731  -0.071  11.494  1.00  0.00     0.040 A 
ATOM     84  C   UNL     1       3.570   1.362  12.085  1.00  0.00     0.040 A 
ATOM     85  F   UNL     1       3.219   3.654  12.456  1.00  0.00    -0.206 F 
ATOM     86  C   UNL     1       3.096   0.110  11.694  1.00  0.00     0.006 A 
ENDBRANCH  58  79
BRANCH  70  87
ATOM     87  C   UNL     1       0.830   9.347  13.341  1.00  0.00     0.057 A 
ATOM     88  C   UNL     1       1.467   9.204  14.582  1.00  0.00     0.134 A 
ATOM     89  C   UNL     1       0.483  10.672  12.993  1.00  0.00     0.134 A 
ATOM     90  F   UNL     1       1.948   8.022  14.990  1.00  0.00    -0.206 F 
ATOM     91  C   UNL     1       1.690  10.290  15.441  1.00  0.00     0.040 A 
ATOM     92  C   UNL     1       0.745  11.768  13.819  1.00  0.00     0.040 A 
ATOM     93  F   UNL     1      -0.109  10.959  11.824  1.00  0.00    -0.206 F 
ATOM     94  C   UNL     1       1.337  11.578  15.057  1.00  0.00     0.006 A 
ENDBRANCH  70  87
ENDBRANCH  44  45
ENDBRANCH  36  39
ENDBRANCH  34  35
ENDBRANCH  33  34
ENDBRANCH   1  33
TORSDOF 14
