REMARK SMILES CSc1ccc(CNc2ccc(N3CCOCC3)c(C(=O)NCCCNC(=O)c3ccc(-c4c5nc(c(-c6c(F)cccc6F)c6ccc([nH]6)c(-c6c(F)cccc6F)c6nc(c(-c7c(F)cccc7F)c7ccc4[nH]7)C=C6)C=C5)cc3)c2)cc1
REMARK SMILES IDX 23 1 22 2 20 3 21 4 19 6 9 7 10 8 83 9 11 10 12 11 8 12 7 14
REMARK SMILES IDX 6 15 3 16 4 17 85 18 5 19 84 20 2 21 1 22 13 23 14 24 18 25
REMARK SMILES IDX 15 26 17 27 16 28 24 29 25 30 26 31 27 32 28 34 29 35 30 36
REMARK SMILES IDX 82 37 31 38 81 39 32 40 33 41 34 42 75 43 35 44 80 45 74 46
REMARK SMILES IDX 76 47 36 48 79 49 73 50 72 51 37 53 63 54 46 55 62 56 47 57
REMARK SMILES IDX 50 58 61 59 77 60 48 61 49 62 60 64 78 65 51 66 38 67 39 68
REMARK SMILES IDX 44 69 40 70 41 71 43 72 45 73 42 74 64 75 65 76 70 77 66 78
REMARK SMILES IDX 67 79 69 80 71 81 68 82 52 83 53 84 58 85 54 86 55 87 57 88
REMARK SMILES IDX 59 89 56 90
REMARK H PARENT 22 5 8 13 26 33 76 52 50 63
REMARK Flexibility Score: inf
ROOT
ATOM      1  C   UNL     1       3.885   9.381  -4.064  1.00  0.00     0.118 C 
ENDROOT
BRANCH   1   2
ATOM      2  N   UNL     1       5.336   9.484  -4.192  1.00  0.00    -0.352 N 
ATOM      3  C   UNL     1       6.426   8.963  -3.520  1.00  0.00     0.253 C 
ATOM      4  O   UNL     1       7.519   9.252  -4.006  1.00  0.00    -0.269 OA
ATOM      5  H   UNL     1       5.603  10.066  -4.940  1.00  0.00     0.163 HD
BRANCH   3   6
ATOM      6  C   UNL     1       6.312   8.141  -2.270  1.00  0.00     0.065 A 
ATOM      7  C   UNL     1       4.831   6.749  -0.884  1.00  0.00     0.035 A 
ATOM      8  C   UNL     1       5.792   6.780   0.121  1.00  0.00     0.028 A 
ATOM      9  C   UNL     1       5.165   7.359  -2.090  1.00  0.00     0.041 A 
ATOM     10  C   UNL     1       7.037   7.375  -0.102  1.00  0.00     0.029 A 
ATOM     11  C   UNL     1       7.335   8.046  -1.304  1.00  0.00     0.050 A 
BRANCH   7  12
ATOM     12  N   UNL     1       3.638   6.097  -0.676  1.00  0.00    -0.381 N 
ATOM     13  H   UNL     1       3.531   5.621   0.180  1.00  0.00     0.160 HD
BRANCH  12  14
ATOM     14  C   UNL     1       2.521   6.045  -1.604  1.00  0.00     0.148 C 
BRANCH  14  15
ATOM     15  C   UNL     1       1.949   4.650  -1.628  1.00  0.00    -0.029 A 
ATOM     16  C   UNL     1       0.905   2.044  -1.683  1.00  0.00     0.007 A 
ATOM     17  C   UNL     1       2.285   2.247  -1.735  1.00  0.00     0.015 A 
ATOM     18  C   UNL     1       0.047   3.147  -1.662  1.00  0.00     0.015 A 
ATOM     19  C   UNL     1       2.802   3.540  -1.714  1.00  0.00     0.007 A 
ATOM     20  C   UNL     1       0.565   4.444  -1.634  1.00  0.00     0.007 A 
BRANCH  16  21
ATOM     21  S   UNL     1       0.228   0.398  -1.637  1.00  0.00    -0.130 SA
ATOM     22  C   UNL     1       0.946  -0.153  -0.066  1.00  0.00     0.091 C 
ENDBRANCH  16  21
ENDBRANCH  14  15
ENDBRANCH  12  14
ENDBRANCH   7  12
BRANCH  11  23
ATOM     23  N   UNL     1       8.642   8.424  -1.526  1.00  0.00    -0.366 N 
ATOM     24  C   UNL     1       9.112   9.807  -1.463  1.00  0.00     0.145 C 
ATOM     25  C   UNL     1       9.675   7.389  -1.618  1.00  0.00     0.145 C 
ATOM     26  C   UNL     1      10.207  10.054  -2.523  1.00  0.00     0.181 C 
ATOM     27  C   UNL     1      10.651   7.753  -2.742  1.00  0.00     0.181 C 
ATOM     28  O   UNL     1      11.236   9.044  -2.503  1.00  0.00    -0.378 OA
ENDBRANCH  11  23
ENDBRANCH   3   6
ENDBRANCH   1   2
BRANCH   1  29
ATOM     29  C   UNL     1       3.173  10.709  -3.863  1.00  0.00     0.042 C 
BRANCH  29  30
ATOM     30  C   UNL     1       3.391  11.731  -4.965  1.00  0.00     0.118 C 
BRANCH  30  31
ATOM     31  N   UNL     1       2.929  11.273  -6.268  1.00  0.00    -0.352 N 
ATOM     32  C   UNL     1       1.818  11.595  -7.009  1.00  0.00     0.251 C 
ATOM     33  H   UNL     1       3.521  10.612  -6.695  1.00  0.00     0.163 HD
ATOM     34  O   UNL     1       1.548  10.922  -8.000  1.00  0.00    -0.269 OA
BRANCH  32  35
ATOM     35  C   UNL     1       0.928  12.716  -6.627  1.00  0.00     0.039 A 
ATOM     36  C   UNL     1      -0.448  12.582  -6.839  1.00  0.00     0.014 A 
ATOM     37  C   UNL     1       1.430  13.914  -6.116  1.00  0.00     0.014 A 
ATOM     38  C   UNL     1      -1.318  13.613  -6.471  1.00  0.00     0.010 A 
ATOM     39  C   UNL     1       0.558  14.899  -5.658  1.00  0.00     0.010 A 
ATOM     40  C   UNL     1      -0.826  14.764  -5.837  1.00  0.00    -0.014 A 
BRANCH  40  41
ATOM     41  C   UNL     1      -1.739  15.833  -5.355  1.00  0.00     0.031 A 
ATOM     42  C   UNL     1      -1.636  17.231  -5.905  1.00  0.00     0.074 A 
ATOM     43  C   UNL     1      -2.612  15.562  -4.364  1.00  0.00     0.049 A 
ATOM     44  N   UNL     1      -2.294  18.308  -5.555  1.00  0.00    -0.248 NA
ATOM     45  C   UNL     1      -0.640  17.460  -6.965  1.00  0.00     0.031 C 
ATOM     46  C   UNL     1      -2.760  14.267  -3.695  1.00  0.00     0.029 A 
ATOM     47  N   UNL     1      -3.529  16.365  -3.733  1.00  0.00    -0.354 N 
ATOM     48  C   UNL     1      -1.773  19.339  -6.327  1.00  0.00     0.074 A 
ATOM     49  C   UNL     1      -0.717  18.772  -7.135  1.00  0.00     0.031 C 
ATOM     50  C   UNL     1      -3.722  14.359  -2.763  1.00  0.00     0.029 A 
ATOM     51  C   UNL     1      -4.234  15.725  -2.742  1.00  0.00     0.049 A 
ATOM     52  H   UNL     1      -3.669  17.311  -3.968  1.00  0.00     0.167 HD
ATOM     53  C   UNL     1      -2.156  20.637  -6.373  1.00  0.00     0.037 A 
ATOM     54  C   UNL     1      -5.182  16.188  -1.905  1.00  0.00     0.037 A 
ATOM     55  C   UNL     1      -3.244  21.188  -5.609  1.00  0.00     0.049 A 
ATOM     56  C   UNL     1      -5.618  17.622  -2.013  1.00  0.00     0.074 A 
ATOM     57  C   UNL     1      -3.774  22.465  -5.664  1.00  0.00     0.029 A 
ATOM     58  N   UNL     1      -3.968  20.494  -4.653  1.00  0.00    -0.354 N 
ATOM     59  N   UNL     1      -5.181  18.561  -2.816  1.00  0.00    -0.248 NA
ATOM     60  C   UNL     1      -6.688  18.060  -1.104  1.00  0.00     0.031 C 
ATOM     61  C   UNL     1      -4.793  22.557  -4.711  1.00  0.00     0.029 A 
ATOM     62  C   UNL     1      -4.925  21.323  -4.093  1.00  0.00     0.049 A 
ATOM     63  H   UNL     1      -3.823  19.551  -4.408  1.00  0.00     0.167 HD
ATOM     64  C   UNL     1      -5.934  19.690  -2.526  1.00  0.00     0.074 A 
ATOM     65  C   UNL     1      -6.871  19.314  -1.489  1.00  0.00     0.031 C 
ATOM     66  C   UNL     1      -5.854  20.931  -3.066  1.00  0.00     0.037 A 
BRANCH  53  67
ATOM     67  C   UNL     1      -1.407  21.559  -7.290  1.00  0.00     0.057 A 
ATOM     68  C   UNL     1      -1.554  21.498  -8.681  1.00  0.00     0.134 A 
ATOM     69  C   UNL     1      -0.585  22.567  -6.771  1.00  0.00     0.134 A 
ATOM     70  F   UNL     1      -2.320  20.550  -9.243  1.00  0.00    -0.206 F 
ATOM     71  C   UNL     1      -0.901  22.399  -9.525  1.00  0.00     0.040 A 
ATOM     72  C   UNL     1       0.055  23.488  -7.602  1.00  0.00     0.040 A 
ATOM     73  F   UNL     1      -0.405  22.685  -5.446  1.00  0.00    -0.206 F 
ATOM     74  C   UNL     1      -0.101  23.404  -8.984  1.00  0.00     0.006 A 
ENDBRANCH  53  67
BRANCH  54  75
ATOM     75  C   UNL     1      -5.795  15.287  -0.896  1.00  0.00     0.057 A 
ATOM     76  C   UNL     1      -7.129  14.877  -1.006  1.00  0.00     0.134 A 
ATOM     77  C   UNL     1      -5.071  14.836   0.215  1.00  0.00     0.134 A 
ATOM     78  F   UNL     1      -7.878  15.291  -2.038  1.00  0.00    -0.206 F 
ATOM     79  C   UNL     1      -7.731  14.077  -0.033  1.00  0.00     0.040 A 
ATOM     80  C   UNL     1      -5.653  14.014   1.181  1.00  0.00     0.040 A 
ATOM     81  F   UNL     1      -3.786  15.184   0.373  1.00  0.00    -0.206 F 
ATOM     82  C   UNL     1      -6.990  13.641   1.063  1.00  0.00     0.006 A 
ENDBRANCH  54  75
BRANCH  66  83
ATOM     83  C   UNL     1      -6.822  21.959  -2.562  1.00  0.00     0.057 A 
ATOM     84  C   UNL     1      -6.695  22.527  -1.289  1.00  0.00     0.134 A 
ATOM     85  C   UNL     1      -7.874  22.405  -3.371  1.00  0.00     0.134 A 
ATOM     86  F   UNL     1      -5.715  22.132  -0.462  1.00  0.00    -0.206 F 
ATOM     87  C   UNL     1      -7.598  23.486  -0.827  1.00  0.00     0.040 A 
ATOM     88  C   UNL     1      -8.767  23.383  -2.930  1.00  0.00     0.040 A 
ATOM     89  F   UNL     1      -8.045  21.907  -4.605  1.00  0.00    -0.206 F 
ATOM     90  C   UNL     1      -8.634  23.921  -1.652  1.00  0.00     0.006 A 
ENDBRANCH  66  83
ENDBRANCH  40  41
ENDBRANCH  32  35
ENDBRANCH  30  31
ENDBRANCH  29  30
ENDBRANCH   1  29
TORSDOF 15
