REMARK SMILES CS(=O)(=O)c1ccc(/C=C(/C(=O)NCCCNC(=O)c2ccc(-c3c4nc(c(-c5c(F)cccc5F)c5ccc([nH]5)c(-c5c(F)cccc5F)c5nc(c(-c6c(F)cccc6F)c6ccc3[nH]6)C=C5)C=C4)cc2)c2cccc(-c3ccc(S(C)(=O)=O)cc3)c2)cc1
REMARK SMILES IDX 14 1 13 2 11 3 12 4 10 6 9 7 8 8 5 9 6 10 91 11 7 12 90 13
REMARK SMILES IDX 2 14 1 15 3 16 4 17 74 18 75 19 89 20 76 21 78 22 77 23
REMARK SMILES IDX 79 24 80 25 88 26 81 27 87 28 82 29 83 30 84 31 85 32 86 33
REMARK SMILES IDX 15 34 16 35 17 36 18 37 19 39 20 40 21 41 73 42 22 43 72 44
REMARK SMILES IDX 23 45 24 46 25 47 66 48 26 49 71 50 65 51 67 52 27 53 70 54
REMARK SMILES IDX 64 55 63 56 28 58 54 59 37 60 53 61 38 62 41 63 52 64 68 65
REMARK SMILES IDX 39 66 40 67 51 69 69 70 42 71 29 72 30 73 35 74 31 75 32 76
REMARK SMILES IDX 34 77 36 78 33 79 55 80 56 81 61 82 57 83 58 84 60 85 62 86
REMARK SMILES IDX 59 87 43 88 44 89 49 90 45 91 46 92 48 93 50 94 47 95
REMARK H PARENT 13 5 17 38 67 57 41 68
REMARK Flexibility Score: inf
ROOT
ATOM      1  C   UNL     1       4.256  -8.273  -0.872  1.00  0.00     0.118 C 
ENDROOT
BRANCH   1   2
ATOM      2  N   UNL     1       3.239  -9.178  -0.372  1.00  0.00    -0.352 N 
ATOM      3  C   UNL     1       2.059  -9.016   0.282  1.00  0.00     0.251 C 
ATOM      4  O   UNL     1       1.470 -10.059   0.577  1.00  0.00    -0.269 OA
ATOM      5  H   UNL     1       3.451 -10.123  -0.546  1.00  0.00     0.163 HD
BRANCH   3   6
ATOM      6  C   UNL     1       1.434  -7.668   0.571  1.00  0.00     0.047 C 
ATOM      7  C   UNL     1       2.189  -6.590   0.888  1.00  0.00     0.022 C 
BRANCH   7   8
ATOM      8  C   UNL     1       1.792  -5.179   1.115  1.00  0.00    -0.025 A 
ATOM      9  C   UNL     1       1.078  -2.465   1.322  1.00  0.00     0.067 A 
ATOM     10  C   UNL     1       0.301  -3.443   1.945  1.00  0.00     0.021 A 
ATOM     11  C   UNL     1       2.237  -2.822   0.636  1.00  0.00     0.021 A 
ATOM     12  C   UNL     1       0.680  -4.787   1.871  1.00  0.00     0.009 A 
ATOM     13  C   UNL     1       2.584  -4.175   0.531  1.00  0.00     0.009 A 
BRANCH   9  14
ATOM     14  S   UNL     1       0.548  -0.770   1.420  1.00  0.00     0.175 S 
ATOM     15  C   UNL     1       0.996  -0.014  -0.121  1.00  0.00     0.163 C 
ATOM     16  O   UNL     1       1.337  -0.157   2.470  1.00  0.00    -0.224 OA
ATOM     17  O   UNL     1      -0.902  -0.786   1.483  1.00  0.00    -0.224 OA
ENDBRANCH   9  14
ENDBRANCH   7   8
BRANCH   6  18
ATOM     18  C   UNL     1      -0.051  -7.621   0.672  1.00  0.00    -0.012 A 
ATOM     19  C   UNL     1      -0.690  -8.383   1.663  1.00  0.00     0.009 A 
ATOM     20  C   UNL     1      -0.821  -6.736  -0.098  1.00  0.00     0.017 A 
ATOM     21  C   UNL     1      -2.055  -8.252   1.900  1.00  0.00     0.001 A 
ATOM     22  C   UNL     1      -2.184  -6.529   0.188  1.00  0.00    -0.018 A 
ATOM     23  C   UNL     1      -2.793  -7.318   1.178  1.00  0.00     0.009 A 
BRANCH  22  24
ATOM     24  C   UNL     1      -2.913  -5.416  -0.435  1.00  0.00    -0.018 A 
ATOM     25  C   UNL     1      -3.447  -4.394   0.373  1.00  0.00     0.010 A 
ATOM     26  C   UNL     1      -3.038  -5.302  -1.827  1.00  0.00     0.010 A 
ATOM     27  C   UNL     1      -4.083  -3.287  -0.187  1.00  0.00     0.021 A 
ATOM     28  C   UNL     1      -3.683  -4.201  -2.399  1.00  0.00     0.021 A 
ATOM     29  C   UNL     1      -4.205  -3.203  -1.573  1.00  0.00     0.067 A 
BRANCH  29  30
ATOM     30  S   UNL     1      -5.010  -1.788  -2.281  1.00  0.00     0.175 S 
ATOM     31  C   UNL     1      -6.689  -1.936  -1.725  1.00  0.00     0.163 C 
ATOM     32  O   UNL     1      -4.424  -0.612  -1.669  1.00  0.00    -0.224 OA
ATOM     33  O   UNL     1      -5.010  -1.955  -3.723  1.00  0.00    -0.224 OA
ENDBRANCH  29  30
ENDBRANCH  22  24
ENDBRANCH   6  18
ENDBRANCH   3   6
ENDBRANCH   1   2
BRANCH   1  34
ATOM     34  C   UNL     1       5.463  -8.241   0.069  1.00  0.00     0.042 C 
BRANCH  34  35
ATOM     35  C   UNL     1       6.242  -9.556   0.118  1.00  0.00     0.118 C 
BRANCH  35  36
ATOM     36  N   UNL     1       6.928  -9.838  -1.134  1.00  0.00    -0.352 N 
ATOM     37  C   UNL     1       8.262 -10.036  -1.388  1.00  0.00     0.251 C 
ATOM     38  H   UNL     1       6.342  -9.896  -1.924  1.00  0.00     0.163 HD
ATOM     39  O   UNL     1       8.659 -10.045  -2.550  1.00  0.00    -0.269 OA
BRANCH  37  40
ATOM     40  C   UNL     1       9.227 -10.229  -0.283  1.00  0.00     0.039 A 
ATOM     41  C   UNL     1      10.482  -9.618  -0.377  1.00  0.00     0.014 A 
ATOM     42  C   UNL     1       8.933 -11.051   0.808  1.00  0.00     0.014 A 
ATOM     43  C   UNL     1      11.420  -9.790   0.644  1.00  0.00     0.010 A 
ATOM     44  C   UNL     1       9.846 -11.172   1.855  1.00  0.00     0.010 A 
ATOM     45  C   UNL     1      11.100 -10.547   1.782  1.00  0.00    -0.014 A 
BRANCH  45  46
ATOM     46  C   UNL     1      12.066 -10.696   2.900  1.00  0.00     0.031 A 
ATOM     47  C   UNL     1      12.648 -12.043   3.228  1.00  0.00     0.074 A 
ATOM     48  C   UNL     1      12.375  -9.627   3.659  1.00  0.00     0.049 A 
ATOM     49  N   UNL     1      13.447 -12.383   4.208  1.00  0.00    -0.248 NA
ATOM     50  C   UNL     1      12.264 -13.161   2.351  1.00  0.00     0.031 C 
ATOM     51  C   UNL     1      11.845  -8.275   3.471  1.00  0.00     0.029 A 
ATOM     52  N   UNL     1      13.200  -9.511   4.749  1.00  0.00    -0.354 N 
ATOM     53  C   UNL     1      13.650 -13.751   4.074  1.00  0.00     0.074 A 
ATOM     54  C   UNL     1      12.853 -14.187   2.947  1.00  0.00     0.031 C 
ATOM     55  C   UNL     1      12.368  -7.465   4.404  1.00  0.00     0.029 A 
ATOM     56  C   UNL     1      13.242  -8.243   5.276  1.00  0.00     0.049 A 
ATOM     57  H   UNL     1      13.713 -10.266   5.119  1.00  0.00     0.167 HD
ATOM     58  C   UNL     1      14.444 -14.566   4.810  1.00  0.00     0.037 A 
ATOM     59  C   UNL     1      13.903  -7.764   6.346  1.00  0.00     0.037 A 
ATOM     60  C   UNL     1      15.252 -14.128   5.918  1.00  0.00     0.049 A 
ATOM     61  C   UNL     1      14.777  -8.688   7.146  1.00  0.00     0.074 A 
ATOM     62  C   UNL     1      16.124 -14.869   6.697  1.00  0.00     0.029 A 
ATOM     63  N   UNL     1      15.287 -12.830   6.404  1.00  0.00    -0.354 N 
ATOM     64  N   UNL     1      15.002  -9.968   6.974  1.00  0.00    -0.248 NA
ATOM     65  C   UNL     1      15.497  -8.100   8.284  1.00  0.00     0.031 C 
ATOM     66  C   UNL     1      16.661 -14.026   7.676  1.00  0.00     0.029 A 
ATOM     67  C   UNL     1      16.156 -12.751   7.480  1.00  0.00     0.049 A 
ATOM     68  H   UNL     1      14.771 -12.075   6.038  1.00  0.00     0.167 HD
ATOM     69  C   UNL     1      15.905 -10.332   7.963  1.00  0.00     0.074 A 
ATOM     70  C   UNL     1      16.199  -9.135   8.723  1.00  0.00     0.031 C 
ATOM     71  C   UNL     1      16.443 -11.550   8.221  1.00  0.00     0.037 A 
BRANCH  58  72
ATOM     72  C   UNL     1      14.482 -16.018   4.431  1.00  0.00     0.057 A 
ATOM     73  C   UNL     1      15.111 -16.456   3.258  1.00  0.00     0.134 A 
ATOM     74  C   UNL     1      13.914 -16.992   5.261  1.00  0.00     0.134 A 
ATOM     75  F   UNL     1      15.665 -15.573   2.413  1.00  0.00    -0.206 F 
ATOM     76  C   UNL     1      15.150 -17.808   2.911  1.00  0.00     0.040 A 
ATOM     77  C   UNL     1      13.969 -18.350   4.938  1.00  0.00     0.040 A 
ATOM     78  F   UNL     1      13.303 -16.643   6.403  1.00  0.00    -0.206 F 
ATOM     79  C   UNL     1      14.583 -18.760   3.756  1.00  0.00     0.006 A 
ENDBRANCH  58  72
BRANCH  59  80
ATOM     80  C   UNL     1      13.777  -6.332   6.715  1.00  0.00     0.057 A 
ATOM     81  C   UNL     1      14.845  -5.445   6.538  1.00  0.00     0.134 A 
ATOM     82  C   UNL     1      12.593  -5.818   7.256  1.00  0.00     0.134 A 
ATOM     83  F   UNL     1      16.011  -5.884   6.040  1.00  0.00    -0.206 F 
ATOM     84  C   UNL     1      14.748  -4.102   6.903  1.00  0.00     0.040 A 
ATOM     85  C   UNL     1      12.474  -4.471   7.603  1.00  0.00     0.040 A 
ATOM     86  F   UNL     1      11.531  -6.615   7.442  1.00  0.00    -0.206 F 
ATOM     87  C   UNL     1      13.557  -3.611   7.434  1.00  0.00     0.006 A 
ENDBRANCH  59  80
BRANCH  71  88
ATOM     88  C   UNL     1      17.427 -11.638   9.349  1.00  0.00     0.057 A 
ATOM     89  C   UNL     1      17.023 -11.575  10.688  1.00  0.00     0.134 A 
ATOM     90  C   UNL     1      18.791 -11.821   9.091  1.00  0.00     0.134 A 
ATOM     91  F   UNL     1      15.732 -11.386  11.001  1.00  0.00    -0.206 F 
ATOM     92  C   UNL     1      17.944 -11.669  11.732  1.00  0.00     0.040 A 
ATOM     93  C   UNL     1      19.719 -11.941  10.127  1.00  0.00     0.040 A 
ATOM     94  F   UNL     1      19.242 -11.897   7.830  1.00  0.00    -0.206 F 
ATOM     95  C   UNL     1      19.296 -11.859  11.452  1.00  0.00     0.006 A 
ENDBRANCH  71  88
ENDBRANCH  45  46
ENDBRANCH  37  40
ENDBRANCH  35  36
ENDBRANCH  34  35
ENDBRANCH   1  34
TORSDOF 15
