REMARK SMILES C[C@]12CC[C@@H]3[C@@H](CCC4=C/C(=N\OCC(=O)N5CCC[C@@H]5C(=O)NCCCNC(=O)c5ccc(-c6c7nc(c(-c8c(F)cccc8F)c8ccc([nH]8)c(-c8c(F)cccc8F)c8nc(c(-c9c(F)cccc9F)c9ccc6[nH]9)C=C8)C=C7)cc5)CC[C@@]43C)[C@@H]1CC[C@@H]2O
REMARK SMILES IDX 22 1 23 2 24 3 21 5 17 6 18 7 19 8 20 9 15 10 16 11 14 12
REMARK SMILES IDX 13 13 12 14 1 15 2 16 3 17 89 18 92 19 4 20 6 21 90 22 91 23
REMARK SMILES IDX 5 24 7 25 87 26 8 27 9 28 86 29 88 30 10 31 85 32 11 33
REMARK SMILES IDX 93 34 25 36 26 37 27 38 28 39 29 40 30 42 31 43 32 44 84 45
REMARK SMILES IDX 33 46 83 47 34 48 35 49 36 50 77 51 37 52 82 53 76 54 78 55
REMARK SMILES IDX 38 56 81 57 75 58 74 59 39 61 65 62 48 63 64 64 49 65 52 66
REMARK SMILES IDX 63 67 79 68 50 69 51 70 62 72 80 73 53 74 40 75 41 76 46 77
REMARK SMILES IDX 42 78 43 79 45 80 47 81 44 82 66 83 67 84 72 85 68 86 69 87
REMARK SMILES IDX 71 88 73 89 70 90 54 91 55 92 60 93 56 94 57 95 59 96 61 97
REMARK SMILES IDX 58 98
REMARK H PARENT 24 4 93 35 28 41 78 60 52 71
REMARK Flexibility Score: inf
ROOT
ATOM      1  C   UNL     1      -4.583   7.466  -1.025  1.00  0.00     0.242 C 
ATOM      2  O   UNL     1      -3.632   7.688  -0.271  1.00  0.00    -0.273 OA
ATOM      3  N   UNL     1      -4.980   6.163  -1.196  1.00  0.00    -0.354 N 
ATOM      4  H   UNL     1      -4.413   5.511  -0.724  1.00  0.00     0.163 HD
ENDROOT
BRANCH   1   5
ATOM      5  C   UNL     1      -5.356   8.596  -1.720  1.00  0.00     0.174 C 
ATOM      6  N   UNL     1      -4.592   9.590  -2.490  1.00  0.00    -0.328 N 
ATOM      7  C   UNL     1      -5.028  10.934  -2.152  1.00  0.00     0.120 C 
ATOM      8  C   UNL     1      -5.451  10.841  -0.708  1.00  0.00     0.024 C 
ATOM      9  C   UNL     1      -6.030   9.431  -0.596  1.00  0.00     0.037 C 
BRANCH   6  10
ATOM     10  C   UNL     1      -3.816   9.418  -3.618  1.00  0.00     0.264 C 
ATOM     11  O   UNL     1      -3.465  10.404  -4.282  1.00  0.00    -0.271 OA
BRANCH  10  12
ATOM     12  C   UNL     1      -3.482   8.017  -4.157  1.00  0.00     0.363 C 
BRANCH  12  13
ATOM     13  O   UNL     1      -3.137   6.944  -3.300  1.00  0.00    -0.385 OA
BRANCH  13  14
ATOM     14  N   UNL     1      -1.765   6.983  -3.040  1.00  0.00    -0.091 NA
ATOM     15  C   UNL     1       2.338  -0.045   0.060  1.00  0.00     0.014 C 
ATOM     16  C   UNL     1       1.664   0.922  -0.955  1.00  0.00    -0.003 C 
ATOM     17  C   UNL     1       2.352   2.277  -0.788  1.00  0.00     0.010 C 
ATOM     18  C   UNL     1       0.125   1.067  -0.829  1.00  0.00     0.001 C 
ATOM     19  C   UNL     1       1.676   0.316  -2.373  1.00  0.00     0.120 C 
ATOM     20  C   UNL     1       1.906   2.965   0.519  1.00  0.00     0.005 C 
ATOM     21  C   UNL     1      -0.331   1.728   0.470  1.00  0.00    -0.003 C 
ATOM     22  C   UNL     1      -0.353  -0.353  -1.173  1.00  0.00     0.007 C 
ATOM     23  C   UNL     1       0.645  -0.824  -2.257  1.00  0.00     0.032 C 
ATOM     24  C   UNL     1       0.371   3.099   0.687  1.00  0.00     0.002 C 
ATOM     25  C   UNL     1      -1.850   1.853   0.615  1.00  0.00     0.008 C 
ATOM     26  C   UNL     1      -0.250   4.365  -0.048  1.00  0.00    -0.008 C 
ATOM     27  C   UNL     1      -2.515   3.078  -0.019  1.00  0.00     0.032 C 
ATOM     28  C   UNL     1      -1.633   4.135  -0.632  1.00  0.00    -0.062 C 
ATOM     29  C   UNL     1       0.623   4.879  -1.228  1.00  0.00     0.018 C 
ATOM     30  C   UNL     1      -0.393   5.481   1.022  1.00  0.00     0.016 C 
ATOM     31  C   UNL     1      -2.099   4.908  -1.639  1.00  0.00     0.027 C 
ATOM     32  C   UNL     1       0.122   6.151  -1.885  1.00  0.00     0.061 C 
ATOM     33  C   UNL     1      -1.338   6.050  -2.244  1.00  0.00     0.080 C 
BRANCH  19  34
ATOM     34  O   UNL     1       2.936  -0.135  -2.810  1.00  0.00    -0.393 OA
ATOM     35  H   UNL     1       3.267  -0.814  -2.201  1.00  0.00     0.210 HD
ENDBRANCH  19  34
ENDBRANCH  13  14
ENDBRANCH  12  13
ENDBRANCH  10  12
ENDBRANCH   6  10
ENDBRANCH   1   5
BRANCH   3  36
ATOM     36  C   UNL     1      -6.075   5.558  -1.937  1.00  0.00     0.117 C 
BRANCH  36  37
ATOM     37  C   UNL     1      -5.850   5.183  -3.418  1.00  0.00     0.042 C 
BRANCH  37  38
ATOM     38  C   UNL     1      -4.834   4.095  -3.829  1.00  0.00     0.118 C 
BRANCH  38  39
ATOM     39  N   UNL     1      -4.803   2.921  -2.975  1.00  0.00    -0.352 N 
ATOM     40  C   UNL     1      -4.152   1.712  -3.121  1.00  0.00     0.251 C 
ATOM     41  H   UNL     1      -5.337   3.000  -2.152  1.00  0.00     0.163 HD
ATOM     42  O   UNL     1      -4.335   0.844  -2.280  1.00  0.00    -0.269 OA
BRANCH  40  43
ATOM     43  C   UNL     1      -3.295   1.405  -4.293  1.00  0.00     0.039 A 
ATOM     44  C   UNL     1      -3.497   0.166  -4.918  1.00  0.00     0.014 A 
ATOM     45  C   UNL     1      -2.293   2.256  -4.763  1.00  0.00     0.014 A 
ATOM     46  C   UNL     1      -2.793  -0.166  -6.078  1.00  0.00     0.010 A 
ATOM     47  C   UNL     1      -1.599   1.934  -5.939  1.00  0.00     0.010 A 
ATOM     48  C   UNL     1      -1.884   0.747  -6.633  1.00  0.00    -0.014 A 
BRANCH  48  49
ATOM     49  C   UNL     1      -1.421   0.558  -8.032  1.00  0.00     0.031 A 
ATOM     50  C   UNL     1      -0.043   0.075  -8.366  1.00  0.00     0.074 A 
ATOM     51  C   UNL     1      -2.289   0.865  -9.017  1.00  0.00     0.049 A 
ATOM     52  N   UNL     1       0.484  -0.143  -9.545  1.00  0.00    -0.248 NA
ATOM     53  C   UNL     1       0.861  -0.190  -7.240  1.00  0.00     0.031 C 
ATOM     54  C   UNL     1      -3.651   1.363  -8.806  1.00  0.00     0.029 A 
ATOM     55  N   UNL     1      -2.164   0.812 -10.382  1.00  0.00    -0.354 N 
ATOM     56  C   UNL     1       1.780  -0.581  -9.309  1.00  0.00     0.074 A 
ATOM     57  C   UNL     1       1.968  -0.565  -7.871  1.00  0.00     0.031 C 
ATOM     58  C   UNL     1      -4.236   1.565  -9.995  1.00  0.00     0.029 A 
ATOM     59  C   UNL     1      -3.286   1.238 -11.052  1.00  0.00     0.049 A 
ATOM     60  H   UNL     1      -1.350   0.498 -10.838  1.00  0.00     0.167 HD
ATOM     61  C   UNL     1       2.717  -0.968 -10.210  1.00  0.00     0.037 A 
ATOM     62  C   UNL     1      -3.524   1.362 -12.371  1.00  0.00     0.037 A 
ATOM     63  C   UNL     1       2.522  -0.969 -11.640  1.00  0.00     0.049 A 
ATOM     64  C   UNL     1      -2.456   0.961 -13.345  1.00  0.00     0.074 A 
ATOM     65  C   UNL     1       3.396  -1.384 -12.631  1.00  0.00     0.029 A 
ATOM     66  N   UNL     1       1.378  -0.519 -12.284  1.00  0.00    -0.354 N 
ATOM     67  N   UNL     1      -1.261   0.480 -13.103  1.00  0.00    -0.248 NA
ATOM     68  C   UNL     1      -2.768   1.112 -14.772  1.00  0.00     0.031 C 
ATOM     69  C   UNL     1       2.799  -1.141 -13.874  1.00  0.00     0.029 A 
ATOM     70  C   UNL     1       1.535  -0.617 -13.658  1.00  0.00     0.049 A 
ATOM     71  H   UNL     1       0.572  -0.179 -11.831  1.00  0.00     0.167 HD
ATOM     72  C   UNL     1      -0.685   0.252 -14.345  1.00  0.00     0.074 A 
ATOM     73  C   UNL     1      -1.669   0.633 -15.338  1.00  0.00     0.031 C 
ATOM     74  C   UNL     1       0.548  -0.229 -14.634  1.00  0.00     0.037 A 
BRANCH  61  75
ATOM     75  C   UNL     1       4.048  -1.416  -9.678  1.00  0.00     0.057 A 
ATOM     76  C   UNL     1       4.203  -2.642  -9.019  1.00  0.00     0.134 A 
ATOM     77  C   UNL     1       5.197  -0.637  -9.869  1.00  0.00     0.134 A 
ATOM     78  F   UNL     1       3.144  -3.437  -8.803  1.00  0.00    -0.206 F 
ATOM     79  C   UNL     1       5.447  -3.065  -8.544  1.00  0.00     0.040 A 
ATOM     80  C   UNL     1       6.450  -1.060  -9.419  1.00  0.00     0.040 A 
ATOM     81  F   UNL     1       5.123   0.542 -10.504  1.00  0.00    -0.206 F 
ATOM     82  C   UNL     1       6.576  -2.275  -8.749  1.00  0.00     0.006 A 
ENDBRANCH  61  75
BRANCH  62  83
ATOM     83  C   UNL     1      -4.834   1.879 -12.838  1.00  0.00     0.057 A 
ATOM     84  C   UNL     1      -5.761   1.042 -13.467  1.00  0.00     0.134 A 
ATOM     85  C   UNL     1      -5.196   3.220 -12.653  1.00  0.00     0.134 A 
ATOM     86  F   UNL     1      -5.466  -0.248 -13.686  1.00  0.00    -0.206 F 
ATOM     87  C   UNL     1      -6.997   1.520 -13.907  1.00  0.00     0.040 A 
ATOM     88  C   UNL     1      -6.437   3.706 -13.066  1.00  0.00     0.040 A 
ATOM     89  F   UNL     1      -4.355   4.071 -12.046  1.00  0.00    -0.206 F 
ATOM     90  C   UNL     1      -7.339   2.855 -13.701  1.00  0.00     0.006 A 
ENDBRANCH  62  83
BRANCH  74  91
ATOM     91  C   UNL     1       0.893  -0.384 -16.086  1.00  0.00     0.057 A 
ATOM     92  C   UNL     1       1.177   0.723 -16.896  1.00  0.00     0.134 A 
ATOM     93  C   UNL     1       0.970  -1.653 -16.671  1.00  0.00     0.134 A 
ATOM     94  F   UNL     1       1.102   1.967 -16.400  1.00  0.00    -0.206 F 
ATOM     95  C   UNL     1       1.511   0.572 -18.243  1.00  0.00     0.040 A 
ATOM     96  C   UNL     1       1.325  -1.818 -18.011  1.00  0.00     0.040 A 
ATOM     97  F   UNL     1       0.711  -2.754 -15.948  1.00  0.00    -0.206 F 
ATOM     98  C   UNL     1       1.592  -0.703 -18.802  1.00  0.00     0.006 A 
ENDBRANCH  74  91
ENDBRANCH  48  49
ENDBRANCH  40  43
ENDBRANCH  38  39
ENDBRANCH  37  38
ENDBRANCH  36  37
ENDBRANCH   3  36
TORSDOF 15
