REMARK SMILES O=C(CNC(=O)c1cccs1)N[C@@H]1C=C[C@H](C(=O)NCCCNC(=O)c2ccc(-c3c4nc(c(-c5c(F)cccc5F)c5ccc([nH]5)c(-c5c(F)cccc5F)c5nc(c(-c6c(F)cccc6F)c6ccc3[nH]6)C=C5)C=C4)cc2)C1
REMARK SMILES IDX 20 1 19 2 17 3 18 4 16 6 13 7 14 8 80 9 15 10 12 11 1 12
REMARK SMILES IDX 2 13 3 15 4 16 5 17 6 19 7 20 8 21 11 22 9 23 10 24 21 25
REMARK SMILES IDX 22 26 23 27 24 28 25 30 26 31 27 32 79 33 28 34 78 35 29 36
REMARK SMILES IDX 30 37 31 38 72 39 32 40 77 41 71 42 73 43 33 44 76 45 70 46
REMARK SMILES IDX 69 47 34 49 60 50 43 51 59 52 44 53 47 54 58 55 74 56 45 57
REMARK SMILES IDX 46 58 57 60 75 61 48 62 35 63 36 64 41 65 37 66 38 67 40 68
REMARK SMILES IDX 42 69 39 70 61 71 62 72 67 73 63 74 64 75 66 76 68 77 65 78
REMARK SMILES IDX 49 79 50 80 55 81 51 82 52 83 54 84 56 85 53 86
REMARK H PARENT 19 5 12 14 4 18 23 29 73 48 47 59
REMARK Flexibility Score: inf
ROOT
ATOM      1  C   UNL     1      -1.023   5.338   0.794  1.00  0.00     0.117 C 
ENDROOT
BRANCH   1   2
ATOM      2  N   UNL     1      -0.260   5.619  -0.409  1.00  0.00    -0.356 N 
ATOM      3  C   UNL     1       0.899   5.031  -0.841  1.00  0.00     0.227 C 
ATOM      4  O   UNL     1       1.293   5.290  -1.979  1.00  0.00    -0.274 OA
ATOM      5  H   UNL     1      -0.623   6.325  -0.991  1.00  0.00     0.163 HD
BRANCH   3   6
ATOM      6  C   UNL     1       1.641   4.088   0.111  1.00  0.00     0.103 C 
ATOM      7  C   UNL     1       2.932   2.318  -1.012  1.00  0.00     0.106 C 
ATOM      8  C   UNL     1       1.653   1.799  -0.449  1.00  0.00    -0.006 C 
ATOM      9  C   UNL     1       3.050   3.714  -0.382  1.00  0.00     0.047 C 
ATOM     10  C   UNL     1       0.951   2.755   0.167  1.00  0.00    -0.016 C 
BRANCH   7  11
ATOM     11  N   UNL     1       2.803   2.366  -2.443  1.00  0.00    -0.348 N 
ATOM     12  O   UNL     1       5.064   2.467  -2.832  1.00  0.00    -0.273 OA
ATOM     13  C   UNL     1       3.911   2.478  -3.253  1.00  0.00     0.239 C 
ATOM     14  H   UNL     1       1.909   2.317  -2.851  1.00  0.00     0.164 HD
BRANCH  13  15
ATOM     15  C   UNL     1       3.583   2.592  -4.738  1.00  0.00     0.216 C 
BRANCH  15  16
ATOM     16  N   UNL     1       3.102   1.309  -5.224  1.00  0.00    -0.342 N 
ATOM     17  C   UNL     1       1.954   1.019  -5.915  1.00  0.00     0.261 C 
ATOM     18  H   UNL     1       3.683   0.539  -5.029  1.00  0.00     0.164 HD
ATOM     19  O   UNL     1       1.648  -0.180  -6.015  1.00  0.00    -0.268 OA
BRANCH  17  20
ATOM     20  C   UNL     1       1.168   2.096  -6.476  1.00  0.00     0.092 A 
ATOM     21  C   UNL     1       1.574   3.235  -7.147  1.00  0.00     0.025 A 
ATOM     22  S   UNL     1      -0.543   2.012  -6.380  1.00  0.00    -0.139 S 
ATOM     23  C   UNL     1       0.480   4.067  -7.525  1.00  0.00     0.012 A 
ATOM     24  C   UNL     1      -0.730   3.520  -7.164  1.00  0.00     0.065 A 
ENDBRANCH  17  20
ENDBRANCH  15  16
ENDBRANCH  13  15
ENDBRANCH   7  11
ENDBRANCH   3   6
ENDBRANCH   1   2
BRANCH   1  25
ATOM     25  C   UNL     1      -1.471   6.594   1.527  1.00  0.00     0.042 C 
BRANCH  25  26
ATOM     26  C   UNL     1      -2.383   7.510   0.722  1.00  0.00     0.118 C 
BRANCH  26  27
ATOM     27  N   UNL     1      -3.653   6.891   0.366  1.00  0.00    -0.352 N 
ATOM     28  C   UNL     1      -4.936   7.183   0.760  1.00  0.00     0.251 C 
ATOM     29  H   UNL     1      -3.579   6.137  -0.264  1.00  0.00     0.163 HD
ATOM     30  O   UNL     1      -5.852   6.427   0.447  1.00  0.00    -0.269 OA
BRANCH  28  31
ATOM     31  C   UNL     1      -5.225   8.377   1.585  1.00  0.00     0.039 A 
ATOM     32  C   UNL     1      -6.145   8.267   2.633  1.00  0.00     0.014 A 
ATOM     33  C   UNL     1      -4.612   9.604   1.327  1.00  0.00     0.014 A 
ATOM     34  C   UNL     1      -6.380   9.360   3.471  1.00  0.00     0.010 A 
ATOM     35  C   UNL     1      -4.773  10.661   2.217  1.00  0.00     0.010 A 
ATOM     36  C   UNL     1      -5.660  10.553   3.298  1.00  0.00    -0.014 A 
BRANCH  36  37
ATOM     37  C   UNL     1      -5.816  11.698   4.230  1.00  0.00     0.031 A 
ATOM     38  C   UNL     1      -6.309  13.025   3.723  1.00  0.00     0.074 A 
ATOM     39  C   UNL     1      -5.426  11.574   5.514  1.00  0.00     0.049 A 
ATOM     40  N   UNL     1      -6.404  14.169   4.352  1.00  0.00    -0.248 NA
ATOM     41  C   UNL     1      -6.712  13.082   2.309  1.00  0.00     0.031 C 
ATOM     42  C   UNL     1      -4.869  10.362   6.117  1.00  0.00     0.029 A 
ATOM     43  N   UNL     1      -5.421  12.487   6.538  1.00  0.00    -0.354 N 
ATOM     44  C   UNL     1      -6.852  15.083   3.407  1.00  0.00     0.074 A 
ATOM     45  C   UNL     1      -6.956  14.374   2.150  1.00  0.00     0.031 C 
ATOM     46  C   UNL     1      -4.590  10.601   7.408  1.00  0.00     0.029 A 
ATOM     47  C   UNL     1      -4.916  11.991   7.715  1.00  0.00     0.049 A 
ATOM     48  H   UNL     1      -5.748  13.410   6.439  1.00  0.00     0.167 HD
ATOM     49  C   UNL     1      -7.172  16.389   3.574  1.00  0.00     0.037 A 
ATOM     50  C   UNL     1      -4.728  12.588   8.906  1.00  0.00     0.037 A 
ATOM     51  C   UNL     1      -7.103  17.085   4.831  1.00  0.00     0.049 A 
ATOM     52  C   UNL     1      -5.120  14.027   9.080  1.00  0.00     0.074 A 
ATOM     53  C   UNL     1      -7.472  18.387   5.119  1.00  0.00     0.029 A 
ATOM     54  N   UNL     1      -6.633  16.532   6.013  1.00  0.00    -0.354 N 
ATOM     55  N   UNL     1      -5.604  14.862   8.193  1.00  0.00    -0.248 NA
ATOM     56  C   UNL     1      -4.948  14.605  10.420  1.00  0.00     0.031 C 
ATOM     57  C   UNL     1      -7.196  18.632   6.469  1.00  0.00     0.029 A 
ATOM     58  C   UNL     1      -6.689  17.471   7.030  1.00  0.00     0.049 A 
ATOM     59  H   UNL     1      -6.307  15.609   6.114  1.00  0.00     0.167 HD
ATOM     60  C   UNL     1      -5.811  16.057   8.869  1.00  0.00     0.074 A 
ATOM     61  C   UNL     1      -5.414  15.834  10.245  1.00  0.00     0.031 C 
ATOM     62  C   UNL     1      -6.287  17.233   8.393  1.00  0.00     0.037 A 
BRANCH  49  63
ATOM     63  C   UNL     1      -7.632  17.140   2.358  1.00  0.00     0.057 A 
ATOM     64  C   UNL     1      -8.872  16.883   1.758  1.00  0.00     0.134 A 
ATOM     65  C   UNL     1      -6.828  18.130   1.780  1.00  0.00     0.134 A 
ATOM     66  F   UNL     1      -9.684  15.936   2.254  1.00  0.00    -0.206 F 
ATOM     67  C   UNL     1      -9.279  17.555   0.604  1.00  0.00     0.040 A 
ATOM     68  C   UNL     1      -7.237  18.829   0.643  1.00  0.00     0.040 A 
ATOM     69  F   UNL     1      -5.632  18.431   2.308  1.00  0.00    -0.206 F 
ATOM     70  C   UNL     1      -8.461  18.535   0.046  1.00  0.00     0.006 A 
ENDBRANCH  49  63
BRANCH  50  71
ATOM     71  C   UNL     1      -4.162  11.809  10.034  1.00  0.00     0.057 A 
ATOM     72  C   UNL     1      -4.970  11.388  11.096  1.00  0.00     0.134 A 
ATOM     73  C   UNL     1      -2.811  11.445  10.065  1.00  0.00     0.134 A 
ATOM     74  F   UNL     1      -6.268  11.721  11.128  1.00  0.00    -0.206 F 
ATOM     75  C   UNL     1      -4.454  10.637  12.153  1.00  0.00     0.040 A 
ATOM     76  C   UNL     1      -2.285  10.678  11.106  1.00  0.00     0.040 A 
ATOM     77  F   UNL     1      -1.988  11.811   9.071  1.00  0.00    -0.206 F 
ATOM     78  C   UNL     1      -3.108  10.275  12.156  1.00  0.00     0.006 A 
ENDBRANCH  50  71
BRANCH  62  79
ATOM     79  C   UNL     1      -6.421  18.363   9.370  1.00  0.00     0.057 A 
ATOM     80  C   UNL     1      -5.305  19.065   9.840  1.00  0.00     0.134 A 
ATOM     81  C   UNL     1      -7.683  18.776   9.814  1.00  0.00     0.134 A 
ATOM     82  F   UNL     1      -4.068  18.708   9.463  1.00  0.00    -0.206 F 
ATOM     83  C   UNL     1      -5.439  20.130  10.732  1.00  0.00     0.040 A 
ATOM     84  C   UNL     1      -7.831  19.854  10.688  1.00  0.00     0.040 A 
ATOM     85  F   UNL     1      -8.793  18.148   9.395  1.00  0.00    -0.206 F 
ATOM     86  C   UNL     1      -6.706  20.531  11.153  1.00  0.00     0.006 A 
ENDBRANCH  62  79
ENDBRANCH  36  37
ENDBRANCH  28  31
ENDBRANCH  26  27
ENDBRANCH  25  26
ENDBRANCH   1  25
TORSDOF 14
