REMARK SMILES Cc1cccc2c1[C@H]1c3c(C)cccc3[C@H](CC(=O)NCCCNC(=O)c3ccc(-c4c5nc(c(-c6c(F)cccc6F)c6ccc([nH]6)c(-c6c(F)cccc6F)c6nc(c(-c7c(F)cccc7F)c7ccc4[nH]7)C=C6)C=C5)cc3)C[C@H]1CC2
REMARK SMILES IDX 22 1 21 2 20 3 18 4 19 5 17 7 16 8 1 9 2 10 3 11 7 12 4 13
REMARK SMILES IDX 6 14 8 15 5 16 84 17 9 18 82 19 83 20 10 21 15 22 81 23
REMARK SMILES IDX 12 24 11 25 14 26 13 27 23 28 24 29 25 30 26 32 27 33 28 34
REMARK SMILES IDX 80 35 29 36 79 37 30 38 31 39 32 40 73 41 33 42 78 43 72 44
REMARK SMILES IDX 74 45 34 46 77 47 71 48 70 49 35 51 61 52 44 53 60 54 45 55
REMARK SMILES IDX 48 56 59 57 75 58 46 59 47 60 58 62 76 63 49 64 36 65 37 66
REMARK SMILES IDX 42 67 38 68 39 69 41 70 43 71 40 72 62 73 63 74 68 75 64 76
REMARK SMILES IDX 65 77 67 78 69 79 66 80 50 81 51 82 56 83 52 84 53 85 55 86
REMARK SMILES IDX 57 87 54 88
REMARK H PARENT 20 6 24 31 74 50 48 61
REMARK Flexibility Score: inf
ROOT
ATOM      1  C   UNL     1      -6.153  -1.524   4.549  1.00  0.00     0.042 C 
ENDROOT
BRANCH   1   2
ATOM      2  C   UNL     1      -5.408  -2.857   4.553  1.00  0.00     0.117 C 
BRANCH   2   3
ATOM      3  N   UNL     1      -5.857  -3.726   3.477  1.00  0.00    -0.356 N 
ATOM      4  C   UNL     1      -5.498  -3.914   2.188  1.00  0.00     0.220 C 
ATOM      5  O   UNL     1      -6.243  -4.666   1.544  1.00  0.00    -0.275 OA
ATOM      6  H   UNL     1      -6.596  -4.315   3.752  1.00  0.00     0.163 HD
BRANCH   4   7
ATOM      7  C   UNL     1      -4.239  -3.389   1.506  1.00  0.00     0.108 C 
BRANCH   7   8
ATOM      8  C   UNL     1      -3.595  -2.065   1.950  1.00  0.00     0.029 C 
ATOM      9  C   UNL     1       1.095   0.467  -0.394  1.00  0.00     0.044 C 
ATOM     10  C   UNL     1       0.579   1.413   0.662  1.00  0.00    -0.047 A 
ATOM     11  C   UNL     1       1.306   2.594   0.890  1.00  0.00     0.004 A 
ATOM     12  C   UNL     1      -0.625   1.184   1.378  1.00  0.00    -0.034 A 
ATOM     13  C   UNL     1       0.852   3.551   1.790  1.00  0.00     0.001 A 
ATOM     14  C   UNL     1      -1.139   2.222   2.191  1.00  0.00    -0.044 A 
ATOM     15  C   UNL     1      -1.388  -0.135   1.276  1.00  0.00     0.053 C 
ATOM     16  C   UNL     1      -0.377   3.380   2.415  1.00  0.00     0.004 A 
ATOM     17  C   UNL     1      -2.551   2.208   2.727  1.00  0.00     0.036 C 
ATOM     18  C   UNL     1      -1.150  -1.238   2.348  1.00  0.00    -0.034 A 
ATOM     19  C   UNL     1      -2.884   0.233   1.160  1.00  0.00     0.002 C 
ATOM     20  C   UNL     1      -3.357   0.944   2.439  1.00  0.00     0.009 C 
ATOM     21  C   UNL     1       0.059  -1.412   3.087  1.00  0.00    -0.047 A 
ATOM     22  C   UNL     1      -2.187  -2.209   2.549  1.00  0.00    -0.040 A 
ATOM     23  C   UNL     1      -3.673  -1.029   0.824  1.00  0.00     0.013 C 
ATOM     24  C   UNL     1       0.202  -2.504   3.972  1.00  0.00     0.004 A 
ATOM     25  C   UNL     1       1.264  -0.511   3.031  1.00  0.00     0.044 C 
ATOM     26  C   UNL     1      -1.982  -3.285   3.444  1.00  0.00     0.004 A 
ATOM     27  C   UNL     1      -0.802  -3.435   4.147  1.00  0.00     0.001 A 
ENDBRANCH   7   8
ENDBRANCH   4   7
ENDBRANCH   2   3
ENDBRANCH   1   2
BRANCH   1  28
ATOM     28  C   UNL     1      -7.629  -1.661   4.902  1.00  0.00     0.118 C 
BRANCH  28  29
ATOM     29  N   UNL     1      -7.834  -1.977   6.309  1.00  0.00    -0.352 N 
ATOM     30  C   UNL     1      -8.462  -1.238   7.280  1.00  0.00     0.251 C 
ATOM     31  H   UNL     1      -7.470  -2.843   6.605  1.00  0.00     0.163 HD
ATOM     32  O   UNL     1      -8.381  -1.565   8.459  1.00  0.00    -0.269 OA
BRANCH  30  33
ATOM     33  C   UNL     1      -9.218  -0.029   6.899  1.00  0.00     0.039 A 
ATOM     34  C   UNL     1      -8.975   1.163   7.584  1.00  0.00     0.014 A 
ATOM     35  C   UNL     1     -10.153  -0.073   5.859  1.00  0.00     0.014 A 
ATOM     36  C   UNL     1      -9.621   2.331   7.179  1.00  0.00     0.010 A 
ATOM     37  C   UNL     1     -10.749   1.104   5.417  1.00  0.00     0.010 A 
ATOM     38  C   UNL     1     -10.488   2.315   6.073  1.00  0.00    -0.014 A 
BRANCH  38  39
ATOM     39  C   UNL     1     -11.119   3.568   5.595  1.00  0.00     0.031 A 
ATOM     40  C   UNL     1     -12.596   3.780   5.753  1.00  0.00     0.074 A 
ATOM     41  C   UNL     1     -10.360   4.501   4.990  1.00  0.00     0.049 A 
ATOM     42  N   UNL     1     -13.316   4.829   5.444  1.00  0.00    -0.248 NA
ATOM     43  C   UNL     1     -13.369   2.662   6.316  1.00  0.00     0.031 C 
ATOM     44  C   UNL     1      -8.924   4.383   4.726  1.00  0.00     0.029 A 
ATOM     45  N   UNL     1     -10.691   5.734   4.490  1.00  0.00    -0.354 N 
ATOM     46  C   UNL     1     -14.621   4.502   5.787  1.00  0.00     0.074 A 
ATOM     47  C   UNL     1     -14.605   3.135   6.262  1.00  0.00     0.031 C 
ATOM     48  C   UNL     1      -8.493   5.511   4.137  1.00  0.00     0.029 A 
ATOM     49  C   UNL     1      -9.621   6.421   3.970  1.00  0.00     0.049 A 
ATOM     50  H   UNL     1     -11.607   6.092   4.503  1.00  0.00     0.167 HD
ATOM     51  C   UNL     1     -15.729   5.280   5.738  1.00  0.00     0.037 A 
ATOM     52  C   UNL     1      -9.560   7.653   3.432  1.00  0.00     0.037 A 
ATOM     53  C   UNL     1     -15.745   6.638   5.260  1.00  0.00     0.049 A 
ATOM     54  C   UNL     1     -10.808   8.489   3.370  1.00  0.00     0.074 A 
ATOM     55  C   UNL     1     -16.804   7.527   5.213  1.00  0.00     0.029 A 
ATOM     56  N   UNL     1     -14.645   7.299   4.735  1.00  0.00    -0.354 N 
ATOM     57  N   UNL     1     -12.019   8.202   3.783  1.00  0.00    -0.248 NA
ATOM     58  C   UNL     1     -10.674   9.827   2.779  1.00  0.00     0.031 C 
ATOM     59  C   UNL     1     -16.353   8.714   4.624  1.00  0.00     0.029 A 
ATOM     60  C   UNL     1     -15.004   8.577   4.340  1.00  0.00     0.049 A 
ATOM     61  H   UNL     1     -13.741   6.916   4.655  1.00  0.00     0.167 HD
ATOM     62  C   UNL     1     -12.785   9.331   3.525  1.00  0.00     0.074 A 
ATOM     63  C   UNL     1     -11.896  10.313   2.938  1.00  0.00     0.031 C 
ATOM     64  C   UNL     1     -14.105   9.538   3.753  1.00  0.00     0.037 A 
BRANCH  51  65
ATOM     65  C   UNL     1     -17.010   4.672   6.228  1.00  0.00     0.057 A 
ATOM     66  C   UNL     1     -18.039   4.343   5.338  1.00  0.00     0.134 A 
ATOM     67  C   UNL     1     -17.224   4.413   7.590  1.00  0.00     0.134 A 
ATOM     68  F   UNL     1     -17.901   4.567   4.023  1.00  0.00    -0.206 F 
ATOM     69  C   UNL     1     -19.233   3.772   5.784  1.00  0.00     0.040 A 
ATOM     70  C   UNL     1     -18.403   3.820   8.044  1.00  0.00     0.040 A 
ATOM     71  F   UNL     1     -16.271   4.690   8.492  1.00  0.00    -0.206 F 
ATOM     72  C   UNL     1     -19.414   3.502   7.139  1.00  0.00     0.006 A 
ENDBRANCH  51  65
BRANCH  52  73
ATOM     73  C   UNL     1      -8.267   8.194   2.948  1.00  0.00     0.057 A 
ATOM     74  C   UNL     1      -7.667   7.719   1.777  1.00  0.00     0.134 A 
ATOM     75  C   UNL     1      -7.615   9.224   3.637  1.00  0.00     0.134 A 
ATOM     76  F   UNL     1      -8.239   6.729   1.076  1.00  0.00    -0.206 F 
ATOM     77  C   UNL     1      -6.466   8.252   1.305  1.00  0.00     0.040 A 
ATOM     78  C   UNL     1      -6.426   9.780   3.166  1.00  0.00     0.040 A 
ATOM     79  F   UNL     1      -8.153   9.731   4.757  1.00  0.00    -0.206 F 
ATOM     80  C   UNL     1      -5.847   9.292   1.996  1.00  0.00     0.006 A 
ENDBRANCH  52  73
BRANCH  64  81
ATOM     81  C   UNL     1     -14.651  10.886   3.382  1.00  0.00     0.057 A 
ATOM     82  C   UNL     1     -15.001  11.811   4.372  1.00  0.00     0.134 A 
ATOM     83  C   UNL     1     -14.827  11.268   2.046  1.00  0.00     0.134 A 
ATOM     84  F   UNL     1     -14.862  11.506   5.671  1.00  0.00    -0.206 F 
ATOM     85  C   UNL     1     -15.502  13.072   4.046  1.00  0.00     0.040 A 
ATOM     86  C   UNL     1     -15.302  12.535   1.707  1.00  0.00     0.040 A 
ATOM     87  F   UNL     1     -14.494  10.432   1.050  1.00  0.00    -0.206 F 
ATOM     88  C   UNL     1     -15.644  13.441   2.710  1.00  0.00     0.006 A 
ENDBRANCH  64  81
ENDBRANCH  38  39
ENDBRANCH  30  33
ENDBRANCH  28  29
ENDBRANCH   1  28
TORSDOF 11
