REMARK SMILES O=C(C[C@@H]1CN(C(=O)N2CCC[C@H]2CO)CCO1)NCCCNC(=O)c1ccc(-c2c3nc(c(-c4c(F)cccc4F)c4ccc([nH]4)c(-c4c(F)cccc4F)c4nc(c(-c5c(F)cccc5F)c5ccc2[nH]5)C=C4)C=C3)cc1
REMARK SMILES IDX 1 1 2 2 19 3 3 5 4 6 5 7 18 8 6 9 17 10 16 11 7 12 8 13 9 14
REMARK SMILES IDX 10 15 13 16 11 17 12 18 14 19 15 20 20 22 21 23 22 24 23 25
REMARK SMILES IDX 24 26 25 28 26 29 27 30 79 31 28 32 78 33 29 34 30 35 31 36
REMARK SMILES IDX 72 37 32 38 77 39 71 40 73 41 33 42 76 43 70 44 69 45 34 47
REMARK SMILES IDX 60 48 43 49 59 50 44 51 47 52 58 53 74 54 45 55 46 56 57 58
REMARK SMILES IDX 75 59 48 60 35 61 36 62 41 63 37 64 38 65 40 66 42 67 39 68
REMARK SMILES IDX 61 69 62 70 67 71 63 72 64 73 66 74 68 75 65 76 49 77 50 78
REMARK SMILES IDX 55 79 51 80 52 81 54 82 56 83 53 84
REMARK H PARENT 19 4 15 21 23 27 73 46 47 57
REMARK Flexibility Score: inf
ROOT
ATOM      1  O   UNL     1       1.060  -0.222   0.385  1.00  0.00    -0.275 OA
ATOM      2  C   UNL     1       2.243   0.023   0.164  1.00  0.00     0.222 C 
ATOM      3  N   UNL     1       2.795   1.277   0.230  1.00  0.00    -0.356 N 
ATOM      4  H   UNL     1       3.748   1.371   0.001  1.00  0.00     0.163 HD
ENDROOT
BRANCH   2   5
ATOM      5  C   UNL     1       3.256  -1.068  -0.107  1.00  0.00     0.133 C 
BRANCH   5   6
ATOM      6  C   UNL     1       4.022  -0.867  -1.413  1.00  0.00     0.147 C 
ATOM      7  C   UNL     1       5.063  -1.983  -1.583  1.00  0.00     0.154 C 
ATOM      8  O   UNL     1       4.725   0.401  -1.393  1.00  0.00    -0.374 OA
ATOM      9  N   UNL     1       5.803  -1.803  -2.835  1.00  0.00    -0.320 N 
ATOM     10  C   UNL     1       5.384   0.625  -2.656  1.00  0.00     0.182 C 
ATOM     11  C   UNL     1       6.405  -0.475  -2.960  1.00  0.00     0.150 C 
BRANCH   9  12
ATOM     12  C   UNL     1       6.397  -2.855  -3.499  1.00  0.00     0.320 C 
ATOM     13  O   UNL     1       7.544  -2.764  -3.937  1.00  0.00    -0.248 OA
BRANCH  12  14
ATOM     14  N   UNL     1       5.676  -4.012  -3.629  1.00  0.00    -0.319 N 
ATOM     15  C   UNL     1       4.235  -4.183  -3.684  1.00  0.00     0.122 C 
ATOM     16  C   UNL     1       6.335  -5.302  -3.830  1.00  0.00     0.112 C 
ATOM     17  C   UNL     1       4.051  -5.533  -3.019  1.00  0.00     0.024 C 
ATOM     18  C   UNL     1       5.218  -6.340  -3.586  1.00  0.00     0.029 C 
BRANCH  16  19
ATOM     19  C   UNL     1       6.979  -5.465  -5.219  1.00  0.00     0.181 C 
BRANCH  19  20
ATOM     20  O   UNL     1       7.355  -6.820  -5.460  1.00  0.00    -0.394 OA
ATOM     21  H   UNL     1       8.005  -7.098  -4.797  1.00  0.00     0.210 HD
ENDBRANCH  19  20
ENDBRANCH  16  19
ENDBRANCH  12  14
ENDBRANCH   9  12
ENDBRANCH   5   6
ENDBRANCH   2   5
BRANCH   3  22
ATOM     22  C   UNL     1       2.075   2.469   0.613  1.00  0.00     0.117 C 
BRANCH  22  23
ATOM     23  C   UNL     1       2.398   2.896   2.042  1.00  0.00     0.042 C 
BRANCH  23  24
ATOM     24  C   UNL     1       3.881   3.132   2.325  1.00  0.00     0.118 C 
BRANCH  24  25
ATOM     25  N   UNL     1       4.460   4.208   1.534  1.00  0.00    -0.352 N 
ATOM     26  C   UNL     1       5.174   5.314   1.919  1.00  0.00     0.251 C 
ATOM     27  H   UNL     1       4.317   4.128   0.563  1.00  0.00     0.163 HD
ATOM     28  O   UNL     1       5.473   6.162   1.075  1.00  0.00    -0.269 OA
BRANCH  26  29
ATOM     29  C   UNL     1       5.567   5.527   3.331  1.00  0.00     0.039 A 
ATOM     30  C   UNL     1       5.456   6.815   3.866  1.00  0.00     0.014 A 
ATOM     31  C   UNL     1       6.076   4.492   4.119  1.00  0.00     0.014 A 
ATOM     32  C   UNL     1       5.787   7.049   5.204  1.00  0.00     0.010 A 
ATOM     33  C   UNL     1       6.344   4.712   5.472  1.00  0.00     0.010 A 
ATOM     34  C   UNL     1       6.198   5.991   6.030  1.00  0.00    -0.014 A 
BRANCH  34  35
ATOM     35  C   UNL     1       6.461   6.205   7.478  1.00  0.00     0.031 A 
ATOM     36  C   UNL     1       7.842   6.012   8.044  1.00  0.00     0.074 A 
ATOM     37  C   UNL     1       5.441   6.516   8.302  1.00  0.00     0.049 A 
ATOM     38  N   UNL     1       8.244   6.089   9.288  1.00  0.00    -0.248 NA
ATOM     39  C   UNL     1       8.906   5.667   7.089  1.00  0.00     0.031 C 
ATOM     40  C   UNL     1       4.046   6.690   7.892  1.00  0.00     0.029 A 
ATOM     41  N   UNL     1       5.417   6.731   9.658  1.00  0.00    -0.354 N 
ATOM     42  C   UNL     1       9.600   5.786   9.268  1.00  0.00     0.074 A 
ATOM     43  C   UNL     1       9.942   5.482   7.894  1.00  0.00     0.031 C 
ATOM     44  C   UNL     1       3.308   7.003   8.969  1.00  0.00     0.029 A 
ATOM     45  C   UNL     1       4.167   7.017  10.149  1.00  0.00     0.049 A 
ATOM     46  H   UNL     1       6.221   6.684  10.224  1.00  0.00     0.167 HD
ATOM     47  C   UNL     1      10.484   5.781  10.294  1.00  0.00     0.037 A 
ATOM     48  C   UNL     1       3.755   7.256  11.408  1.00  0.00     0.037 A 
ATOM     49  C   UNL     1      10.153   6.107  11.657  1.00  0.00     0.049 A 
ATOM     50  C   UNL     1       4.755   7.244  12.530  1.00  0.00     0.074 A 
ATOM     51  C   UNL     1      10.994   6.184  12.755  1.00  0.00     0.029 A 
ATOM     52  N   UNL     1       8.878   6.412  12.110  1.00  0.00    -0.354 N 
ATOM     53  N   UNL     1       6.044   7.015  12.485  1.00  0.00    -0.248 NA
ATOM     54  C   UNL     1       4.242   7.531  13.877  1.00  0.00     0.031 C 
ATOM     55  C   UNL     1      10.222   6.498  13.879  1.00  0.00     0.029 A 
ATOM     56  C   UNL     1       8.907   6.659  13.473  1.00  0.00     0.049 A 
ATOM     57  H   UNL     1       8.072   6.446  11.547  1.00  0.00     0.167 HD
ATOM     58  C   UNL     1       6.501   7.157  13.789  1.00  0.00     0.074 A 
ATOM     59  C   UNL     1       5.353   7.505  14.600  1.00  0.00     0.031 C 
ATOM     60  C   UNL     1       7.760   7.012  14.270  1.00  0.00     0.037 A 
BRANCH  47  61
ATOM     61  C   UNL     1      11.905   5.411   9.981  1.00  0.00     0.057 A 
ATOM     62  C   UNL     1      12.749   6.269   9.263  1.00  0.00     0.134 A 
ATOM     63  C   UNL     1      12.447   4.202  10.434  1.00  0.00     0.134 A 
ATOM     64  F   UNL     1      12.288   7.437   8.792  1.00  0.00    -0.206 F 
ATOM     65  C   UNL     1      14.073   5.926   8.985  1.00  0.00     0.040 A 
ATOM     66  C   UNL     1      13.777   3.859  10.185  1.00  0.00     0.040 A 
ATOM     67  F   UNL     1      11.696   3.338  11.134  1.00  0.00    -0.206 F 
ATOM     68  C   UNL     1      14.592   4.720   9.453  1.00  0.00     0.006 A 
ENDBRANCH  47  61
BRANCH  48  69
ATOM     69  C   UNL     1       2.325   7.551  11.677  1.00  0.00     0.057 A 
ATOM     70  C   UNL     1       1.912   8.838  12.041  1.00  0.00     0.134 A 
ATOM     71  C   UNL     1       1.343   6.558  11.587  1.00  0.00     0.134 A 
ATOM     72  F   UNL     1       2.811   9.825  12.164  1.00  0.00    -0.206 F 
ATOM     73  C   UNL     1       0.576   9.124  12.324  1.00  0.00     0.040 A 
ATOM     74  C   UNL     1      -0.001   6.835  11.844  1.00  0.00     0.040 A 
ATOM     75  F   UNL     1       1.675   5.307  11.237  1.00  0.00    -0.206 F 
ATOM     76  C   UNL     1      -0.386   8.120  12.221  1.00  0.00     0.006 A 
ENDBRANCH  48  69
BRANCH  60  77
ATOM     77  C   UNL     1       7.968   7.266  15.734  1.00  0.00     0.057 A 
ATOM     78  C   UNL     1       7.524   6.366  16.711  1.00  0.00     0.134 A 
ATOM     79  C   UNL     1       8.645   8.412  16.169  1.00  0.00     0.134 A 
ATOM     80  F   UNL     1       6.857   5.256  16.361  1.00  0.00    -0.206 F 
ATOM     81  C   UNL     1       7.727   6.609  18.071  1.00  0.00     0.040 A 
ATOM     82  C   UNL     1       8.875   8.654  17.524  1.00  0.00     0.040 A 
ATOM     83  F   UNL     1       9.102   9.311  15.284  1.00  0.00    -0.206 F 
ATOM     84  C   UNL     1       8.409   7.753  18.480  1.00  0.00     0.006 A 
ENDBRANCH  60  77
ENDBRANCH  34  35
ENDBRANCH  26  29
ENDBRANCH  24  25
ENDBRANCH  23  24
ENDBRANCH  22  23
ENDBRANCH   3  22
TORSDOF 15
