REMARK SMILES NC(=O)C[C@H](NC(=O)C1(c2ccccc2)CCN(C(=O)[C@@H]2CCC[NH2+]2)CC1)C(=O)NCCCNC(=O)c1ccc(-c2c3nc(c(-c4c(F)cccc4F)c4ccc([nH]4)c(-c4c(F)cccc4F)c4nc(c(-c5c(F)cccc5F)c5ccc2[nH]5)C=C4)C=C3)cc1
REMARK SMILES IDX 31 1 30 2 28 3 29 4 5 6 4 7 2 8 1 9 3 12 6 13 7 14 8 16 9 17
REMARK SMILES IDX 16 18 27 19 17 20 26 21 18 22 19 23 20 24 10 25 11 26 15 27
REMARK SMILES IDX 12 28 14 29 13 30 21 31 22 32 25 33 23 34 24 35 32 38 33 39
REMARK SMILES IDX 34 40 35 41 36 43 37 44 38 45 90 46 39 47 89 48 40 49 41 50
REMARK SMILES IDX 42 51 83 52 43 53 88 54 82 55 84 56 44 57 87 58 81 59 80 60
REMARK SMILES IDX 45 62 71 63 54 64 70 65 55 66 58 67 69 68 85 69 56 70 57 71
REMARK SMILES IDX 68 73 86 74 59 75 46 76 47 77 52 78 48 79 49 80 51 81 53 82
REMARK SMILES IDX 50 83 72 84 73 85 78 86 74 87 75 88 77 89 79 90 76 91 60 92
REMARK SMILES IDX 61 93 66 94 62 95 63 96 65 97 67 98 64 99
REMARK H PARENT 30 5 1 10 1 11 6 15 25 36 25 37 34 42 84 61 58 72
REMARK Flexibility Score: inf
ROOT
ATOM      1  C   UNL     1       4.752   0.402  -6.203  1.00  0.00     0.117 C 
ENDROOT
BRANCH   1   2
ATOM      2  N   UNL     1       3.510   1.543  -5.779  1.00  0.00    -0.354 N 
ATOM      3  C   UNL     1       2.768   2.203  -4.732  1.00  0.00     0.243 C 
ATOM      4  O   UNL     1       2.685   3.429  -4.970  1.00  0.00    -0.273 OA
ATOM      5  H   UNL     1       3.157   1.894  -6.629  1.00  0.00     0.163 HD
BRANCH   3   6
ATOM      6  C   UNL     1       1.887   1.719  -3.206  1.00  0.00     0.180 C 
BRANCH   6   7
ATOM      7  C   UNL     1       2.462   2.299  -1.867  1.00  0.00     0.134 C 
BRANCH   7   8
ATOM      8  C   UNL     1       2.027   1.705  -0.542  1.00  0.00     0.220 C 
ATOM      9  N   UNL     1       0.812   2.045  -0.059  1.00  0.00    -0.370 N 
ATOM     10  H   UNL     1       0.502   1.675   0.799  1.00  0.00     0.159 HD
ATOM     11  H   UNL     1       0.236   2.663  -0.565  1.00  0.00     0.159 HD
ATOM     12  O   UNL     1       2.753   0.970   0.154  1.00  0.00    -0.275 OA
ENDBRANCH   7   8
ENDBRANCH   6   7
BRANCH   6  13
ATOM     13  N   UNL     1       0.766   0.606  -2.898  1.00  0.00    -0.343 N 
ATOM     14  C   UNL     1       0.452  -0.738  -2.820  1.00  0.00     0.231 C 
ATOM     15  H   UNL     1      -0.054   1.097  -2.662  1.00  0.00     0.164 HD
ATOM     16  O   UNL     1      -0.613  -0.950  -2.217  1.00  0.00    -0.274 OA
BRANCH  14  17
ATOM     17  C   UNL     1       1.251  -1.975  -3.381  1.00  0.00     0.077 C 
ATOM     18  C   UNL     1       2.434  -2.374  -2.468  1.00  0.00     0.043 C 
ATOM     19  C   UNL     1       1.953  -1.653  -4.656  1.00  0.00     0.043 C 
ATOM     20  C   UNL     1       3.472  -1.267  -2.208  1.00  0.00     0.121 C 
ATOM     21  C   UNL     1       2.857  -0.511  -4.423  1.00  0.00     0.121 C 
ATOM     22  N   UNL     1       3.842  -0.361  -3.319  1.00  0.00    -0.337 N 
ATOM     23  C   UNL     1       4.919   0.559  -2.937  1.00  0.00     0.280 C 
ATOM     24  O   UNL     1       5.342   0.361  -1.767  1.00  0.00    -0.268 OA
BRANCH  17  25
ATOM     25  C   UNL     1       0.376  -3.215  -3.869  1.00  0.00    -0.032 A 
ATOM     26  C   UNL     1      -0.294  -3.171  -5.124  1.00  0.00     0.005 A 
ATOM     27  C   UNL     1       0.573  -4.489  -3.315  1.00  0.00     0.005 A 
ATOM     28  C   UNL     1      -0.468  -4.327  -5.899  1.00  0.00     0.000 A 
ATOM     29  C   UNL     1       0.337  -5.649  -4.071  1.00  0.00     0.000 A 
ATOM     30  C   UNL     1      -0.117  -5.566  -5.384  1.00  0.00     0.000 A 
ENDBRANCH  17  25
BRANCH  23  31
ATOM     31  C   UNL     1       5.787   1.903  -3.562  1.00  0.00     0.272 C 
ATOM     32  C   UNL     1       5.613   3.342  -3.017  1.00  0.00     0.081 C 
ATOM     33  N   UNL     1       6.015   2.188  -5.000  1.00  0.00    -0.336 N 
ATOM     34  C   UNL     1       5.977   4.310  -4.159  1.00  0.00     0.068 C 
ATOM     35  C   UNL     1       6.729   3.454  -5.138  1.00  0.00     0.261 C 
ATOM     36  H   UNL     1       5.118   2.249  -5.481  1.00  0.00     0.346 HD
ATOM     37  H   UNL     1       6.571   1.438  -5.410  1.00  0.00     0.346 HD
ENDBRANCH  23  31
ENDBRANCH  14  17
ENDBRANCH   6  13
ENDBRANCH   3   6
ENDBRANCH   1   2
BRANCH   1  38
ATOM     38  C   UNL     1       4.573  -1.091  -6.672  1.00  0.00     0.042 C 
BRANCH  38  39
ATOM     39  C   UNL     1       5.835  -1.694  -7.289  1.00  0.00     0.118 C 
BRANCH  39  40
ATOM     40  N   UNL     1       6.739  -2.386  -6.350  1.00  0.00    -0.352 N 
ATOM     41  C   UNL     1       6.984  -3.702  -6.016  1.00  0.00     0.251 C 
ATOM     42  H   UNL     1       7.301  -1.759  -5.841  1.00  0.00     0.163 HD
ATOM     43  O   UNL     1       7.902  -3.932  -5.208  1.00  0.00    -0.269 OA
BRANCH  41  44
ATOM     44  C   UNL     1       6.205  -4.862  -6.524  1.00  0.00     0.039 A 
ATOM     45  C   UNL     1       6.159  -6.062  -5.787  1.00  0.00     0.014 A 
ATOM     46  C   UNL     1       5.549  -4.831  -7.743  1.00  0.00     0.014 A 
ATOM     47  C   UNL     1       5.428  -7.170  -6.256  1.00  0.00     0.010 A 
ATOM     48  C   UNL     1       4.689  -5.850  -8.120  1.00  0.00     0.010 A 
ATOM     49  C   UNL     1       4.662  -7.062  -7.421  1.00  0.00    -0.014 A 
BRANCH  49  50
ATOM     50  C   UNL     1       3.923  -8.183  -8.066  1.00  0.00     0.031 A 
ATOM     51  C   UNL     1       4.200  -8.473  -9.526  1.00  0.00     0.074 A 
ATOM     52  C   UNL     1       2.925  -8.829  -7.436  1.00  0.00     0.049 A 
ATOM     53  N   UNL     1       3.459  -9.085 -10.413  1.00  0.00    -0.248 NA
ATOM     54  C   UNL     1       5.444  -7.905 -10.079  1.00  0.00     0.031 C 
ATOM     55  C   UNL     1       2.525  -8.641  -6.042  1.00  0.00     0.029 A 
ATOM     56  N   UNL     1       2.038  -9.762  -7.914  1.00  0.00    -0.354 N 
ATOM     57  C   UNL     1       4.095  -8.881 -11.634  1.00  0.00     0.074 A 
ATOM     58  C   UNL     1       5.251  -8.053 -11.380  1.00  0.00     0.031 C 
ATOM     59  C   UNL     1       1.485  -9.447  -5.771  1.00  0.00     0.029 A 
ATOM     60  C   UNL     1       1.107 -10.163  -6.987  1.00  0.00     0.049 A 
ATOM     61  H   UNL     1       2.066 -10.110  -8.834  1.00  0.00     0.167 HD
ATOM     62  C   UNL     1       3.758  -9.361 -12.854  1.00  0.00     0.037 A 
ATOM     63  C   UNL     1       0.058 -10.997  -7.114  1.00  0.00     0.037 A 
ATOM     64  C   UNL     1       2.695 -10.304 -13.068  1.00  0.00     0.049 A 
ATOM     65  C   UNL     1      -0.226 -11.621  -8.454  1.00  0.00     0.074 A 
ATOM     66  C   UNL     1       2.332 -10.948 -14.237  1.00  0.00     0.029 A 
ATOM     67  N   UNL     1       1.855 -10.774 -12.070  1.00  0.00    -0.354 N 
ATOM     68  N   UNL     1       0.378 -11.425  -9.602  1.00  0.00    -0.248 NA
ATOM     69  C   UNL     1      -1.335 -12.585  -8.518  1.00  0.00     0.031 C 
ATOM     70  C   UNL     1       1.266 -11.805 -13.947  1.00  0.00     0.029 A 
ATOM     71  C   UNL     1       0.986 -11.713 -12.593  1.00  0.00     0.049 A 
ATOM     72  H   UNL     1       1.874 -10.482 -11.130  1.00  0.00     0.167 HD
ATOM     73  C   UNL     1      -0.251 -12.266 -10.512  1.00  0.00     0.074 A 
ATOM     74  C   UNL     1      -1.282 -12.975  -9.784  1.00  0.00     0.031 C 
ATOM     75  C   UNL     1      -0.000 -12.435 -11.833  1.00  0.00     0.037 A 
BRANCH  62  76
ATOM     76  C   UNL     1       4.563  -8.906 -14.039  1.00  0.00     0.057 A 
ATOM     77  C   UNL     1       5.900  -9.283 -14.223  1.00  0.00     0.134 A 
ATOM     78  C   UNL     1       3.981  -8.101 -15.028  1.00  0.00     0.134 A 
ATOM     79  F   UNL     1       6.523 -10.044 -13.311  1.00  0.00    -0.206 F 
ATOM     80  C   UNL     1       6.639  -8.845 -15.323  1.00  0.00     0.040 A 
ATOM     81  C   UNL     1       4.700  -7.685 -16.151  1.00  0.00     0.040 A 
ATOM     82  F   UNL     1       2.701  -7.710 -14.924  1.00  0.00    -0.206 F 
ATOM     83  C   UNL     1       6.037  -8.050 -16.295  1.00  0.00     0.006 A 
ENDBRANCH  62  76
BRANCH  63  84
ATOM     84  C   UNL     1      -0.782 -11.318  -5.934  1.00  0.00     0.057 A 
ATOM     85  C   UNL     1      -0.716 -12.581  -5.333  1.00  0.00     0.134 A 
ATOM     86  C   UNL     1      -1.661 -10.383  -5.376  1.00  0.00     0.134 A 
ATOM     87  F   UNL     1       0.098 -13.523  -5.833  1.00  0.00    -0.206 F 
ATOM     88  C   UNL     1      -1.508 -12.912  -4.234  1.00  0.00     0.040 A 
ATOM     89  C   UNL     1      -2.443 -10.693  -4.261  1.00  0.00     0.040 A 
ATOM     90  F   UNL     1      -1.760  -9.151  -5.896  1.00  0.00    -0.206 F 
ATOM     91  C   UNL     1      -2.373 -11.963  -3.692  1.00  0.00     0.006 A 
ENDBRANCH  63  84
BRANCH  75  92
ATOM     92  C   UNL     1      -0.798 -13.471 -12.562  1.00  0.00     0.057 A 
ATOM     93  C   UNL     1      -2.122 -13.242 -12.954  1.00  0.00     0.134 A 
ATOM     94  C   UNL     1      -0.203 -14.680 -12.947  1.00  0.00     0.134 A 
ATOM     95  F   UNL     1      -2.747 -12.107 -12.608  1.00  0.00    -0.206 F 
ATOM     96  C   UNL     1      -2.830 -14.186 -13.699  1.00  0.00     0.040 A 
ATOM     97  C   UNL     1      -0.894 -15.621 -13.709  1.00  0.00     0.040 A 
ATOM     98  F   UNL     1       1.067 -14.950 -12.610  1.00  0.00    -0.206 F 
ATOM     99  C   UNL     1      -2.213 -15.375 -14.086  1.00  0.00     0.006 A 
ENDBRANCH  75  92
ENDBRANCH  49  50
ENDBRANCH  41  44
ENDBRANCH  39  40
ENDBRANCH  38  39
ENDBRANCH   1  38
TORSDOF 16
