REMARK SMILES O=C(NCCCNC(=O)c1cc(S(=O)(=O)NNC(=O)[C@H]2C=C(c3ccccc3)N=N2)ccc1F)c1ccc(-c2c3nc(c(-c4c(F)cccc4F)c4ccc([nH]4)c(-c4c(F)cccc4F)c4nc(c(-c5c(F)cccc5F)c5ccc2[nH]5)C=C4)C=C3)cc1
REMARK SMILES IDX 7 1 8 2 9 3 6 5 5 6 4 7 3 8 1 9 2 10 35 12 36 13 88 14 37 15
REMARK SMILES IDX 87 16 38 17 39 18 40 19 81 20 41 21 86 22 80 23 82 24 42 25
REMARK SMILES IDX 85 26 79 27 78 28 43 30 69 31 52 32 68 33 53 34 56 35 67 36
REMARK SMILES IDX 83 37 54 38 55 39 66 41 84 42 57 43 44 44 45 45 50 46 46 47
REMARK SMILES IDX 47 48 49 49 51 50 48 51 70 52 71 53 76 54 72 55 73 56 75 57
REMARK SMILES IDX 77 58 74 59 58 60 59 61 64 62 60 63 61 64 63 65 65 66 62 67
REMARK SMILES IDX 10 68 11 69 33 70 12 71 32 72 34 73 31 74 13 75 14 76 15 77
REMARK SMILES IDX 16 78 17 80 18 81 19 83 20 84 21 85 30 86 22 87 29 88 23 89
REMARK SMILES IDX 24 90 28 91 25 92 27 93 26 94
REMARK H PARENT 7 4 3 11 82 29 56 40 16 79 17 82
REMARK Flexibility Score: inf
ROOT
ATOM      1  N   UNL     1      18.433  12.238  14.146  1.00  0.00    -0.352 N 
ATOM      2  C   UNL     1      17.093  12.086  13.891  1.00  0.00     0.254 C 
ATOM      3  O   UNL     1      16.358  13.068  13.830  1.00  0.00    -0.269 OA
ATOM      4  H   UNL     1      18.730  13.165  14.293  1.00  0.00     0.163 HD
ENDROOT
BRANCH   1   5
ATOM      5  C   UNL     1      19.480  11.230  14.230  1.00  0.00     0.118 C 
BRANCH   5   6
ATOM      6  C   UNL     1      20.615  11.433  13.229  1.00  0.00     0.042 C 
BRANCH   6   7
ATOM      7  C   UNL     1      21.461  12.685  13.445  1.00  0.00     0.118 C 
BRANCH   7   8
ATOM      8  N   UNL     1      21.994  12.836  14.784  1.00  0.00    -0.352 N 
ATOM      9  O   UNL     1      23.286  12.934  16.560  1.00  0.00    -0.269 OA
ATOM     10  C   UNL     1      23.113  12.422  15.450  1.00  0.00     0.251 C 
ATOM     11  H   UNL     1      21.401  13.373  15.358  1.00  0.00     0.163 HD
BRANCH  10  12
ATOM     12  C   UNL     1      24.085  11.388  14.991  1.00  0.00     0.039 A 
ATOM     13  C   UNL     1      24.103  10.764  13.745  1.00  0.00     0.014 A 
ATOM     14  C   UNL     1      25.052  10.999  15.943  1.00  0.00     0.014 A 
ATOM     15  C   UNL     1      25.022   9.741  13.485  1.00  0.00     0.010 A 
ATOM     16  C   UNL     1      25.971   9.983  15.688  1.00  0.00     0.010 A 
ATOM     17  C   UNL     1      25.943   9.332  14.462  1.00  0.00    -0.014 A 
BRANCH  17  18
ATOM     18  C   UNL     1      26.971   8.354  14.093  1.00  0.00     0.031 A 
ATOM     19  C   UNL     1      27.926   8.829  13.050  1.00  0.00     0.074 A 
ATOM     20  C   UNL     1      27.198   7.168  14.696  1.00  0.00     0.049 A 
ATOM     21  N   UNL     1      28.089   8.368  11.854  1.00  0.00    -0.248 NA
ATOM     22  C   UNL     1      28.741  10.016  13.351  1.00  0.00     0.031 C 
ATOM     23  C   UNL     1      26.614   6.648  15.932  1.00  0.00     0.029 A 
ATOM     24  N   UNL     1      28.091   6.191  14.346  1.00  0.00    -0.354 N 
ATOM     25  C   UNL     1      29.141   9.094  11.298  1.00  0.00     0.074 A 
ATOM     26  C   UNL     1      29.420  10.170  12.214  1.00  0.00     0.031 C 
ATOM     27  C   UNL     1      27.305   5.552  16.330  1.00  0.00     0.029 A 
ATOM     28  C   UNL     1      28.286   5.209  15.312  1.00  0.00     0.049 A 
ATOM     29  H   UNL     1      28.558   6.183  13.479  1.00  0.00     0.167 HD
ATOM     30  C   UNL     1      29.828   8.643  10.212  1.00  0.00     0.037 A 
ATOM     31  C   UNL     1      29.211   4.214  15.289  1.00  0.00     0.037 A 
ATOM     32  C   UNL     1      29.102   7.613   9.517  1.00  0.00     0.049 A 
ATOM     33  C   UNL     1      29.648   4.032  13.886  1.00  0.00     0.074 A 
ATOM     34  C   UNL     1      27.869   7.537   8.899  1.00  0.00     0.029 A 
ATOM     35  N   UNL     1      29.515   6.315   9.678  1.00  0.00    -0.354 N 
ATOM     36  N   UNL     1      28.913   3.519  12.943  1.00  0.00    -0.248 NA
ATOM     37  C   UNL     1      30.816   4.774  13.437  1.00  0.00     0.031 C 
ATOM     38  C   UNL     1      27.396   6.223   9.183  1.00  0.00     0.029 A 
ATOM     39  C   UNL     1      28.392   5.564   9.905  1.00  0.00     0.049 A 
ATOM     40  H   UNL     1      30.442   5.986   9.637  1.00  0.00     0.167 HD
ATOM     41  C   UNL     1      29.253   4.238  11.810  1.00  0.00     0.074 A 
ATOM     42  C   UNL     1      30.503   4.912  12.148  1.00  0.00     0.031 C 
ATOM     43  C   UNL     1      28.348   4.441  10.810  1.00  0.00     0.037 A 
BRANCH  30  44
ATOM     44  C   UNL     1      31.295   8.890   9.962  1.00  0.00     0.057 A 
ATOM     45  C   UNL     1      32.222   9.198  10.976  1.00  0.00     0.134 A 
ATOM     46  C   UNL     1      31.860   8.523   8.726  1.00  0.00     0.134 A 
ATOM     47  F   UNL     1      31.844   9.472  12.231  1.00  0.00    -0.206 F 
ATOM     48  C   UNL     1      33.606   9.136  10.782  1.00  0.00     0.040 A 
ATOM     49  C   UNL     1      33.243   8.407   8.537  1.00  0.00     0.040 A 
ATOM     50  F   UNL     1      31.084   8.182   7.686  1.00  0.00    -0.206 F 
ATOM     51  C   UNL     1      34.121   8.710   9.569  1.00  0.00     0.006 A 
ENDBRANCH  30  44
BRANCH  31  52
ATOM     52  C   UNL     1      29.958   3.571  16.397  1.00  0.00     0.057 A 
ATOM     53  C   UNL     1      30.257   4.270  17.577  1.00  0.00     0.134 A 
ATOM     54  C   UNL     1      30.675   2.380  16.190  1.00  0.00     0.134 A 
ATOM     55  F   UNL     1      29.675   5.447  17.848  1.00  0.00    -0.206 F 
ATOM     56  C   UNL     1      31.242   3.838  18.473  1.00  0.00     0.040 A 
ATOM     57  C   UNL     1      31.668   1.940  17.075  1.00  0.00     0.040 A 
ATOM     58  F   UNL     1      30.485   1.653  15.079  1.00  0.00    -0.206 F 
ATOM     59  C   UNL     1      31.967   2.681  18.213  1.00  0.00     0.006 A 
ENDBRANCH  31  52
BRANCH  43  60
ATOM     60  C   UNL     1      27.095   3.610  10.801  1.00  0.00     0.057 A 
ATOM     61  C   UNL     1      26.780   2.904   9.633  1.00  0.00     0.134 A 
ATOM     62  C   UNL     1      26.137   3.600  11.825  1.00  0.00     0.134 A 
ATOM     63  F   UNL     1      27.627   2.908   8.591  1.00  0.00    -0.206 F 
ATOM     64  C   UNL     1      25.573   2.219   9.485  1.00  0.00     0.040 A 
ATOM     65  C   UNL     1      24.941   2.884  11.704  1.00  0.00     0.040 A 
ATOM     66  F   UNL     1      26.298   4.323  12.941  1.00  0.00    -0.206 F 
ATOM     67  C   UNL     1      24.652   2.199  10.528  1.00  0.00     0.006 A 
ENDBRANCH  43  60
ENDBRANCH  17  18
ENDBRANCH  10  12
ENDBRANCH   7   8
ENDBRANCH   6   7
ENDBRANCH   5   6
ENDBRANCH   1   5
BRANCH   2  68
ATOM     68  C   UNL     1      16.535  10.758  13.592  1.00  0.00     0.076 A 
ATOM     69  C   UNL     1      15.872  10.586  12.377  1.00  0.00     0.038 A 
ATOM     70  C   UNL     1      16.649   9.684  14.471  1.00  0.00     0.136 A 
ATOM     71  C   UNL     1      15.414   9.311  12.014  1.00  0.00     0.085 A 
ATOM     72  C   UNL     1      16.202   8.414  14.102  1.00  0.00     0.041 A 
ATOM     73  F   UNL     1      17.222   9.838  15.672  1.00  0.00    -0.206 F 
ATOM     74  C   UNL     1      15.600   8.215  12.857  1.00  0.00     0.025 A 
BRANCH  71  75
ATOM     75  S   UNL     1      14.591   9.194  10.460  1.00  0.00     0.257 S 
ATOM     76  O   UNL     1      13.441  10.082  10.528  1.00  0.00    -0.205 OA
ATOM     77  O   UNL     1      15.605   9.339   9.451  1.00  0.00    -0.205 OA
BRANCH  75  78
ATOM     78  N   UNL     1      13.976   7.614  10.316  1.00  0.00    -0.123 NA
ATOM     79  H   UNL     1      14.725   6.973  10.576  1.00  0.00     0.167 HD
BRANCH  78  80
ATOM     80  N   UNL     1      12.817   7.255  11.100  1.00  0.00    -0.275 N 
ATOM     81  C   UNL     1      11.666   6.670  10.639  1.00  0.00     0.265 C 
ATOM     82  H   UNL     1      12.857   7.451  12.064  1.00  0.00     0.186 HD
ATOM     83  O   UNL     1      10.858   6.259  11.481  1.00  0.00    -0.271 OA
BRANCH  81  84
ATOM     84  C   UNL     1      11.329   6.616   9.146  1.00  0.00     0.244 C 
ATOM     85  C   UNL     1      11.449   7.902   8.412  1.00  0.00     0.042 C 
ATOM     86  N   UNL     1      12.284   5.736   8.426  1.00  0.00    -0.171 NA
ATOM     87  C   UNL     1      12.272   7.643   7.393  1.00  0.00     0.091 C 
ATOM     88  N   UNL     1      12.731   6.346   7.411  1.00  0.00    -0.155 NA
BRANCH  87  89
ATOM     89  C   UNL     1      12.800   8.623   6.442  1.00  0.00     0.002 A 
ATOM     90  C   UNL     1      12.691   8.439   5.060  1.00  0.00     0.010 A 
ATOM     91  C   UNL     1      13.522   9.725   6.912  1.00  0.00     0.010 A 
ATOM     92  C   UNL     1      13.321   9.325   4.178  1.00  0.00     0.001 A 
ATOM     93  C   UNL     1      14.190  10.581   6.040  1.00  0.00     0.001 A 
ATOM     94  C   UNL     1      14.091  10.380   4.669  1.00  0.00     0.000 A 
ENDBRANCH  87  89
ENDBRANCH  81  84
ENDBRANCH  78  80
ENDBRANCH  75  78
ENDBRANCH  71  75
ENDBRANCH   2  68
TORSDOF 15
