REMARK SMILES COC(=O)c1ccc(C)c(NC(=O)[C@H]2CC=CC[C@H]2C(=O)NCCCNC(=O)c2ccc(-c3c4nc(c(-c5c(F)cccc5F)c5ccc([nH]5)c(-c5c(F)cccc5F)c5nc(c(-c6c(F)cccc6F)c6ccc3[nH]6)C=C5)C=C4)cc2)c1
REMARK SMILES IDX 23 1 22 2 20 3 21 4 19 6 14 7 15 8 16 9 18 10 17 11 12 12
REMARK SMILES IDX 11 13 13 15 10 16 5 17 6 18 83 19 7 20 8 21 9 22 3 23 4 24
REMARK SMILES IDX 2 25 1 26 24 27 25 28 26 29 27 30 28 32 29 33 30 34 82 35
REMARK SMILES IDX 31 36 81 37 32 38 33 39 34 40 75 41 35 42 80 43 74 44 76 45
REMARK SMILES IDX 36 46 79 47 73 48 72 49 37 51 63 52 46 53 62 54 47 55 50 56
REMARK SMILES IDX 61 57 77 58 48 59 49 60 60 62 78 63 51 64 38 65 39 66 44 67
REMARK SMILES IDX 40 68 41 69 43 70 45 71 42 72 64 73 65 74 70 75 66 76 67 77
REMARK SMILES IDX 69 78 71 79 68 80 52 81 53 82 58 83 54 84 55 85 57 86 59 87
REMARK SMILES IDX 56 88
REMARK H PARENT 22 5 11 14 26 31 76 50 50 61
REMARK Flexibility Score: inf
ROOT
ATOM      1  C   UNL     1       6.860   1.323   2.094  1.00  0.00     0.117 C 
ENDROOT
BRANCH   1   2
ATOM      2  N   UNL     1       6.359   0.232   2.911  1.00  0.00    -0.356 N 
ATOM      3  C   UNL     1       6.964  -0.902   3.352  1.00  0.00     0.224 C 
ATOM      4  O   UNL     1       6.411  -1.492   4.285  1.00  0.00    -0.275 OA
ATOM      5  H   UNL     1       5.421   0.331   3.194  1.00  0.00     0.163 HD
BRANCH   3   6
ATOM      6  C   UNL     1       8.239  -1.482   2.745  1.00  0.00     0.095 C 
ATOM      7  C   UNL     1       8.038  -2.233   1.406  1.00  0.00     0.095 C 
ATOM      8  C   UNL     1       9.350  -2.432   0.611  1.00  0.00     0.041 C 
ATOM      9  C   UNL     1      10.310  -1.291   0.671  1.00  0.00    -0.030 C 
ATOM     10  C   UNL     1       9.438  -0.518   2.873  1.00  0.00     0.041 C 
ATOM     11  C   UNL     1      10.344  -0.427   1.689  1.00  0.00    -0.030 C 
BRANCH   7  12
ATOM     12  C   UNL     1       6.948  -1.726   0.481  1.00  0.00     0.228 C 
ATOM     13  N   UNL     1       5.614  -1.962   0.559  1.00  0.00    -0.326 N 
ATOM     14  H   UNL     1       5.174  -1.522  -0.204  1.00  0.00     0.169 HD
ATOM     15  O   UNL     1       7.261  -0.986  -0.467  1.00  0.00    -0.274 OA
BRANCH  13  16
ATOM     16  C   UNL     1       4.626  -2.611   1.338  1.00  0.00     0.044 A 
ATOM     17  C   UNL     1       2.151  -2.609   1.679  1.00  0.00     0.062 A 
ATOM     18  C   UNL     1       2.349  -3.447   2.777  1.00  0.00     0.016 A 
ATOM     19  C   UNL     1       3.300  -2.180   1.004  1.00  0.00     0.042 A 
ATOM     20  C   UNL     1       3.617  -3.923   3.096  1.00  0.00     0.006 A 
ATOM     21  C   UNL     1       4.758  -3.577   2.343  1.00  0.00    -0.027 A 
ATOM     22  C   UNL     1       5.976  -4.379   2.678  1.00  0.00     0.046 C 
BRANCH  17  23
ATOM     23  C   UNL     1       0.722  -2.229   1.416  1.00  0.00     0.337 C 
ATOM     24  O   UNL     1      -0.102  -2.534   2.278  1.00  0.00    -0.246 OA
BRANCH  23  25
ATOM     25  O   UNL     1       0.255  -1.562   0.342  1.00  0.00    -0.465 OA
ATOM     26  C   UNL     1       0.864  -1.093  -0.866  1.00  0.00     0.282 C 
ENDBRANCH  23  25
ENDBRANCH  17  23
ENDBRANCH  13  16
ENDBRANCH   7  12
ENDBRANCH   3   6
ENDBRANCH   1   2
BRANCH   1  27
ATOM     27  C   UNL     1       5.952   1.754   0.950  1.00  0.00     0.042 C 
BRANCH  27  28
ATOM     28  C   UNL     1       4.537   2.142   1.359  1.00  0.00     0.118 C 
BRANCH  28  29
ATOM     29  N   UNL     1       4.095   3.381   0.710  1.00  0.00    -0.352 N 
ATOM     30  C   UNL     1       2.850   3.989   0.637  1.00  0.00     0.251 C 
ATOM     31  H   UNL     1       4.810   3.869   0.243  1.00  0.00     0.163 HD
ATOM     32  O   UNL     1       2.751   5.124   0.212  1.00  0.00    -0.269 OA
BRANCH  30  33
ATOM     33  C   UNL     1       1.661   3.294   1.181  1.00  0.00     0.039 A 
ATOM     34  C   UNL     1       0.747   4.005   1.968  1.00  0.00     0.014 A 
ATOM     35  C   UNL     1       1.554   1.921   1.063  1.00  0.00     0.014 A 
ATOM     36  C   UNL     1      -0.081   3.312   2.852  1.00  0.00     0.010 A 
ATOM     37  C   UNL     1       0.835   1.242   2.015  1.00  0.00     0.010 A 
ATOM     38  C   UNL     1       0.067   1.933   2.950  1.00  0.00    -0.014 A 
BRANCH  38  39
ATOM     39  C   UNL     1      -0.394   1.122   4.067  1.00  0.00     0.031 A 
ATOM     40  C   UNL     1      -1.629   0.328   3.983  1.00  0.00     0.074 A 
ATOM     41  C   UNL     1       0.464   0.946   5.095  1.00  0.00     0.049 A 
ATOM     42  N   UNL     1      -2.322  -0.056   5.001  1.00  0.00    -0.248 NA
ATOM     43  C   UNL     1      -2.183  -0.100   2.708  1.00  0.00     0.031 C 
ATOM     44  C   UNL     1       0.391  -0.029   6.177  1.00  0.00     0.029 A 
ATOM     45  N   UNL     1       1.527   1.787   5.458  1.00  0.00    -0.354 N 
ATOM     46  C   UNL     1      -3.191  -1.032   4.558  1.00  0.00     0.074 A 
ATOM     47  C   UNL     1      -3.125  -0.956   3.116  1.00  0.00     0.031 C 
ATOM     48  C   UNL     1       1.116   0.429   7.213  1.00  0.00     0.029 A 
ATOM     49  C   UNL     1       1.547   1.775   6.869  1.00  0.00     0.049 A 
ATOM     50  H   UNL     1       2.130   2.281   4.856  1.00  0.00     0.167 HD
ATOM     51  C   UNL     1      -3.739  -1.902   5.459  1.00  0.00     0.037 A 
ATOM     52  C   UNL     1       1.228   2.905   7.566  1.00  0.00     0.037 A 
ATOM     53  C   UNL     1      -3.301  -1.584   6.822  1.00  0.00     0.049 A 
ATOM     54  C   UNL     1       0.003   2.750   8.438  1.00  0.00     0.074 A 
ATOM     55  C   UNL     1      -2.331  -2.140   7.643  1.00  0.00     0.029 A 
ATOM     56  N   UNL     1      -3.645  -0.364   7.397  1.00  0.00    -0.354 N 
ATOM     57  N   UNL     1      -0.877   1.798   8.298  1.00  0.00    -0.248 NA
ATOM     58  C   UNL     1      -0.337   3.666   9.523  1.00  0.00     0.031 C 
ATOM     59  C   UNL     1      -2.038  -1.211   8.672  1.00  0.00     0.029 A 
ATOM     60  C   UNL     1      -2.843  -0.099   8.491  1.00  0.00     0.049 A 
ATOM     61  H   UNL     1      -4.361   0.227   7.070  1.00  0.00     0.167 HD
ATOM     62  C   UNL     1      -1.890   1.969   9.204  1.00  0.00     0.074 A 
ATOM     63  C   UNL     1      -1.490   3.136   9.968  1.00  0.00     0.031 C 
ATOM     64  C   UNL     1      -2.979   1.145   9.236  1.00  0.00     0.037 A 
BRANCH  51  65
ATOM     65  C   UNL     1      -4.396  -3.220   5.081  1.00  0.00     0.057 A 
ATOM     66  C   UNL     1      -4.406  -4.313   5.973  1.00  0.00     0.134 A 
ATOM     67  C   UNL     1      -4.997  -3.498   3.841  1.00  0.00     0.134 A 
ATOM     68  F   UNL     1      -4.013  -4.190   7.247  1.00  0.00    -0.206 F 
ATOM     69  C   UNL     1      -4.837  -5.598   5.612  1.00  0.00     0.040 A 
ATOM     70  C   UNL     1      -5.382  -4.790   3.445  1.00  0.00     0.040 A 
ATOM     71  F   UNL     1      -5.316  -2.524   2.981  1.00  0.00    -0.206 F 
ATOM     72  C   UNL     1      -5.286  -5.853   4.327  1.00  0.00     0.006 A 
ENDBRANCH  51  65
BRANCH  52  73
ATOM     73  C   UNL     1       1.629   4.153   6.856  1.00  0.00     0.057 A 
ATOM     74  C   UNL     1       2.998   4.377   6.617  1.00  0.00     0.134 A 
ATOM     75  C   UNL     1       0.724   4.888   6.084  1.00  0.00     0.134 A 
ATOM     76  F   UNL     1       3.923   3.703   7.319  1.00  0.00    -0.206 F 
ATOM     77  C   UNL     1       3.446   5.198   5.578  1.00  0.00     0.040 A 
ATOM     78  C   UNL     1       1.164   5.730   5.054  1.00  0.00     0.040 A 
ATOM     79  F   UNL     1      -0.597   4.718   6.232  1.00  0.00    -0.206 F 
ATOM     80  C   UNL     1       2.524   5.851   4.769  1.00  0.00     0.006 A 
ENDBRANCH  52  73
BRANCH  64  81
ATOM     81  C   UNL     1      -4.240   1.386  10.028  1.00  0.00     0.057 A 
ATOM     82  C   UNL     1      -4.734   2.657  10.357  1.00  0.00     0.134 A 
ATOM     83  C   UNL     1      -5.090   0.308  10.364  1.00  0.00     0.134 A 
ATOM     84  F   UNL     1      -4.091   3.776   9.996  1.00  0.00    -0.206 F 
ATOM     85  C   UNL     1      -5.951   2.840  11.026  1.00  0.00     0.040 A 
ATOM     86  C   UNL     1      -6.332   0.483  10.980  1.00  0.00     0.040 A 
ATOM     87  F   UNL     1      -4.761  -0.962  10.087  1.00  0.00    -0.206 F 
ATOM     88  C   UNL     1      -6.761   1.754  11.330  1.00  0.00     0.006 A 
ENDBRANCH  64  81
ENDBRANCH  38  39
ENDBRANCH  30  33
ENDBRANCH  28  29
ENDBRANCH  27  28
ENDBRANCH   1  27
TORSDOF 14
