REMARK SMILES C=CC[NH+](CC=C)[C@@H](C(=O)NCCCNC(=O)c1ccc(-c2c3nc(c(-c4c(F)cccc4F)c4ccc([nH]4)c(-c4c(F)cccc4F)c4nc(c(-c5c(F)cccc5F)c5ccc2[nH]5)C=C4)C=C3)cc1)c1ccc(F)c(C)c1
REMARK SMILES IDX 12 1 11 2 9 3 10 4 8 6 4 7 3 9 2 10 1 11 5 12 6 13 7 14
REMARK SMILES IDX 72 15 73 16 79 17 74 18 77 19 75 20 78 21 76 22 13 23 14 24
REMARK SMILES IDX 15 25 16 26 17 28 18 29 19 30 71 31 20 32 70 33 21 34 22 35
REMARK SMILES IDX 23 36 64 37 24 38 69 39 63 40 65 41 25 42 68 43 62 44 61 45
REMARK SMILES IDX 26 47 52 48 35 49 51 50 36 51 39 52 50 53 66 54 37 55 38 56
REMARK SMILES IDX 49 58 67 59 40 60 27 61 28 62 33 63 29 64 30 65 32 66 34 67
REMARK SMILES IDX 31 68 53 69 54 70 59 71 55 72 56 73 58 74 60 75 57 76 41 77
REMARK SMILES IDX 42 78 47 79 43 80 44 81 46 82 48 83 45 84
REMARK H PARENT 11 5 4 8 15 27 65 46 39 57
REMARK Flexibility Score: inf
ROOT
ATOM      1  C   UNL     1      -4.322  -3.578  -0.507  1.00  0.00     0.118 C 
ENDROOT
BRANCH   1   2
ATOM      2  N   UNL     1      -3.390  -2.915  -1.414  1.00  0.00    -0.351 N 
ATOM      3  C   UNL     1      -2.082  -2.486  -1.308  1.00  0.00     0.283 C 
ATOM      4  O   UNL     1      -1.507  -2.312  -2.390  1.00  0.00    -0.268 OA
ATOM      5  H   UNL     1      -3.781  -2.733  -2.299  1.00  0.00     0.163 HD
BRANCH   3   6
ATOM      6  C   UNL     1      -1.383  -2.165   0.071  1.00  0.00     0.306 C 
BRANCH   6   7
ATOM      7  N   UNL     1      -1.548  -0.697   0.418  1.00  0.00    -0.314 N 
ATOM      8  H   UNL     1      -1.035  -0.218  -0.322  1.00  0.00     0.349 HD
BRANCH   7   9
ATOM      9  C   UNL     1      -0.913  -0.292   1.685  1.00  0.00     0.291 C 
BRANCH   9  10
ATOM     10  C   UNL     1       0.341   0.531   1.526  1.00  0.00     0.025 C 
ATOM     11  C   UNL     1       0.517   1.557   0.680  1.00  0.00     0.010 C 
ENDBRANCH   9  10
ENDBRANCH   7   9
BRANCH   7  12
ATOM     12  C   UNL     1      -2.934  -0.244   0.361  1.00  0.00     0.291 C 
BRANCH  12  13
ATOM     13  C   UNL     1      -3.116   0.843  -0.653  1.00  0.00     0.025 C 
ATOM     14  C   UNL     1      -3.522   0.658  -1.917  1.00  0.00     0.010 C 
ENDBRANCH  12  13
ENDBRANCH   7  12
ENDBRANCH   6   7
BRANCH   6  15
ATOM     15  C   UNL     1       0.112  -2.592   0.015  1.00  0.00     0.020 A 
ATOM     16  C   UNL     1       0.524  -3.865   0.442  1.00  0.00     0.013 A 
ATOM     17  C   UNL     1       1.113  -1.700  -0.426  1.00  0.00     0.017 A 
ATOM     18  C   UNL     1       1.888  -4.190   0.505  1.00  0.00     0.040 A 
ATOM     19  C   UNL     1       2.480  -1.970  -0.253  1.00  0.00    -0.015 A 
ATOM     20  C   UNL     1       2.849  -3.234   0.191  1.00  0.00     0.126 A 
ATOM     21  C   UNL     1       3.518  -0.910  -0.475  1.00  0.00     0.047 C 
ATOM     22  F   UNL     1       4.147  -3.538   0.343  1.00  0.00    -0.207 F 
ENDBRANCH   6  15
ENDBRANCH   3   6
ENDBRANCH   1   2
BRANCH   1  23
ATOM     23  C   UNL     1      -5.479  -2.773   0.132  1.00  0.00     0.042 C 
BRANCH  23  24
ATOM     24  C   UNL     1      -6.228  -1.681  -0.654  1.00  0.00     0.118 C 
BRANCH  24  25
ATOM     25  N   UNL     1      -7.125  -2.155  -1.690  1.00  0.00    -0.352 N 
ATOM     26  C   UNL     1      -8.317  -1.621  -2.124  1.00  0.00     0.251 C 
ATOM     27  H   UNL     1      -6.840  -2.977  -2.150  1.00  0.00     0.163 HD
ATOM     28  O   UNL     1      -8.941  -2.211  -3.017  1.00  0.00    -0.269 OA
BRANCH  26  29
ATOM     29  C   UNL     1      -8.918  -0.388  -1.547  1.00  0.00     0.039 A 
ATOM     30  C   UNL     1     -10.262  -0.435  -1.154  1.00  0.00     0.014 A 
ATOM     31  C   UNL     1      -8.243   0.837  -1.498  1.00  0.00     0.014 A 
ATOM     32  C   UNL     1     -10.912   0.714  -0.677  1.00  0.00     0.010 A 
ATOM     33  C   UNL     1      -8.894   1.989  -1.004  1.00  0.00     0.010 A 
ATOM     34  C   UNL     1     -10.234   1.941  -0.580  1.00  0.00    -0.014 A 
BRANCH  34  35
ATOM     35  C   UNL     1     -10.923   3.125   0.024  1.00  0.00     0.031 A 
ATOM     36  C   UNL     1     -11.372   4.304  -0.803  1.00  0.00     0.074 A 
ATOM     37  C   UNL     1     -11.171   3.137   1.350  1.00  0.00     0.049 A 
ATOM     38  N   UNL     1     -12.044   5.368  -0.431  1.00  0.00    -0.248 NA
ATOM     39  C   UNL     1     -11.014   4.292  -2.228  1.00  0.00     0.031 C 
ATOM     40  C   UNL     1     -10.770   2.088   2.288  1.00  0.00     0.029 A 
ATOM     41  N   UNL     1     -11.820   4.058   2.139  1.00  0.00    -0.354 N 
ATOM     42  C   UNL     1     -12.202   6.146  -1.572  1.00  0.00     0.074 A 
ATOM     43  C   UNL     1     -11.514   5.450  -2.642  1.00  0.00     0.031 C 
ATOM     44  C   UNL     1     -11.195   2.413   3.519  1.00  0.00     0.029 A 
ATOM     45  C   UNL     1     -11.882   3.702   3.466  1.00  0.00     0.049 A 
ATOM     46  H   UNL     1     -12.204   4.893   1.788  1.00  0.00     0.167 HD
ATOM     47  C   UNL     1     -12.870   7.319  -1.724  1.00  0.00     0.037 A 
ATOM     48  C   UNL     1     -12.428   4.332   4.525  1.00  0.00     0.037 A 
ATOM     49  C   UNL     1     -13.554   8.026  -0.668  1.00  0.00     0.049 A 
ATOM     50  C   UNL     1     -13.150   5.637   4.333  1.00  0.00     0.074 A 
ATOM     51  C   UNL     1     -14.286   9.201  -0.748  1.00  0.00     0.029 A 
ATOM     52  N   UNL     1     -13.586   7.635   0.661  1.00  0.00    -0.354 N 
ATOM     53  N   UNL     1     -13.349   6.318   3.232  1.00  0.00    -0.248 NA
ATOM     54  C   UNL     1     -13.736   6.254   5.534  1.00  0.00     0.031 C 
ATOM     55  C   UNL     1     -14.723   9.542   0.537  1.00  0.00     0.029 A 
ATOM     56  C   UNL     1     -14.304   8.555   1.412  1.00  0.00     0.049 A 
ATOM     57  H   UNL     1     -13.161   6.823   1.020  1.00  0.00     0.167 HD
ATOM     58  C   UNL     1     -14.096   7.429   3.602  1.00  0.00     0.074 A 
ATOM     59  C   UNL     1     -14.338   7.319   5.025  1.00  0.00     0.031 C 
ATOM     60  C   UNL     1     -14.538   8.452   2.830  1.00  0.00     0.037 A 
BRANCH  47  61
ATOM     61  C   UNL     1     -12.909   7.925  -3.100  1.00  0.00     0.057 A 
ATOM     62  C   UNL     1     -13.688   7.370  -4.124  1.00  0.00     0.134 A 
ATOM     63  C   UNL     1     -12.222   9.112  -3.386  1.00  0.00     0.134 A 
ATOM     64  F   UNL     1     -14.372   6.234  -3.917  1.00  0.00    -0.206 F 
ATOM     65  C   UNL     1     -13.766   7.961  -5.387  1.00  0.00     0.040 A 
ATOM     66  C   UNL     1     -12.311   9.726  -4.638  1.00  0.00     0.040 A 
ATOM     67  F   UNL     1     -11.472   9.708  -2.447  1.00  0.00    -0.206 F 
ATOM     68  C   UNL     1     -13.081   9.146  -5.644  1.00  0.00     0.006 A 
ENDBRANCH  47  61
BRANCH  48  69
ATOM     69  C   UNL     1     -12.326   3.727   5.878  1.00  0.00     0.057 A 
ATOM     70  C   UNL     1     -13.452   3.207   6.528  1.00  0.00     0.134 A 
ATOM     71  C   UNL     1     -11.105   3.674   6.560  1.00  0.00     0.134 A 
ATOM     72  F   UNL     1     -14.654   3.251   5.936  1.00  0.00    -0.206 F 
ATOM     73  C   UNL     1     -13.371   2.675   7.816  1.00  0.00     0.040 A 
ATOM     74  C   UNL     1     -11.005   3.120   7.837  1.00  0.00     0.040 A 
ATOM     75  F   UNL     1      -9.989   4.152   5.990  1.00  0.00    -0.206 F 
ATOM     76  C   UNL     1     -12.142   2.626   8.472  1.00  0.00     0.006 A 
ENDBRANCH  48  69
BRANCH  60  77
ATOM     77  C   UNL     1     -15.340   9.527   3.507  1.00  0.00     0.057 A 
ATOM     78  C   UNL     1     -14.751  10.443   4.389  1.00  0.00     0.134 A 
ATOM     79  C   UNL     1     -16.715   9.653   3.272  1.00  0.00     0.134 A 
ATOM     80  F   UNL     1     -13.442  10.370   4.671  1.00  0.00    -0.206 F 
ATOM     81  C   UNL     1     -15.506  11.425   5.035  1.00  0.00     0.040 A 
ATOM     82  C   UNL     1     -17.476  10.646   3.892  1.00  0.00     0.040 A 
ATOM     83  F   UNL     1     -17.343   8.814   2.434  1.00  0.00    -0.206 F 
ATOM     84  C   UNL     1     -16.872  11.531   4.784  1.00  0.00     0.006 A 
ENDBRANCH  60  77
ENDBRANCH  34  35
ENDBRANCH  26  29
ENDBRANCH  24  25
ENDBRANCH  23  24
ENDBRANCH   1  23
TORSDOF 16
