REMARK SMILES CC1(C)C[C@](CC(=O)NCCCNC(=O)c2ccc(-c3c4nc(c(-c5c(F)cccc5F)c5ccc([nH]5)c(-c5c(F)cccc5F)c5nc(c(-c6c(F)cccc6F)c6ccc3[nH]6)C=C5)C=C4)cc2)([NH+]2CCCC2)C(C)(C)O1
REMARK SMILES IDX 11 1 10 2 9 3 7 4 8 5 6 7 5 8 1 9 2 10 3 11 4 12 78 13 75 14
REMARK SMILES IDX 76 15 77 16 70 17 71 18 74 19 72 21 73 22 12 23 13 24 14 25
REMARK SMILES IDX 15 27 16 28 17 29 69 30 18 31 68 32 19 33 20 34 21 35 62 36
REMARK SMILES IDX 22 37 67 38 61 39 63 40 23 41 66 42 60 43 59 44 24 46 50 47
REMARK SMILES IDX 33 48 49 49 34 50 37 51 48 52 64 53 35 54 36 55 47 57 65 58
REMARK SMILES IDX 38 59 25 60 26 61 31 62 27 63 28 64 30 65 32 66 29 67 51 68
REMARK SMILES IDX 52 69 57 70 53 71 54 72 56 73 58 74 55 75 39 76 40 77 45 78
REMARK SMILES IDX 41 79 42 80 44 81 46 82 43 83
REMARK H PARENT 9 6 70 20 13 26 63 45 37 56
REMARK Flexibility Score: inf
ROOT
ATOM      1  C   UNL     1      -4.380  -0.222  -4.125  1.00  0.00     0.042 C 
ENDROOT
BRANCH   1   2
ATOM      2  C   UNL     1      -4.426  -1.513  -3.320  1.00  0.00     0.117 C 
BRANCH   2   3
ATOM      3  N   UNL     1      -3.724  -2.590  -3.986  1.00  0.00    -0.356 N 
ATOM      4  C   UNL     1      -2.566  -3.240  -3.723  1.00  0.00     0.226 C 
ATOM      5  O   UNL     1      -2.405  -4.283  -4.373  1.00  0.00    -0.275 OA
ATOM      6  H   UNL     1      -4.182  -2.915  -4.795  1.00  0.00     0.163 HD
BRANCH   4   7
ATOM      7  C   UNL     1      -1.526  -2.837  -2.673  1.00  0.00     0.171 C 
BRANCH   7   8
ATOM      8  C   UNL     1      -0.491  -1.638  -2.803  1.00  0.00     0.138 C 
ATOM      9  C   UNL     1       1.040  -0.751   0.433  1.00  0.00     0.042 C 
ATOM     10  C   UNL     1       1.109  -0.661  -1.103  1.00  0.00     0.070 C 
ATOM     11  C   UNL     1       2.536  -0.213  -1.437  1.00  0.00     0.042 C 
ATOM     12  C   UNL     1       0.651  -1.967  -1.763  1.00  0.00     0.107 C 
ATOM     13  O   UNL     1       0.217   0.360  -1.560  1.00  0.00    -0.363 OA
ATOM     14  C   UNL     1      -0.960  -0.230  -2.194  1.00  0.00     0.118 C 
ATOM     15  C   UNL     1      -1.988  -0.270  -1.034  1.00  0.00     0.049 C 
ATOM     16  C   UNL     1      -1.374   0.823  -3.236  1.00  0.00     0.049 C 
BRANCH   8  17
ATOM     17  N   UNL     1       0.181  -1.632  -4.140  1.00  0.00    -0.327 N 
ATOM     18  C   UNL     1      -0.542  -1.948  -5.365  1.00  0.00     0.263 C 
ATOM     19  C   UNL     1       1.235  -0.674  -4.452  1.00  0.00     0.263 C 
ATOM     20  H   UNL     1       0.622  -2.495  -3.821  1.00  0.00     0.348 HD
ATOM     21  C   UNL     1       0.386  -1.564  -6.503  1.00  0.00     0.067 C 
ATOM     22  C   UNL     1       1.163  -0.400  -5.947  1.00  0.00     0.067 C 
ENDBRANCH   8  17
ENDBRANCH   7   8
ENDBRANCH   4   7
ENDBRANCH   2   3
ENDBRANCH   1   2
BRANCH   1  23
ATOM     23  C   UNL     1      -5.507  -0.084  -5.138  1.00  0.00     0.118 C 
BRANCH  23  24
ATOM     24  N   UNL     1      -6.685   0.554  -4.571  1.00  0.00    -0.352 N 
ATOM     25  C   UNL     1      -7.053   1.875  -4.450  1.00  0.00     0.251 C 
ATOM     26  H   UNL     1      -7.344  -0.079  -4.205  1.00  0.00     0.163 HD
ATOM     27  O   UNL     1      -8.013   2.144  -3.731  1.00  0.00    -0.269 OA
BRANCH  25  28
ATOM     28  C   UNL     1      -6.331   2.984  -5.131  1.00  0.00     0.039 A 
ATOM     29  C   UNL     1      -6.309   4.246  -4.518  1.00  0.00     0.014 A 
ATOM     30  C   UNL     1      -5.770   2.851  -6.399  1.00  0.00     0.014 A 
ATOM     31  C   UNL     1      -5.704   5.342  -5.152  1.00  0.00     0.010 A 
ATOM     32  C   UNL     1      -5.074   3.911  -6.982  1.00  0.00     0.010 A 
ATOM     33  C   UNL     1      -5.057   5.180  -6.384  1.00  0.00    -0.014 A 
BRANCH  33  34
ATOM     34  C   UNL     1      -4.431   6.315  -7.123  1.00  0.00     0.031 A 
ATOM     35  C   UNL     1      -4.910   6.646  -8.517  1.00  0.00     0.074 A 
ATOM     36  C   UNL     1      -3.388   6.990  -6.604  1.00  0.00     0.049 A 
ATOM     37  N   UNL     1      -4.374   7.429  -9.419  1.00  0.00    -0.248 NA
ATOM     38  C   UNL     1      -6.137   5.969  -8.969  1.00  0.00     0.031 C 
ATOM     39  C   UNL     1      -2.807   6.773  -5.279  1.00  0.00     0.029 A 
ATOM     40  N   UNL     1      -2.611   7.987  -7.146  1.00  0.00    -0.354 N 
ATOM     41  C   UNL     1      -5.164   7.294 -10.555  1.00  0.00     0.074 A 
ATOM     42  C   UNL     1      -6.191   6.325 -10.243  1.00  0.00     0.031 C 
ATOM     43  C   UNL     1      -1.775   7.616  -5.106  1.00  0.00     0.029 A 
ATOM     44  C   UNL     1      -1.586   8.396  -6.326  1.00  0.00     0.049 A 
ATOM     45  H   UNL     1      -2.773   8.371  -8.038  1.00  0.00     0.167 HD
ATOM     46  C   UNL     1      -5.060   7.933 -11.745  1.00  0.00     0.037 A 
ATOM     47  C   UNL     1      -0.593   9.282  -6.540  1.00  0.00     0.037 A 
ATOM     48  C   UNL     1      -4.084   8.950 -12.033  1.00  0.00     0.049 A 
ATOM     49  C   UNL     1      -0.505   9.993  -7.864  1.00  0.00     0.074 A 
ATOM     50  C   UNL     1      -3.937   9.703 -13.184  1.00  0.00     0.029 A 
ATOM     51  N   UNL     1      -3.099   9.368 -11.152  1.00  0.00    -0.354 N 
ATOM     52  N   UNL     1      -1.274   9.873  -8.919  1.00  0.00    -0.248 NA
ATOM     53  C   UNL     1       0.589  10.963  -8.028  1.00  0.00     0.031 C 
ATOM     54  C   UNL     1      -2.843  10.555 -13.013  1.00  0.00     0.029 A 
ATOM     55  C   UNL     1      -2.337  10.364 -11.737  1.00  0.00     0.049 A 
ATOM     56  H   UNL     1      -2.962   9.009 -10.245  1.00  0.00     0.167 HD
ATOM     57  C   UNL     1      -0.784  10.779  -9.852  1.00  0.00     0.074 A 
ATOM     58  C   UNL     1       0.349  11.440  -9.242  1.00  0.00     0.031 C 
ATOM     59  C   UNL     1      -1.236  11.040 -11.102  1.00  0.00     0.037 A 
BRANCH  46  60
ATOM     60  C   UNL     1      -6.031   7.558 -12.828  1.00  0.00     0.057 A 
ATOM     61  C   UNL     1      -7.390   7.890 -12.754  1.00  0.00     0.134 A 
ATOM     62  C   UNL     1      -5.593   6.887 -13.978  1.00  0.00     0.134 A 
ATOM     63  F   UNL     1      -7.877   8.524 -11.676  1.00  0.00    -0.206 F 
ATOM     64  C   UNL     1      -8.284   7.542 -13.768  1.00  0.00     0.040 A 
ATOM     65  C   UNL     1      -6.472   6.561 -15.013  1.00  0.00     0.040 A 
ATOM     66  F   UNL     1      -4.303   6.548 -14.120  1.00  0.00    -0.206 F 
ATOM     67  C   UNL     1      -7.823   6.881 -14.906  1.00  0.00     0.006 A 
ENDBRANCH  46  60
BRANCH  47  68
ATOM     68  C   UNL     1       0.400   9.560  -5.470  1.00  0.00     0.057 A 
ATOM     69  C   UNL     1       0.417  10.793  -4.807  1.00  0.00     0.134 A 
ATOM     70  C   UNL     1       1.362   8.615  -5.095  1.00  0.00     0.134 A 
ATOM     71  F   UNL     1      -0.466  11.748  -5.137  1.00  0.00    -0.206 F 
ATOM     72  C   UNL     1       1.365  11.084  -3.825  1.00  0.00     0.040 A 
ATOM     73  C   UNL     1       2.300   8.882  -4.096  1.00  0.00     0.040 A 
ATOM     74  F   UNL     1       1.397   7.412  -5.688  1.00  0.00    -0.206 F 
ATOM     75  C   UNL     1       2.307  10.124  -3.463  1.00  0.00     0.006 A 
ENDBRANCH  47  68
BRANCH  59  76
ATOM     76  C   UNL     1      -0.561  12.132 -11.876  1.00  0.00     0.057 A 
ATOM     77  C   UNL     1       0.698  11.958 -12.462  1.00  0.00     0.134 A 
ATOM     78  C   UNL     1      -1.223  13.345 -12.108  1.00  0.00     0.134 A 
ATOM     79  F   UNL     1       1.387  10.823 -12.269  1.00  0.00    -0.206 F 
ATOM     80  C   UNL     1       1.278  12.956 -13.247  1.00  0.00     0.040 A 
ATOM     81  C   UNL     1      -0.663  14.340 -12.909  1.00  0.00     0.040 A 
ATOM     82  F   UNL     1      -2.436  13.570 -11.582  1.00  0.00    -0.206 F 
ATOM     83  C   UNL     1       0.592  14.147 -13.481  1.00  0.00     0.006 A 
ENDBRANCH  59  76
ENDBRANCH  33  34
ENDBRANCH  25  28
ENDBRANCH  23  24
ENDBRANCH   1  23
TORSDOF 12
