REMARK SMILES Cc1ccccc1CCNc1ccc(C(=O)NCCCNC(=O)c2ccc(-c3c4nc(c(-c5c(F)cccc5F)c5ccc([nH]5)c(-c5c(F)cccc5F)c5nc(c(-c6c(F)cccc6F)c6ccc3[nH]6)C=C5)C=C4)cc2)cc1N
REMARK SMILES IDX 18 1 17 2 15 3 16 4 14 6 11 7 12 8 79 9 13 10 78 11 10 12
REMARK SMILES IDX 9 14 8 15 7 16 1 17 2 18 3 19 4 20 6 21 5 22 80 23 19 26
REMARK SMILES IDX 20 27 21 28 22 29 23 31 24 32 25 33 77 34 26 35 76 36 27 37
REMARK SMILES IDX 28 38 29 39 70 40 30 41 75 42 69 43 71 44 31 45 74 46 68 47
REMARK SMILES IDX 67 48 32 50 58 51 41 52 57 53 42 54 45 55 56 56 72 57 43 58
REMARK SMILES IDX 44 59 55 61 73 62 46 63 33 64 34 65 39 66 35 67 36 68 38 69
REMARK SMILES IDX 40 70 37 71 59 72 60 73 65 74 61 75 62 76 64 77 66 78 63 79
REMARK SMILES IDX 47 80 48 81 53 82 49 83 50 84 52 85 54 86 51 87
REMARK H PARENT 17 5 10 13 80 24 80 25 21 30 71 49 45 60
REMARK Flexibility Score: inf
ROOT
ATOM      1  C   UNL     1      -0.607  10.075  -2.649  1.00  0.00     0.118 C 
ENDROOT
BRANCH   1   2
ATOM      2  N   UNL     1      -1.859   9.976  -1.917  1.00  0.00    -0.352 N 
ATOM      3  C   UNL     1      -2.514   8.931  -1.308  1.00  0.00     0.251 C 
ATOM      4  O   UNL     1      -3.560   9.214  -0.718  1.00  0.00    -0.269 OA
ATOM      5  H   UNL     1      -2.337  10.834  -1.840  1.00  0.00     0.163 HD
BRANCH   3   6
ATOM      6  C   UNL     1      -2.046   7.508  -1.304  1.00  0.00     0.041 A 
ATOM      7  C   UNL     1      -1.295   4.770  -1.161  1.00  0.00     0.057 A 
ATOM      8  C   UNL     1      -0.626   5.656  -1.996  1.00  0.00     0.029 A 
ATOM      9  C   UNL     1      -2.353   5.264  -0.370  1.00  0.00     0.056 A 
ATOM     10  C   UNL     1      -0.996   7.000  -2.063  1.00  0.00     0.016 A 
ATOM     11  C   UNL     1      -2.739   6.609  -0.477  1.00  0.00     0.041 A 
BRANCH   7  12
ATOM     12  N   UNL     1      -0.910   3.445  -1.076  1.00  0.00    -0.383 N 
ATOM     13  H   UNL     1      -1.613   2.756  -1.041  1.00  0.00     0.160 HD
BRANCH  12  14
ATOM     14  C   UNL     1       0.481   3.016  -1.037  1.00  0.00     0.117 C 
BRANCH  14  15
ATOM     15  C   UNL     1       0.780   2.263   0.271  1.00  0.00     0.057 C 
BRANCH  15  16
ATOM     16  C   UNL     1       0.247   0.843   0.261  1.00  0.00    -0.043 A 
ATOM     17  C   UNL     1       2.537  -0.247  -0.189  1.00  0.00     0.044 C 
ATOM     18  C   UNL     1       1.043  -0.287  -0.014  1.00  0.00    -0.048 A 
ATOM     19  C   UNL     1       0.428  -1.553  -0.067  1.00  0.00     0.004 A 
ATOM     20  C   UNL     1      -0.945  -1.703   0.124  1.00  0.00     0.000 A 
ATOM     21  C   UNL     1      -1.130   0.661   0.494  1.00  0.00     0.004 A 
ATOM     22  C   UNL     1      -1.725  -0.593   0.410  1.00  0.00     0.000 A 
ENDBRANCH  15  16
ENDBRANCH  14  15
ENDBRANCH  12  14
ENDBRANCH   7  12
BRANCH   9  23
ATOM     23  N   UNL     1      -3.090   4.395   0.442  1.00  0.00    -0.397 N 
ATOM     24  H   UNL     1      -2.823   3.451   0.520  1.00  0.00     0.156 HD
ATOM     25  H   UNL     1      -3.874   4.728   0.934  1.00  0.00     0.156 HD
ENDBRANCH   9  23
ENDBRANCH   3   6
ENDBRANCH   1   2
BRANCH   1  26
ATOM     26  C   UNL     1      -0.750   9.580  -4.091  1.00  0.00     0.042 C 
BRANCH  26  27
ATOM     27  C   UNL     1      -0.868  10.695  -5.112  1.00  0.00     0.118 C 
BRANCH  27  28
ATOM     28  N   UNL     1       0.396  11.020  -5.771  1.00  0.00    -0.352 N 
ATOM     29  C   UNL     1       0.646  12.050  -6.665  1.00  0.00     0.251 C 
ATOM     30  H   UNL     1       1.161  10.439  -5.554  1.00  0.00     0.163 HD
ATOM     31  O   UNL     1       1.755  12.239  -7.128  1.00  0.00    -0.269 OA
BRANCH  29  32
ATOM     32  C   UNL     1      -0.466  12.987  -6.939  1.00  0.00     0.039 A 
ATOM     33  C   UNL     1      -0.313  14.302  -6.495  1.00  0.00     0.014 A 
ATOM     34  C   UNL     1      -1.715  12.478  -7.290  1.00  0.00     0.014 A 
ATOM     35  C   UNL     1      -1.448  15.027  -6.156  1.00  0.00     0.010 A 
ATOM     36  C   UNL     1      -2.838  13.165  -6.871  1.00  0.00     0.010 A 
ATOM     37  C   UNL     1      -2.694  14.402  -6.231  1.00  0.00    -0.014 A 
BRANCH  37  38
ATOM     38  C   UNL     1      -3.859  14.912  -5.515  1.00  0.00     0.031 A 
ATOM     39  C   UNL     1      -4.947  15.593  -6.241  1.00  0.00     0.074 A 
ATOM     40  C   UNL     1      -3.948  14.729  -4.178  1.00  0.00     0.049 A 
ATOM     41  N   UNL     1      -5.742  16.466  -5.720  1.00  0.00    -0.248 NA
ATOM     42  C   UNL     1      -5.186  15.368  -7.659  1.00  0.00     0.031 C 
ATOM     43  C   UNL     1      -5.111  14.954  -3.326  1.00  0.00     0.029 A 
ATOM     44  N   UNL     1      -2.894  14.497  -3.280  1.00  0.00    -0.354 N 
ATOM     45  C   UNL     1      -6.748  16.712  -6.628  1.00  0.00     0.074 A 
ATOM     46  C   UNL     1      -6.315  16.058  -7.842  1.00  0.00     0.031 C 
ATOM     47  C   UNL     1      -4.691  15.143  -2.065  1.00  0.00     0.029 A 
ATOM     48  C   UNL     1      -3.239  15.189  -2.098  1.00  0.00     0.049 A 
ATOM     49  H   UNL     1      -2.083  13.963  -3.440  1.00  0.00     0.167 HD
ATOM     50  C   UNL     1      -7.897  17.320  -6.208  1.00  0.00     0.037 A 
ATOM     51  C   UNL     1      -2.479  16.217  -1.623  1.00  0.00     0.037 A 
ATOM     52  C   UNL     1      -7.800  17.730  -4.808  1.00  0.00     0.049 A 
ATOM     53  C   UNL     1      -3.224  17.524  -1.492  1.00  0.00     0.074 A 
ATOM     54  C   UNL     1      -8.233  17.139  -3.631  1.00  0.00     0.029 A 
ATOM     55  N   UNL     1      -6.917  18.739  -4.438  1.00  0.00    -0.354 N 
ATOM     56  N   UNL     1      -4.343  17.787  -2.108  1.00  0.00    -0.248 NA
ATOM     57  C   UNL     1      -2.739  18.653  -0.701  1.00  0.00     0.031 C 
ATOM     58  C   UNL     1      -7.555  17.756  -2.552  1.00  0.00     0.029 A 
ATOM     59  C   UNL     1      -6.723  18.733  -3.069  1.00  0.00     0.049 A 
ATOM     60  H   UNL     1      -6.490  19.369  -5.063  1.00  0.00     0.167 HD
ATOM     61  C   UNL     1      -4.702  19.085  -1.857  1.00  0.00     0.074 A 
ATOM     62  C   UNL     1      -3.683  19.577  -0.949  1.00  0.00     0.031 C 
ATOM     63  C   UNL     1      -5.797  19.658  -2.436  1.00  0.00     0.037 A 
BRANCH  50  64
ATOM     64  C   UNL     1      -9.209  17.227  -6.967  1.00  0.00     0.057 A 
ATOM     65  C   UNL     1     -10.441  17.202  -6.283  1.00  0.00     0.134 A 
ATOM     66  C   UNL     1      -9.327  17.076  -8.358  1.00  0.00     0.134 A 
ATOM     67  F   UNL     1     -10.530  17.473  -4.974  1.00  0.00    -0.206 F 
ATOM     68  C   UNL     1     -11.659  16.898  -6.908  1.00  0.00     0.040 A 
ATOM     69  C   UNL     1     -10.527  16.715  -8.991  1.00  0.00     0.040 A 
ATOM     70  F   UNL     1      -8.302  17.332  -9.180  1.00  0.00    -0.206 F 
ATOM     71  C   UNL     1     -11.699  16.603  -8.260  1.00  0.00     0.006 A 
ENDBRANCH  50  64
BRANCH  51  72
ATOM     72  C   UNL     1      -1.037  16.108  -1.960  1.00  0.00     0.057 A 
ATOM     73  C   UNL     1      -0.295  15.030  -1.447  1.00  0.00     0.134 A 
ATOM     74  C   UNL     1      -0.469  16.826  -3.016  1.00  0.00     0.134 A 
ATOM     75  F   UNL     1      -0.783  14.296  -0.434  1.00  0.00    -0.206 F 
ATOM     76  C   UNL     1       0.909  14.620  -2.024  1.00  0.00     0.040 A 
ATOM     77  C   UNL     1       0.742  16.430  -3.597  1.00  0.00     0.040 A 
ATOM     78  F   UNL     1      -1.124  17.854  -3.574  1.00  0.00    -0.206 F 
ATOM     79  C   UNL     1       1.415  15.305  -3.124  1.00  0.00     0.006 A 
ENDBRANCH  51  72
BRANCH  63  80
ATOM     80  C   UNL     1      -6.133  21.122  -2.378  1.00  0.00     0.057 A 
ATOM     81  C   UNL     1      -5.172  22.144  -2.369  1.00  0.00     0.134 A 
ATOM     82  C   UNL     1      -7.473  21.553  -2.470  1.00  0.00     0.134 A 
ATOM     83  F   UNL     1      -3.860  21.869  -2.393  1.00  0.00    -0.206 F 
ATOM     84  C   UNL     1      -5.520  23.500  -2.386  1.00  0.00     0.040 A 
ATOM     85  C   UNL     1      -7.830  22.903  -2.536  1.00  0.00     0.040 A 
ATOM     86  F   UNL     1      -8.489  20.678  -2.519  1.00  0.00    -0.206 F 
ATOM     87  C   UNL     1      -6.852  23.884  -2.478  1.00  0.00     0.006 A 
ENDBRANCH  63  80
ENDBRANCH  37  38
ENDBRANCH  29  32
ENDBRANCH  27  28
ENDBRANCH  26  27
ENDBRANCH   1  26
TORSDOF 15
