REMARK SMILES COC(=O)c1c(NC(=O)[C@@H]2[C@H]3CC[C@H](CC3)[C@H]2C(=O)NCCCNC(=O)c2ccc(-c3c4nc(c(-c5c(F)cccc5F)c5ccc([nH]5)c(-c5c(F)cccc5F)c5nc(c(-c6c(F)cccc6F)c6ccc3[nH]6)C=C5)C=C4)cc2)sc(C)c1-c1ccc(C)cc1
REMARK SMILES IDX 21 1 20 2 18 3 19 4 17 6 10 7 11 8 16 9 12 10 14 11 15 12
REMARK SMILES IDX 13 13 8 14 7 15 9 17 6 18 5 19 84 20 81 21 82 22 83 23 3 24
REMARK SMILES IDX 4 25 2 26 1 27 85 28 86 29 91 30 87 31 90 32 88 33 89 34
REMARK SMILES IDX 22 35 23 36 24 37 25 38 26 40 27 41 28 42 80 43 29 44 79 45
REMARK SMILES IDX 30 46 31 47 32 48 73 49 33 50 78 51 72 52 74 53 34 54 77 55
REMARK SMILES IDX 71 56 70 57 35 59 61 60 44 61 60 62 45 63 48 64 59 65 75 66
REMARK SMILES IDX 46 67 47 68 58 70 76 71 49 72 36 73 37 74 42 75 38 76 39 77
REMARK SMILES IDX 41 78 43 79 40 80 62 81 63 82 68 83 64 84 65 85 67 86 69 87
REMARK SMILES IDX 66 88 50 89 51 90 56 91 52 92 53 93 55 94 57 95 54 96
REMARK H PARENT 20 5 7 16 24 39 74 58 48 69
REMARK Flexibility Score: inf
ROOT
ATOM      1  C   UNL     1       4.862  -6.363  -0.053  1.00  0.00     0.117 C 
ENDROOT
BRANCH   1   2
ATOM      2  N   UNL     1       3.836  -5.388  -0.279  1.00  0.00    -0.356 N 
ATOM      3  C   UNL     1       2.575  -5.557  -0.749  1.00  0.00     0.224 C 
ATOM      4  O   UNL     1       1.861  -4.548  -0.749  1.00  0.00    -0.275 OA
ATOM      5  H   UNL     1       4.082  -4.460  -0.060  1.00  0.00     0.163 HD
BRANCH   3   6
ATOM      6  C   UNL     1       1.974  -6.922  -1.118  1.00  0.00     0.094 C 
ATOM      7  C   UNL     1       2.702  -7.889  -2.129  1.00  0.00     0.094 C 
ATOM      8  C   UNL     1       2.590  -9.275  -1.493  1.00  0.00     0.002 C 
ATOM      9  C   UNL     1       3.322  -9.424  -0.163  1.00  0.00     0.005 C 
ATOM     10  C   UNL     1       1.100  -9.620  -1.299  1.00  0.00     0.005 C 
ATOM     11  C   UNL     1       1.550  -7.686   0.198  1.00  0.00     0.002 C 
ATOM     12  C   UNL     1       2.672  -8.515   0.864  1.00  0.00     0.005 C 
ATOM     13  C   UNL     1       0.492  -8.718  -0.225  1.00  0.00     0.005 C 
BRANCH   7  14
ATOM     14  C   UNL     1       2.160  -7.789  -3.606  1.00  0.00     0.229 C 
ATOM     15  N   UNL     1       2.041  -8.799  -4.549  1.00  0.00    -0.317 N 
ATOM     16  H   UNL     1       2.044  -8.502  -5.488  1.00  0.00     0.170 HD
ATOM     17  O   UNL     1       1.867  -6.657  -4.025  1.00  0.00    -0.274 OA
BRANCH  15  18
ATOM     18  C   UNL     1       1.916 -10.165  -4.361  1.00  0.00     0.111 A 
ATOM     19  C   UNL     1       0.942 -11.079  -4.765  1.00  0.00     0.102 A 
ATOM     20  C   UNL     1       1.079 -12.274  -3.946  1.00  0.00     0.012 A 
ATOM     21  S   UNL     1       3.313 -11.126  -4.030  1.00  0.00    -0.122 S 
ATOM     22  C   UNL     1       2.256 -12.232  -3.214  1.00  0.00     0.012 A 
ATOM     23  C   UNL     1       2.679 -13.012  -2.015  1.00  0.00     0.057 C 
BRANCH  19  24
ATOM     24  C   UNL     1      -0.063 -10.792  -5.785  1.00  0.00     0.341 C 
ATOM     25  O   UNL     1       0.007  -9.839  -6.531  1.00  0.00    -0.246 OA
BRANCH  24  26
ATOM     26  O   UNL     1      -1.013 -11.772  -5.858  1.00  0.00    -0.465 OA
ATOM     27  C   UNL     1      -1.813 -11.775  -7.037  1.00  0.00     0.282 C 
ENDBRANCH  24  26
ENDBRANCH  19  24
BRANCH  20  28
ATOM     28  C   UNL     1       0.286 -13.495  -3.925  1.00  0.00    -0.016 A 
ATOM     29  C   UNL     1       0.617 -14.485  -4.856  1.00  0.00     0.009 A 
ATOM     30  C   UNL     1      -0.694 -13.748  -2.961  1.00  0.00     0.009 A 
ATOM     31  C   UNL     1      -0.010 -15.727  -4.819  1.00  0.00     0.004 A 
ATOM     32  C   UNL     1      -1.326 -14.999  -2.927  1.00  0.00     0.004 A 
ATOM     33  C   UNL     1      -0.980 -15.998  -3.848  1.00  0.00    -0.051 A 
ATOM     34  C   UNL     1      -1.617 -17.356  -3.819  1.00  0.00     0.044 C 
ENDBRANCH  20  28
ENDBRANCH  15  18
ENDBRANCH   7  14
ENDBRANCH   3   6
ENDBRANCH   1   2
BRANCH   1  35
ATOM     35  C   UNL     1       6.136  -6.087  -0.806  1.00  0.00     0.042 C 
BRANCH  35  36
ATOM     36  C   UNL     1       7.162  -5.437   0.094  1.00  0.00     0.118 C 
BRANCH  36  37
ATOM     37  N   UNL     1       7.643  -6.333   1.151  1.00  0.00    -0.352 N 
ATOM     38  C   UNL     1       8.915  -6.786   1.413  1.00  0.00     0.251 C 
ATOM     39  H   UNL     1       6.949  -6.662   1.766  1.00  0.00     0.163 HD
ATOM     40  O   UNL     1       9.107  -7.653   2.258  1.00  0.00    -0.269 OA
BRANCH  38  41
ATOM     41  C   UNL     1      10.040  -6.241   0.632  1.00  0.00     0.039 A 
ATOM     42  C   UNL     1      11.016  -7.101   0.126  1.00  0.00     0.014 A 
ATOM     43  C   UNL     1      10.066  -4.883   0.323  1.00  0.00     0.014 A 
ATOM     44  C   UNL     1      11.956  -6.608  -0.780  1.00  0.00     0.010 A 
ATOM     45  C   UNL     1      10.884  -4.439  -0.697  1.00  0.00     0.010 A 
ATOM     46  C   UNL     1      11.858  -5.287  -1.242  1.00  0.00    -0.014 A 
BRANCH  46  47
ATOM     47  C   UNL     1      12.776  -4.724  -2.261  1.00  0.00     0.031 A 
ATOM     48  C   UNL     1      13.552  -3.477  -1.931  1.00  0.00     0.074 A 
ATOM     49  C   UNL     1      12.813  -5.242  -3.502  1.00  0.00     0.049 A 
ATOM     50  N   UNL     1      14.255  -2.705  -2.717  1.00  0.00    -0.248 NA
ATOM     51  C   UNL     1      13.467  -2.997  -0.541  1.00  0.00     0.031 C 
ATOM     52  C   UNL     1      12.048  -6.402  -3.965  1.00  0.00     0.029 A 
ATOM     53  N   UNL     1      13.509  -4.839  -4.613  1.00  0.00    -0.354 N 
ATOM     54  C   UNL     1      14.649  -1.632  -1.928  1.00  0.00     0.074 A 
ATOM     55  C   UNL     1      14.040  -1.809  -0.631  1.00  0.00     0.031 C 
ATOM     56  C   UNL     1      12.333  -6.629  -5.257  1.00  0.00     0.029 A 
ATOM     57  C   UNL     1      13.262  -5.606  -5.726  1.00  0.00     0.049 A 
ATOM     58  H   UNL     1      14.127  -4.073  -4.613  1.00  0.00     0.167 HD
ATOM     59  C   UNL     1      15.475  -0.607  -2.244  1.00  0.00     0.037 A 
ATOM     60  C   UNL     1      13.723  -5.486  -6.985  1.00  0.00     0.037 A 
ATOM     61  C   UNL     1      16.121  -0.474  -3.520  1.00  0.00     0.049 A 
ATOM     62  C   UNL     1      14.676  -4.370  -7.309  1.00  0.00     0.074 A 
ATOM     63  C   UNL     1      17.052   0.465  -3.921  1.00  0.00     0.029 A 
ATOM     64  N   UNL     1      15.902  -1.315  -4.601  1.00  0.00    -0.354 N 
ATOM     65  N   UNL     1      15.110  -3.406  -6.532  1.00  0.00    -0.248 NA
ATOM     66  C   UNL     1      15.210  -4.328  -8.676  1.00  0.00     0.031 C 
ATOM     67  C   UNL     1      17.363   0.219  -5.263  1.00  0.00     0.029 A 
ATOM     68  C   UNL     1      16.665  -0.905  -5.680  1.00  0.00     0.049 A 
ATOM     69  H   UNL     1      15.293  -2.089  -4.602  1.00  0.00     0.167 HD
ATOM     70  C   UNL     1      15.986  -2.657  -7.307  1.00  0.00     0.074 A 
ATOM     71  C   UNL     1      16.027  -3.285  -8.613  1.00  0.00     0.031 C 
ATOM     72  C   UNL     1      16.695  -1.552  -6.968  1.00  0.00     0.037 A 
BRANCH  59  73
ATOM     73  C   UNL     1      15.716   0.430  -1.185  1.00  0.00     0.057 A 
ATOM     74  C   UNL     1      16.394   0.135   0.007  1.00  0.00     0.134 A 
ATOM     75  C   UNL     1      15.241   1.738  -1.346  1.00  0.00     0.134 A 
ATOM     76  F   UNL     1      16.863  -1.101   0.235  1.00  0.00    -0.206 F 
ATOM     77  C   UNL     1      16.543   1.084   1.020  1.00  0.00     0.040 A 
ATOM     78  C   UNL     1      15.416   2.706  -0.356  1.00  0.00     0.040 A 
ATOM     79  F   UNL     1      14.589   2.094  -2.463  1.00  0.00    -0.206 F 
ATOM     80  C   UNL     1      16.055   2.376   0.838  1.00  0.00     0.006 A 
ENDBRANCH  59  73
BRANCH  60  81
ATOM     81  C   UNL     1      13.307  -6.473  -8.012  1.00  0.00     0.057 A 
ATOM     82  C   UNL     1      14.195  -7.451  -8.474  1.00  0.00     0.134 A 
ATOM     83  C   UNL     1      12.003  -6.494  -8.521  1.00  0.00     0.134 A 
ATOM     84  F   UNL     1      15.461  -7.475  -8.033  1.00  0.00    -0.206 F 
ATOM     85  C   UNL     1      13.804  -8.410  -9.410  1.00  0.00     0.040 A 
ATOM     86  C   UNL     1      11.592  -7.460  -9.441  1.00  0.00     0.040 A 
ATOM     87  F   UNL     1      11.101  -5.591  -8.108  1.00  0.00    -0.206 F 
ATOM     88  C   UNL     1      12.496  -8.421  -9.890  1.00  0.00     0.006 A 
ENDBRANCH  60  81
BRANCH  72  89
ATOM     89  C   UNL     1      17.603  -0.968  -8.008  1.00  0.00     0.057 A 
ATOM     90  C   UNL     1      17.109  -0.247  -9.101  1.00  0.00     0.134 A 
ATOM     91  C   UNL     1      18.994  -1.063  -7.867  1.00  0.00     0.134 A 
ATOM     92  F   UNL     1      15.787  -0.129  -9.296  1.00  0.00    -0.206 F 
ATOM     93  C   UNL     1      17.967   0.351 -10.025  1.00  0.00     0.040 A 
ATOM     94  C   UNL     1      19.861  -0.448  -8.769  1.00  0.00     0.040 A 
ATOM     95  F   UNL     1      19.530  -1.732  -6.835  1.00  0.00    -0.206 F 
ATOM     96  C   UNL     1      19.348   0.260  -9.854  1.00  0.00     0.006 A 
ENDBRANCH  72  89
ENDBRANCH  46  47
ENDBRANCH  38  41
ENDBRANCH  36  37
ENDBRANCH  35  36
ENDBRANCH   1  35
TORSDOF 15
