REMARK SMILES O=C(NCCCNC(=O)[C@@H]1Sc2c(sc(=O)n2Cc2ccccc2)[C@H]2c3ccccc3OC(=O)[C@@H]21)c1ccc(-c2c3nc(c(-c4c(F)cccc4F)c4ccc([nH]4)c(-c4c(F)cccc4F)c4nc(c(-c5c(F)cccc5F)c5ccc2[nH]5)C=C4)C=C3)cc1
REMARK SMILES IDX 5 1 4 2 3 3 1 4 2 5 36 7 37 8 89 9 38 10 88 11 39 12 40 13
REMARK SMILES IDX 41 14 82 15 42 16 87 17 81 18 83 19 43 20 86 21 80 22 79 23
REMARK SMILES IDX 44 25 70 26 53 27 69 28 54 29 57 30 68 31 84 32 55 33 56 34
REMARK SMILES IDX 67 36 85 37 58 38 45 39 46 40 51 41 47 42 48 43 50 44 52 45
REMARK SMILES IDX 49 46 71 47 72 48 77 49 73 50 74 51 76 52 78 53 75 54 59 55
REMARK SMILES IDX 60 56 65 57 61 58 62 59 64 60 66 61 63 62 6 63 7 64 8 65
REMARK SMILES IDX 9 67 10 68 11 69 35 70 12 71 25 72 33 73 13 74 17 75 26 76
REMARK SMILES IDX 32 77 34 78 14 79 15 80 27 81 31 82 16 83 28 84 30 85 29 86
REMARK SMILES IDX 18 87 19 88 20 89 24 90 21 91 23 92 22 93
REMARK H PARENT 3 6 83 24 57 35 7 66
REMARK Flexibility Score: inf
ROOT
ATOM      1  C   UNL     1       5.001  -1.493  -2.391  1.00  0.00     0.042 C 
ENDROOT
BRANCH   1   2
ATOM      2  C   UNL     1       4.467  -0.551  -1.339  1.00  0.00     0.118 C 
BRANCH   2   3
ATOM      3  N   UNL     1       3.021  -0.652  -1.076  1.00  0.00    -0.352 N 
ATOM      4  O   UNL     1       1.189  -0.412   0.281  1.00  0.00    -0.269 OA
ATOM      5  C   UNL     1       2.316  -0.053  -0.031  1.00  0.00     0.251 C 
ATOM      6  H   UNL     1       2.497  -1.200  -1.703  1.00  0.00     0.163 HD
BRANCH   5   7
ATOM      7  C   UNL     1       2.979   1.060   0.672  1.00  0.00     0.039 A 
ATOM      8  C   UNL     1       3.030   1.215   2.057  1.00  0.00     0.014 A 
ATOM      9  C   UNL     1       3.727   1.877  -0.152  1.00  0.00     0.014 A 
ATOM     10  C   UNL     1       3.913   2.169   2.565  1.00  0.00     0.010 A 
ATOM     11  C   UNL     1       4.865   2.398   0.365  1.00  0.00     0.010 A 
ATOM     12  C   UNL     1       4.848   2.752   1.691  1.00  0.00    -0.014 A 
BRANCH  12  13
ATOM     13  C   UNL     1       5.872   3.706   2.088  1.00  0.00     0.031 A 
ATOM     14  C   UNL     1       6.596   3.307   3.309  1.00  0.00     0.074 A 
ATOM     15  C   UNL     1       6.238   4.768   1.326  1.00  0.00     0.049 A 
ATOM     16  N   UNL     1       6.396   3.762   4.498  1.00  0.00    -0.248 NA
ATOM     17  C   UNL     1       7.473   2.128   3.256  1.00  0.00     0.031 C 
ATOM     18  C   UNL     1       5.821   5.140  -0.037  1.00  0.00     0.029 A 
ATOM     19  N   UNL     1       7.146   5.741   1.615  1.00  0.00    -0.354 N 
ATOM     20  C   UNL     1       7.316   3.110   5.306  1.00  0.00     0.074 A 
ATOM     21  C   UNL     1       7.775   1.975   4.548  1.00  0.00     0.031 C 
ATOM     22  C   UNL     1       6.633   6.101  -0.531  1.00  0.00     0.029 A 
ATOM     23  C   UNL     1       7.494   6.558   0.538  1.00  0.00     0.049 A 
ATOM     24  H   UNL     1       7.527   5.860   2.515  1.00  0.00     0.167 HD
ATOM     25  C   UNL     1       7.826   3.743   6.397  1.00  0.00     0.037 A 
ATOM     26  C   UNL     1       8.419   7.550   0.543  1.00  0.00     0.037 A 
ATOM     27  C   UNL     1       7.027   4.904   6.731  1.00  0.00     0.049 A 
ATOM     28  C   UNL     1       8.623   7.939   1.961  1.00  0.00     0.074 A 
ATOM     29  C   UNL     1       5.702   5.111   7.067  1.00  0.00     0.029 A 
ATOM     30  N   UNL     1       7.503   6.131   6.330  1.00  0.00    -0.354 N 
ATOM     31  N   UNL     1       7.706   8.530   2.678  1.00  0.00    -0.248 NA
ATOM     32  C   UNL     1       9.631   7.210   2.713  1.00  0.00     0.031 C 
ATOM     33  C   UNL     1       5.333   6.315   6.392  1.00  0.00     0.029 A 
ATOM     34  C   UNL     1       6.467   6.823   5.758  1.00  0.00     0.049 A 
ATOM     35  H   UNL     1       8.427   6.455   6.434  1.00  0.00     0.167 HD
ATOM     36  C   UNL     1       7.754   7.890   3.909  1.00  0.00     0.074 A 
ATOM     37  C   UNL     1       9.006   7.132   3.892  1.00  0.00     0.031 C 
ATOM     38  C   UNL     1       6.640   7.788   4.695  1.00  0.00     0.037 A 
BRANCH  25  39
ATOM     39  C   UNL     1       9.253   3.603   6.869  1.00  0.00     0.057 A 
ATOM     40  C   UNL     1      10.320   3.132   6.076  1.00  0.00     0.134 A 
ATOM     41  C   UNL     1       9.635   4.273   8.045  1.00  0.00     0.134 A 
ATOM     42  F   UNL     1      10.139   2.501   4.912  1.00  0.00    -0.206 F 
ATOM     43  C   UNL     1      11.659   3.377   6.388  1.00  0.00     0.040 A 
ATOM     44  C   UNL     1      10.971   4.564   8.342  1.00  0.00     0.040 A 
ATOM     45  F   UNL     1       8.713   4.753   8.894  1.00  0.00    -0.206 F 
ATOM     46  C   UNL     1      11.988   4.132   7.500  1.00  0.00     0.006 A 
ENDBRANCH  25  39
BRANCH  26  47
ATOM     47  C   UNL     1       9.347   7.962  -0.536  1.00  0.00     0.057 A 
ATOM     48  C   UNL     1       9.799   7.040  -1.496  1.00  0.00     0.134 A 
ATOM     49  C   UNL     1      10.039   9.181  -0.483  1.00  0.00     0.134 A 
ATOM     50  F   UNL     1       9.258   5.816  -1.585  1.00  0.00    -0.206 F 
ATOM     51  C   UNL     1      10.888   7.302  -2.336  1.00  0.00     0.040 A 
ATOM     52  C   UNL     1      11.133   9.456  -1.317  1.00  0.00     0.040 A 
ATOM     53  F   UNL     1       9.711  10.109   0.427  1.00  0.00    -0.206 F 
ATOM     54  C   UNL     1      11.569   8.509  -2.239  1.00  0.00     0.006 A 
ENDBRANCH  26  47
BRANCH  38  55
ATOM     55  C   UNL     1       5.431   8.595   4.298  1.00  0.00     0.057 A 
ATOM     56  C   UNL     1       4.908   9.513   5.213  1.00  0.00     0.134 A 
ATOM     57  C   UNL     1       4.704   8.406   3.111  1.00  0.00     0.134 A 
ATOM     58  F   UNL     1       5.514   9.705   6.395  1.00  0.00    -0.206 F 
ATOM     59  C   UNL     1       3.733  10.224   4.959  1.00  0.00     0.040 A 
ATOM     60  C   UNL     1       3.542   9.135   2.829  1.00  0.00     0.040 A 
ATOM     61  F   UNL     1       5.065   7.480   2.216  1.00  0.00    -0.206 F 
ATOM     62  C   UNL     1       3.052  10.047   3.758  1.00  0.00     0.006 A 
ENDBRANCH  38  55
ENDBRANCH  12  13
ENDBRANCH   5   7
ENDBRANCH   2   3
ENDBRANCH   1   2
BRANCH   1  63
ATOM     63  C   UNL     1       4.568  -1.110  -3.799  1.00  0.00     0.117 C 
BRANCH  63  64
ATOM     64  N   UNL     1       5.177   0.114  -4.305  1.00  0.00    -0.355 N 
ATOM     65  C   UNL     1       5.633   0.426  -5.552  1.00  0.00     0.234 C 
ATOM     66  H   UNL     1       5.275   0.832  -3.639  1.00  0.00     0.163 HD
ATOM     67  O   UNL     1       5.596   1.622  -5.860  1.00  0.00    -0.274 OA
BRANCH  65  68
ATOM     68  C   UNL     1       6.191  -0.611  -6.542  1.00  0.00     0.157 C 
ATOM     69  S   UNL     1       4.864  -1.828  -6.963  1.00  0.00    -0.093 SA
ATOM     70  C   UNL     1       7.609  -1.174  -6.275  1.00  0.00     0.135 C 
ATOM     71  C   UNL     1       5.681  -3.333  -6.852  1.00  0.00     0.094 A 
ATOM     72  C   UNL     1       7.612  -2.457  -5.441  1.00  0.00     0.082 C 
ATOM     73  C   UNL     1       8.591  -0.151  -5.745  1.00  0.00     0.317 C 
ATOM     74  C   UNL     1       6.884  -3.501  -6.276  1.00  0.00     0.049 A 
ATOM     75  N   UNL     1       5.193  -4.462  -7.481  1.00  0.00    -0.289 N 
ATOM     76  C   UNL     1       9.006  -2.837  -4.978  1.00  0.00     0.004 A 
ATOM     77  O   UNL     1       9.878  -0.640  -5.569  1.00  0.00    -0.426 OA
ATOM     78  O   UNL     1       8.365   1.044  -5.635  1.00  0.00    -0.251 OA
ATOM     79  S   UNL     1       7.577  -5.022  -6.799  1.00  0.00    -0.077 S 
ATOM     80  C   UNL     1       6.143  -5.447  -7.719  1.00  0.00     0.308 A 
ATOM     81  C   UNL     1       9.278  -4.049  -4.321  1.00  0.00     0.008 A 
ATOM     82  C   UNL     1      10.074  -1.971  -5.184  1.00  0.00     0.134 A 
ATOM     83  O   UNL     1       6.074  -6.436  -8.414  1.00  0.00    -0.257 OA
ATOM     84  C   UNL     1      10.593  -4.454  -4.074  1.00  0.00     0.001 A 
ATOM     85  C   UNL     1      11.392  -2.352  -4.925  1.00  0.00     0.047 A 
ATOM     86  C   UNL     1      11.653  -3.617  -4.406  1.00  0.00     0.004 A 
BRANCH  75  87
ATOM     87  C   UNL     1       3.800  -4.697  -7.844  1.00  0.00     0.163 C 
BRANCH  87  88
ATOM     88  C   UNL     1       3.308  -6.035  -7.312  1.00  0.00    -0.028 A 
ATOM     89  C   UNL     1       3.167  -6.268  -5.934  1.00  0.00     0.005 A 
ATOM     90  C   UNL     1       3.119  -7.105  -8.200  1.00  0.00     0.005 A 
ATOM     91  C   UNL     1       2.885  -7.554  -5.461  1.00  0.00     0.000 A 
ATOM     92  C   UNL     1       2.845  -8.387  -7.724  1.00  0.00     0.000 A 
ATOM     93  C   UNL     1       2.737  -8.613  -6.355  1.00  0.00     0.000 A 
ENDBRANCH  87  88
ENDBRANCH  75  87
ENDBRANCH  65  68
ENDBRANCH  63  64
ENDBRANCH   1  63
TORSDOF 12
