REMARK SMILES C[C@]([NH3+])(C(=O)N[C@H]1CCCCC[C@@H]1C(=O)NCCCNC(=O)c1ccc(-c2c3nc(c(-c4c(F)cccc4F)c4ccc([nH]4)c(-c4c(F)cccc4F)c4nc(c(-c5c(F)cccc5F)c5ccc2[nH]5)C=C4)C=C3)cc1)C(F)(F)F
REMARK SMILES IDX 17 1 16 2 14 3 15 4 13 6 7 7 6 8 4 9 5 10 2 12 1 13 77 14
REMARK SMILES IDX 78 15 79 16 80 17 3 18 8 22 12 24 11 25 10 26 9 27 18 29
REMARK SMILES IDX 19 30 20 31 21 32 22 34 23 35 24 36 76 37 25 38 75 39 26 40
REMARK SMILES IDX 27 41 28 42 69 43 29 44 74 45 68 46 70 47 30 48 73 49 67 50
REMARK SMILES IDX 66 51 31 53 57 54 40 55 56 56 41 57 44 58 55 59 71 60 42 61
REMARK SMILES IDX 43 62 54 64 72 65 45 66 32 67 33 68 38 69 34 70 35 71 37 72
REMARK SMILES IDX 39 73 36 74 58 75 59 76 64 77 60 78 61 79 63 80 65 81 62 82
REMARK SMILES IDX 46 83 47 84 52 85 48 86 49 87 51 88 53 89 50 90
REMARK H PARENT 16 5 6 11 3 19 3 20 3 21 20 33 70 52 44 63
REMARK Flexibility Score: 100.00
ROOT
ATOM      1  C   UNL     1      -3.124  -0.215   0.133  1.00  0.00     0.117 C 
ENDROOT
BRANCH   1   2
ATOM      2  N   UNL     1      -2.011   0.690   0.371  1.00  0.00    -0.356 N 
ATOM      3  C   UNL     1      -0.945   0.584   1.213  1.00  0.00     0.225 C 
ATOM      4  O   UNL     1      -0.041   1.413   1.083  1.00  0.00    -0.275 OA
ATOM      5  H   UNL     1      -2.030   1.515  -0.165  1.00  0.00     0.163 HD
BRANCH   3   6
ATOM      6  C   UNL     1      -0.888  -0.470   2.313  1.00  0.00     0.101 C 
BRANCH   6   7
ATOM      7  C   UNL     1      -0.872  -1.897   1.721  1.00  0.00     0.094 C 
BRANCH   7   8
ATOM      8  N   UNL     1       0.490  -2.292   1.325  1.00  0.00    -0.347 N 
ATOM      9  C   UNL     1       0.965  -2.886   0.181  1.00  0.00     0.290 C 
ATOM     10  O   UNL     1       2.154  -3.216   0.209  1.00  0.00    -0.267 OA
ATOM     11  H   UNL     1       1.182  -2.096   1.997  1.00  0.00     0.164 HD
BRANCH   9  12
ATOM     12  C   UNL     1       0.100  -3.059  -1.095  1.00  0.00     0.266 C 
ATOM     13  C   UNL     1      -0.137  -1.696  -1.758  1.00  0.00     0.100 C 
BRANCH  12  14
ATOM     14  C   UNL     1       0.910  -3.934  -2.093  1.00  0.00     0.453 C 
ATOM     15  F   UNL     1       1.180  -5.160  -1.588  1.00  0.00    -0.164 F 
ATOM     16  F   UNL     1       0.156  -4.148  -3.210  1.00  0.00    -0.164 F 
ATOM     17  F   UNL     1       2.060  -3.368  -2.509  1.00  0.00    -0.164 F 
ENDBRANCH  12  14
BRANCH  12  18
ATOM     18  N   UNL     1      -1.245  -3.665  -0.748  1.00  0.00    -0.337 N 
ATOM     19  H   UNL     1      -1.105  -4.574  -0.306  1.00  0.00     0.345 HD
ATOM     20  H   UNL     1      -1.795  -3.782  -1.599  1.00  0.00     0.345 HD
ATOM     21  H   UNL     1      -1.741  -3.047  -0.105  1.00  0.00     0.345 HD
ENDBRANCH  12  18
ENDBRANCH   9  12
ENDBRANCH   7   8
BRANCH   7  22
ATOM     22  C   UNL     1      -1.496  -2.993   2.601  1.00  0.00     0.026 CG0
ATOM     23  G   UNL     1      -1.044  -3.009   4.061  1.00  0.00     0.000 G0
ENDBRANCH   7  22
ENDBRANCH   6   7
BRANCH   6  24
ATOM     24  C   UNL     1      -1.978  -0.133   3.347  1.00  0.00     0.015 C 
BRANCH  24  25
ATOM     25  C   UNL     1      -1.655  -0.620   4.756  1.00  0.00     0.001 C 
BRANCH  25  26
ATOM     26  C   UNL     1      -1.886  -2.110   4.961  1.00  0.00     0.000 C 
BRANCH  26  27
ATOM     27  C   UNL     1      -1.044  -3.009   4.061  1.00  0.00     0.002 CG0
ATOM     28  G   UNL     1      -1.496  -2.993   2.601  1.00  0.00     0.000 G0
ENDBRANCH  26  27
ENDBRANCH  25  26
ENDBRANCH  24  25
ENDBRANCH   6  24
ENDBRANCH   3   6
ENDBRANCH   1   2
BRANCH   1  29
ATOM     29  C   UNL     1      -4.419   0.501  -0.198  1.00  0.00     0.042 C 
BRANCH  29  30
ATOM     30  C   UNL     1      -4.330   1.411  -1.414  1.00  0.00     0.118 C 
BRANCH  30  31
ATOM     31  N   UNL     1      -3.987   0.708  -2.646  1.00  0.00    -0.352 N 
ATOM     32  C   UNL     1      -4.752   0.391  -3.744  1.00  0.00     0.251 C 
ATOM     33  H   UNL     1      -3.050   0.411  -2.700  1.00  0.00     0.163 HD
ATOM     34  O   UNL     1      -4.295  -0.352  -4.609  1.00  0.00    -0.269 OA
BRANCH  32  35
ATOM     35  C   UNL     1      -6.136   0.896  -3.861  1.00  0.00     0.039 A 
ATOM     36  C   UNL     1      -7.143   0.028  -4.289  1.00  0.00     0.014 A 
ATOM     37  C   UNL     1      -6.452   2.209  -3.513  1.00  0.00     0.014 A 
ATOM     38  C   UNL     1      -8.478   0.439  -4.240  1.00  0.00     0.010 A 
ATOM     39  C   UNL     1      -7.782   2.578  -3.355  1.00  0.00     0.010 A 
ATOM     40  C   UNL     1      -8.812   1.691  -3.700  1.00  0.00    -0.014 A 
BRANCH  40  41
ATOM     41  C   UNL     1     -10.221   2.084  -3.444  1.00  0.00     0.031 A 
ATOM     42  C   UNL     1     -10.790   3.324  -4.077  1.00  0.00     0.074 A 
ATOM     43  C   UNL     1     -10.953   1.387  -2.552  1.00  0.00     0.049 A 
ATOM     44  N   UNL     1     -11.945   3.904  -3.866  1.00  0.00    -0.248 NA
ATOM     45  C   UNL     1      -9.934   4.027  -5.045  1.00  0.00     0.031 C 
ATOM     46  C   UNL     1     -10.498   0.203  -1.818  1.00  0.00     0.029 A 
ATOM     47  N   UNL     1     -12.233   1.583  -2.095  1.00  0.00    -0.354 N 
ATOM     48  C   UNL     1     -11.940   5.049  -4.652  1.00  0.00     0.074 A 
ATOM     49  C   UNL     1     -10.650   5.111  -5.304  1.00  0.00     0.031 C 
ATOM     50  C   UNL     1     -11.489  -0.235  -1.027  1.00  0.00     0.029 A 
ATOM     51  C   UNL     1     -12.633   0.660  -1.159  1.00  0.00     0.049 A 
ATOM     52  H   UNL     1     -12.810   2.316  -2.409  1.00  0.00     0.167 HD
ATOM     53  C   UNL     1     -12.930   5.955  -4.833  1.00  0.00     0.037 A 
ATOM     54  C   UNL     1     -13.785   0.554  -0.472  1.00  0.00     0.037 A 
ATOM     55  C   UNL     1     -14.229   5.868  -4.220  1.00  0.00     0.049 A 
ATOM     56  C   UNL     1     -14.871   1.567  -0.696  1.00  0.00     0.074 A 
ATOM     57  C   UNL     1     -15.330   6.684  -4.414  1.00  0.00     0.029 A 
ATOM     58  N   UNL     1     -14.600   4.907  -3.293  1.00  0.00    -0.354 N 
ATOM     59  N   UNL     1     -14.878   2.604  -1.498  1.00  0.00    -0.248 NA
ATOM     60  C   UNL     1     -16.106   1.399   0.083  1.00  0.00     0.031 C 
ATOM     61  C   UNL     1     -16.356   6.239  -3.575  1.00  0.00     0.029 A 
ATOM     62  C   UNL     1     -15.906   5.124  -2.885  1.00  0.00     0.049 A 
ATOM     63  H   UNL     1     -14.022   4.177  -2.972  1.00  0.00     0.167 HD
ATOM     64  C   UNL     1     -16.118   3.205  -1.331  1.00  0.00     0.074 A 
ATOM     65  C   UNL     1     -16.845   2.404  -0.367  1.00  0.00     0.031 C 
ATOM     66  C   UNL     1     -16.610   4.321  -1.919  1.00  0.00     0.037 A 
BRANCH  53  67
ATOM     67  C   UNL     1     -12.650   7.112  -5.746  1.00  0.00     0.057 A 
ATOM     68  C   UNL     1     -12.539   6.948  -7.133  1.00  0.00     0.134 A 
ATOM     69  C   UNL     1     -12.519   8.410  -5.236  1.00  0.00     0.134 A 
ATOM     70  F   UNL     1     -12.641   5.729  -7.683  1.00  0.00    -0.206 F 
ATOM     71  C   UNL     1     -12.283   8.029  -7.978  1.00  0.00     0.040 A 
ATOM     72  C   UNL     1     -12.288   9.503  -6.073  1.00  0.00     0.040 A 
ATOM     73  F   UNL     1     -12.619   8.638  -3.917  1.00  0.00    -0.206 F 
ATOM     74  C   UNL     1     -12.163   9.312  -7.448  1.00  0.00     0.006 A 
ENDBRANCH  53  67
BRANCH  54  75
ATOM     75  C   UNL     1     -13.979  -0.562   0.487  1.00  0.00     0.057 A 
ATOM     76  C   UNL     1     -14.859  -1.612   0.199  1.00  0.00     0.134 A 
ATOM     77  C   UNL     1     -13.295  -0.609   1.708  1.00  0.00     0.134 A 
ATOM     78  F   UNL     1     -15.555  -1.612  -0.947  1.00  0.00    -0.206 F 
ATOM     79  C   UNL     1     -15.065  -2.660   1.096  1.00  0.00     0.040 A 
ATOM     80  C   UNL     1     -13.475  -1.663   2.605  1.00  0.00     0.040 A 
ATOM     81  F   UNL     1     -12.432   0.362   2.039  1.00  0.00    -0.206 F 
ATOM     82  C   UNL     1     -14.367  -2.690   2.302  1.00  0.00     0.006 A 
ENDBRANCH  54  75
BRANCH  66  83
ATOM     83  C   UNL     1     -18.000   4.737  -1.541  1.00  0.00     0.057 A 
ATOM     84  C   UNL     1     -18.276   5.326  -0.302  1.00  0.00     0.134 A 
ATOM     85  C   UNL     1     -19.063   4.582  -2.439  1.00  0.00     0.134 A 
ATOM     86  F   UNL     1     -17.302   5.487   0.607  1.00  0.00    -0.206 F 
ATOM     87  C   UNL     1     -19.566   5.734   0.039  1.00  0.00     0.040 A 
ATOM     88  C   UNL     1     -20.353   5.006  -2.119  1.00  0.00     0.040 A 
ATOM     89  F   UNL     1     -18.862   4.030  -3.645  1.00  0.00    -0.206 F 
ATOM     90  C   UNL     1     -20.608   5.580  -0.875  1.00  0.00     0.006 A 
ENDBRANCH  66  83
ENDBRANCH  40  41
ENDBRANCH  32  35
ENDBRANCH  30  31
ENDBRANCH  29  30
ENDBRANCH   1  29
TORSDOF 14
