REMARK SMILES CS(=O)(=O)c1ccc(/C=C(/C(=O)NCCCNC(=O)c2ccc(-c3c4nc(c(-c5c(F)cccc5F)c5ccc([nH]5)c(-c5c(F)cccc5F)c5nc(c(-c6c(F)cccc6F)c6ccc3[nH]6)C=C5)C=C4)cc2)c2ccc(-c3ccc(S(C)(=O)=O)cc3)cc2)cc1
REMARK SMILES IDX 14 1 13 2 11 3 12 4 10 6 9 7 8 8 5 9 6 10 91 11 7 12 90 13
REMARK SMILES IDX 2 14 1 15 3 16 4 17 74 18 75 19 89 20 76 21 88 22 77 23
REMARK SMILES IDX 78 24 79 25 87 26 80 27 86 28 81 29 82 30 83 31 84 32 85 33
REMARK SMILES IDX 15 34 16 35 17 36 18 37 19 39 20 40 21 41 73 42 22 43 72 44
REMARK SMILES IDX 23 45 24 46 25 47 66 48 26 49 71 50 65 51 67 52 27 53 70 54
REMARK SMILES IDX 64 55 63 56 28 58 54 59 37 60 53 61 38 62 41 63 52 64 68 65
REMARK SMILES IDX 39 66 40 67 51 69 69 70 42 71 29 72 30 73 35 74 31 75 32 76
REMARK SMILES IDX 34 77 36 78 33 79 55 80 56 81 61 82 57 83 58 84 60 85 62 86
REMARK SMILES IDX 59 87 43 88 44 89 49 90 45 91 46 92 48 93 50 94 47 95
REMARK H PARENT 13 5 17 38 67 57 41 68
REMARK Flexibility Score: inf
ROOT
ATOM      1  C   UNL     1       3.659  -7.170   5.494  1.00  0.00     0.118 C 
ENDROOT
BRANCH   1   2
ATOM      2  N   UNL     1       2.873  -8.158   4.781  1.00  0.00    -0.352 N 
ATOM      3  C   UNL     1       1.913  -8.096   3.822  1.00  0.00     0.251 C 
ATOM      4  O   UNL     1       1.438  -9.179   3.471  1.00  0.00    -0.269 OA
ATOM      5  H   UNL     1       3.082  -9.081   5.053  1.00  0.00     0.163 HD
BRANCH   3   6
ATOM      6  C   UNL     1       1.480  -6.815   3.147  1.00  0.00     0.047 C 
ATOM      7  C   UNL     1       1.408  -5.641   3.817  1.00  0.00     0.022 C 
BRANCH   7   8
ATOM      8  C   UNL     1       1.074  -4.286   3.322  1.00  0.00    -0.025 A 
ATOM      9  C   UNL     1       0.640  -1.673   2.386  1.00  0.00     0.067 A 
ATOM     10  C   UNL     1      -0.208  -2.705   1.983  1.00  0.00     0.021 A 
ATOM     11  C   UNL     1       1.664  -1.916   3.300  1.00  0.00     0.021 A 
ATOM     12  C   UNL     1       0.000  -4.001   2.468  1.00  0.00     0.009 A 
ATOM     13  C   UNL     1       1.879  -3.220   3.760  1.00  0.00     0.009 A 
BRANCH   9  14
ATOM     14  S   UNL     1       0.377  -0.030   1.761  1.00  0.00     0.175 S 
ATOM     15  C   UNL     1       1.098  -0.083   0.141  1.00  0.00     0.163 C 
ATOM     16  O   UNL     1       1.162   0.880   2.570  1.00  0.00    -0.224 OA
ATOM     17  O   UNL     1      -1.058   0.148   1.617  1.00  0.00    -0.224 OA
ENDBRANCH   9  14
ENDBRANCH   7   8
BRANCH   6  18
ATOM     18  C   UNL     1       0.936  -6.933   1.771  1.00  0.00    -0.013 A 
ATOM     19  C   UNL     1      -0.268  -7.629   1.591  1.00  0.00     0.009 A 
ATOM     20  C   UNL     1       1.513  -6.294   0.669  1.00  0.00     0.009 A 
ATOM     21  C   UNL     1      -0.917  -7.627   0.358  1.00  0.00     0.009 A 
ATOM     22  C   UNL     1       0.846  -6.278  -0.566  1.00  0.00     0.009 A 
ATOM     23  C   UNL     1      -0.398  -6.914  -0.732  1.00  0.00    -0.018 A 
BRANCH  23  24
ATOM     24  C   UNL     1      -1.178  -6.794  -1.978  1.00  0.00    -0.018 A 
ATOM     25  C   UNL     1      -2.553  -6.485  -1.923  1.00  0.00     0.010 A 
ATOM     26  C   UNL     1      -0.592  -6.960  -3.244  1.00  0.00     0.010 A 
ATOM     27  C   UNL     1      -3.319  -6.358  -3.083  1.00  0.00     0.021 A 
ATOM     28  C   UNL     1      -1.351  -6.835  -4.413  1.00  0.00     0.021 A 
ATOM     29  C   UNL     1      -2.713  -6.546  -4.323  1.00  0.00     0.067 A 
BRANCH  29  30
ATOM     30  S   UNL     1      -3.696  -6.378  -5.792  1.00  0.00     0.175 S 
ATOM     31  C   UNL     1      -4.768  -7.792  -5.740  1.00  0.00     0.163 C 
ATOM     32  O   UNL     1      -4.505  -5.185  -5.627  1.00  0.00    -0.224 OA
ATOM     33  O   UNL     1      -2.816  -6.532  -6.934  1.00  0.00    -0.224 OA
ENDBRANCH  29  30
ENDBRANCH  23  24
ENDBRANCH   6  18
ENDBRANCH   3   6
ENDBRANCH   1   2
BRANCH   1  34
ATOM     34  C   UNL     1       3.102  -6.942   6.901  1.00  0.00     0.042 C 
BRANCH  34  35
ATOM     35  C   UNL     1       3.235  -8.155   7.823  1.00  0.00     0.118 C 
BRANCH  35  36
ATOM     36  N   UNL     1       4.620  -8.437   8.168  1.00  0.00    -0.352 N 
ATOM     37  C   UNL     1       5.224  -8.524   9.396  1.00  0.00     0.251 C 
ATOM     38  H   UNL     1       5.216  -8.590   7.399  1.00  0.00     0.163 HD
ATOM     39  O   UNL     1       6.450  -8.567   9.464  1.00  0.00    -0.269 OA
BRANCH  37  40
ATOM     40  C   UNL     1       4.422  -8.555  10.639  1.00  0.00     0.039 A 
ATOM     41  C   UNL     1       4.866  -7.819  11.742  1.00  0.00     0.014 A 
ATOM     42  C   UNL     1       3.276  -9.349  10.746  1.00  0.00     0.014 A 
ATOM     43  C   UNL     1       4.137  -7.839  12.934  1.00  0.00     0.010 A 
ATOM     44  C   UNL     1       2.518  -9.324  11.917  1.00  0.00     0.010 A 
ATOM     45  C   UNL     1       2.944  -8.572  13.023  1.00  0.00    -0.014 A 
BRANCH  45  46
ATOM     46  C   UNL     1       2.131  -8.567  14.266  1.00  0.00     0.031 A 
ATOM     47  C   UNL     1       1.974  -9.823  15.076  1.00  0.00     0.074 A 
ATOM     48  C   UNL     1       1.485  -7.444  14.633  1.00  0.00     0.049 A 
ATOM     49  N   UNL     1       1.243 -10.035  16.142  1.00  0.00    -0.248 NA
ATOM     50  C   UNL     1       2.717 -11.005  14.613  1.00  0.00     0.031 C 
ATOM     51  C   UNL     1       1.526  -6.170  13.913  1.00  0.00     0.029 A 
ATOM     52  N   UNL     1       0.655  -7.198  15.698  1.00  0.00    -0.354 N 
ATOM     53  C   UNL     1       1.423 -11.373  16.465  1.00  0.00     0.074 A 
ATOM     54  C   UNL     1       2.301 -11.935  15.461  1.00  0.00     0.031 C 
ATOM     55  C   UNL     1       0.770  -5.273  14.566  1.00  0.00     0.029 A 
ATOM     56  C   UNL     1       0.164  -5.916  15.728  1.00  0.00     0.049 A 
ATOM     57  H   UNL     1       0.433  -7.876  16.376  1.00  0.00     0.167 HD
ATOM     58  C   UNL     1       0.917 -12.067  17.513  1.00  0.00     0.037 A 
ATOM     59  C   UNL     1      -0.685  -5.326  16.590  1.00  0.00     0.037 A 
ATOM     60  C   UNL     1       0.069 -11.501  18.528  1.00  0.00     0.049 A 
ATOM     61  C   UNL     1      -1.229  -6.116  17.747  1.00  0.00     0.074 A 
ATOM     62  C   UNL     1      -0.446 -12.109  19.661  1.00  0.00     0.029 A 
ATOM     63  N   UNL     1      -0.389 -10.193  18.534  1.00  0.00    -0.354 N 
ATOM     64  N   UNL     1      -1.007  -7.367  18.070  1.00  0.00    -0.248 NA
ATOM     65  C   UNL     1      -2.138  -5.410  18.662  1.00  0.00     0.031 C 
ATOM     66  C   UNL     1      -1.242 -11.177  20.335  1.00  0.00     0.029 A 
ATOM     67  C   UNL     1      -1.193  -9.978  19.642  1.00  0.00     0.049 A 
ATOM     68  H   UNL     1      -0.175  -9.516  17.852  1.00  0.00     0.167 HD
ATOM     69  C   UNL     1      -1.726  -7.591  19.235  1.00  0.00     0.074 A 
ATOM     70  C   UNL     1      -2.384  -6.345  19.570  1.00  0.00     0.031 C 
ATOM     71  C   UNL     1      -1.833  -8.729  19.964  1.00  0.00     0.037 A 
BRANCH  58  72
ATOM     72  C   UNL     1       1.274 -13.521  17.614  1.00  0.00     0.057 A 
ATOM     73  C   UNL     1       2.561 -13.941  17.975  1.00  0.00     0.134 A 
ATOM     74  C   UNL     1       0.314 -14.512  17.376  1.00  0.00     0.134 A 
ATOM     75  F   UNL     1       3.530 -13.042  18.204  1.00  0.00    -0.206 F 
ATOM     76  C   UNL     1       2.887 -15.295  18.071  1.00  0.00     0.040 A 
ATOM     77  C   UNL     1       0.621 -15.869  17.493  1.00  0.00     0.040 A 
ATOM     78  F   UNL     1      -0.940 -14.178  17.033  1.00  0.00    -0.206 F 
ATOM     79  C   UNL     1       1.913 -16.264  17.835  1.00  0.00     0.006 A 
ENDBRANCH  58  72
BRANCH  59  80
ATOM     80  C   UNL     1      -1.055  -3.902  16.406  1.00  0.00     0.057 A 
ATOM     81  C   UNL     1      -0.563  -2.915  17.268  1.00  0.00     0.134 A 
ATOM     82  C   UNL     1      -1.905  -3.493  15.372  1.00  0.00     0.134 A 
ATOM     83  F   UNL     1       0.240  -3.250  18.288  1.00  0.00    -0.206 F 
ATOM     84  C   UNL     1      -0.914  -1.573  17.117  1.00  0.00     0.040 A 
ATOM     85  C   UNL     1      -2.247  -2.152  15.196  1.00  0.00     0.040 A 
ATOM     86  F   UNL     1      -2.403  -4.392  14.510  1.00  0.00    -0.206 F 
ATOM     87  C   UNL     1      -1.755  -1.188  16.075  1.00  0.00     0.006 A 
ENDBRANCH  59  80
BRANCH  71  88
ATOM     88  C   UNL     1      -2.665  -8.667  21.210  1.00  0.00     0.057 A 
ATOM     89  C   UNL     1      -4.064  -8.637  21.161  1.00  0.00     0.134 A 
ATOM     90  C   UNL     1      -2.059  -8.672  22.472  1.00  0.00     0.134 A 
ATOM     91  F   UNL     1      -4.702  -8.616  19.981  1.00  0.00    -0.206 F 
ATOM     92  C   UNL     1      -4.832  -8.595  22.326  1.00  0.00     0.040 A 
ATOM     93  C   UNL     1      -2.816  -8.652  23.644  1.00  0.00     0.040 A 
ATOM     94  F   UNL     1      -0.723  -8.706  22.586  1.00  0.00    -0.206 F 
ATOM     95  C   UNL     1      -4.207  -8.609  23.572  1.00  0.00     0.006 A 
ENDBRANCH  71  88
ENDBRANCH  45  46
ENDBRANCH  37  40
ENDBRANCH  35  36
ENDBRANCH  34  35
ENDBRANCH   1  34
TORSDOF 15
