REMARK SMILES COc1ccccc1-n1nnc(C(=O)NCCCNC(=O)c2ccc(-c3c4nc(c(-c5c(F)cccc5F)c5ccc([nH]5)c(-c5c(F)cccc5F)c5nc(c(-c6c(F)cccc6F)c6ccc3[nH]6)C=C5)C=C4)cc2)c1-c1ccc(Cl)cc1
REMARK SMILES IDX 17 1 16 2 15 3 13 4 14 5 12 7 9 8 10 9 76 10 11 11 8 12 3 13
REMARK SMILES IDX 4 14 5 15 7 16 6 17 2 18 1 19 77 20 78 21 83 22 79 23 82 24
REMARK SMILES IDX 80 25 81 26 18 27 19 28 20 29 21 31 22 32 23 33 75 34 24 35
REMARK SMILES IDX 74 36 25 37 26 38 27 39 68 40 28 41 73 42 67 43 69 44 29 45
REMARK SMILES IDX 72 46 66 47 65 48 30 50 56 51 39 52 55 53 40 54 43 55 54 56
REMARK SMILES IDX 70 57 41 58 42 59 53 61 71 62 44 63 31 64 32 65 37 66 33 67
REMARK SMILES IDX 34 68 36 69 38 70 35 71 57 72 58 73 63 74 59 75 60 76 62 77
REMARK SMILES IDX 64 78 61 79 45 80 46 81 51 82 47 83 48 84 50 85 52 86 49 87
REMARK H PARENT 15 6 19 30 69 49 43 60
REMARK Flexibility Score: inf
ROOT
ATOM      1  C   UNL     1       4.577   2.782  -2.919  1.00  0.00     0.042 C 
ENDROOT
BRANCH   1   2
ATOM      2  C   UNL     1       4.197   1.326  -3.163  1.00  0.00     0.118 C 
BRANCH   2   3
ATOM      3  N   UNL     1       5.063   0.371  -2.531  1.00  0.00    -0.351 N 
ATOM      4  C   UNL     1       5.054  -0.263  -1.323  1.00  0.00     0.274 C 
ATOM      5  O   UNL     1       5.846  -1.210  -1.254  1.00  0.00    -0.267 OA
ATOM      6  H   UNL     1       5.832   0.118  -3.092  1.00  0.00     0.163 HD
BRANCH   4   7
ATOM      7  C   UNL     1       4.259   0.122  -0.155  1.00  0.00     0.178 A 
ATOM      8  N   UNL     1       2.990   0.789   1.504  1.00  0.00    -0.208 N 
ATOM      9  N   UNL     1       4.015   0.108   2.040  1.00  0.00    -0.061 NA
ATOM     10  C   UNL     1       3.145   0.924   0.118  1.00  0.00     0.108 A 
ATOM     11  N   UNL     1       4.727  -0.383   1.050  1.00  0.00    -0.124 NA
BRANCH   8  12
ATOM     12  C   UNL     1       2.036   1.411   2.337  1.00  0.00     0.109 A 
ATOM     13  C   UNL     1       0.679   1.473   1.998  1.00  0.00     0.144 A 
ATOM     14  C   UNL     1      -0.112   2.445   2.614  1.00  0.00     0.049 A 
ATOM     15  C   UNL     1       0.418   3.289   3.593  1.00  0.00     0.004 A 
ATOM     16  C   UNL     1       2.553   2.193   3.386  1.00  0.00     0.032 A 
ATOM     17  C   UNL     1       1.743   3.145   3.999  1.00  0.00     0.003 A 
BRANCH  13  18
ATOM     18  O   UNL     1       0.029   0.750   1.036  1.00  0.00    -0.494 OA
ATOM     19  C   UNL     1       0.260  -0.657   1.004  1.00  0.00     0.278 C 
ENDBRANCH  13  18
ENDBRANCH   8  12
BRANCH  10  20
ATOM     20  C   UNL     1       2.278   1.836  -0.637  1.00  0.00     0.003 A 
ATOM     21  C   UNL     1       1.328   1.368  -1.556  1.00  0.00     0.012 A 
ATOM     22  C   UNL     1       2.336   3.219  -0.377  1.00  0.00     0.012 A 
ATOM     23  C   UNL     1       0.520   2.266  -2.264  1.00  0.00     0.021 A 
ATOM     24  C   UNL     1       1.526   4.115  -1.077  1.00  0.00     0.021 A 
ATOM     25  C   UNL     1       0.626   3.635  -2.022  1.00  0.00     0.041 A 
ATOM     26  Cl  UNL     1      -0.297   4.745  -2.953  1.00  0.00    -0.084 Cl
ENDBRANCH  10  20
ENDBRANCH   4   7
ENDBRANCH   2   3
ENDBRANCH   1   2
BRANCH   1  27
ATOM     27  C   UNL     1       4.267   3.632  -4.139  1.00  0.00     0.118 C 
BRANCH  27  28
ATOM     28  N   UNL     1       2.875   3.638  -4.622  1.00  0.00    -0.352 N 
ATOM     29  C   UNL     1       2.374   4.107  -5.851  1.00  0.00     0.251 C 
ATOM     30  H   UNL     1       2.206   3.264  -4.004  1.00  0.00     0.163 HD
ATOM     31  O   UNL     1       1.204   4.299  -6.058  1.00  0.00    -0.269 OA
BRANCH  29  32
ATOM     32  C   UNL     1       3.365   4.258  -6.934  1.00  0.00     0.039 A 
ATOM     33  C   UNL     1       3.644   5.454  -7.604  1.00  0.00     0.014 A 
ATOM     34  C   UNL     1       4.217   3.183  -6.998  1.00  0.00     0.014 A 
ATOM     35  C   UNL     1       4.897   5.582  -8.214  1.00  0.00     0.010 A 
ATOM     36  C   UNL     1       5.518   3.521  -7.158  1.00  0.00     0.010 A 
ATOM     37  C   UNL     1       5.860   4.606  -7.933  1.00  0.00    -0.014 A 
BRANCH  37  38
ATOM     38  C   UNL     1       7.274   4.644  -8.274  1.00  0.00     0.031 A 
ATOM     39  C   UNL     1       7.949   5.918  -7.935  1.00  0.00     0.074 A 
ATOM     40  C   UNL     1       7.963   3.512  -8.575  1.00  0.00     0.049 A 
ATOM     41  N   UNL     1       8.233   6.887  -8.736  1.00  0.00    -0.248 NA
ATOM     42  C   UNL     1       8.164   6.242  -6.515  1.00  0.00     0.031 C 
ATOM     43  C   UNL     1       7.510   2.102  -8.566  1.00  0.00     0.029 A 
ATOM     44  N   UNL     1       9.278   3.375  -8.886  1.00  0.00    -0.354 N 
ATOM     45  C   UNL     1       8.919   7.820  -7.965  1.00  0.00     0.074 A 
ATOM     46  C   UNL     1       8.623   7.495  -6.596  1.00  0.00     0.031 C 
ATOM     47  C   UNL     1       8.565   1.264  -8.620  1.00  0.00     0.029 A 
ATOM     48  C   UNL     1       9.732   2.058  -8.919  1.00  0.00     0.049 A 
ATOM     49  H   UNL     1       9.864   4.144  -9.073  1.00  0.00     0.167 HD
ATOM     50  C   UNL     1       9.918   8.567  -8.516  1.00  0.00     0.037 A 
ATOM     51  C   UNL     1      10.978   1.641  -9.237  1.00  0.00     0.037 A 
ATOM     52  C   UNL     1       9.934   8.388  -9.951  1.00  0.00     0.049 A 
ATOM     53  C   UNL     1      11.603   2.746  -9.995  1.00  0.00     0.074 A 
ATOM     54  C   UNL     1       9.107   8.720 -11.003  1.00  0.00     0.029 A 
ATOM     55  N   UNL     1      10.737   7.360 -10.378  1.00  0.00    -0.354 N 
ATOM     56  N   UNL     1      11.172   3.159 -11.157  1.00  0.00    -0.248 NA
ATOM     57  C   UNL     1      12.438   3.690  -9.270  1.00  0.00     0.031 C 
ATOM     58  C   UNL     1       9.230   7.645 -11.937  1.00  0.00     0.029 A 
ATOM     59  C   UNL     1      10.178   6.736 -11.462  1.00  0.00     0.049 A 
ATOM     60  H   UNL     1      11.594   7.107  -9.964  1.00  0.00     0.167 HD
ATOM     61  C   UNL     1      11.324   4.536 -11.125  1.00  0.00     0.074 A 
ATOM     62  C   UNL     1      12.240   4.783 -10.013  1.00  0.00     0.031 C 
ATOM     63  C   UNL     1      10.461   5.352 -11.801  1.00  0.00     0.037 A 
BRANCH  50  64
ATOM     64  C   UNL     1      11.154   9.059  -7.791  1.00  0.00     0.057 A 
ATOM     65  C   UNL     1      12.043   9.914  -8.472  1.00  0.00     0.134 A 
ATOM     66  C   UNL     1      11.658   8.518  -6.591  1.00  0.00     0.134 A 
ATOM     67  F   UNL     1      11.693  10.485  -9.635  1.00  0.00    -0.206 F 
ATOM     68  C   UNL     1      13.351  10.154  -8.029  1.00  0.00     0.040 A 
ATOM     69  C   UNL     1      12.945   8.791  -6.114  1.00  0.00     0.040 A 
ATOM     70  F   UNL     1      10.984   7.620  -5.865  1.00  0.00    -0.206 F 
ATOM     71  C   UNL     1      13.808   9.586  -6.847  1.00  0.00     0.006 A 
ENDBRANCH  50  64
BRANCH  51  72
ATOM     72  C   UNL     1      11.745   0.530  -8.636  1.00  0.00     0.057 A 
ATOM     73  C   UNL     1      12.863  -0.016  -9.280  1.00  0.00     0.134 A 
ATOM     74  C   UNL     1      11.576   0.184  -7.283  1.00  0.00     0.134 A 
ATOM     75  F   UNL     1      13.120   0.285 -10.561  1.00  0.00    -0.206 F 
ATOM     76  C   UNL     1      13.784  -0.830  -8.607  1.00  0.00     0.040 A 
ATOM     77  C   UNL     1      12.488  -0.626  -6.599  1.00  0.00     0.040 A 
ATOM     78  F   UNL     1      10.570   0.700  -6.561  1.00  0.00    -0.206 F 
ATOM     79  C   UNL     1      13.607  -1.123  -7.258  1.00  0.00     0.006 A 
ENDBRANCH  51  72
BRANCH  63  80
ATOM     80  C   UNL     1       9.613   4.728 -12.881  1.00  0.00     0.057 A 
ATOM     81  C   UNL     1       8.573   3.813 -12.663  1.00  0.00     0.134 A 
ATOM     82  C   UNL     1       9.785   5.176 -14.195  1.00  0.00     0.134 A 
ATOM     83  F   UNL     1       8.278   3.376 -11.435  1.00  0.00    -0.206 F 
ATOM     84  C   UNL     1       7.761   3.348 -13.705  1.00  0.00     0.040 A 
ATOM     85  C   UNL     1       8.964   4.744 -15.240  1.00  0.00     0.040 A 
ATOM     86  F   UNL     1      10.731   6.086 -14.477  1.00  0.00    -0.206 F 
ATOM     87  C   UNL     1       7.952   3.821 -14.999  1.00  0.00     0.006 A 
ENDBRANCH  63  80
ENDBRANCH  37  38
ENDBRANCH  29  32
ENDBRANCH  27  28
ENDBRANCH   1  27
TORSDOF 13
