REMARK SMILES O=C(C[NH2+]C[C@@H]1CCCO1)NCCCNC(=O)c1ccc(-c2c3nc(c(-c4c(F)cccc4F)c4ccc([nH]4)c(-c4c(F)cccc4F)c4nc(c(-c5c(F)cccc5F)c5ccc2[nH]5)C=C4)C=C3)cc1
REMARK SMILES IDX 12 1 11 2 1 3 2 4 3 6 4 7 5 10 6 11 7 12 10 13 8 14 9 15
REMARK SMILES IDX 13 16 14 17 15 18 16 19 17 21 18 22 19 23 71 24 20 25 70 26
REMARK SMILES IDX 21 27 22 28 23 29 64 30 24 31 69 32 63 33 65 34 25 35 68 36
REMARK SMILES IDX 62 37 61 38 26 40 52 41 35 42 51 43 36 44 39 45 50 46 66 47
REMARK SMILES IDX 37 48 38 49 49 51 67 52 40 53 27 54 28 55 33 56 29 57 30 58
REMARK SMILES IDX 32 59 34 60 31 61 53 62 54 63 59 64 55 65 56 66 58 67 60 68
REMARK SMILES IDX 57 69 41 70 42 71 47 72 43 73 44 74 46 75 48 76 45 77
REMARK H PARENT 11 5 4 8 4 9 15 20 65 39 39 50
REMARK Flexibility Score: inf
ROOT
ATOM      1  C   UNL     1       2.300  -2.699   0.019  1.00  0.00     0.118 C 
ENDROOT
BRANCH   1   2
ATOM      2  N   UNL     1       2.966  -1.425   0.177  1.00  0.00    -0.351 N 
ATOM      3  O   UNL     1       1.100  -0.120  -0.129  1.00  0.00    -0.269 OA
ATOM      4  C   UNL     1       2.316  -0.229  -0.001  1.00  0.00     0.275 C 
ATOM      5  H   UNL     1       3.920  -1.415   0.421  1.00  0.00     0.163 HD
BRANCH   4   6
ATOM      6  C   UNL     1       3.252   0.973  -0.064  1.00  0.00     0.361 C 
BRANCH   6   7
ATOM      7  N   UNL     1       3.744   1.309   1.277  1.00  0.00    -0.336 N 
ATOM      8  H   UNL     1       4.407   0.592   1.573  1.00  0.00     0.346 HD
ATOM      9  H   UNL     1       2.941   1.353   1.904  1.00  0.00     0.346 HD
BRANCH   7  10
ATOM     10  C   UNL     1       4.416   2.618   1.308  1.00  0.00     0.293 C 
BRANCH  10  11
ATOM     11  C   UNL     1       3.498   3.852   1.449  1.00  0.00     0.173 C 
ATOM     12  C   UNL     1       2.581   4.130   0.270  1.00  0.00     0.040 C 
ATOM     13  O   UNL     1       4.299   5.042   1.599  1.00  0.00    -0.372 OA
ATOM     14  C   UNL     1       2.330   5.608   0.398  1.00  0.00     0.031 C 
ATOM     15  C   UNL     1       3.670   6.114   0.880  1.00  0.00     0.161 C 
ENDBRANCH  10  11
ENDBRANCH   7  10
ENDBRANCH   6   7
ENDBRANCH   4   6
ENDBRANCH   1   2
BRANCH   1  16
ATOM     16  C   UNL     1       2.604  -3.311  -1.345  1.00  0.00     0.042 C 
BRANCH  16  17
ATOM     17  C   UNL     1       4.091  -3.543  -1.599  1.00  0.00     0.118 C 
BRANCH  17  18
ATOM     18  N   UNL     1       4.698  -4.439  -0.624  1.00  0.00    -0.352 N 
ATOM     19  C   UNL     1       5.326  -5.648  -0.803  1.00  0.00     0.251 C 
ATOM     20  H   UNL     1       4.652  -4.130   0.309  1.00  0.00     0.163 HD
ATOM     21  O   UNL     1       5.615  -6.338   0.166  1.00  0.00    -0.269 OA
BRANCH  19  22
ATOM     22  C   UNL     1       5.628  -6.127  -2.167  1.00  0.00     0.039 A 
ATOM     23  C   UNL     1       5.332  -7.452  -2.496  1.00  0.00     0.014 A 
ATOM     24  C   UNL     1       6.197  -5.275  -3.117  1.00  0.00     0.014 A 
ATOM     25  C   UNL     1       5.530  -7.899  -3.804  1.00  0.00     0.010 A 
ATOM     26  C   UNL     1       6.321  -5.699  -4.437  1.00  0.00     0.010 A 
ATOM     27  C   UNL     1       5.980  -7.012  -4.795  1.00  0.00    -0.014 A 
BRANCH  27  28
ATOM     28  C   UNL     1       6.072  -7.427  -6.218  1.00  0.00     0.031 A 
ATOM     29  C   UNL     1       7.399  -7.438  -6.921  1.00  0.00     0.074 A 
ATOM     30  C   UNL     1       4.945  -7.715  -6.898  1.00  0.00     0.049 A 
ATOM     31  N   UNL     1       7.665  -7.672  -8.181  1.00  0.00    -0.248 NA
ATOM     32  C   UNL     1       8.582  -7.119  -6.106  1.00  0.00     0.031 C 
ATOM     33  C   UNL     1       3.591  -7.702  -6.339  1.00  0.00     0.029 A 
ATOM     34  N   UNL     1       4.755  -8.059  -8.213  1.00  0.00    -0.354 N 
ATOM     35  C   UNL     1       9.039  -7.518  -8.313  1.00  0.00     0.074 A 
ATOM     36  C   UNL     1       9.545  -7.120  -7.017  1.00  0.00     0.031 C 
ATOM     37  C   UNL     1       2.715  -8.041  -7.298  1.00  0.00     0.029 A 
ATOM     38  C   UNL     1       3.436  -8.246  -8.550  1.00  0.00     0.049 A 
ATOM     39  H   UNL     1       5.495  -8.163  -8.855  1.00  0.00     0.167 HD
ATOM     40  C   UNL     1       9.810  -7.710  -9.409  1.00  0.00     0.037 A 
ATOM     41  C   UNL     1       2.868  -8.532  -9.737  1.00  0.00     0.037 A 
ATOM     42  C   UNL     1       9.304  -8.119 -10.693  1.00  0.00     0.049 A 
ATOM     43  C   UNL     1       3.744  -8.704 -10.947  1.00  0.00     0.074 A 
ATOM     44  C   UNL     1      10.012  -8.396 -11.850  1.00  0.00     0.029 A 
ATOM     45  N   UNL     1       7.962  -8.301 -10.993  1.00  0.00    -0.354 N 
ATOM     46  N   UNL     1       5.049  -8.622 -11.042  1.00  0.00    -0.248 NA
ATOM     47  C   UNL     1       3.068  -9.007 -12.216  1.00  0.00     0.031 C 
ATOM     48  C   UNL     1       9.095  -8.689 -12.864  1.00  0.00     0.029 A 
ATOM     49  C   UNL     1       7.819  -8.654 -12.325  1.00  0.00     0.049 A 
ATOM     50  H   UNL     1       7.220  -8.196 -10.354  1.00  0.00     0.167 HD
ATOM     51  C   UNL     1       5.352  -8.891 -12.370  1.00  0.00     0.074 A 
ATOM     52  C   UNL     1       4.096  -9.153 -13.041  1.00  0.00     0.031 C 
ATOM     53  C   UNL     1       6.562  -8.918 -12.980  1.00  0.00     0.037 A 
BRANCH  40  54
ATOM     54  C   UNL     1      11.287  -7.476  -9.269  1.00  0.00     0.057 A 
ATOM     55  C   UNL     1      12.104  -8.327  -8.511  1.00  0.00     0.134 A 
ATOM     56  C   UNL     1      11.908  -6.410  -9.932  1.00  0.00     0.134 A 
ATOM     57  F   UNL     1      11.572  -9.361  -7.842  1.00  0.00    -0.206 F 
ATOM     58  C   UNL     1      13.478  -8.110  -8.396  1.00  0.00     0.040 A 
ATOM     59  C   UNL     1      13.286  -6.200  -9.849  1.00  0.00     0.040 A 
ATOM     60  F   UNL     1      11.189  -5.561 -10.682  1.00  0.00    -0.206 F 
ATOM     61  C   UNL     1      14.074  -7.048  -9.073  1.00  0.00     0.006 A 
ENDBRANCH  40  54
BRANCH  41  62
ATOM     62  C   UNL     1       1.393  -8.677  -9.841  1.00  0.00     0.057 A 
ATOM     63  C   UNL     1       0.807  -9.920 -10.109  1.00  0.00     0.134 A 
ATOM     64  C   UNL     1       0.536  -7.581  -9.689  1.00  0.00     0.134 A 
ATOM     65  F   UNL     1       1.577 -11.005 -10.284  1.00  0.00    -0.206 F 
ATOM     66  C   UNL     1      -0.574 -10.064 -10.244  1.00  0.00     0.040 A 
ATOM     67  C   UNL     1      -0.850  -7.715  -9.793  1.00  0.00     0.040 A 
ATOM     68  F   UNL     1       1.033  -6.364  -9.424  1.00  0.00    -0.206 F 
ATOM     69  C   UNL     1      -1.408  -8.959 -10.080  1.00  0.00     0.006 A 
ENDBRANCH  41  62
BRANCH  53  70
ATOM     70  C   UNL     1       6.594  -9.275 -14.438  1.00  0.00     0.057 A 
ATOM     71  C   UNL     1       6.131  -8.397 -15.426  1.00  0.00     0.134 A 
ATOM     72  C   UNL     1       7.141 -10.494 -14.861  1.00  0.00     0.134 A 
ATOM     73  F   UNL     1       5.583  -7.220 -15.088  1.00  0.00    -0.206 F 
ATOM     74  C   UNL     1       6.194  -8.726 -16.781  1.00  0.00     0.040 A 
ATOM     75  C   UNL     1       7.237 -10.821 -16.214  1.00  0.00     0.040 A 
ATOM     76  F   UNL     1       7.610 -11.377 -13.967  1.00  0.00    -0.206 F 
ATOM     77  C   UNL     1       6.757  -9.938 -17.178  1.00  0.00     0.006 A 
ENDBRANCH  53  70
ENDBRANCH  27  28
ENDBRANCH  19  22
ENDBRANCH  17  18
ENDBRANCH  16  17
ENDBRANCH   1  16
TORSDOF 13
