REMARK SMILES C[N@H+](Cc1ccc(C(=O)NCCCNC(=O)c2ccc(-c3c4nc(c(-c5c(F)cccc5F)c5ccc([nH]5)c(-c5c(F)cccc5F)c5nc(c(-c6c(F)cccc6F)c6ccc3[nH]6)C=C5)C=C4)cc2)cc1)[C@H]1CC(C)(C)OC1(C)C
REMARK SMILES IDX 11 1 10 2 8 3 9 4 7 6 4 7 5 8 72 9 6 10 71 11 3 12 2 13 1 14
REMARK SMILES IDX 73 16 74 17 79 18 75 19 78 20 80 21 81 22 76 23 77 24 12 25
REMARK SMILES IDX 13 26 14 27 15 28 16 30 17 31 18 32 70 33 19 34 69 35 20 36
REMARK SMILES IDX 21 37 22 38 63 39 23 40 68 41 62 42 64 43 24 44 67 45 61 46
REMARK SMILES IDX 60 47 25 49 51 50 34 51 50 52 35 53 38 54 49 55 65 56 36 57
REMARK SMILES IDX 37 58 48 60 66 61 39 62 26 63 27 64 32 65 28 66 29 67 31 68
REMARK SMILES IDX 33 69 30 70 52 71 53 72 58 73 54 74 55 75 57 76 59 77 56 78
REMARK SMILES IDX 40 79 41 80 46 81 42 82 43 83 45 84 47 85 44 86
REMARK H PARENT 10 5 2 15 14 29 64 48 38 59
REMARK Flexibility Score: inf
ROOT
ATOM      1  C   UNL     1       9.278   2.751   0.511  1.00  0.00     0.118 C 
ENDROOT
BRANCH   1   2
ATOM      2  N   UNL     1       9.505   2.283   1.865  1.00  0.00    -0.352 N 
ATOM      3  C   UNL     1       8.728   1.575   2.751  1.00  0.00     0.251 C 
ATOM      4  O   UNL     1       9.247   1.280   3.829  1.00  0.00    -0.269 OA
ATOM      5  H   UNL     1      10.392   2.519   2.220  1.00  0.00     0.163 HD
BRANCH   3   6
ATOM      6  C   UNL     1       7.327   1.137   2.474  1.00  0.00     0.039 A 
ATOM      7  C   UNL     1       4.653   0.239   2.101  1.00  0.00     0.006 A 
ATOM      8  C   UNL     1       5.436  -0.261   3.150  1.00  0.00     0.010 A 
ATOM      9  C   UNL     1       5.246   1.151   1.226  1.00  0.00     0.010 A 
ATOM     10  C   UNL     1       6.763   0.166   3.318  1.00  0.00     0.014 A 
ATOM     11  C   UNL     1       6.528   1.645   1.455  1.00  0.00     0.014 A 
BRANCH   7  12
ATOM     12  C   UNL     1       3.197  -0.170   1.919  1.00  0.00     0.299 C 
BRANCH  12  13
ATOM     13  N   UNL     1       2.216   0.874   2.285  1.00  0.00    -0.329 N 
ATOM     14  C   UNL     1       2.354   2.065   1.425  1.00  0.00     0.333 C 
ATOM     15  H   UNL     1       2.450   1.074   3.258  1.00  0.00     0.348 HD
BRANCH  13  16
ATOM     16  C   UNL     1       0.787   0.465   2.262  1.00  0.00     0.218 C 
ATOM     17  C   UNL     1       0.428  -0.996   2.549  1.00  0.00     0.103 C 
ATOM     18  C   UNL     1      -0.073   1.187   3.361  1.00  0.00     0.115 C 
ATOM     19  C   UNL     1       0.124  -1.061   4.042  1.00  0.00     0.069 C 
ATOM     20  O   UNL     1      -0.189   0.270   4.471  1.00  0.00    -0.363 OA
ATOM     21  C   UNL     1       0.472   2.496   3.945  1.00  0.00     0.048 C 
ATOM     22  C   UNL     1      -1.495   1.452   2.838  1.00  0.00     0.048 C 
ATOM     23  C   UNL     1      -1.103  -1.931   4.325  1.00  0.00     0.042 C 
ATOM     24  C   UNL     1       1.313  -1.560   4.861  1.00  0.00     0.042 C 
ENDBRANCH  13  16
ENDBRANCH  12  13
ENDBRANCH   7  12
ENDBRANCH   3   6
ENDBRANCH   1   2
BRANCH   1  25
ATOM     25  C   UNL     1       8.719   4.176   0.498  1.00  0.00     0.042 C 
BRANCH  25  26
ATOM     26  C   UNL     1       9.809   5.239   0.568  1.00  0.00     0.118 C 
BRANCH  26  27
ATOM     27  N   UNL     1      10.584   5.282  -0.664  1.00  0.00    -0.352 N 
ATOM     28  C   UNL     1      10.906   6.342  -1.469  1.00  0.00     0.251 C 
ATOM     29  H   UNL     1      10.931   4.412  -0.965  1.00  0.00     0.163 HD
ATOM     30  O   UNL     1      11.370   6.128  -2.585  1.00  0.00    -0.269 OA
BRANCH  28  31
ATOM     31  C   UNL     1      10.696   7.733  -1.015  1.00  0.00     0.039 A 
ATOM     32  C   UNL     1      10.277   8.682  -1.952  1.00  0.00     0.014 A 
ATOM     33  C   UNL     1      10.970   8.121   0.299  1.00  0.00     0.014 A 
ATOM     34  C   UNL     1      10.100  10.011  -1.566  1.00  0.00     0.010 A 
ATOM     35  C   UNL     1      10.731   9.433   0.701  1.00  0.00     0.010 A 
ATOM     36  C   UNL     1      10.306  10.392  -0.231  1.00  0.00    -0.014 A 
BRANCH  36  37
ATOM     37  C   UNL     1      10.085  11.792   0.204  1.00  0.00     0.031 A 
ATOM     38  C   UNL     1      11.238  12.628   0.685  1.00  0.00     0.074 A 
ATOM     39  C   UNL     1       8.833  12.285   0.226  1.00  0.00     0.049 A 
ATOM     40  N   UNL     1      11.233  13.849   1.155  1.00  0.00    -0.248 NA
ATOM     41  C   UNL     1      12.567  11.998   0.661  1.00  0.00     0.031 C 
ATOM     42  C   UNL     1       7.629  11.548  -0.160  1.00  0.00     0.029 A 
ATOM     43  N   UNL     1       8.364  13.517   0.604  1.00  0.00    -0.354 N 
ATOM     44  C   UNL     1      12.549  14.125   1.503  1.00  0.00     0.074 A 
ATOM     45  C   UNL     1      13.317  12.930   1.231  1.00  0.00     0.031 C 
ATOM     46  C   UNL     1       6.560  12.345  -0.009  1.00  0.00     0.029 A 
ATOM     47  C   UNL     1       7.000  13.636   0.512  1.00  0.00     0.049 A 
ATOM     48  H   UNL     1       8.950  14.246   0.912  1.00  0.00     0.167 HD
ATOM     49  C   UNL     1      13.070  15.277   1.990  1.00  0.00     0.037 A 
ATOM     50  C   UNL     1       6.192  14.666   0.821  1.00  0.00     0.037 A 
ATOM     51  C   UNL     1      12.304  16.471   2.230  1.00  0.00     0.049 A 
ATOM     52  C   UNL     1       6.796  15.943   1.331  1.00  0.00     0.074 A 
ATOM     53  C   UNL     1      12.751  17.716   2.637  1.00  0.00     0.029 A 
ATOM     54  N   UNL     1      10.927  16.567   2.089  1.00  0.00    -0.354 N 
ATOM     55  N   UNL     1       8.055  16.221   1.573  1.00  0.00    -0.248 NA
ATOM     56  C   UNL     1       5.872  17.053   1.600  1.00  0.00     0.031 C 
ATOM     57  C   UNL     1      11.638  18.552   2.785  1.00  0.00     0.029 A 
ATOM     58  C   UNL     1      10.504  17.842   2.426  1.00  0.00     0.049 A 
ATOM     59  H   UNL     1      10.337  15.836   1.793  1.00  0.00     0.167 HD
ATOM     60  C   UNL     1       8.076  17.540   2.007  1.00  0.00     0.074 A 
ATOM     61  C   UNL     1       6.707  18.012   1.976  1.00  0.00     0.031 C 
ATOM     62  C   UNL     1       9.135  18.292   2.395  1.00  0.00     0.037 A 
BRANCH  49  63
ATOM     63  C   UNL     1      14.539  15.295   2.298  1.00  0.00     0.057 A 
ATOM     64  C   UNL     1      15.510  15.265   1.288  1.00  0.00     0.134 A 
ATOM     65  C   UNL     1      14.990  15.365   3.622  1.00  0.00     0.134 A 
ATOM     66  F   UNL     1      15.147  15.186  -0.002  1.00  0.00    -0.206 F 
ATOM     67  C   UNL     1      16.874  15.272   1.584  1.00  0.00     0.040 A 
ATOM     68  C   UNL     1      16.351  15.400   3.930  1.00  0.00     0.040 A 
ATOM     69  F   UNL     1      14.115  15.403   4.639  1.00  0.00    -0.206 F 
ATOM     70  C   UNL     1      17.298  15.345   2.910  1.00  0.00     0.006 A 
ENDBRANCH  49  63
BRANCH  50  71
ATOM     71  C   UNL     1       4.727  14.532   0.634  1.00  0.00     0.057 A 
ATOM     72  C   UNL     1       4.066  15.200  -0.403  1.00  0.00     0.134 A 
ATOM     73  C   UNL     1       3.958  13.714   1.470  1.00  0.00     0.134 A 
ATOM     74  F   UNL     1       4.748  16.008  -1.227  1.00  0.00    -0.206 F 
ATOM     75  C   UNL     1       2.690  15.069  -0.595  1.00  0.00     0.040 A 
ATOM     76  C   UNL     1       2.585  13.556   1.276  1.00  0.00     0.040 A 
ATOM     77  F   UNL     1       4.535  13.039   2.475  1.00  0.00    -0.206 F 
ATOM     78  C   UNL     1       1.946  14.239   0.242  1.00  0.00     0.006 A 
ENDBRANCH  50  71
BRANCH  62  79
ATOM     79  C   UNL     1       8.853  19.708   2.802  1.00  0.00     0.057 A 
ATOM     80  C   UNL     1       8.227  20.014   4.017  1.00  0.00     0.134 A 
ATOM     81  C   UNL     1       9.245  20.776   1.987  1.00  0.00     0.134 A 
ATOM     82  F   UNL     1       7.815  19.035   4.836  1.00  0.00    -0.206 F 
ATOM     83  C   UNL     1       7.981  21.335   4.396  1.00  0.00     0.040 A 
ATOM     84  C   UNL     1       9.027  22.101   2.366  1.00  0.00     0.040 A 
ATOM     85  F   UNL     1       9.857  20.551   0.814  1.00  0.00    -0.206 F 
ATOM     86  C   UNL     1       8.387  22.383   3.572  1.00  0.00     0.006 A 
ENDBRANCH  62  79
ENDBRANCH  36  37
ENDBRANCH  28  31
ENDBRANCH  26  27
ENDBRANCH  25  26
ENDBRANCH   1  25
TORSDOF 13
