REMARK SMILES CN(CCS(C)(=O)=O)S(=O)(=O)c1cc(C(=O)NCCCNC(=O)c2ccc(-c3c4nc(c(-c5c(F)cccc5F)c5ccc([nH]5)c(-c5c(F)cccc5F)c5nc(c(-c6c(F)cccc6F)c6ccc3[nH]6)C=C5)C=C4)cc2)ccc1F
REMARK SMILES IDX 15 1 16 2 17 3 14 5 12 6 13 7 80 8 79 9 81 10 78 11 9 12
REMARK SMILES IDX 10 13 11 14 2 15 1 16 3 17 4 18 5 19 6 20 7 21 8 22 18 23
REMARK SMILES IDX 19 24 20 25 21 26 22 27 23 29 24 30 25 31 77 32 26 33 76 34
REMARK SMILES IDX 27 35 28 36 29 37 70 38 30 39 75 40 69 41 71 42 31 43 74 44
REMARK SMILES IDX 68 45 67 46 32 48 58 49 41 50 57 51 42 52 45 53 56 54 72 55
REMARK SMILES IDX 43 56 44 57 55 59 73 60 46 61 33 62 34 63 39 64 35 65 36 66
REMARK SMILES IDX 38 67 40 68 37 69 59 70 60 71 65 72 61 73 62 74 64 75 66 76
REMARK SMILES IDX 63 77 47 78 48 79 53 80 49 81 50 82 52 83 54 84 51 85
REMARK H PARENT 17 4 21 28 71 47 45 58
REMARK Flexibility Score: inf
ROOT
ATOM      1  C   UNL     1       0.774  -5.863  -3.654  1.00  0.00     0.251 C 
ATOM      2  O   UNL     1       1.297  -6.138  -2.572  1.00  0.00    -0.269 OA
ATOM      3  N   UNL     1       0.267  -6.920  -4.361  1.00  0.00    -0.352 N 
ATOM      4  H   UNL     1       0.476  -7.788  -3.947  1.00  0.00     0.163 HD
ENDROOT
BRANCH   1   5
ATOM      5  C   UNL     1       0.743  -4.429  -4.080  1.00  0.00     0.041 A 
ATOM      6  C   UNL     1       1.246  -2.113  -3.446  1.00  0.00     0.119 A 
ATOM      7  C   UNL     1       1.179  -3.479  -3.130  1.00  0.00     0.038 A 
ATOM      8  C   UNL     1       0.898  -1.684  -4.714  1.00  0.00     0.143 A 
ATOM      9  C   UNL     1       0.440  -2.599  -5.655  1.00  0.00     0.041 A 
ATOM     10  F   UNL     1       0.983  -0.406  -5.087  1.00  0.00    -0.206 F 
ATOM     11  C   UNL     1       0.374  -3.963  -5.346  1.00  0.00     0.017 A 
BRANCH   6  12
ATOM     12  S   UNL     1       1.810  -0.970  -2.226  1.00  0.00     0.245 S 
ATOM     13  O   UNL     1       1.774   0.378  -2.725  1.00  0.00    -0.207 OA
ATOM     14  O   UNL     1       3.035  -1.523  -1.678  1.00  0.00    -0.207 OA
BRANCH  12  15
ATOM     15  N   UNL     1       0.622  -1.060  -1.000  1.00  0.00    -0.200 NA
ATOM     16  C   UNL     1       1.018  -0.363   0.249  1.00  0.00     0.124 C 
BRANCH  15  17
ATOM     17  C   UNL     1      -0.822  -0.934  -1.349  1.00  0.00     0.118 C 
BRANCH  17  18
ATOM     18  C   UNL     1      -1.397   0.463  -1.498  1.00  0.00     0.153 C 
BRANCH  18  19
ATOM     19  S   UNL     1      -1.915   0.966  -3.136  1.00  0.00     0.148 S 
ATOM     20  C   UNL     1      -2.625  -0.447  -3.950  1.00  0.00     0.158 C 
ATOM     21  O   UNL     1      -3.002   1.914  -2.957  1.00  0.00    -0.229 OA
ATOM     22  O   UNL     1      -0.750   1.350  -3.899  1.00  0.00    -0.229 OA
ENDBRANCH  18  19
ENDBRANCH  17  18
ENDBRANCH  15  17
ENDBRANCH  12  15
ENDBRANCH   6  12
ENDBRANCH   1   5
BRANCH   3  23
ATOM     23  C   UNL     1      -0.508  -7.054  -5.579  1.00  0.00     0.118 C 
BRANCH  23  24
ATOM     24  C   UNL     1       0.370  -7.316  -6.802  1.00  0.00     0.042 C 
BRANCH  24  25
ATOM     25  C   UNL     1       0.994  -8.713  -6.830  1.00  0.00     0.118 C 
BRANCH  25  26
ATOM     26  N   UNL     1      -0.011  -9.765  -6.923  1.00  0.00    -0.352 N 
ATOM     27  C   UNL     1      -0.262 -10.683  -7.912  1.00  0.00     0.251 C 
ATOM     28  H   UNL     1      -0.610  -9.828  -6.145  1.00  0.00     0.163 HD
ATOM     29  O   UNL     1      -1.313 -11.318  -7.886  1.00  0.00    -0.269 OA
BRANCH  27  30
ATOM     30  C   UNL     1       0.707 -10.920  -9.003  1.00  0.00     0.039 A 
ATOM     31  C   UNL     1       0.224 -11.161 -10.293  1.00  0.00     0.014 A 
ATOM     32  C   UNL     1       2.080 -10.976  -8.753  1.00  0.00     0.014 A 
ATOM     33  C   UNL     1       1.117 -11.400 -11.340  1.00  0.00     0.010 A 
ATOM     34  C   UNL     1       2.974 -11.146  -9.808  1.00  0.00     0.010 A 
ATOM     35  C   UNL     1       2.502 -11.362 -11.111  1.00  0.00    -0.014 A 
BRANCH  35  36
ATOM     36  C   UNL     1       3.473 -11.543 -12.218  1.00  0.00     0.031 A 
ATOM     37  C   UNL     1       4.398 -12.727 -12.232  1.00  0.00     0.074 A 
ATOM     38  C   UNL     1       3.563 -10.606 -13.181  1.00  0.00     0.049 A 
ATOM     39  N   UNL     1       5.367 -13.009 -13.066  1.00  0.00    -0.248 NA
ATOM     40  C   UNL     1       4.226 -13.712 -11.154  1.00  0.00     0.031 C 
ATOM     41  C   UNL     1       2.737  -9.400 -13.264  1.00  0.00     0.029 A 
ATOM     42  N   UNL     1       4.391 -10.519 -14.271  1.00  0.00    -0.354 N 
ATOM     43  C   UNL     1       5.924 -14.196 -12.609  1.00  0.00     0.074 A 
ATOM     44  C   UNL     1       5.223 -14.552 -11.394  1.00  0.00     0.031 C 
ATOM     45  C   UNL     1       3.075  -8.712 -14.365  1.00  0.00     0.029 A 
ATOM     46  C   UNL     1       4.168  -9.404 -15.042  1.00  0.00     0.049 A 
ATOM     47  H   UNL     1       5.078 -11.191 -14.481  1.00  0.00     0.167 HD
ATOM     48  C   UNL     1       6.912 -14.937 -13.166  1.00  0.00     0.037 A 
ATOM     49  C   UNL     1       4.777  -8.985 -16.167  1.00  0.00     0.037 A 
ATOM     50  C   UNL     1       7.597 -14.587 -14.382  1.00  0.00     0.049 A 
ATOM     51  C   UNL     1       5.896  -9.800 -16.747  1.00  0.00     0.074 A 
ATOM     52  C   UNL     1       8.592 -15.286 -15.042  1.00  0.00     0.029 A 
ATOM     53  N   UNL     1       7.356 -13.438 -15.122  1.00  0.00    -0.354 N 
ATOM     54  N   UNL     1       6.397 -10.933 -16.319  1.00  0.00    -0.248 NA
ATOM     55  C   UNL     1       6.537  -9.280 -17.962  1.00  0.00     0.031 C 
ATOM     56  C   UNL     1       8.980 -14.542 -16.161  1.00  0.00     0.029 A 
ATOM     57  C   UNL     1       8.195 -13.401 -16.223  1.00  0.00     0.049 A 
ATOM     58  H   UNL     1       6.688 -12.752 -14.897  1.00  0.00     0.167 HD
ATOM     59  C   UNL     1       7.396 -11.273 -17.220  1.00  0.00     0.074 A 
ATOM     60  C   UNL     1       7.425 -10.230 -18.225  1.00  0.00     0.031 C 
ATOM     61  C   UNL     1       8.213 -12.355 -17.215  1.00  0.00     0.037 A 
BRANCH  48  62
ATOM     62  C   UNL     1       7.300 -16.207 -12.465  1.00  0.00     0.057 A 
ATOM     63  C   UNL     1       8.546 -16.333 -11.838  1.00  0.00     0.134 A 
ATOM     64  C   UNL     1       6.447 -17.319 -12.434  1.00  0.00     0.134 A 
ATOM     65  F   UNL     1       9.414 -15.310 -11.835  1.00  0.00    -0.206 F 
ATOM     66  C   UNL     1       8.929 -17.517 -11.206  1.00  0.00     0.040 A 
ATOM     67  C   UNL     1       6.808 -18.499 -11.782  1.00  0.00     0.040 A 
ATOM     68  F   UNL     1       5.235 -17.262 -13.006  1.00  0.00    -0.206 F 
ATOM     69  C   UNL     1       8.055 -18.602 -11.170  1.00  0.00     0.006 A 
ENDBRANCH  48  62
BRANCH  49  70
ATOM     70  C   UNL     1       4.296  -7.752 -16.837  1.00  0.00     0.057 A 
ATOM     71  C   UNL     1       4.511  -6.482 -16.290  1.00  0.00     0.134 A 
ATOM     72  C   UNL     1       3.551  -7.830 -18.019  1.00  0.00     0.134 A 
ATOM     73  F   UNL     1       5.208  -6.343 -15.153  1.00  0.00    -0.206 F 
ATOM     74  C   UNL     1       3.982  -5.334 -16.883  1.00  0.00     0.040 A 
ATOM     75  C   UNL     1       3.033  -6.689 -18.633  1.00  0.00     0.040 A 
ATOM     76  F   UNL     1       3.325  -9.020 -18.596  1.00  0.00    -0.206 F 
ATOM     77  C   UNL     1       3.240  -5.437 -18.058  1.00  0.00     0.006 A 
ENDBRANCH  49  70
BRANCH  61  78
ATOM     78  C   UNL     1       9.201 -12.483 -18.336  1.00  0.00     0.057 A 
ATOM     79  C   UNL     1       9.033 -13.461 -19.325  1.00  0.00     0.134 A 
ATOM     80  C   UNL     1      10.356 -11.696 -18.392  1.00  0.00     0.134 A 
ATOM     81  F   UNL     1       7.950 -14.254 -19.323  1.00  0.00    -0.206 F 
ATOM     82  C   UNL     1       9.989 -13.662 -20.322  1.00  0.00     0.040 A 
ATOM     83  C   UNL     1      11.309 -11.872 -19.397  1.00  0.00     0.040 A 
ATOM     84  F   UNL     1      10.569 -10.735 -17.480  1.00  0.00    -0.206 F 
ATOM     85  C   UNL     1      11.131 -12.864 -20.359  1.00  0.00     0.006 A 
ENDBRANCH  61  78
ENDBRANCH  35  36
ENDBRANCH  27  30
ENDBRANCH  25  26
ENDBRANCH  24  25
ENDBRANCH  23  24
ENDBRANCH   3  23
TORSDOF 15
