REMARK SMILES O=C(NCCCNC(=O)c1ccccc1Nc1cccc(C(F)(F)F)c1)c1ccc(-c2c3nc(c(-c4c(F)cccc4F)c4ccc([nH]4)c(-c4c(F)cccc4F)c4nc(c(-c5c(F)cccc5F)c5ccc2[nH]5)C=C4)C=C3)cc1
REMARK SMILES IDX 5 1 4 2 3 3 1 4 2 5 27 7 28 8 80 9 29 10 79 11 30 12 31 13
REMARK SMILES IDX 32 14 73 15 33 16 78 17 72 18 74 19 34 20 77 21 71 22 70 23
REMARK SMILES IDX 35 25 61 26 44 27 60 28 45 29 48 30 59 31 75 32 46 33 47 34
REMARK SMILES IDX 58 36 76 37 49 38 36 39 37 40 42 41 38 42 39 43 41 44 43 45
REMARK SMILES IDX 40 46 62 47 63 48 68 49 64 50 65 51 67 52 69 53 66 54 50 55
REMARK SMILES IDX 51 56 56 57 52 58 53 59 55 60 57 61 54 62 6 63 7 64 8 65
REMARK SMILES IDX 9 67 10 68 11 69 15 70 12 71 14 72 13 73 16 74 17 76 18 77
REMARK SMILES IDX 26 78 19 79 21 80 20 81 22 82 23 83 24 84 25 85
REMARK H PARENT 3 6 74 24 48 35 7 66 16 75
REMARK Flexibility Score: inf
ROOT
ATOM      1  C   UNL     1       5.044  -2.106  -0.900  1.00  0.00     0.042 C 
ENDROOT
BRANCH   1   2
ATOM      2  C   UNL     1       4.617  -0.661  -1.108  1.00  0.00     0.118 C 
BRANCH   2   3
ATOM      3  N   UNL     1       3.179  -0.451  -0.985  1.00  0.00    -0.352 N 
ATOM      4  O   UNL     1       1.212   0.125  -0.053  1.00  0.00    -0.269 OA
ATOM      5  C   UNL     1       2.439   0.182  -0.014  1.00  0.00     0.251 C 
ATOM      6  H   UNL     1       2.647  -0.828  -1.722  1.00  0.00     0.163 HD
BRANCH   5   7
ATOM      7  C   UNL     1       3.103   0.897   1.099  1.00  0.00     0.039 A 
ATOM      8  C   UNL     1       4.233   1.681   0.878  1.00  0.00     0.014 A 
ATOM      9  C   UNL     1       2.583   0.783   2.393  1.00  0.00     0.014 A 
ATOM     10  C   UNL     1       4.965   2.156   1.958  1.00  0.00     0.010 A 
ATOM     11  C   UNL     1       3.255   1.371   3.471  1.00  0.00     0.010 A 
ATOM     12  C   UNL     1       4.485   2.013   3.270  1.00  0.00    -0.014 A 
BRANCH  12  13
ATOM     13  C   UNL     1       5.287   2.568   4.394  1.00  0.00     0.031 A 
ATOM     14  C   UNL     1       5.842   1.677   5.474  1.00  0.00     0.074 A 
ATOM     15  C   UNL     1       5.572   3.886   4.399  1.00  0.00     0.049 A 
ATOM     16  N   UNL     1       6.617   1.992   6.483  1.00  0.00    -0.248 NA
ATOM     17  C   UNL     1       5.476   0.254   5.427  1.00  0.00     0.031 C 
ATOM     18  C   UNL     1       5.082   4.857   3.417  1.00  0.00     0.029 A 
ATOM     19  N   UNL     1       6.371   4.630   5.229  1.00  0.00    -0.354 N 
ATOM     20  C   UNL     1       6.802   0.820   7.205  1.00  0.00     0.074 A 
ATOM     21  C   UNL     1       6.043  -0.212   6.531  1.00  0.00     0.031 C 
ATOM     22  C   UNL     1       5.651   6.047   3.653  1.00  0.00     0.029 A 
ATOM     23  C   UNL     1       6.491   5.942   4.840  1.00  0.00     0.049 A 
ATOM     24  H   UNL     1       6.815   4.260   6.026  1.00  0.00     0.167 HD
ATOM     25  C   UNL     1       7.541   0.620   8.323  1.00  0.00     0.037 A 
ATOM     26  C   UNL     1       7.196   6.953   5.378  1.00  0.00     0.037 A 
ATOM     27  C   UNL     1       8.327   1.638   8.972  1.00  0.00     0.049 A 
ATOM     28  C   UNL     1       8.014   6.700   6.609  1.00  0.00     0.074 A 
ATOM     29  C   UNL     1       9.147   1.519  10.081  1.00  0.00     0.029 A 
ATOM     30  N   UNL     1       8.394   2.962   8.567  1.00  0.00    -0.354 N 
ATOM     31  N   UNL     1       8.200   5.579   7.261  1.00  0.00    -0.248 NA
ATOM     32  C   UNL     1       8.715   7.856   7.184  1.00  0.00     0.031 C 
ATOM     33  C   UNL     1       9.680   2.780  10.371  1.00  0.00     0.029 A 
ATOM     34  C   UNL     1       9.225   3.675   9.417  1.00  0.00     0.049 A 
ATOM     35  H   UNL     1       7.921   3.341   7.791  1.00  0.00     0.167 HD
ATOM     36  C   UNL     1       9.049   5.889   8.313  1.00  0.00     0.074 A 
ATOM     37  C   UNL     1       9.358   7.300   8.200  1.00  0.00     0.031 C 
ATOM     38  C   UNL     1       9.525   5.078   9.289  1.00  0.00     0.037 A 
BRANCH  25  39
ATOM     39  C   UNL     1       7.522  -0.752   8.933  1.00  0.00     0.057 A 
ATOM     40  C   UNL     1       8.190  -1.837   8.350  1.00  0.00     0.134 A 
ATOM     41  C   UNL     1       6.860  -0.980  10.147  1.00  0.00     0.134 A 
ATOM     42  F   UNL     1       8.834  -1.690   7.182  1.00  0.00    -0.206 F 
ATOM     43  C   UNL     1       8.182  -3.102   8.941  1.00  0.00     0.040 A 
ATOM     44  C   UNL     1       6.864  -2.235  10.759  1.00  0.00     0.040 A 
ATOM     45  F   UNL     1       6.207   0.017  10.764  1.00  0.00    -0.206 F 
ATOM     46  C   UNL     1       7.523  -3.302  10.152  1.00  0.00     0.006 A 
ENDBRANCH  25  39
BRANCH  26  47
ATOM     47  C   UNL     1       7.164   8.294   4.744  1.00  0.00     0.057 A 
ATOM     48  C   UNL     1       8.289   8.811   4.091  1.00  0.00     0.134 A 
ATOM     49  C   UNL     1       6.007   9.082   4.763  1.00  0.00     0.134 A 
ATOM     50  F   UNL     1       9.431   8.109   4.055  1.00  0.00    -0.206 F 
ATOM     51  C   UNL     1       8.268  10.069   3.488  1.00  0.00     0.040 A 
ATOM     52  C   UNL     1       5.964  10.330   4.141  1.00  0.00     0.040 A 
ATOM     53  F   UNL     1       4.895   8.638   5.366  1.00  0.00    -0.206 F 
ATOM     54  C   UNL     1       7.099  10.829   3.506  1.00  0.00     0.006 A 
ENDBRANCH  26  47
BRANCH  38  55
ATOM     55  C   UNL     1      10.453   5.698  10.290  1.00  0.00     0.057 A 
ATOM     56  C   UNL     1       9.991   6.570  11.283  1.00  0.00     0.134 A 
ATOM     57  C   UNL     1      11.823   5.409  10.265  1.00  0.00     0.134 A 
ATOM     58  F   UNL     1       8.691   6.898  11.349  1.00  0.00    -0.206 F 
ATOM     59  C   UNL     1      10.863   7.154  12.202  1.00  0.00     0.040 A 
ATOM     60  C   UNL     1      12.702   5.969  11.193  1.00  0.00     0.040 A 
ATOM     61  F   UNL     1      12.328   4.577   9.342  1.00  0.00    -0.206 F 
ATOM     62  C   UNL     1      12.223   6.850  12.161  1.00  0.00     0.006 A 
ENDBRANCH  38  55
ENDBRANCH  12  13
ENDBRANCH   5   7
ENDBRANCH   2   3
ENDBRANCH   1   2
BRANCH   1  63
ATOM     63  C   UNL     1       4.539  -3.072  -1.960  1.00  0.00     0.118 C 
BRANCH  63  64
ATOM     64  N   UNL     1       4.952  -2.699  -3.305  1.00  0.00    -0.352 N 
ATOM     65  C   UNL     1       5.686  -3.403  -4.225  1.00  0.00     0.253 C 
ATOM     66  H   UNL     1       4.659  -1.807  -3.600  1.00  0.00     0.163 HD
ATOM     67  O   UNL     1       6.031  -2.851  -5.267  1.00  0.00    -0.269 OA
BRANCH  65  68
ATOM     68  C   UNL     1       6.084  -4.805  -3.977  1.00  0.00     0.063 A 
ATOM     69  C   UNL     1       7.453  -5.091  -4.108  1.00  0.00     0.016 A 
ATOM     70  C   UNL     1       5.155  -5.826  -3.684  1.00  0.00     0.051 A 
ATOM     71  C   UNL     1       7.921  -6.385  -3.899  1.00  0.00     0.001 A 
ATOM     72  C   UNL     1       5.660  -7.117  -3.457  1.00  0.00     0.027 A 
ATOM     73  C   UNL     1       7.026  -7.396  -3.565  1.00  0.00     0.002 A 
BRANCH  70  74
ATOM     74  N   UNL     1       3.772  -5.569  -3.582  1.00  0.00    -0.355 N 
ATOM     75  H   UNL     1       3.432  -4.910  -4.229  1.00  0.00     0.167 HD
BRANCH  74  76
ATOM     76  C   UNL     1       2.795  -6.091  -2.716  1.00  0.00     0.039 A 
ATOM     77  C   UNL     1       1.451  -6.051  -3.104  1.00  0.00     0.026 A 
ATOM     78  C   UNL     1       3.114  -6.691  -1.490  1.00  0.00     0.039 A 
ATOM     79  C   UNL     1       0.452  -6.593  -2.293  1.00  0.00     0.003 A 
ATOM     80  C   UNL     1       2.120  -7.231  -0.656  1.00  0.00     0.058 A 
ATOM     81  C   UNL     1       0.785  -7.183  -1.076  1.00  0.00     0.013 A 
BRANCH  80  82
ATOM     82  C   UNL     1       2.479  -7.872   0.661  1.00  0.00     0.416 C 
ATOM     83  F   UNL     1       1.691  -7.445   1.686  1.00  0.00    -0.166 F 
ATOM     84  F   UNL     1       2.350  -9.227   0.630  1.00  0.00    -0.166 F 
ATOM     85  F   UNL     1       3.761  -7.629   1.054  1.00  0.00    -0.166 F 
ENDBRANCH  80  82
ENDBRANCH  74  76
ENDBRANCH  70  74
ENDBRANCH  65  68
ENDBRANCH  63  64
ENDBRANCH   1  63
TORSDOF 13
