REMARK SMILES Cc1ccc(NS(=O)(=O)c2cc(C(=O)Nc3ccccc3C(=O)NCCCNC(=O)c3ccc(-c4c5nc(c(-c6c(F)cccc6F)c6ccc([nH]6)c(-c6c(F)cccc6F)c6nc(c(-c7c(F)cccc7F)c7ccc4[nH]7)C=C6)C=C5)cc3)ccc2Br)cc1
REMARK SMILES IDX 22 1 23 2 24 3 21 5 16 6 17 7 18 8 20 9 19 10 15 11 13 12
REMARK SMILES IDX 14 13 12 15 10 16 11 17 87 18 86 19 88 20 85 21 7 22 8 23
REMARK SMILES IDX 9 24 6 25 5 27 1 28 2 29 3 30 90 31 4 32 89 33 25 34 26 35
REMARK SMILES IDX 27 36 28 37 29 38 30 40 31 41 32 42 84 43 33 44 83 45 34 46
REMARK SMILES IDX 35 47 36 48 77 49 37 50 82 51 76 52 78 53 38 54 81 55 75 56
REMARK SMILES IDX 74 57 39 59 65 60 48 61 64 62 49 63 52 64 63 65 79 66 50 67
REMARK SMILES IDX 51 68 62 70 80 71 53 72 40 73 41 74 46 75 42 76 43 77 45 78
REMARK SMILES IDX 47 79 44 80 66 81 67 82 72 83 68 84 69 85 71 86 73 87 70 88
REMARK SMILES IDX 54 89 55 90 60 91 56 92 57 93 59 94 61 95 58 96
REMARK H PARENT 24 4 15 14 6 26 28 39 78 58 52 69
REMARK Flexibility Score: inf
ROOT
ATOM      1  C   UNL     1      -0.974  -1.100   2.844  1.00  0.00     0.253 C 
ATOM      2  O   UNL     1       0.104  -1.564   3.199  1.00  0.00    -0.269 OA
ATOM      3  N   UNL     1      -2.092  -1.468   3.543  1.00  0.00    -0.352 N 
ATOM      4  H   UNL     1      -1.982  -2.277   4.094  1.00  0.00     0.163 HD
ENDROOT
BRANCH   1   5
ATOM      5  C   UNL     1      -1.057  -0.276   1.608  1.00  0.00     0.063 A 
ATOM      6  C   UNL     1       0.103  -0.647   0.250  1.00  0.00     0.054 A 
ATOM      7  C   UNL     1       0.074   0.622  -1.336  1.00  0.00     0.027 A 
ATOM      8  C   UNL     1      -1.148   1.943  -1.388  1.00  0.00     0.002 A 
ATOM      9  C   UNL     1      -2.172   1.086   1.415  1.00  0.00     0.016 A 
ATOM     10  C   UNL     1      -2.224   2.127  -0.026  1.00  0.00     0.001 A 
BRANCH   6  11
ATOM     11  N   UNL     1       0.838  -1.937   0.543  1.00  0.00    -0.321 N 
ATOM     12  C   UNL     1       0.464  -3.293   0.668  1.00  0.00     0.255 C 
ATOM     13  O   UNL     1       1.353  -4.126   0.865  1.00  0.00    -0.269 OA
ATOM     14  H   UNL     1       1.803  -1.798   0.678  1.00  0.00     0.170 HD
BRANCH  12  15
ATOM     15  C   UNL     1      -0.913  -3.838   0.416  1.00  0.00     0.041 A 
ATOM     16  C   UNL     1      -3.142  -3.195  -0.325  1.00  0.00     0.102 A 
ATOM     17  C   UNL     1      -1.956  -2.966   0.329  1.00  0.00     0.037 A 
ATOM     18  C   UNL     1      -3.504  -4.508  -0.532  1.00  0.00     0.038 A 
ATOM     19  C   UNL     1      -2.554  -5.508  -0.236  1.00  0.00     0.018 A 
ATOM     20  Br  UNL     1      -5.242  -5.014  -1.062  1.00  0.00    -0.049 Br
ATOM     21  C   UNL     1      -1.233  -5.168   0.158  1.00  0.00     0.015 A 
BRANCH  16  22
ATOM     22  S   UNL     1      -3.885  -1.737  -1.038  1.00  0.00     0.263 S 
ATOM     23  O   UNL     1      -5.199  -1.609  -0.442  1.00  0.00    -0.201 OA
ATOM     24  O   UNL     1      -3.709  -1.815  -2.470  1.00  0.00    -0.201 OA
BRANCH  22  25
ATOM     25  N   UNL     1      -3.018  -0.369  -0.454  1.00  0.00    -0.280 N 
ATOM     26  H   UNL     1      -3.557   0.302   0.022  1.00  0.00     0.180 HD
BRANCH  25  27
ATOM     27  C   UNL     1      -1.522  -0.050  -0.573  1.00  0.00     0.049 A 
ATOM     28  C   UNL     1       3.586  -0.408  -0.856  1.00  0.00     0.044 C 
ATOM     29  C   UNL     1       2.100  -0.186  -0.892  1.00  0.00    -0.051 A 
ATOM     30  C   UNL     1       1.043  -1.294  -1.802  1.00  0.00     0.005 A 
ATOM     31  C   UNL     1       1.506   1.050   0.181  1.00  0.00     0.005 A 
ATOM     32  C   UNL     1      -0.728  -1.256  -1.684  1.00  0.00     0.027 A 
ATOM     33  C   UNL     1      -0.260   1.212   0.393  1.00  0.00     0.027 A 
ENDBRANCH  25  27
ENDBRANCH  22  25
ENDBRANCH  16  22
ENDBRANCH  12  15
ENDBRANCH   6  11
ENDBRANCH   1   5
BRANCH   3  34
ATOM     34  C   UNL     1      -3.402  -0.872   3.609  1.00  0.00     0.118 C 
BRANCH  34  35
ATOM     35  C   UNL     1      -4.387  -1.451   2.624  1.00  0.00     0.042 C 
BRANCH  35  36
ATOM     36  C   UNL     1      -5.469  -2.231   3.326  1.00  0.00     0.118 C 
BRANCH  36  37
ATOM     37  N   UNL     1      -6.433  -1.386   4.032  1.00  0.00    -0.352 N 
ATOM     38  C   UNL     1      -7.607  -1.725   4.688  1.00  0.00     0.251 C 
ATOM     39  H   UNL     1      -6.214  -0.426   4.042  1.00  0.00     0.163 HD
ATOM     40  O   UNL     1      -8.210  -0.871   5.330  1.00  0.00    -0.269 OA
BRANCH  38  41
ATOM     41  C   UNL     1      -8.025  -3.150   4.766  1.00  0.00     0.039 A 
ATOM     42  C   UNL     1      -8.141  -3.648   6.069  1.00  0.00     0.014 A 
ATOM     43  C   UNL     1      -7.639  -3.979   3.729  1.00  0.00     0.014 A 
ATOM     44  C   UNL     1      -7.431  -4.788   6.397  1.00  0.00     0.010 A 
ATOM     45  C   UNL     1      -6.766  -4.976   4.065  1.00  0.00     0.010 A 
ATOM     46  C   UNL     1      -6.619  -5.328   5.408  1.00  0.00    -0.014 A 
BRANCH  46  47
ATOM     47  C   UNL     1      -5.735  -6.450   5.602  1.00  0.00     0.031 A 
ATOM     48  C   UNL     1      -6.440  -7.728   5.393  1.00  0.00     0.074 A 
ATOM     49  C   UNL     1      -4.420  -6.203   5.808  1.00  0.00     0.049 A 
ATOM     50  N   UNL     1      -6.263  -8.794   6.076  1.00  0.00    -0.248 NA
ATOM     51  C   UNL     1      -7.577  -7.863   4.464  1.00  0.00     0.031 C 
ATOM     52  C   UNL     1      -3.275  -7.106   5.829  1.00  0.00     0.029 A 
ATOM     53  N   UNL     1      -3.869  -4.981   6.238  1.00  0.00    -0.354 N 
ATOM     54  C   UNL     1      -6.875  -9.808   5.361  1.00  0.00     0.074 A 
ATOM     55  C   UNL     1      -7.862  -9.162   4.552  1.00  0.00     0.031 C 
ATOM     56  C   UNL     1      -2.298  -6.554   6.580  1.00  0.00     0.029 A 
ATOM     57  C   UNL     1      -2.814  -5.308   7.122  1.00  0.00     0.049 A 
ATOM     58  H   UNL     1      -4.160  -4.078   5.975  1.00  0.00     0.167 HD
ATOM     59  C   UNL     1      -6.266 -11.026   5.344  1.00  0.00     0.037 A 
ATOM     60  C   UNL     1      -2.940  -5.014   8.451  1.00  0.00     0.037 A 
ATOM     61  C   UNL     1      -5.057 -10.934   6.166  1.00  0.00     0.049 A 
ATOM     62  C   UNL     1      -3.159  -6.279   9.248  1.00  0.00     0.074 A 
ATOM     63  C   UNL     1      -3.737 -10.681   5.832  1.00  0.00     0.029 A 
ATOM     64  N   UNL     1      -5.191 -10.624   7.513  1.00  0.00    -0.354 N 
ATOM     65  N   UNL     1      -3.697  -7.365   8.751  1.00  0.00    -0.248 NA
ATOM     66  C   UNL     1      -2.676  -6.460  10.613  1.00  0.00     0.031 C 
ATOM     67  C   UNL     1      -3.095 -10.155   6.989  1.00  0.00     0.029 A 
ATOM     68  C   UNL     1      -4.027 -10.075   8.011  1.00  0.00     0.049 A 
ATOM     69  H   UNL     1      -6.008 -10.775   8.042  1.00  0.00     0.167 HD
ATOM     70  C   UNL     1      -3.574  -8.384   9.658  1.00  0.00     0.074 A 
ATOM     71  C   UNL     1      -2.931  -7.765  10.805  1.00  0.00     0.031 C 
ATOM     72  C   UNL     1      -3.959  -9.672   9.408  1.00  0.00     0.037 A 
BRANCH  59  73
ATOM     73  C   UNL     1      -6.528 -12.170   4.390  1.00  0.00     0.057 A 
ATOM     74  C   UNL     1      -5.583 -13.214   4.290  1.00  0.00     0.134 A 
ATOM     75  C   UNL     1      -7.644 -12.329   3.548  1.00  0.00     0.134 A 
ATOM     76  F   UNL     1      -4.485 -13.246   5.057  1.00  0.00    -0.206 F 
ATOM     77  C   UNL     1      -5.714 -14.291   3.405  1.00  0.00     0.040 A 
ATOM     78  C   UNL     1      -7.782 -13.399   2.647  1.00  0.00     0.040 A 
ATOM     79  F   UNL     1      -8.684 -11.491   3.566  1.00  0.00    -0.206 F 
ATOM     80  C   UNL     1      -6.814 -14.385   2.571  1.00  0.00     0.006 A 
ENDBRANCH  59  73
BRANCH  60  81
ATOM     81  C   UNL     1      -3.590  -3.682   8.641  1.00  0.00     0.057 A 
ATOM     82  C   UNL     1      -2.874  -2.564   8.162  1.00  0.00     0.134 A 
ATOM     83  C   UNL     1      -4.979  -3.554   8.715  1.00  0.00     0.134 A 
ATOM     84  F   UNL     1      -1.533  -2.599   8.106  1.00  0.00    -0.206 F 
ATOM     85  C   UNL     1      -3.515  -1.473   7.568  1.00  0.00     0.040 A 
ATOM     86  C   UNL     1      -5.627  -2.449   8.145  1.00  0.00     0.040 A 
ATOM     87  F   UNL     1      -5.732  -4.557   9.186  1.00  0.00    -0.206 F 
ATOM     88  C   UNL     1      -4.902  -1.444   7.508  1.00  0.00     0.006 A 
ENDBRANCH  60  81
BRANCH  72  89
ATOM     89  C   UNL     1      -4.218 -10.717  10.470  1.00  0.00     0.057 A 
ATOM     90  C   UNL     1      -4.462 -10.417  11.817  1.00  0.00     0.134 A 
ATOM     91  C   UNL     1      -4.378 -12.083  10.133  1.00  0.00     0.134 A 
ATOM     92  F   UNL     1      -4.539  -9.156  12.261  1.00  0.00    -0.206 F 
ATOM     93  C   UNL     1      -4.705 -11.405  12.775  1.00  0.00     0.040 A 
ATOM     94  C   UNL     1      -4.726 -13.062  11.062  1.00  0.00     0.040 A 
ATOM     95  F   UNL     1      -4.238 -12.539   8.880  1.00  0.00    -0.206 F 
ATOM     96  C   UNL     1      -4.846 -12.732  12.399  1.00  0.00     0.006 A 
ENDBRANCH  72  89
ENDBRANCH  46  47
ENDBRANCH  38  41
ENDBRANCH  36  37
ENDBRANCH  35  36
ENDBRANCH  34  35
ENDBRANCH   3  34
TORSDOF 15
