REMARK SMILES C[C@@H]1C[C@H]([NH3+])C[N@@H+](CCC(=O)NCCCNC(=O)c2ccc(-c3c4nc(c(-c5c(F)cccc5F)c5ccc([nH]5)c(-c5c(F)cccc5F)c5nc(c(-c6c(F)cccc6F)c6ccc3[nH]6)C=C5)C=C4)cc2)C1
REMARK SMILES IDX 13 1 12 2 10 3 11 4 9 6 8 7 7 8 1 9 2 10 3 11 73 12 4 13
REMARK SMILES IDX 6 14 5 16 14 20 15 21 16 22 17 23 18 25 19 26 20 27 72 28
REMARK SMILES IDX 21 29 71 30 22 31 23 32 24 33 65 34 25 35 70 36 64 37 66 38
REMARK SMILES IDX 26 39 69 40 63 41 62 42 27 44 53 45 36 46 52 47 37 48 40 49
REMARK SMILES IDX 51 50 67 51 38 52 39 53 50 55 68 56 41 57 28 58 29 59 34 60
REMARK SMILES IDX 30 61 31 62 33 63 35 64 32 65 54 66 55 67 60 68 56 69 57 70
REMARK SMILES IDX 59 71 61 72 58 73 42 74 43 75 48 76 44 77 45 78 47 79 49 80
REMARK SMILES IDX 46 81
REMARK H PARENT 12 5 7 15 5 17 5 18 5 19 16 24 66 43 40 54
REMARK Flexibility Score: inf
ROOT
ATOM      1  C   UNL     1      -0.548   0.380  -4.461  1.00  0.00     0.117 C 
ENDROOT
BRANCH   1   2
ATOM      2  N   UNL     1      -0.312   1.754  -4.892  1.00  0.00    -0.356 N 
ATOM      3  C   UNL     1       0.763   2.564  -4.648  1.00  0.00     0.225 C 
ATOM      4  O   UNL     1       0.579   3.782  -4.650  1.00  0.00    -0.275 OA
ATOM      5  H   UNL     1      -1.028   2.155  -5.435  1.00  0.00     0.163 HD
BRANCH   3   6
ATOM      6  C   UNL     1       2.154   1.984  -4.498  1.00  0.00     0.161 C 
BRANCH   6   7
ATOM      7  C   UNL     1       2.854   2.247  -3.146  1.00  0.00     0.272 C 
BRANCH   7   8
ATOM      8  N   UNL     1       2.892   1.176  -2.120  1.00  0.00    -0.329 N 
ATOM      9  C   UNL     1       1.769   0.153   1.143  1.00  0.00     0.014 C 
ATOM     10  C   UNL     1       1.382   0.035  -0.332  1.00  0.00     0.047 C 
ATOM     11  C   UNL     1       1.819  -1.312  -0.933  1.00  0.00     0.080 C 
ATOM     12  C   UNL     1       1.800   1.286  -1.152  1.00  0.00     0.265 C 
ATOM     13  C   UNL     1       3.188  -1.274  -1.606  1.00  0.00     0.237 C 
ATOM     14  C   UNL     1       3.180  -0.151  -2.661  1.00  0.00     0.327 C 
ATOM     15  H   UNL     1       3.719   1.335  -1.545  1.00  0.00     0.348 HD
BRANCH  13  16
ATOM     16  N   UNL     1       4.263  -1.111  -0.623  1.00  0.00    -0.350 N 
ATOM     17  H   UNL     1       4.133  -0.233  -0.120  1.00  0.00     0.344 HD
ATOM     18  H   UNL     1       5.163  -1.099  -1.102  1.00  0.00     0.344 HD
ATOM     19  H   UNL     1       4.240  -1.888   0.038  1.00  0.00     0.344 HD
ENDBRANCH  13  16
ENDBRANCH   7   8
ENDBRANCH   6   7
ENDBRANCH   3   6
ENDBRANCH   1   2
BRANCH   1  20
ATOM     20  C   UNL     1      -0.927   0.387  -2.984  1.00  0.00     0.042 C 
BRANCH  20  21
ATOM     21  C   UNL     1      -2.195  -0.329  -2.541  1.00  0.00     0.118 C 
BRANCH  21  22
ATOM     22  N   UNL     1      -2.039  -1.764  -2.408  1.00  0.00    -0.352 N 
ATOM     23  C   UNL     1      -2.092  -2.670  -1.374  1.00  0.00     0.251 C 
ATOM     24  H   UNL     1      -1.849  -2.198  -3.271  1.00  0.00     0.163 HD
ATOM     25  O   UNL     1      -1.899  -3.844  -1.701  1.00  0.00    -0.269 OA
BRANCH  23  26
ATOM     26  C   UNL     1      -2.337  -2.377   0.080  1.00  0.00     0.039 A 
ATOM     27  C   UNL     1      -2.051  -3.421   0.983  1.00  0.00     0.014 A 
ATOM     28  C   UNL     1      -2.871  -1.208   0.622  1.00  0.00     0.014 A 
ATOM     29  C   UNL     1      -2.279  -3.294   2.364  1.00  0.00     0.010 A 
ATOM     30  C   UNL     1      -3.021  -1.047   2.014  1.00  0.00     0.010 A 
ATOM     31  C   UNL     1      -2.746  -2.092   2.906  1.00  0.00    -0.014 A 
BRANCH  31  32
ATOM     32  C   UNL     1      -2.963  -1.936   4.379  1.00  0.00     0.031 A 
ATOM     33  C   UNL     1      -4.335  -1.639   4.939  1.00  0.00     0.074 A 
ATOM     34  C   UNL     1      -1.925  -2.041   5.234  1.00  0.00     0.049 A 
ATOM     35  N   UNL     1      -4.702  -1.448   6.185  1.00  0.00    -0.248 NA
ATOM     36  C   UNL     1      -5.437  -1.522   3.973  1.00  0.00     0.031 C 
ATOM     37  C   UNL     1      -0.536  -2.294   4.850  1.00  0.00     0.029 A 
ATOM     38  N   UNL     1      -1.875  -1.945   6.606  1.00  0.00    -0.354 N 
ATOM     39  C   UNL     1      -6.066  -1.178   6.148  1.00  0.00     0.074 A 
ATOM     40  C   UNL     1      -6.452  -1.178   4.753  1.00  0.00     0.031 C 
ATOM     41  C   UNL     1       0.222  -2.362   5.957  1.00  0.00     0.029 A 
ATOM     42  C   UNL     1      -0.614  -2.114   7.128  1.00  0.00     0.049 A 
ATOM     43  H   UNL     1      -2.669  -1.771   7.162  1.00  0.00     0.167 HD
ATOM     44  C   UNL     1      -6.927  -0.970   7.176  1.00  0.00     0.037 A 
ATOM     45  C   UNL     1      -0.171  -2.066   8.400  1.00  0.00     0.037 A 
ATOM     46  C   UNL     1      -6.561  -0.989   8.570  1.00  0.00     0.049 A 
ATOM     47  C   UNL     1      -1.141  -1.809   9.522  1.00  0.00     0.074 A 
ATOM     48  C   UNL     1      -7.380  -0.843   9.678  1.00  0.00     0.029 A 
ATOM     49  N   UNL     1      -5.272  -1.158   9.051  1.00  0.00    -0.354 N 
ATOM     50  N   UNL     1      -2.436  -1.618   9.471  1.00  0.00    -0.248 NA
ATOM     51  C   UNL     1      -0.584  -1.765  10.883  1.00  0.00     0.031 C 
ATOM     52  C   UNL     1      -6.581  -0.869  10.825  1.00  0.00     0.029 A 
ATOM     53  C   UNL     1      -5.271  -1.092  10.437  1.00  0.00     0.049 A 
ATOM     54  H   UNL     1      -4.475  -1.304   8.492  1.00  0.00     0.167 HD
ATOM     55  C   UNL     1      -2.852  -1.464  10.788  1.00  0.00     0.074 A 
ATOM     56  C   UNL     1      -1.674  -1.600  11.618  1.00  0.00     0.031 C 
ATOM     57  C   UNL     1      -4.100  -1.233  11.264  1.00  0.00     0.037 A 
BRANCH  44  58
ATOM     58  C   UNL     1      -8.367  -0.700   6.835  1.00  0.00     0.057 A 
ATOM     59  C   UNL     1      -9.204  -1.695   6.312  1.00  0.00     0.134 A 
ATOM     60  C   UNL     1      -8.938   0.556   7.082  1.00  0.00     0.134 A 
ATOM     61  F   UNL     1      -8.723  -2.918   6.046  1.00  0.00    -0.206 F 
ATOM     62  C   UNL     1     -10.546  -1.442   6.020  1.00  0.00     0.040 A 
ATOM     63  C   UNL     1     -10.286   0.811   6.823  1.00  0.00     0.040 A 
ATOM     64  F   UNL     1      -8.199   1.552   7.595  1.00  0.00    -0.206 F 
ATOM     65  C   UNL     1     -11.092  -0.188   6.282  1.00  0.00     0.006 A 
ENDBRANCH  44  58
BRANCH  45  66
ATOM     66  C   UNL     1       1.271  -2.279   8.694  1.00  0.00     0.057 A 
ATOM     67  C   UNL     1       1.712  -3.420   9.375  1.00  0.00     0.134 A 
ATOM     68  C   UNL     1       2.238  -1.337   8.323  1.00  0.00     0.134 A 
ATOM     69  F   UNL     1       0.831  -4.346   9.780  1.00  0.00    -0.206 F 
ATOM     70  C   UNL     1       3.058  -3.608   9.695  1.00  0.00     0.040 A 
ATOM     71  C   UNL     1       3.591  -1.526   8.609  1.00  0.00     0.040 A 
ATOM     72  F   UNL     1       1.882  -0.223   7.667  1.00  0.00    -0.206 F 
ATOM     73  C   UNL     1       4.003  -2.661   9.305  1.00  0.00     0.006 A 
ENDBRANCH  45  66
BRANCH  57  74
ATOM     74  C   UNL     1      -4.270  -1.152  12.756  1.00  0.00     0.057 A 
ATOM     75  C   UNL     1      -3.780  -0.073  13.504  1.00  0.00     0.134 A 
ATOM     76  C   UNL     1      -4.960  -2.155  13.450  1.00  0.00     0.134 A 
ATOM     77  F   UNL     1      -3.100   0.916  12.905  1.00  0.00    -0.206 F 
ATOM     78  C   UNL     1      -3.946  -0.009  14.889  1.00  0.00     0.040 A 
ATOM     79  C   UNL     1      -5.158  -2.087  14.830  1.00  0.00     0.040 A 
ATOM     80  F   UNL     1      -5.464  -3.212  12.796  1.00  0.00    -0.206 F 
ATOM     81  C   UNL     1      -4.644  -1.015  15.555  1.00  0.00     0.006 A 
ENDBRANCH  57  74
ENDBRANCH  31  32
ENDBRANCH  23  26
ENDBRANCH  21  22
ENDBRANCH  20  21
ENDBRANCH   1  20
TORSDOF 13
