REMARK SMILES Cc1ccccc1C(=O)Nc1cc(NC(=O)c2ccccc2C)cc(C(=O)NCCCNC(=O)c2ccc(-c3c4nc(c(-c5c(F)cccc5F)c5ccc([nH]5)c(-c5c(F)cccc5F)c5nc(c(-c6c(F)cccc6F)c6ccc3[nH]6)C=C5)C=C4)cc2)c1
REMARK SMILES IDX 30 1 29 2 28 3 26 4 27 5 25 7 11 8 12 9 89 10 13 11 24 12
REMARK SMILES IDX 10 13 8 14 9 15 7 17 1 18 2 19 3 20 4 21 6 22 5 23 14 24
REMARK SMILES IDX 15 25 16 27 17 28 18 29 22 30 19 31 21 32 23 33 20 34 31 35
REMARK SMILES IDX 32 36 33 37 34 39 35 40 36 41 88 42 37 43 87 44 38 45 39 46
REMARK SMILES IDX 40 47 81 48 41 49 86 50 80 51 82 52 42 53 85 54 79 55 78 56
REMARK SMILES IDX 43 58 69 59 52 60 68 61 53 62 56 63 67 64 83 65 54 66 55 67
REMARK SMILES IDX 66 69 84 70 57 71 44 72 45 73 50 74 46 75 47 76 49 77 51 78
REMARK SMILES IDX 48 79 70 80 71 81 76 82 72 83 73 84 75 85 77 86 74 87 58 88
REMARK SMILES IDX 59 89 64 90 60 91 61 92 63 93 65 94 62 95
REMARK H PARENT 28 6 10 16 14 26 32 38 82 57 56 68
REMARK Flexibility Score: inf
ROOT
ATOM      1  C   UNL     1       6.930  -3.233   0.094  1.00  0.00     0.042 C 
ENDROOT
BRANCH   1   2
ATOM      2  C   UNL     1       6.339  -2.840   1.450  1.00  0.00     0.118 C 
BRANCH   2   3
ATOM      3  N   UNL     1       6.705  -1.480   1.820  1.00  0.00    -0.352 N 
ATOM      4  C   UNL     1       6.158  -0.255   1.518  1.00  0.00     0.251 C 
ATOM      5  O   UNL     1       6.659   0.735   2.054  1.00  0.00    -0.269 OA
ATOM      6  H   UNL     1       7.499  -1.427   2.399  1.00  0.00     0.163 HD
BRANCH   4   7
ATOM      7  C   UNL     1       4.982  -0.057   0.619  1.00  0.00     0.043 A 
ATOM      8  C   UNL     1       3.050   1.304   0.066  1.00  0.00     0.044 A 
ATOM      9  C   UNL     1       2.685   0.414  -0.949  1.00  0.00     0.052 A 
ATOM     10  C   UNL     1       4.240   1.118   0.778  1.00  0.00     0.040 A 
ATOM     11  C   UNL     1       3.449  -0.727  -1.163  1.00  0.00     0.044 A 
ATOM     12  C   UNL     1       4.563  -0.961  -0.354  1.00  0.00     0.040 A 
BRANCH   8  13
ATOM     13  N   UNL     1       2.215   2.339   0.507  1.00  0.00    -0.322 N 
ATOM     14  C   UNL     1       0.841   2.379   0.619  1.00  0.00     0.255 C 
ATOM     15  O   UNL     1       0.297   3.442   0.923  1.00  0.00    -0.269 OA
ATOM     16  H   UNL     1       2.680   3.163   0.779  1.00  0.00     0.170 HD
BRANCH  14  17
ATOM     17  C   UNL     1      -0.011   1.169   0.442  1.00  0.00     0.043 A 
ATOM     18  C   UNL     1       1.290  -0.368   2.063  1.00  0.00     0.045 C 
ATOM     19  C   UNL     1       0.210  -0.083   1.056  1.00  0.00    -0.038 A 
ATOM     20  C   UNL     1      -0.644  -1.153   0.730  1.00  0.00     0.004 A 
ATOM     21  C   UNL     1      -1.748  -0.966  -0.102  1.00  0.00     0.000 A 
ATOM     22  C   UNL     1      -1.149   1.353  -0.361  1.00  0.00     0.014 A 
ATOM     23  C   UNL     1      -2.017   0.294  -0.624  1.00  0.00     0.001 A 
ENDBRANCH  14  17
ENDBRANCH   8  13
BRANCH  11  24
ATOM     24  N   UNL     1       3.149  -1.729  -2.098  1.00  0.00    -0.322 N 
ATOM     25  C   UNL     1       2.441  -1.702  -3.273  1.00  0.00     0.255 C 
ATOM     26  H   UNL     1       3.514  -2.614  -1.870  1.00  0.00     0.170 HD
ATOM     27  O   UNL     1       2.097  -2.760  -3.796  1.00  0.00    -0.269 OA
BRANCH  25  28
ATOM     28  C   UNL     1       2.170  -0.430  -3.975  1.00  0.00     0.043 A 
ATOM     29  C   UNL     1       0.839  -0.209  -4.358  1.00  0.00     0.014 A 
ATOM     30  C   UNL     1       3.178   0.490  -4.325  1.00  0.00    -0.038 A 
ATOM     31  C   UNL     1       0.489   0.960  -5.028  1.00  0.00     0.001 A 
ATOM     32  C   UNL     1       2.797   1.677  -4.970  1.00  0.00     0.004 A 
ATOM     33  C   UNL     1       4.641   0.281  -4.045  1.00  0.00     0.045 C 
ATOM     34  C   UNL     1       1.465   1.909  -5.318  1.00  0.00     0.000 A 
ENDBRANCH  25  28
ENDBRANCH  11  24
ENDBRANCH   4   7
ENDBRANCH   2   3
ENDBRANCH   1   2
BRANCH   1  35
ATOM     35  C   UNL     1       8.257  -3.956   0.178  1.00  0.00     0.118 C 
BRANCH  35  36
ATOM     36  N   UNL     1       8.152  -5.407  -0.004  1.00  0.00    -0.352 N 
ATOM     37  C   UNL     1       9.147  -6.355   0.085  1.00  0.00     0.251 C 
ATOM     38  H   UNL     1       7.254  -5.748  -0.218  1.00  0.00     0.163 HD
ATOM     39  O   UNL     1       8.906  -7.535  -0.077  1.00  0.00    -0.269 OA
BRANCH  37  40
ATOM     40  C   UNL     1      10.495  -5.915   0.530  1.00  0.00     0.039 A 
ATOM     41  C   UNL     1      11.014  -6.520   1.678  1.00  0.00     0.014 A 
ATOM     42  C   UNL     1      11.061  -4.751   0.013  1.00  0.00     0.014 A 
ATOM     43  C   UNL     1      11.916  -5.809   2.458  1.00  0.00     0.010 A 
ATOM     44  C   UNL     1      11.877  -4.003   0.837  1.00  0.00     0.010 A 
ATOM     45  C   UNL     1      12.233  -4.502   2.095  1.00  0.00    -0.014 A 
BRANCH  45  46
ATOM     46  C   UNL     1      12.802  -3.544   3.034  1.00  0.00     0.031 A 
ATOM     47  C   UNL     1      14.214  -3.135   2.915  1.00  0.00     0.074 A 
ATOM     48  C   UNL     1      12.010  -3.004   3.989  1.00  0.00     0.049 A 
ATOM     49  N   UNL     1      14.882  -2.584   3.871  1.00  0.00    -0.248 NA
ATOM     50  C   UNL     1      15.026  -3.401   1.730  1.00  0.00     0.031 C 
ATOM     51  C   UNL     1      12.297  -1.847   4.833  1.00  0.00     0.029 A 
ATOM     52  N   UNL     1      10.846  -3.560   4.546  1.00  0.00    -0.354 N 
ATOM     53  C   UNL     1      16.076  -2.155   3.348  1.00  0.00     0.074 A 
ATOM     54  C   UNL     1      16.179  -2.817   2.074  1.00  0.00     0.031 C 
ATOM     55  C   UNL     1      11.547  -1.923   5.943  1.00  0.00     0.029 A 
ATOM     56  C   UNL     1      10.866  -3.206   5.915  1.00  0.00     0.049 A 
ATOM     57  H   UNL     1      10.158  -4.087   4.080  1.00  0.00     0.167 HD
ATOM     58  C   UNL     1      16.759  -1.174   4.000  1.00  0.00     0.037 A 
ATOM     59  C   UNL     1      10.938  -4.147   6.899  1.00  0.00     0.037 A 
ATOM     60  C   UNL     1      16.246  -1.002   5.360  1.00  0.00     0.049 A 
ATOM     61  C   UNL     1      12.143  -4.010   7.801  1.00  0.00     0.074 A 
ATOM     62  C   UNL     1      15.470  -0.035   5.973  1.00  0.00     0.029 A 
ATOM     63  N   UNL     1      16.317  -2.073   6.248  1.00  0.00    -0.354 N 
ATOM     64  N   UNL     1      13.191  -3.292   7.506  1.00  0.00    -0.248 NA
ATOM     65  C   UNL     1      12.284  -4.701   9.081  1.00  0.00     0.031 C 
ATOM     66  C   UNL     1      14.983  -0.580   7.193  1.00  0.00     0.029 A 
ATOM     67  C   UNL     1      15.506  -1.853   7.343  1.00  0.00     0.049 A 
ATOM     68  H   UNL     1      16.870  -2.876   6.114  1.00  0.00     0.167 HD
ATOM     69  C   UNL     1      14.141  -3.447   8.480  1.00  0.00     0.074 A 
ATOM     70  C   UNL     1      13.515  -4.314   9.460  1.00  0.00     0.031 C 
ATOM     71  C   UNL     1      15.374  -2.868   8.380  1.00  0.00     0.037 A 
BRANCH  58  72
ATOM     72  C   UNL     1      17.751  -0.222   3.359  1.00  0.00     0.057 A 
ATOM     73  C   UNL     1      18.382   0.770   4.139  1.00  0.00     0.134 A 
ATOM     74  C   UNL     1      18.025  -0.120   1.978  1.00  0.00     0.134 A 
ATOM     75  F   UNL     1      18.220   0.820   5.469  1.00  0.00    -0.206 F 
ATOM     76  C   UNL     1      19.190   1.779   3.592  1.00  0.00     0.040 A 
ATOM     77  C   UNL     1      18.870   0.853   1.426  1.00  0.00     0.040 A 
ATOM     78  F   UNL     1      17.451  -0.909   1.066  1.00  0.00    -0.206 F 
ATOM     79  C   UNL     1      19.445   1.820   2.230  1.00  0.00     0.006 A 
ENDBRANCH  58  72
BRANCH  59  80
ATOM     80  C   UNL     1      10.283  -5.431   6.539  1.00  0.00     0.057 A 
ATOM     81  C   UNL     1       8.891  -5.444   6.343  1.00  0.00     0.134 A 
ATOM     82  C   UNL     1      11.008  -6.511   6.029  1.00  0.00     0.134 A 
ATOM     83  F   UNL     1       8.135  -4.436   6.807  1.00  0.00    -0.206 F 
ATOM     84  C   UNL     1       8.262  -6.428   5.576  1.00  0.00     0.040 A 
ATOM     85  C   UNL     1      10.387  -7.508   5.267  1.00  0.00     0.040 A 
ATOM     86  F   UNL     1      12.342  -6.558   6.156  1.00  0.00    -0.206 F 
ATOM     87  C   UNL     1       9.018  -7.447   5.006  1.00  0.00     0.006 A 
ENDBRANCH  59  80
BRANCH  71  88
ATOM     88  C   UNL     1      16.552  -3.160   9.275  1.00  0.00     0.057 A 
ATOM     89  C   UNL     1      16.798  -4.402   9.879  1.00  0.00     0.134 A 
ATOM     90  C   UNL     1      17.580  -2.204   9.431  1.00  0.00     0.134 A 
ATOM     91  F   UNL     1      15.959  -5.435   9.724  1.00  0.00    -0.206 F 
ATOM     92  C   UNL     1      17.956  -4.658  10.628  1.00  0.00     0.040 A 
ATOM     93  C   UNL     1      18.761  -2.465  10.132  1.00  0.00     0.040 A 
ATOM     94  F   UNL     1      17.488  -0.981   8.888  1.00  0.00    -0.206 F 
ATOM     95  C   UNL     1      18.948  -3.693  10.746  1.00  0.00     0.006 A 
ENDBRANCH  71  88
ENDBRANCH  45  46
ENDBRANCH  37  40
ENDBRANCH  35  36
ENDBRANCH   1  35
TORSDOF 14
