REMARK SMILES CS(=O)(=O)c1ccc(/C=C(/C(=O)NCCCNC(=O)c2ccc(-c3c4nc(c(-c5c(F)cccc5F)c5ccc([nH]5)c(-c5c(F)cccc5F)c5nc(c(-c6c(F)cccc6F)c6ccc3[nH]6)C=C5)C=C4)cc2)c2ccc(-c3ccc(F)cc3F)cc2)cc1
REMARK SMILES IDX 15 1 14 2 13 3 11 4 12 5 10 7 9 8 8 9 5 10 6 11 89 12 7 13
REMARK SMILES IDX 88 14 2 15 1 16 3 17 4 18 74 19 75 20 87 21 76 22 86 23
REMARK SMILES IDX 77 24 78 25 79 26 84 27 80 28 83 29 85 30 81 31 82 32 16 33
REMARK SMILES IDX 17 34 18 35 19 37 20 38 21 39 73 40 22 41 72 42 23 43 24 44
REMARK SMILES IDX 25 45 66 46 26 47 71 48 65 49 67 50 27 51 70 52 64 53 63 54
REMARK SMILES IDX 28 56 54 57 37 58 53 59 38 60 41 61 52 62 68 63 39 64 40 65
REMARK SMILES IDX 51 67 69 68 42 69 29 70 30 71 35 72 31 73 32 74 34 75 36 76
REMARK SMILES IDX 33 77 55 78 56 79 61 80 57 81 58 82 60 83 62 84 59 85 43 86
REMARK SMILES IDX 44 87 49 88 45 89 46 90 48 91 50 92 47 93
REMARK H PARENT 13 6 17 36 67 55 41 66
REMARK Flexibility Score: inf
ROOT
ATOM      1  C   UNL     1       1.135   9.083  -2.635  1.00  0.00     0.042 C 
ENDROOT
BRANCH   1   2
ATOM      2  C   UNL     1       1.299   8.364  -3.976  1.00  0.00     0.118 C 
BRANCH   2   3
ATOM      3  N   UNL     1       2.698   8.308  -4.351  1.00  0.00    -0.352 N 
ATOM      4  C   UNL     1       3.656   7.348  -4.287  1.00  0.00     0.251 C 
ATOM      5  O   UNL     1       4.784   7.696  -4.647  1.00  0.00    -0.269 OA
ATOM      6  H   UNL     1       3.026   9.152  -4.737  1.00  0.00     0.163 HD
BRANCH   4   7
ATOM      7  C   UNL     1       3.384   5.916  -3.887  1.00  0.00     0.047 C 
ATOM      8  C   UNL     1       2.470   5.595  -2.941  1.00  0.00     0.022 C 
BRANCH   8   9
ATOM      9  C   UNL     1       1.980   4.269  -2.495  1.00  0.00    -0.025 A 
ATOM     10  C   UNL     1       0.858   1.781  -1.838  1.00  0.00     0.067 A 
ATOM     11  C   UNL     1       2.236   1.895  -2.021  1.00  0.00     0.021 A 
ATOM     12  C   UNL     1       0.034   2.899  -1.942  1.00  0.00     0.021 A 
ATOM     13  C   UNL     1       2.793   3.145  -2.306  1.00  0.00     0.009 A 
ATOM     14  C   UNL     1       0.598   4.136  -2.271  1.00  0.00     0.009 A 
BRANCH  10  15
ATOM     15  S   UNL     1       0.165   0.182  -1.499  1.00  0.00     0.175 S 
ATOM     16  C   UNL     1       0.772  -0.193   0.125  1.00  0.00     0.163 C 
ATOM     17  O   UNL     1       0.757  -0.748  -2.437  1.00  0.00    -0.224 OA
ATOM     18  O   UNL     1      -1.278   0.336  -1.405  1.00  0.00    -0.224 OA
ENDBRANCH  10  15
ENDBRANCH   8   9
BRANCH   7  19
ATOM     19  C   UNL     1       4.311   4.889  -4.424  1.00  0.00    -0.013 A 
ATOM     20  C   UNL     1       5.648   4.933  -4.006  1.00  0.00     0.009 A 
ATOM     21  C   UNL     1       3.894   3.822  -5.225  1.00  0.00     0.009 A 
ATOM     22  C   UNL     1       6.529   3.900  -4.317  1.00  0.00     0.009 A 
ATOM     23  C   UNL     1       4.778   2.769  -5.511  1.00  0.00     0.009 A 
ATOM     24  C   UNL     1       6.101   2.772  -5.033  1.00  0.00    -0.015 A 
BRANCH  24  25
ATOM     25  C   UNL     1       7.013   1.625  -5.217  1.00  0.00     0.018 A 
ATOM     26  C   UNL     1       7.817   1.179  -4.146  1.00  0.00     0.015 A 
ATOM     27  C   UNL     1       7.128   0.936  -6.436  1.00  0.00     0.133 A 
ATOM     28  C   UNL     1       8.707   0.113  -4.299  1.00  0.00     0.040 A 
ATOM     29  C   UNL     1       8.010  -0.131  -6.596  1.00  0.00     0.079 A 
ATOM     30  F   UNL     1       6.393   1.305  -7.496  1.00  0.00    -0.206 F 
ATOM     31  C   UNL     1       8.795  -0.529  -5.526  1.00  0.00     0.126 A 
ATOM     32  F   UNL     1       9.652  -1.547  -5.674  1.00  0.00    -0.207 F 
ENDBRANCH  24  25
ENDBRANCH   7  19
ENDBRANCH   4   7
ENDBRANCH   2   3
ENDBRANCH   1   2
BRANCH   1  33
ATOM     33  C   UNL     1       1.476  10.573  -2.697  1.00  0.00     0.118 C 
BRANCH  33  34
ATOM     34  N   UNL     1       0.555  11.306  -3.552  1.00  0.00    -0.352 N 
ATOM     35  C   UNL     1      -0.308  12.328  -3.259  1.00  0.00     0.251 C 
ATOM     36  H   UNL     1       0.552  11.020  -4.494  1.00  0.00     0.163 HD
ATOM     37  O   UNL     1      -1.181  12.624  -4.071  1.00  0.00    -0.269 OA
BRANCH  35  38
ATOM     38  C   UNL     1      -0.205  13.080  -1.989  1.00  0.00     0.039 A 
ATOM     39  C   UNL     1      -1.384  13.516  -1.377  1.00  0.00     0.014 A 
ATOM     40  C   UNL     1       1.033  13.432  -1.443  1.00  0.00     0.014 A 
ATOM     41  C   UNL     1      -1.322  14.275  -0.206  1.00  0.00     0.010 A 
ATOM     42  C   UNL     1       1.092  14.126  -0.234  1.00  0.00     0.010 A 
ATOM     43  C   UNL     1      -0.084  14.570   0.387  1.00  0.00    -0.014 A 
BRANCH  43  44
ATOM     44  C   UNL     1      -0.017  15.356   1.646  1.00  0.00     0.031 A 
ATOM     45  C   UNL     1       0.642  16.710   1.668  1.00  0.00     0.074 A 
ATOM     46  C   UNL     1      -0.518  14.831   2.782  1.00  0.00     0.049 A 
ATOM     47  N   UNL     1       0.809  17.531   2.674  1.00  0.00    -0.248 NA
ATOM     48  C   UNL     1       1.212  17.196   0.401  1.00  0.00     0.031 C 
ATOM     49  C   UNL     1      -1.128  13.505   2.903  1.00  0.00     0.029 A 
ATOM     50  N   UNL     1      -0.588  15.345   4.053  1.00  0.00    -0.354 N 
ATOM     51  C   UNL     1       1.516  18.614   2.168  1.00  0.00     0.074 A 
ATOM     52  C   UNL     1       1.787  18.330   0.776  1.00  0.00     0.031 C 
ATOM     53  C   UNL     1      -1.527  13.319   4.171  1.00  0.00     0.029 A 
ATOM     54  C   UNL     1      -1.173  14.494   4.960  1.00  0.00     0.049 A 
ATOM     55  H   UNL     1      -0.251  16.238   4.292  1.00  0.00     0.167 HD
ATOM     56  C   UNL     1       1.887  19.753   2.801  1.00  0.00     0.037 A 
ATOM     57  C   UNL     1      -1.394  14.642   6.280  1.00  0.00     0.037 A 
ATOM     58  C   UNL     1       1.579  20.050   4.175  1.00  0.00     0.049 A 
ATOM     59  C   UNL     1      -0.994  15.928   6.949  1.00  0.00     0.074 A 
ATOM     60  C   UNL     1       1.829  21.215   4.880  1.00  0.00     0.029 A 
ATOM     61  N   UNL     1       0.957  19.177   5.053  1.00  0.00    -0.354 N 
ATOM     62  N   UNL     1      -0.415  16.985   6.432  1.00  0.00    -0.248 NA
ATOM     63  C   UNL     1      -1.288  16.048   8.384  1.00  0.00     0.031 C 
ATOM     64  C   UNL     1       1.408  21.026   6.200  1.00  0.00     0.029 A 
ATOM     65  C   UNL     1       0.845  19.765   6.302  1.00  0.00     0.049 A 
ATOM     66  H   UNL     1       0.642  18.273   4.823  1.00  0.00     0.167 HD
ATOM     67  C   UNL     1      -0.298  17.901   7.469  1.00  0.00     0.074 A 
ATOM     68  C   UNL     1      -0.887  17.285   8.639  1.00  0.00     0.031 C 
ATOM     69  C   UNL     1       0.250  19.140   7.456  1.00  0.00     0.037 A 
BRANCH  56  70
ATOM     70  C   UNL     1       2.667  20.771   2.020  1.00  0.00     0.057 A 
ATOM     71  C   UNL     1       2.078  21.542   1.010  1.00  0.00     0.134 A 
ATOM     72  C   UNL     1       4.007  21.034   2.333  1.00  0.00     0.134 A 
ATOM     73  F   UNL     1       0.800  21.335   0.655  1.00  0.00    -0.206 F 
ATOM     74  C   UNL     1       2.797  22.525   0.328  1.00  0.00     0.040 A 
ATOM     75  C   UNL     1       4.729  22.032   1.677  1.00  0.00     0.040 A 
ATOM     76  F   UNL     1       4.631  20.338   3.295  1.00  0.00    -0.206 F 
ATOM     77  C   UNL     1       4.125  22.779   0.668  1.00  0.00     0.006 A 
ENDBRANCH  56  70
BRANCH  57  78
ATOM     78  C   UNL     1      -2.030  13.549   7.059  1.00  0.00     0.057 A 
ATOM     79  C   UNL     1      -3.313  13.693   7.601  1.00  0.00     0.134 A 
ATOM     80  C   UNL     1      -1.359  12.345   7.305  1.00  0.00     0.134 A 
ATOM     81  F   UNL     1      -4.000  14.830   7.416  1.00  0.00    -0.206 F 
ATOM     82  C   UNL     1      -3.893  12.694   8.385  1.00  0.00     0.040 A 
ATOM     83  C   UNL     1      -1.939  11.325   8.062  1.00  0.00     0.040 A 
ATOM     84  F   UNL     1      -0.132  12.139   6.805  1.00  0.00    -0.206 F 
ATOM     85  C   UNL     1      -3.205  11.504   8.614  1.00  0.00     0.006 A 
ENDBRANCH  57  78
BRANCH  69  86
ATOM     86  C   UNL     1       0.213  19.922   8.736  1.00  0.00     0.057 A 
ATOM     87  C   UNL     1       1.015  19.584   9.833  1.00  0.00     0.134 A 
ATOM     88  C   UNL     1      -0.610  21.050   8.859  1.00  0.00     0.134 A 
ATOM     89  F   UNL     1       1.815  18.508   9.784  1.00  0.00    -0.206 F 
ATOM     90  C   UNL     1       0.981  20.323  11.016  1.00  0.00     0.040 A 
ATOM     91  C   UNL     1      -0.630  21.814  10.026  1.00  0.00     0.040 A 
ATOM     92  F   UNL     1      -1.395  21.435   7.842  1.00  0.00    -0.206 F 
ATOM     93  C   UNL     1       0.162  21.447  11.112  1.00  0.00     0.006 A 
ENDBRANCH  69  86
ENDBRANCH  43  44
ENDBRANCH  35  38
ENDBRANCH  33  34
ENDBRANCH   1  33
TORSDOF 14
