REMARK SMILES Cc1cccc(N2C(=O)/C(=C/c3ccc(C(=O)NCCCNC(=O)c4ccc(-c5c6nc(c(-c7c(F)cccc7F)c7ccc([nH]7)c(-c7c(F)cccc7F)c7nc(c(-c8c(F)cccc8F)c8ccc5[nH]8)C=C7)C=C6)cc4)cc3)c3ccccc3C2=O)c1
REMARK SMILES IDX 20 1 19 2 18 3 16 4 17 5 15 7 12 8 13 9 80 10 14 11 79 12
REMARK SMILES IDX 11 13 7 14 8 15 87 16 9 17 10 18 86 19 88 20 81 21 85 22
REMARK SMILES IDX 82 23 84 24 83 25 6 26 1 27 2 28 3 29 89 30 4 31 5 32 21 33
REMARK SMILES IDX 22 34 23 35 24 37 25 38 26 39 78 40 27 41 77 42 28 43 29 44
REMARK SMILES IDX 30 45 71 46 31 47 76 48 70 49 72 50 32 51 75 52 69 53 68 54
REMARK SMILES IDX 33 56 59 57 42 58 58 59 43 60 46 61 57 62 73 63 44 64 45 65
REMARK SMILES IDX 56 67 74 68 47 69 34 70 35 71 40 72 36 73 37 74 39 75 41 76
REMARK SMILES IDX 38 77 60 78 61 79 66 80 62 81 63 82 65 83 67 84 64 85 48 86
REMARK SMILES IDX 49 87 54 88 50 89 51 90 53 91 55 92 52 93
REMARK H PARENT 18 6 22 36 72 55 46 66
REMARK Flexibility Score: inf
ROOT
ATOM      1  C   UNL     1      -5.702  10.075   2.018  1.00  0.00     0.042 C 
ENDROOT
BRANCH   1   2
ATOM      2  C   UNL     1      -6.155  10.053   0.562  1.00  0.00     0.118 C 
BRANCH   2   3
ATOM      3  N   UNL     1      -5.472  11.050  -0.258  1.00  0.00    -0.352 N 
ATOM      4  C   UNL     1      -4.321  10.971  -1.010  1.00  0.00     0.251 C 
ATOM      5  O   UNL     1      -3.851  11.995  -1.500  1.00  0.00    -0.269 OA
ATOM      6  H   UNL     1      -5.911  11.931  -0.276  1.00  0.00     0.163 HD
BRANCH   4   7
ATOM      7  C   UNL     1      -3.601   9.689  -1.183  1.00  0.00     0.039 A 
ATOM      8  C   UNL     1      -2.208   7.266  -1.186  1.00  0.00    -0.025 A 
ATOM      9  C   UNL     1      -1.513   8.470  -1.032  1.00  0.00     0.009 A 
ATOM     10  C   UNL     1      -3.574   7.293  -1.489  1.00  0.00     0.009 A 
ATOM     11  C   UNL     1      -2.209   9.681  -1.026  1.00  0.00     0.014 A 
ATOM     12  C   UNL     1      -4.264   8.505  -1.510  1.00  0.00     0.014 A 
BRANCH   8  13
ATOM     13  C   UNL     1      -1.509   5.994  -0.981  1.00  0.00     0.022 C 
ATOM     14  N   UNL     1      -1.702   2.629   0.287  1.00  0.00    -0.242 N 
ATOM     15  C   UNL     1      -1.012   3.785  -0.136  1.00  0.00     0.265 C 
ATOM     16  C   UNL     1      -3.043   2.699   0.723  1.00  0.00     0.265 C 
ATOM     17  O   UNL     1       0.108   3.831  -0.644  1.00  0.00    -0.268 OA
ATOM     18  C   UNL     1      -1.788   5.071  -0.031  1.00  0.00     0.049 C 
ATOM     19  C   UNL     1      -3.495   3.981   1.312  1.00  0.00     0.048 A 
ATOM     20  O   UNL     1      -3.890   1.809   0.698  1.00  0.00    -0.268 OA
ATOM     21  C   UNL     1      -2.831   5.160   0.995  1.00  0.00    -0.000 A 
ATOM     22  C   UNL     1      -4.570   3.984   2.216  1.00  0.00     0.014 A 
ATOM     23  C   UNL     1      -3.182   6.332   1.682  1.00  0.00     0.010 A 
ATOM     24  C   UNL     1      -4.946   5.164   2.852  1.00  0.00     0.001 A 
ATOM     25  C   UNL     1      -4.234   6.333   2.602  1.00  0.00     0.001 A 
BRANCH  14  26
ATOM     26  C   UNL     1      -1.047   1.326   0.163  1.00  0.00     0.053 A 
ATOM     27  C   UNL     1       2.515  -0.111   0.020  1.00  0.00     0.044 C 
ATOM     28  C   UNL     1       1.016  -0.033   0.039  1.00  0.00    -0.049 A 
ATOM     29  C   UNL     1       0.261  -1.198  -0.064  1.00  0.00     0.003 A 
ATOM     30  C   UNL     1       0.359   1.206   0.173  1.00  0.00     0.030 A 
ATOM     31  C   UNL     1      -1.125  -1.120  -0.047  1.00  0.00     0.002 A 
ATOM     32  C   UNL     1      -1.764   0.122   0.061  1.00  0.00     0.027 A 
ENDBRANCH  14  26
ENDBRANCH   8  13
ENDBRANCH   4   7
ENDBRANCH   2   3
ENDBRANCH   1   2
BRANCH   1  33
ATOM     33  C   UNL     1      -6.594  10.932   2.905  1.00  0.00     0.118 C 
BRANCH  33  34
ATOM     34  N   UNL     1      -7.768  10.229   3.430  1.00  0.00    -0.352 N 
ATOM     35  C   UNL     1      -8.804  10.750   4.194  1.00  0.00     0.251 C 
ATOM     36  H   UNL     1      -7.829   9.270   3.216  1.00  0.00     0.163 HD
ATOM     37  O   UNL     1      -9.761  10.065   4.514  1.00  0.00    -0.269 OA
BRANCH  35  38
ATOM     38  C   UNL     1      -8.769  12.198   4.502  1.00  0.00     0.039 A 
ATOM     39  C   UNL     1      -9.785  12.995   3.972  1.00  0.00     0.014 A 
ATOM     40  C   UNL     1      -7.596  12.762   4.996  1.00  0.00     0.014 A 
ATOM     41  C   UNL     1      -9.504  14.325   3.676  1.00  0.00     0.010 A 
ATOM     42  C   UNL     1      -7.287  14.059   4.628  1.00  0.00     0.010 A 
ATOM     43  C   UNL     1      -8.210  14.810   3.891  1.00  0.00    -0.014 A 
BRANCH  43  44
ATOM     44  C   UNL     1      -7.713  15.999   3.205  1.00  0.00     0.031 A 
ATOM     45  C   UNL     1      -7.520  17.273   3.919  1.00  0.00     0.074 A 
ATOM     46  C   UNL     1      -7.474  15.979   1.873  1.00  0.00     0.049 A 
ATOM     47  N   UNL     1      -7.819  18.422   3.406  1.00  0.00    -0.248 NA
ATOM     48  C   UNL     1      -6.992  17.351   5.275  1.00  0.00     0.031 C 
ATOM     49  C   UNL     1      -6.837  17.028   1.082  1.00  0.00     0.029 A 
ATOM     50  N   UNL     1      -7.954  15.071   0.928  1.00  0.00    -0.354 N 
ATOM     51  C   UNL     1      -7.283  19.380   4.229  1.00  0.00     0.074 A 
ATOM     52  C   UNL     1      -6.855  18.674   5.418  1.00  0.00     0.031 C 
ATOM     53  C   UNL     1      -7.172  16.865  -0.207  1.00  0.00     0.029 A 
ATOM     54  C   UNL     1      -8.118  15.768  -0.285  1.00  0.00     0.049 A 
ATOM     55  H   UNL     1      -8.143  14.117   1.080  1.00  0.00     0.167 HD
ATOM     56  C   UNL     1      -7.097  20.655   3.786  1.00  0.00     0.037 A 
ATOM     57  C   UNL     1      -9.307  15.792  -0.951  1.00  0.00     0.037 A 
ATOM     58  C   UNL     1      -7.447  20.817   2.381  1.00  0.00     0.049 A 
ATOM     59  C   UNL     1      -9.886  17.175  -1.122  1.00  0.00     0.074 A 
ATOM     60  C   UNL     1      -6.673  20.792   1.232  1.00  0.00     0.029 A 
ATOM     61  N   UNL     1      -8.770  20.728   1.963  1.00  0.00    -0.354 N 
ATOM     62  N   UNL     1      -9.462  18.220  -0.470  1.00  0.00    -0.248 NA
ATOM     63  C   UNL     1     -11.025  17.482  -1.984  1.00  0.00     0.031 C 
ATOM     64  C   UNL     1      -7.531  20.671   0.118  1.00  0.00     0.029 A 
ATOM     65  C   UNL     1      -8.832  20.621   0.585  1.00  0.00     0.049 A 
ATOM     66  H   UNL     1      -9.552  20.740   2.562  1.00  0.00     0.167 HD
ATOM     67  C   UNL     1     -10.271  19.292  -0.747  1.00  0.00     0.074 A 
ATOM     68  C   UNL     1     -11.212  18.789  -1.728  1.00  0.00     0.031 C 
ATOM     69  C   UNL     1     -10.099  20.492  -0.117  1.00  0.00     0.037 A 
BRANCH  56  70
ATOM     70  C   UNL     1      -6.272  21.630   4.579  1.00  0.00     0.057 A 
ATOM     71  C   UNL     1      -5.289  22.436   3.981  1.00  0.00     0.134 A 
ATOM     72  C   UNL     1      -6.385  21.762   5.974  1.00  0.00     0.134 A 
ATOM     73  F   UNL     1      -5.117  22.475   2.654  1.00  0.00    -0.206 F 
ATOM     74  C   UNL     1      -4.409  23.229   4.725  1.00  0.00     0.040 A 
ATOM     75  C   UNL     1      -5.484  22.517   6.735  1.00  0.00     0.040 A 
ATOM     76  F   UNL     1      -7.370  21.144   6.646  1.00  0.00    -0.206 F 
ATOM     77  C   UNL     1      -4.479  23.244   6.110  1.00  0.00     0.006 A 
ENDBRANCH  56  70
BRANCH  57  78
ATOM     78  C   UNL     1     -10.107  14.558  -0.756  1.00  0.00     0.057 A 
ATOM     79  C   UNL     1      -9.609  13.351  -1.276  1.00  0.00     0.134 A 
ATOM     80  C   UNL     1     -11.091  14.474   0.231  1.00  0.00     0.134 A 
ATOM     81  F   UNL     1      -8.663  13.367  -2.229  1.00  0.00    -0.206 F 
ATOM     82  C   UNL     1      -9.976  12.114  -0.745  1.00  0.00     0.040 A 
ATOM     83  C   UNL     1     -11.476  13.239   0.762  1.00  0.00     0.040 A 
ATOM     84  F   UNL     1     -11.603  15.583   0.782  1.00  0.00    -0.206 F 
ATOM     85  C   UNL     1     -10.886  12.059   0.306  1.00  0.00     0.006 A 
ENDBRANCH  57  78
BRANCH  69  86
ATOM     86  C   UNL     1     -11.025  21.680  -0.191  1.00  0.00     0.057 A 
ATOM     87  C   UNL     1     -12.409  21.596  -0.406  1.00  0.00     0.134 A 
ATOM     88  C   UNL     1     -10.543  22.980   0.086  1.00  0.00     0.134 A 
ATOM     89  F   UNL     1     -13.023  20.416  -0.565  1.00  0.00    -0.206 F 
ATOM     90  C   UNL     1     -13.240  22.726  -0.412  1.00  0.00     0.040 A 
ATOM     91  C   UNL     1     -11.370  24.107   0.133  1.00  0.00     0.040 A 
ATOM     92  F   UNL     1      -9.247  23.211   0.345  1.00  0.00    -0.206 F 
ATOM     93  C   UNL     1     -12.723  23.985  -0.135  1.00  0.00     0.006 A 
ENDBRANCH  69  86
ENDBRANCH  43  44
ENDBRANCH  35  38
ENDBRANCH  33  34
ENDBRANCH   1  33
TORSDOF 12
