REMARK SMILES [NH3+][C@H]1CCCCC[C@@H]1C(=O)N[C@@H](CCO)C(=O)NCCCNC(=O)c1ccc(-c2c3nc(c(-c4c(F)cccc4F)c4ccc([nH]4)c(-c4c(F)cccc4F)c4nc(c(-c5c(F)cccc5F)c5ccc2[nH]5)C=C4)C=C3)cc1
REMARK SMILES IDX 16 1 17 2 18 3 12 5 11 6 9 7 10 8 8 10 2 11 1 12 3 16 7 18
REMARK SMILES IDX 6 19 5 20 4 21 13 23 14 24 15 25 19 27 20 28 21 29 22 30
REMARK SMILES IDX 23 31 24 33 25 34 26 35 78 36 27 37 77 38 28 39 29 40 30 41
REMARK SMILES IDX 71 42 31 43 76 44 70 45 72 46 32 47 75 48 69 49 68 50 33 52
REMARK SMILES IDX 59 53 42 54 58 55 43 56 46 57 57 58 73 59 44 60 45 61 56 63
REMARK SMILES IDX 74 64 47 65 34 66 35 67 40 68 36 69 37 70 39 71 41 72 38 73
REMARK SMILES IDX 60 74 61 75 66 76 62 77 63 78 65 79 67 80 64 81 48 82 49 83
REMARK SMILES IDX 54 84 50 85 51 86 53 87 55 88 52 89
REMARK H PARENT 18 4 11 9 1 13 1 14 1 15 15 26 22 32 72 51 46 62
REMARK Flexibility Score: 90.00
ROOT
ATOM      1  C   UNL     1       3.072   0.182  -2.005  1.00  0.00     0.242 C 
ATOM      2  O   UNL     1       3.531   0.973  -1.176  1.00  0.00    -0.273 OA
ATOM      3  N   UNL     1       3.249   0.505  -3.312  1.00  0.00    -0.354 N 
ATOM      4  H   UNL     1       3.651   1.393  -3.452  1.00  0.00     0.163 HD
ENDROOT
BRANCH   1   5
ATOM      5  C   UNL     1       2.429  -1.137  -1.560  1.00  0.00     0.173 C 
BRANCH   5   6
ATOM      6  N   UNL     1       1.060  -1.258  -2.077  1.00  0.00    -0.344 N 
ATOM      7  C   UNL     1      -0.175  -1.302  -1.531  1.00  0.00     0.229 C 
ATOM      8  O   UNL     1      -1.079  -1.141  -2.368  1.00  0.00    -0.275 OA
ATOM      9  H   UNL     1       1.036  -1.323  -3.059  1.00  0.00     0.164 HD
BRANCH   7  10
ATOM     10  C   UNL     1      -0.579  -1.591  -0.068  1.00  0.00     0.136 C 
BRANCH  10  11
ATOM     11  C   UNL     1       0.452  -1.598   1.068  1.00  0.00     0.193 C 
BRANCH  11  12
ATOM     12  N   UNL     1      -0.185  -1.330   2.371  1.00  0.00    -0.354 N 
ATOM     13  H   UNL     1       0.523  -1.342   3.105  1.00  0.00     0.344 HD
ATOM     14  H   UNL     1      -0.884  -2.049   2.562  1.00  0.00     0.344 HD
ATOM     15  H   UNL     1      -0.636  -0.415   2.348  1.00  0.00     0.344 HD
ENDBRANCH  11  12
BRANCH  11  16
ATOM     16  C   UNL     1       1.314  -2.868   1.167  1.00  0.00     0.066 CG0
ATOM     17  G   UNL     1       0.611  -4.176   1.509  1.00  0.00     0.000 G0
ENDBRANCH  11  16
ENDBRANCH  10  11
BRANCH  10  18
ATOM     18  C   UNL     1      -1.540  -2.804  -0.039  1.00  0.00     0.020 C 
BRANCH  18  19
ATOM     19  C   UNL     1      -0.946  -4.093  -0.600  1.00  0.00     0.001 C 
BRANCH  19  20
ATOM     20  C   UNL     1      -0.026  -4.890   0.321  1.00  0.00     0.000 C 
BRANCH  20  21
ATOM     21  C   UNL     1       0.611  -4.176   1.509  1.00  0.00     0.006 CG0
ATOM     22  G   UNL     1       1.314  -2.868   1.167  1.00  0.00     0.000 G0
ENDBRANCH  20  21
ENDBRANCH  19  20
ENDBRANCH  18  19
ENDBRANCH  10  18
ENDBRANCH   7  10
ENDBRANCH   5   6
BRANCH   5  23
ATOM     23  C   UNL     1       3.270  -2.419  -1.728  1.00  0.00     0.063 C 
BRANCH  23  24
ATOM     24  C   UNL     1       4.297  -2.569  -2.839  1.00  0.00     0.158 C 
BRANCH  24  25
ATOM     25  O   UNL     1       5.380  -1.667  -2.702  1.00  0.00    -0.396 OA
ATOM     26  H   UNL     1       5.049  -0.756  -2.747  1.00  0.00     0.210 HD
ENDBRANCH  24  25
ENDBRANCH  23  24
ENDBRANCH   5  23
ENDBRANCH   1   5
BRANCH   3  27
ATOM     27  C   UNL     1       2.957  -0.209  -4.542  1.00  0.00     0.117 C 
BRANCH  27  28
ATOM     28  C   UNL     1       2.252   0.658  -5.564  1.00  0.00     0.042 C 
BRANCH  28  29
ATOM     29  C   UNL     1       3.019   1.927  -5.906  1.00  0.00     0.118 C 
BRANCH  29  30
ATOM     30  N   UNL     1       4.392   1.671  -6.337  1.00  0.00    -0.352 N 
ATOM     31  C   UNL     1       4.972   1.809  -7.578  1.00  0.00     0.251 C 
ATOM     32  H   UNL     1       4.997   1.350  -5.630  1.00  0.00     0.163 HD
ATOM     33  O   UNL     1       6.091   1.368  -7.794  1.00  0.00    -0.269 OA
BRANCH  31  34
ATOM     34  C   UNL     1       4.205   2.466  -8.651  1.00  0.00     0.039 A 
ATOM     35  C   UNL     1       4.133   1.867  -9.909  1.00  0.00     0.014 A 
ATOM     36  C   UNL     1       3.501   3.638  -8.379  1.00  0.00     0.014 A 
ATOM     37  C   UNL     1       3.261   2.390 -10.864  1.00  0.00     0.010 A 
ATOM     38  C   UNL     1       2.546   4.079  -9.279  1.00  0.00     0.010 A 
ATOM     39  C   UNL     1       2.417   3.463 -10.532  1.00  0.00    -0.014 A 
BRANCH  39  40
ATOM     40  C   UNL     1       1.384   3.968 -11.469  1.00  0.00     0.031 A 
ATOM     41  C   UNL     1       1.410   5.410 -11.894  1.00  0.00     0.074 A 
ATOM     42  C   UNL     1       0.365   3.167 -11.836  1.00  0.00     0.049 A 
ATOM     43  N   UNL     1       0.525   6.086 -12.580  1.00  0.00    -0.248 NA
ATOM     44  C   UNL     1       2.559   6.213 -11.441  1.00  0.00     0.031 C 
ATOM     45  C   UNL     1       0.186   1.773 -11.422  1.00  0.00     0.029 A 
ATOM     46  N   UNL     1      -0.727   3.419 -12.627  1.00  0.00    -0.354 N 
ATOM     47  C   UNL     1       0.991   7.394 -12.604  1.00  0.00     0.074 A 
ATOM     48  C   UNL     1       2.201   7.431 -11.815  1.00  0.00     0.031 C 
ATOM     49  C   UNL     1      -0.932   1.287 -11.984  1.00  0.00     0.029 A 
ATOM     50  C   UNL     1      -1.570   2.343 -12.762  1.00  0.00     0.049 A 
ATOM     51  H   UNL     1      -0.891   4.289 -13.057  1.00  0.00     0.167 HD
ATOM     52  C   UNL     1       0.471   8.463 -13.249  1.00  0.00     0.037 A 
ATOM     53  C   UNL     1      -2.731   2.225 -13.432  1.00  0.00     0.037 A 
ATOM     54  C   UNL     1      -0.698   8.404 -14.084  1.00  0.00     0.049 A 
ATOM     55  C   UNL     1      -3.262   3.412 -14.185  1.00  0.00     0.074 A 
ATOM     56  C   UNL     1      -1.247   9.400 -14.870  1.00  0.00     0.029 A 
ATOM     57  N   UNL     1      -1.495   7.280 -14.242  1.00  0.00    -0.354 N 
ATOM     58  N   UNL     1      -2.766   4.623 -14.271  1.00  0.00    -0.248 NA
ATOM     59  C   UNL     1      -4.510   3.217 -14.936  1.00  0.00     0.031 C 
ATOM     60  C   UNL     1      -2.399   8.888 -15.478  1.00  0.00     0.029 A 
ATOM     61  C   UNL     1      -2.544   7.563 -15.098  1.00  0.00     0.049 A 
ATOM     62  H   UNL     1      -1.337   6.410 -13.809  1.00  0.00     0.167 HD
ATOM     63  C   UNL     1      -3.629   5.330 -15.098  1.00  0.00     0.074 A 
ATOM     64  C   UNL     1      -4.671   4.406 -15.501  1.00  0.00     0.031 C 
ATOM     65  C   UNL     1      -3.568   6.627 -15.486  1.00  0.00     0.037 A 
BRANCH  52  66
ATOM     66  C   UNL     1       1.175   9.778 -13.086  1.00  0.00     0.057 A 
ATOM     67  C   UNL     1       2.439  10.016 -13.644  1.00  0.00     0.134 A 
ATOM     68  C   UNL     1       0.579  10.823 -12.370  1.00  0.00     0.134 A 
ATOM     69  F   UNL     1       3.072   9.052 -14.328  1.00  0.00    -0.206 F 
ATOM     70  C   UNL     1       3.098  11.233 -13.467  1.00  0.00     0.040 A 
ATOM     71  C   UNL     1       1.216  12.055 -12.210  1.00  0.00     0.040 A 
ATOM     72  F   UNL     1      -0.631  10.664 -11.813  1.00  0.00    -0.206 F 
ATOM     73  C   UNL     1       2.483  12.259 -12.752  1.00  0.00     0.006 A 
ENDBRANCH  52  66
BRANCH  53  74
ATOM     74  C   UNL     1      -3.452   0.928 -13.443  1.00  0.00     0.057 A 
ATOM     75  C   UNL     1      -3.484   0.133 -14.594  1.00  0.00     0.134 A 
ATOM     76  C   UNL     1      -4.112   0.446 -12.306  1.00  0.00     0.134 A 
ATOM     77  F   UNL     1      -2.883   0.550 -15.718  1.00  0.00    -0.206 F 
ATOM     78  C   UNL     1      -4.158  -1.089 -14.621  1.00  0.00     0.040 A 
ATOM     79  C   UNL     1      -4.772  -0.785 -12.312  1.00  0.00     0.040 A 
ATOM     80  F   UNL     1      -4.109   1.156 -11.169  1.00  0.00    -0.206 F 
ATOM     81  C   UNL     1      -4.800  -1.553 -13.475  1.00  0.00     0.006 A 
ENDBRANCH  53  74
BRANCH  65  82
ATOM     82  C   UNL     1      -4.645   7.117 -16.405  1.00  0.00     0.057 A 
ATOM     83  C   UNL     1      -5.943   7.370 -15.945  1.00  0.00     0.134 A 
ATOM     84  C   UNL     1      -4.367   7.388 -17.750  1.00  0.00     0.134 A 
ATOM     85  F   UNL     1      -6.274   7.117 -14.670  1.00  0.00    -0.206 F 
ATOM     86  C   UNL     1      -6.933   7.862 -16.797  1.00  0.00     0.040 A 
ATOM     87  C   UNL     1      -5.341   7.903 -18.605  1.00  0.00     0.040 A 
ATOM     88  F   UNL     1      -3.140   7.175 -18.248  1.00  0.00    -0.206 F 
ATOM     89  C   UNL     1      -6.630   8.138 -18.129  1.00  0.00     0.006 A 
ENDBRANCH  65  82
ENDBRANCH  39  40
ENDBRANCH  31  34
ENDBRANCH  29  30
ENDBRANCH  28  29
ENDBRANCH  27  28
ENDBRANCH   3  27
TORSDOF 16
