REMARK SMILES COc1ccc(/C=C2\SC(=O)N(CC(=O)N[C@H](C)C(=O)NCCCNC(=O)c3ccc(-c4c5nc(c(-c6c(F)cccc6F)c6ccc([nH]6)c(-c6c(F)cccc6F)c6nc(c(-c7c(F)cccc7F)c7ccc4[nH]7)C=C6)C=C5)cc3)C2=O)cc1OC
REMARK SMILES IDX 19 1 20 2 21 3 17 5 18 6 16 7 14 8 15 9 13 11 12 12 7 13
REMARK SMILES IDX 8 14 9 15 82 16 10 17 83 18 11 19 6 20 3 21 4 22 85 23 5 24
REMARK SMILES IDX 84 25 2 26 1 27 86 28 87 29 22 30 23 31 24 32 25 33 26 34
REMARK SMILES IDX 27 36 28 37 29 38 81 39 30 40 80 41 31 42 32 43 33 44 74 45
REMARK SMILES IDX 34 46 79 47 73 48 75 49 35 50 78 51 72 52 71 53 36 55 62 56
REMARK SMILES IDX 45 57 61 58 46 59 49 60 60 61 76 62 47 63 48 64 59 66 77 67
REMARK SMILES IDX 50 68 37 69 38 70 43 71 39 72 40 73 42 74 44 75 41 76 63 77
REMARK SMILES IDX 64 78 69 79 65 80 66 81 68 82 70 83 67 84 51 85 52 86 57 87
REMARK SMILES IDX 53 88 54 89 56 90 58 91 55 92
REMARK H PARENT 21 4 16 10 25 35 75 54 49 65
REMARK Flexibility Score: inf
ROOT
ATOM      1  C   UNL     1       4.369   8.182   9.011  1.00  0.00     0.242 C 
ATOM      2  O   UNL     1       5.524   8.560   8.803  1.00  0.00    -0.273 OA
ATOM      3  N   UNL     1       3.494   9.080   9.540  1.00  0.00    -0.354 N 
ATOM      4  H   UNL     1       3.832  10.003   9.581  1.00  0.00     0.163 HD
ENDROOT
BRANCH   1   5
ATOM      5  C   UNL     1       3.946   6.743   8.686  1.00  0.00     0.168 C 
ATOM      6  C   UNL     1       3.676   5.886   9.915  1.00  0.00     0.041 C 
BRANCH   5   7
ATOM      7  N   UNL     1       2.820   6.761   7.755  1.00  0.00    -0.343 N 
ATOM      8  C   UNL     1       2.498   5.928   6.732  1.00  0.00     0.240 C 
ATOM      9  O   UNL     1       1.347   6.006   6.294  1.00  0.00    -0.273 OA
ATOM     10  H   UNL     1       2.188   7.503   7.894  1.00  0.00     0.164 HD
BRANCH   8  11
ATOM     11  C   UNL     1       3.453   4.846   6.239  1.00  0.00     0.229 C 
BRANCH  11  12
ATOM     12  N   UNL     1       4.767   5.359   5.904  1.00  0.00    -0.259 N 
ATOM     13  C   UNL     1       6.833   7.375   3.730  1.00  0.00     0.029 C 
ATOM     14  C   UNL     1       6.385   6.560   4.699  1.00  0.00     0.083 C 
ATOM     15  S   UNL     1       7.302   5.712   5.887  1.00  0.00    -0.022 SA
ATOM     16  C   UNL     1       4.941   6.239   4.861  1.00  0.00     0.268 C 
ATOM     17  C   UNL     1       5.894   4.906   6.532  1.00  0.00     0.294 C 
ATOM     18  O   UNL     1       4.057   6.689   4.147  1.00  0.00    -0.268 OA
ATOM     19  O   UNL     1       5.949   4.082   7.430  1.00  0.00    -0.261 OA
BRANCH  13  20
ATOM     20  C   UNL     1       8.247   7.650   3.441  1.00  0.00    -0.020 A 
ATOM     21  C   UNL     1      10.987   8.105   3.001  1.00  0.00     0.160 A 
ATOM     22  C   UNL     1      10.097   9.182   3.141  1.00  0.00     0.051 A 
ATOM     23  C   UNL     1      10.510   6.794   3.053  1.00  0.00     0.161 A 
ATOM     24  C   UNL     1       8.730   8.956   3.355  1.00  0.00     0.012 A 
ATOM     25  C   UNL     1       9.139   6.589   3.240  1.00  0.00     0.058 A 
BRANCH  21  26
ATOM     26  O   UNL     1      12.325   8.390   2.962  1.00  0.00    -0.493 OA
ATOM     27  C   UNL     1      12.761   8.748   1.652  1.00  0.00     0.278 C 
ENDBRANCH  21  26
BRANCH  23  28
ATOM     28  O   UNL     1      11.195   5.614   2.997  1.00  0.00    -0.493 OA
ATOM     29  C   UNL     1      12.545   5.622   2.574  1.00  0.00     0.278 C 
ENDBRANCH  23  28
ENDBRANCH  13  20
ENDBRANCH  11  12
ENDBRANCH   8  11
ENDBRANCH   5   7
ENDBRANCH   1   5
BRANCH   3  30
ATOM     30  C   UNL     1       2.147   8.909  10.054  1.00  0.00     0.117 C 
BRANCH  30  31
ATOM     31  C   UNL     1       2.114   8.994  11.573  1.00  0.00     0.042 C 
BRANCH  31  32
ATOM     32  C   UNL     1       2.563  10.342  12.118  1.00  0.00     0.118 C 
BRANCH  32  33
ATOM     33  N   UNL     1       1.704  11.433  11.683  1.00  0.00    -0.352 N 
ATOM     34  C   UNL     1       0.904  12.272  12.418  1.00  0.00     0.251 C 
ATOM     35  H   UNL     1       1.695  11.595  10.711  1.00  0.00     0.163 HD
ATOM     36  O   UNL     1       0.092  12.993  11.847  1.00  0.00    -0.269 OA
BRANCH  34  37
ATOM     37  C   UNL     1       1.007  12.295  13.891  1.00  0.00     0.039 A 
ATOM     38  C   UNL     1      -0.164  12.382  14.648  1.00  0.00     0.014 A 
ATOM     39  C   UNL     1       2.250  12.245  14.527  1.00  0.00     0.014 A 
ATOM     40  C   UNL     1      -0.089  12.353  16.041  1.00  0.00     0.010 A 
ATOM     41  C   UNL     1       2.316  12.116  15.910  1.00  0.00     0.010 A 
ATOM     42  C   UNL     1       1.148  12.180  16.683  1.00  0.00    -0.014 A 
BRANCH  42  43
ATOM     43  C   UNL     1       1.240  12.073  18.161  1.00  0.00     0.031 A 
ATOM     44  C   UNL     1       2.017  13.094  18.947  1.00  0.00     0.074 A 
ATOM     45  C   UNL     1       0.670  11.026  18.788  1.00  0.00     0.049 A 
ATOM     46  N   UNL     1       2.254  13.140  20.233  1.00  0.00    -0.248 NA
ATOM     47  C   UNL     1       2.631  14.193  18.185  1.00  0.00     0.031 C 
ATOM     48  C   UNL     1      -0.070   9.945  18.133  1.00  0.00     0.029 A 
ATOM     49  N   UNL     1       0.630  10.695  20.119  1.00  0.00    -0.354 N 
ATOM     50  C   UNL     1       3.049  14.262  20.431  1.00  0.00     0.074 A 
ATOM     51  C   UNL     1       3.308  14.832  19.127  1.00  0.00     0.031 C 
ATOM     52  C   UNL     1      -0.517   9.090  19.065  1.00  0.00     0.029 A 
ATOM     53  C   UNL     1      -0.059   9.534  20.377  1.00  0.00     0.049 A 
ATOM     54  H   UNL     1       1.053  11.238  20.823  1.00  0.00     0.167 HD
ATOM     55  C   UNL     1       3.501  14.787  21.595  1.00  0.00     0.037 A 
ATOM     56  C   UNL     1      -0.287   8.895  21.540  1.00  0.00     0.037 A 
ATOM     57  C   UNL     1       3.229  14.224  22.892  1.00  0.00     0.049 A 
ATOM     58  C   UNL     1       0.248   9.484  22.816  1.00  0.00     0.074 A 
ATOM     59  C   UNL     1       3.598  14.707  24.135  1.00  0.00     0.029 A 
ATOM     60  N   UNL     1       2.526  13.049  23.112  1.00  0.00    -0.354 N 
ATOM     61  N   UNL     1       0.939  10.583  22.995  1.00  0.00    -0.248 NA
ATOM     62  C   UNL     1      -0.035   8.745  24.055  1.00  0.00     0.031 C 
ATOM     63  C   UNL     1       3.168  13.794  25.103  1.00  0.00     0.029 A 
ATOM     64  C   UNL     1       2.475  12.776  24.469  1.00  0.00     0.049 A 
ATOM     65  H   UNL     1       2.123  12.491  22.407  1.00  0.00     0.167 HD
ATOM     66  C   UNL     1       1.145  10.686  24.365  1.00  0.00     0.074 A 
ATOM     67  C   UNL     1       0.492   9.544  24.971  1.00  0.00     0.031 C 
ATOM     68  C   UNL     1       1.814  11.639  25.059  1.00  0.00     0.037 A 
BRANCH  55  69
ATOM     69  C   UNL     1       4.336  16.033  21.516  1.00  0.00     0.057 A 
ATOM     70  C   UNL     1       3.795  17.265  21.121  1.00  0.00     0.134 A 
ATOM     71  C   UNL     1       5.690  16.011  21.873  1.00  0.00     0.134 A 
ATOM     72  F   UNL     1       2.507  17.355  20.755  1.00  0.00    -0.206 F 
ATOM     73  C   UNL     1       4.576  18.419  21.054  1.00  0.00     0.040 A 
ATOM     74  C   UNL     1       6.474  17.166  21.841  1.00  0.00     0.040 A 
ATOM     75  F   UNL     1       6.273  14.869  22.267  1.00  0.00    -0.206 F 
ATOM     76  C   UNL     1       5.919  18.373  21.423  1.00  0.00     0.006 A 
ENDBRANCH  55  69
BRANCH  56  77
ATOM     77  C   UNL     1      -1.074   7.635  21.557  1.00  0.00     0.057 A 
ATOM     78  C   UNL     1      -2.342   7.582  22.149  1.00  0.00     0.134 A 
ATOM     79  C   UNL     1      -0.576   6.452  20.997  1.00  0.00     0.134 A 
ATOM     80  F   UNL     1      -2.867   8.677  22.717  1.00  0.00    -0.206 F 
ATOM     81  C   UNL     1      -3.074   6.395  22.207  1.00  0.00     0.040 A 
ATOM     82  C   UNL     1      -1.310   5.265  21.021  1.00  0.00     0.040 A 
ATOM     83  F   UNL     1       0.628   6.436  20.405  1.00  0.00    -0.206 F 
ATOM     84  C   UNL     1      -2.559   5.233  21.637  1.00  0.00     0.006 A 
ENDBRANCH  56  77
BRANCH  68  85
ATOM     85  C   UNL     1       1.836  11.513  26.556  1.00  0.00     0.057 A 
ATOM     86  C   UNL     1       2.567  10.512  27.208  1.00  0.00     0.134 A 
ATOM     87  C   UNL     1       1.142  12.431  27.355  1.00  0.00     0.134 A 
ATOM     88  F   UNL     1       3.244   9.594  26.502  1.00  0.00    -0.206 F 
ATOM     89  C   UNL     1       2.583  10.412  28.601  1.00  0.00     0.040 A 
ATOM     90  C   UNL     1       1.177  12.361  28.748  1.00  0.00     0.040 A 
ATOM     91  F   UNL     1       0.430  13.421  26.796  1.00  0.00    -0.206 F 
ATOM     92  C   UNL     1       1.893  11.343  29.375  1.00  0.00     0.006 A 
ENDBRANCH  68  85
ENDBRANCH  42  43
ENDBRANCH  34  37
ENDBRANCH  32  33
ENDBRANCH  31  32
ENDBRANCH  30  31
ENDBRANCH   3  30
TORSDOF 16
