REMARK SMILES C[C@@H](Oc1ccc2c(c1)OCO2)C(=O)N1CCn2nc(C(=O)NCCCNC(=O)c3ccc(-c4c5nc(c(-c6c(F)cccc6F)c6ccc([nH]6)c(-c6c(F)cccc6F)c6nc(c(-c7c(F)cccc7F)c7ccc4[nH]7)C=C6)C=C5)cc3)cc2C1
REMARK SMILES IDX 24 1 23 2 21 3 22 4 20 6 15 7 16 8 86 9 17 10 85 11 18 12
REMARK SMILES IDX 84 13 19 14 13 15 14 16 2 17 1 18 3 19 4 20 5 21 9 22 6 23
REMARK SMILES IDX 8 24 7 25 10 26 12 27 11 28 25 29 26 30 27 31 28 32 29 34
REMARK SMILES IDX 30 35 31 36 83 37 32 38 82 39 33 40 34 41 35 42 76 43 36 44
REMARK SMILES IDX 81 45 75 46 77 47 37 48 80 49 74 50 73 51 38 53 64 54 47 55
REMARK SMILES IDX 63 56 48 57 51 58 62 59 78 60 49 61 50 62 61 64 79 65 52 66
REMARK SMILES IDX 39 67 40 68 45 69 41 70 42 71 44 72 46 73 43 74 65 75 66 76
REMARK SMILES IDX 71 77 67 78 68 79 70 80 72 81 69 82 53 83 54 84 59 85 55 86
REMARK SMILES IDX 56 87 58 88 60 89 57 90
REMARK H PARENT 23 5 27 33 77 52 51 63
REMARK Flexibility Score: inf
ROOT
ATOM      1  C   UNL     1      -7.404  -4.451   0.414  1.00  0.00     0.118 C 
ENDROOT
BRANCH   1   2
ATOM      2  N   UNL     1      -7.072  -4.734   1.798  1.00  0.00    -0.351 N 
ATOM      3  C   UNL     1      -5.966  -4.392   2.551  1.00  0.00     0.271 C 
ATOM      4  O   UNL     1      -6.011  -4.686   3.748  1.00  0.00    -0.267 OA
ATOM      5  H   UNL     1      -7.750  -5.259   2.282  1.00  0.00     0.163 HD
BRANCH   3   6
ATOM      6  C   UNL     1      -4.821  -3.686   1.940  1.00  0.00     0.150 A 
ATOM      7  N   UNL     1      -1.509  -1.330  -0.232  1.00  0.00    -0.332 N 
ATOM      8  C   UNL     1      -1.014  -1.341   1.153  1.00  0.00     0.143 C 
ATOM      9  C   UNL     1      -2.784  -1.936  -0.578  1.00  0.00     0.175 C 
ATOM     10  C   UNL     1      -2.013  -1.610   2.276  1.00  0.00     0.166 C 
ATOM     11  C   UNL     1      -3.428  -2.639   0.540  1.00  0.00     0.059 A 
ATOM     12  N   UNL     1      -3.100  -2.436   1.834  1.00  0.00    -0.265 N 
ATOM     13  C   UNL     1      -4.446  -3.557   0.573  1.00  0.00     0.061 A 
ATOM     14  N   UNL     1      -3.935  -3.013   2.708  1.00  0.00    -0.167 NA
BRANCH   7  15
ATOM     15  C   UNL     1      -0.771  -0.894  -1.337  1.00  0.00     0.263 C 
ATOM     16  O   UNL     1      -1.325  -0.694  -2.426  1.00  0.00    -0.271 OA
BRANCH  15  17
ATOM     17  C   UNL     1       0.755  -0.732  -1.229  1.00  0.00     0.259 C 
ATOM     18  C   UNL     1       1.155   0.442  -0.345  1.00  0.00     0.064 C 
BRANCH  17  19
ATOM     19  O   UNL     1       1.244  -2.000  -0.763  1.00  0.00    -0.481 OA
BRANCH  19  20
ATOM     20  C   UNL     1       2.562  -2.224  -1.039  1.00  0.00     0.124 A 
ATOM     21  C   UNL     1       3.533  -1.729  -0.154  1.00  0.00     0.050 A 
ATOM     22  C   UNL     1       2.911  -3.079  -2.087  1.00  0.00     0.097 A 
ATOM     23  C   UNL     1       4.879  -2.043  -0.331  1.00  0.00     0.054 A 
ATOM     24  C   UNL     1       4.249  -3.389  -2.226  1.00  0.00     0.169 A 
ATOM     25  C   UNL     1       5.204  -2.881  -1.374  1.00  0.00     0.166 A 
ATOM     26  O   UNL     1       4.786  -4.222  -3.158  1.00  0.00    -0.453 OA
ATOM     27  O   UNL     1       6.455  -3.323  -1.666  1.00  0.00    -0.454 OA
ATOM     28  C   UNL     1       6.180  -4.195  -2.781  1.00  0.00     0.468 C 
ENDBRANCH  19  20
ENDBRANCH  17  19
ENDBRANCH  15  17
ENDBRANCH   7  15
ENDBRANCH   3   6
ENDBRANCH   1   2
BRANCH   1  29
ATOM     29  C   UNL     1      -6.952  -5.574  -0.530  1.00  0.00     0.042 C 
BRANCH  29  30
ATOM     30  C   UNL     1      -8.000  -6.666  -0.640  1.00  0.00     0.118 C 
BRANCH  30  31
ATOM     31  N   UNL     1      -9.197  -6.200  -1.345  1.00  0.00    -0.352 N 
ATOM     32  C   UNL     1     -10.386  -6.863  -1.589  1.00  0.00     0.251 C 
ATOM     33  H   UNL     1      -9.148  -5.282  -1.697  1.00  0.00     0.163 HD
ATOM     34  O   UNL     1     -11.160  -6.468  -2.439  1.00  0.00    -0.269 OA
BRANCH  32  35
ATOM     35  C   UNL     1     -10.697  -8.061  -0.792  1.00  0.00     0.039 A 
ATOM     36  C   UNL     1     -11.308  -9.181  -1.366  1.00  0.00     0.014 A 
ATOM     37  C   UNL     1     -10.340  -8.052   0.550  1.00  0.00     0.014 A 
ATOM     38  C   UNL     1     -11.485 -10.322  -0.588  1.00  0.00     0.010 A 
ATOM     39  C   UNL     1     -10.334  -9.222   1.251  1.00  0.00     0.010 A 
ATOM     40  C   UNL     1     -10.980 -10.332   0.718  1.00  0.00    -0.014 A 
BRANCH  40  41
ATOM     41  C   UNL     1     -11.014 -11.523   1.554  1.00  0.00     0.031 A 
ATOM     42  C   UNL     1     -10.202 -12.654   1.029  1.00  0.00     0.074 A 
ATOM     43  C   UNL     1     -11.467 -11.453   2.826  1.00  0.00     0.049 A 
ATOM     44  N   UNL     1     -10.609 -13.813   0.627  1.00  0.00    -0.248 NA
ATOM     45  C   UNL     1      -8.771 -12.410   0.771  1.00  0.00     0.031 C 
ATOM     46  C   UNL     1     -11.952 -10.261   3.542  1.00  0.00     0.029 A 
ATOM     47  N   UNL     1     -11.461 -12.397   3.804  1.00  0.00    -0.354 N 
ATOM     48  C   UNL     1      -9.454 -14.521   0.295  1.00  0.00     0.074 A 
ATOM     49  C   UNL     1      -8.408 -13.545   0.172  1.00  0.00     0.031 C 
ATOM     50  C   UNL     1     -11.956 -10.496   4.871  1.00  0.00     0.029 A 
ATOM     51  C   UNL     1     -11.651 -11.896   5.089  1.00  0.00     0.049 A 
ATOM     52  H   UNL     1     -11.332 -13.356   3.619  1.00  0.00     0.167 HD
ATOM     53  C   UNL     1      -9.392 -15.873   0.462  1.00  0.00     0.037 A 
ATOM     54  C   UNL     1     -11.535 -12.585   6.250  1.00  0.00     0.037 A 
ATOM     55  C   UNL     1     -10.715 -16.416   0.656  1.00  0.00     0.049 A 
ATOM     56  C   UNL     1     -11.590 -14.024   5.904  1.00  0.00     0.074 A 
ATOM     57  C   UNL     1     -11.874 -16.502  -0.087  1.00  0.00     0.029 A 
ATOM     58  N   UNL     1     -11.071 -16.654   1.959  1.00  0.00    -0.354 N 
ATOM     59  N   UNL     1     -12.650 -14.620   5.437  1.00  0.00    -0.248 NA
ATOM     60  C   UNL     1     -10.333 -14.720   5.681  1.00  0.00     0.031 C 
ATOM     61  C   UNL     1     -12.936 -16.393   0.861  1.00  0.00     0.029 A 
ATOM     62  C   UNL     1     -12.381 -16.308   2.139  1.00  0.00     0.049 A 
ATOM     63  H   UNL     1     -10.477 -17.016   2.655  1.00  0.00     0.167 HD
ATOM     64  C   UNL     1     -12.164 -15.518   4.500  1.00  0.00     0.074 A 
ATOM     65  C   UNL     1     -10.738 -15.633   4.794  1.00  0.00     0.031 C 
ATOM     66  C   UNL     1     -12.910 -15.837   3.401  1.00  0.00     0.037 A 
BRANCH  53  67
ATOM     67  C   UNL     1      -8.161 -16.636   0.932  1.00  0.00     0.057 A 
ATOM     68  C   UNL     1      -8.253 -18.037   1.065  1.00  0.00     0.134 A 
ATOM     69  C   UNL     1      -7.032 -16.063   1.552  1.00  0.00     0.134 A 
ATOM     70  F   UNL     1      -9.270 -18.716   0.513  1.00  0.00    -0.206 F 
ATOM     71  C   UNL     1      -7.364 -18.784   1.848  1.00  0.00     0.040 A 
ATOM     72  C   UNL     1      -6.109 -16.808   2.295  1.00  0.00     0.040 A 
ATOM     73  F   UNL     1      -6.794 -14.748   1.565  1.00  0.00    -0.206 F 
ATOM     74  C   UNL     1      -6.295 -18.167   2.480  1.00  0.00     0.006 A 
ENDBRANCH  53  67
BRANCH  54  75
ATOM     75  C   UNL     1     -11.111 -12.117   7.587  1.00  0.00     0.057 A 
ATOM     76  C   UNL     1     -11.393 -12.864   8.739  1.00  0.00     0.134 A 
ATOM     77  C   UNL     1     -10.172 -11.082   7.736  1.00  0.00     0.134 A 
ATOM     78  F   UNL     1     -12.250 -13.895   8.687  1.00  0.00    -0.206 F 
ATOM     79  C   UNL     1     -10.754 -12.621   9.961  1.00  0.00     0.040 A 
ATOM     80  C   UNL     1      -9.529 -10.825   8.952  1.00  0.00     0.040 A 
ATOM     81  F   UNL     1      -9.780 -10.348   6.683  1.00  0.00    -0.206 F 
ATOM     82  C   UNL     1      -9.807 -11.607  10.067  1.00  0.00     0.006 A 
ENDBRANCH  54  75
BRANCH  66  83
ATOM     83  C   UNL     1     -14.370 -15.475   3.429  1.00  0.00     0.057 A 
ATOM     84  C   UNL     1     -14.865 -14.162   3.430  1.00  0.00     0.134 A 
ATOM     85  C   UNL     1     -15.310 -16.503   3.325  1.00  0.00     0.134 A 
ATOM     86  F   UNL     1     -14.040 -13.109   3.437  1.00  0.00    -0.206 F 
ATOM     87  C   UNL     1     -16.235 -13.889   3.373  1.00  0.00     0.040 A 
ATOM     88  C   UNL     1     -16.679 -16.244   3.232  1.00  0.00     0.040 A 
ATOM     89  F   UNL     1     -14.907 -17.782   3.265  1.00  0.00    -0.206 F 
ATOM     90  C   UNL     1     -17.147 -14.934   3.266  1.00  0.00     0.006 A 
ENDBRANCH  66  83
ENDBRANCH  40  41
ENDBRANCH  32  35
ENDBRANCH  30  31
ENDBRANCH  29  30
ENDBRANCH   1  29
TORSDOF 14
