REMARK SMILES Cc1ccc(NC(=O)CN2C(=O)S/C(=C\c3cc(Cl)c(OCC(=O)NCCCNC(=O)c4ccc(-c5c6nc(c(-c7c(F)cccc7F)c7ccc([nH]7)c(-c7c(F)cccc7F)c7nc(c(-c8c(F)cccc8F)c8ccc5[nH]8)C=C7)C=C6)cc4)c(Cl)c3)C2=O)cc1
REMARK SMILES IDX 23 1 24 2 25 3 22 5 21 6 20 7 16 8 17 9 88 10 18 11 86 12
REMARK SMILES IDX 19 13 87 14 15 15 10 16 11 17 89 18 12 19 13 20 14 21 90 22
REMARK SMILES IDX 9 23 7 24 6 25 8 27 5 28 1 29 2 30 3 31 92 32 4 33 91 34
REMARK SMILES IDX 26 35 27 36 28 37 29 38 30 39 31 41 32 42 33 43 85 44 34 45
REMARK SMILES IDX 84 46 35 47 36 48 37 49 78 50 38 51 83 52 77 53 79 54 39 55
REMARK SMILES IDX 82 56 76 57 75 58 40 60 66 61 49 62 65 63 50 64 53 65 64 66
REMARK SMILES IDX 80 67 51 68 52 69 63 71 81 72 54 73 41 74 42 75 47 76 43 77
REMARK SMILES IDX 44 78 46 79 48 80 45 81 67 82 68 83 73 84 69 85 70 86 72 87
REMARK SMILES IDX 74 88 71 89 55 90 56 91 61 92 57 93 58 94 60 95 62 96 59 97
REMARK H PARENT 25 4 6 26 29 40 79 59 53 70
REMARK Flexibility Score: inf
ROOT
ATOM      1  C   UNL     1      -7.540  -3.208 -10.748  1.00  0.00     0.257 C 
ATOM      2  O   UNL     1      -8.318  -3.309  -9.800  1.00  0.00    -0.271 OA
ATOM      3  N   UNL     1      -7.535  -4.229 -11.655  1.00  0.00    -0.353 N 
ATOM      4  H   UNL     1      -8.079  -5.012 -11.412  1.00  0.00     0.163 HD
ENDROOT
BRANCH   1   5
ATOM      5  C   UNL     1      -6.626  -1.985 -10.948  1.00  0.00     0.329 C 
BRANCH   5   6
ATOM      6  O   UNL     1      -5.235  -2.164 -10.752  1.00  0.00    -0.481 OA
BRANCH   6   7
ATOM      7  C   UNL     1      -4.661  -2.316  -9.518  1.00  0.00     0.157 A 
ATOM      8  C   UNL     1      -3.127  -2.759  -7.134  1.00  0.00    -0.021 A 
ATOM      9  C   UNL     1      -2.521  -2.860  -8.379  1.00  0.00     0.032 A 
ATOM     10  C   UNL     1      -4.497  -2.473  -7.103  1.00  0.00     0.032 A 
ATOM     11  C   UNL     1      -3.282  -2.654  -9.548  1.00  0.00     0.085 A 
ATOM     12  C   UNL     1      -5.240  -2.178  -8.255  1.00  0.00     0.085 A 
ATOM     13  Cl  UNL     1      -2.441  -2.819 -11.061  1.00  0.00    -0.080 Cl
ATOM     14  Cl  UNL     1      -6.805  -1.544  -7.900  1.00  0.00    -0.080 Cl
BRANCH   8  15
ATOM     15  C   UNL     1      -2.417  -3.008  -5.861  1.00  0.00     0.029 C 
ATOM     16  N   UNL     1      -3.104  -2.066  -2.500  1.00  0.00    -0.259 N 
ATOM     17  C   UNL     1      -3.912  -1.108  -3.057  1.00  0.00     0.294 C 
ATOM     18  C   UNL     1      -2.299  -2.757  -3.385  1.00  0.00     0.268 C 
ATOM     19  O   UNL     1      -4.936  -0.632  -2.601  1.00  0.00    -0.261 OA
ATOM     20  S   UNL     1      -3.321  -0.703  -4.649  1.00  0.00    -0.022 SA
ATOM     21  C   UNL     1      -2.532  -2.231  -4.768  1.00  0.00     0.083 C 
ATOM     22  O   UNL     1      -1.625  -3.747  -3.135  1.00  0.00    -0.268 OA
BRANCH  16  23
ATOM     23  C   UNL     1      -3.441  -2.618  -1.196  1.00  0.00     0.230 C 
BRANCH  23  24
ATOM     24  C   UNL     1      -3.794  -1.548  -0.159  1.00  0.00     0.244 C 
ATOM     25  N   UNL     1      -2.979  -0.473   0.054  1.00  0.00    -0.325 N 
ATOM     26  H   UNL     1      -3.450   0.344   0.337  1.00  0.00     0.169 HD
ATOM     27  O   UNL     1      -4.842  -1.629   0.488  1.00  0.00    -0.273 OA
BRANCH  25  28
ATOM     28  C   UNL     1      -1.590  -0.332  -0.058  1.00  0.00     0.041 A 
ATOM     29  C   UNL     1       2.676   0.314  -0.036  1.00  0.00     0.044 C 
ATOM     30  C   UNL     1       1.192   0.105  -0.053  1.00  0.00    -0.051 A 
ATOM     31  C   UNL     1       0.673  -1.192   0.008  1.00  0.00     0.005 A 
ATOM     32  C   UNL     1       0.307   1.185  -0.114  1.00  0.00     0.005 A 
ATOM     33  C   UNL     1      -0.708  -1.409   0.006  1.00  0.00     0.026 A 
ATOM     34  C   UNL     1      -1.074   0.967  -0.102  1.00  0.00     0.026 A 
ENDBRANCH  25  28
ENDBRANCH  23  24
ENDBRANCH  16  23
ENDBRANCH   8  15
ENDBRANCH   6   7
ENDBRANCH   5   6
ENDBRANCH   1   5
BRANCH   3  35
ATOM     35  C   UNL     1      -6.842  -4.323 -12.924  1.00  0.00     0.117 C 
BRANCH  35  36
ATOM     36  C   UNL     1      -5.500  -5.022 -12.807  1.00  0.00     0.042 C 
BRANCH  36  37
ATOM     37  C   UNL     1      -5.604  -6.515 -12.532  1.00  0.00     0.118 C 
BRANCH  37  38
ATOM     38  N   UNL     1      -5.865  -7.333 -13.718  1.00  0.00    -0.352 N 
ATOM     39  C   UNL     1      -5.856  -8.710 -13.887  1.00  0.00     0.251 C 
ATOM     40  H   UNL     1      -6.084  -6.821 -14.530  1.00  0.00     0.163 HD
ATOM     41  O   UNL     1      -6.139  -9.187 -14.983  1.00  0.00    -0.269 OA
BRANCH  39  42
ATOM     42  C   UNL     1      -5.696  -9.609 -12.716  1.00  0.00     0.039 A 
ATOM     43  C   UNL     1      -6.607 -10.669 -12.602  1.00  0.00     0.014 A 
ATOM     44  C   UNL     1      -4.970  -9.196 -11.612  1.00  0.00     0.014 A 
ATOM     45  C   UNL     1      -7.056 -11.033 -11.341  1.00  0.00     0.010 A 
ATOM     46  C   UNL     1      -5.524  -9.421 -10.377  1.00  0.00     0.010 A 
ATOM     47  C   UNL     1      -6.624 -10.276 -10.262  1.00  0.00    -0.014 A 
BRANCH  47  48
ATOM     48  C   UNL     1      -7.263 -10.263  -8.962  1.00  0.00     0.031 A 
ATOM     49  C   UNL     1      -6.583 -10.949  -7.853  1.00  0.00     0.074 A 
ATOM     50  C   UNL     1      -8.339  -9.467  -8.774  1.00  0.00     0.049 A 
ATOM     51  N   UNL     1      -7.112 -11.163  -6.704  1.00  0.00    -0.248 NA
ATOM     52  C   UNL     1      -5.243 -11.519  -7.982  1.00  0.00     0.031 C 
ATOM     53  C   UNL     1      -8.896  -8.996  -7.509  1.00  0.00     0.029 A 
ATOM     54  N   UNL     1      -9.285  -9.073  -9.733  1.00  0.00    -0.354 N 
ATOM     55  C   UNL     1      -6.119 -11.612  -5.865  1.00  0.00     0.074 A 
ATOM     56  C   UNL     1      -5.021 -11.940  -6.734  1.00  0.00     0.031 C 
ATOM     57  C   UNL     1     -10.181  -8.649  -7.700  1.00  0.00     0.029 A 
ATOM     58  C   UNL     1     -10.526  -9.048  -9.053  1.00  0.00     0.049 A 
ATOM     59  H   UNL     1      -9.120  -8.860 -10.680  1.00  0.00     0.167 HD
ATOM     60  C   UNL     1      -6.328 -11.506  -4.525  1.00  0.00     0.037 A 
ATOM     61  C   UNL     1     -11.513  -9.941  -9.363  1.00  0.00     0.037 A 
ATOM     62  C   UNL     1      -7.743 -11.222  -4.269  1.00  0.00     0.049 A 
ATOM     63  C   UNL     1     -11.876 -10.843  -8.205  1.00  0.00     0.074 A 
ATOM     64  C   UNL     1      -8.434 -10.066  -3.951  1.00  0.00     0.029 A 
ATOM     65  N   UNL     1      -8.696 -12.154  -4.675  1.00  0.00    -0.354 N 
ATOM     66  N   UNL     1     -11.069 -11.118  -7.214  1.00  0.00    -0.248 NA
ATOM     67  C   UNL     1     -13.182 -11.475  -8.053  1.00  0.00     0.031 C 
ATOM     68  C   UNL     1      -9.804 -10.280  -4.273  1.00  0.00     0.029 A 
ATOM     69  C   UNL     1      -9.949 -11.578  -4.738  1.00  0.00     0.049 A 
ATOM     70  H   UNL     1      -8.502 -13.095  -4.887  1.00  0.00     0.167 HD
ATOM     71  C   UNL     1     -11.713 -11.921  -6.307  1.00  0.00     0.074 A 
ATOM     72  C   UNL     1     -13.034 -12.112  -6.878  1.00  0.00     0.031 C 
ATOM     73  C   UNL     1     -11.109 -12.356  -5.160  1.00  0.00     0.037 A 
BRANCH  60  74
ATOM     74  C   UNL     1      -5.251 -11.435  -3.458  1.00  0.00     0.057 A 
ATOM     75  C   UNL     1      -5.607 -11.152  -2.123  1.00  0.00     0.134 A 
ATOM     76  C   UNL     1      -3.858 -11.505  -3.669  1.00  0.00     0.134 A 
ATOM     77  F   UNL     1      -6.890 -11.059  -1.744  1.00  0.00    -0.206 F 
ATOM     78  C   UNL     1      -4.667 -10.923  -1.106  1.00  0.00     0.040 A 
ATOM     79  C   UNL     1      -2.908 -11.307  -2.655  1.00  0.00     0.040 A 
ATOM     80  F   UNL     1      -3.314 -11.730  -4.865  1.00  0.00    -0.206 F 
ATOM     81  C   UNL     1      -3.309 -11.000  -1.369  1.00  0.00     0.006 A 
ENDBRANCH  60  74
BRANCH  61  82
ATOM     82  C   UNL     1     -11.506 -10.316 -10.804  1.00  0.00     0.057 A 
ATOM     83  C   UNL     1     -11.777  -9.303 -11.744  1.00  0.00     0.134 A 
ATOM     84  C   UNL     1     -10.812 -11.439 -11.266  1.00  0.00     0.134 A 
ATOM     85  F   UNL     1     -12.457  -8.206 -11.371  1.00  0.00    -0.206 F 
ATOM     86  C   UNL     1     -11.238  -9.325 -13.033  1.00  0.00     0.040 A 
ATOM     87  C   UNL     1     -10.289 -11.482 -12.566  1.00  0.00     0.040 A 
ATOM     88  F   UNL     1     -10.509 -12.445 -10.435  1.00  0.00    -0.206 F 
ATOM     89  C   UNL     1     -10.451 -10.400 -13.431  1.00  0.00     0.006 A 
ENDBRANCH  61  82
BRANCH  73  90
ATOM     90  C   UNL     1     -11.591 -13.487  -4.272  1.00  0.00     0.057 A 
ATOM     91  C   UNL     1     -12.450 -14.515  -4.689  1.00  0.00     0.134 A 
ATOM     92  C   UNL     1     -11.057 -13.659  -2.972  1.00  0.00     0.134 A 
ATOM     93  F   UNL     1     -12.937 -14.569  -5.935  1.00  0.00    -0.206 F 
ATOM     94  C   UNL     1     -12.805 -15.588  -3.859  1.00  0.00     0.040 A 
ATOM     95  C   UNL     1     -11.352 -14.759  -2.161  1.00  0.00     0.040 A 
ATOM     96  F   UNL     1     -10.195 -12.783  -2.436  1.00  0.00    -0.206 F 
ATOM     97  C   UNL     1     -12.246 -15.722  -2.596  1.00  0.00     0.006 A 
ENDBRANCH  73  90
ENDBRANCH  47  48
ENDBRANCH  39  42
ENDBRANCH  37  38
ENDBRANCH  36  37
ENDBRANCH  35  36
ENDBRANCH   3  35
TORSDOF 16
