REMARK SMILES CC(C)(C)N(CC(=O)NCCCNC(=O)c1ccc(-c2c3nc(c(-c4c(F)cccc4F)c4ccc([nH]4)c(-c4c(F)cccc4F)c4nc(c(-c5c(F)cccc5F)c5ccc2[nH]5)C=C4)C=C3)cc1)C(=O)NCCc1cnc[nH]1
REMARK SMILES IDX 7 1 8 2 9 3 6 5 5 6 2 7 1 8 3 9 4 10 70 11 71 12 72 13 73 15
REMARK SMILES IDX 74 16 75 17 76 18 79 19 77 20 78 21 10 23 11 24 12 25 13 26
REMARK SMILES IDX 14 27 15 29 16 30 17 31 69 32 18 33 68 34 19 35 20 36 21 37
REMARK SMILES IDX 62 38 22 39 67 40 61 41 63 42 23 43 66 44 60 45 59 46 24 48
REMARK SMILES IDX 50 49 33 50 49 51 34 52 37 53 48 54 64 55 35 56 36 57 47 59
REMARK SMILES IDX 65 60 38 61 25 62 26 63 31 64 27 65 28 66 30 67 32 68 29 69
REMARK SMILES IDX 51 70 52 71 57 72 53 73 54 74 56 75 58 76 55 77 39 78 40 79
REMARK SMILES IDX 45 80 41 81 42 82 44 83 46 84 43 85
REMARK H PARENT 9 4 72 14 79 22 13 28 63 47 37 58
REMARK Flexibility Score: inf
ROOT
ATOM      1  C   UNL     1       3.356  -2.295  -1.494  1.00  0.00     0.239 C 
ATOM      2  O   UNL     1       3.857  -2.693  -2.551  1.00  0.00    -0.273 OA
ATOM      3  N   UNL     1       4.205  -2.121  -0.444  1.00  0.00    -0.354 N 
ATOM      4  H   UNL     1       5.070  -2.585  -0.516  1.00  0.00     0.163 HD
ENDROOT
BRANCH   1   5
ATOM      5  C   UNL     1       1.883  -1.850  -1.442  1.00  0.00     0.221 C 
BRANCH   5   6
ATOM      6  N   UNL     1       1.061  -2.284  -0.300  1.00  0.00    -0.311 N 
BRANCH   6   7
ATOM      7  C   UNL     1       0.209  -1.250   0.437  1.00  0.00     0.037 C 
ATOM      8  C   UNL     1       0.447   0.223   0.004  1.00  0.00     0.034 C 
ATOM      9  C   UNL     1       0.452  -1.272   1.967  1.00  0.00     0.034 C 
ATOM     10  C   UNL     1      -1.294  -1.511   0.160  1.00  0.00     0.034 C 
ENDBRANCH   6   7
BRANCH   6  11
ATOM     11  C   UNL     1       0.788  -3.608  -0.038  1.00  0.00     0.318 C 
ATOM     12  O   UNL     1       0.163  -3.973   0.965  1.00  0.00    -0.249 OA
ATOM     13  N   UNL     1       1.119  -4.644  -0.818  1.00  0.00    -0.338 N 
ATOM     14  H   UNL     1       0.856  -5.484  -0.378  1.00  0.00     0.165 HD
BRANCH  13  15
ATOM     15  C   UNL     1       1.741  -4.944  -2.106  1.00  0.00     0.124 C 
BRANCH  15  16
ATOM     16  C   UNL     1       3.114  -5.611  -1.932  1.00  0.00     0.077 C 
BRANCH  16  17
ATOM     17  C   UNL     1       3.086  -7.102  -1.804  1.00  0.00     0.036 A 
ATOM     18  C   UNL     1       3.990  -8.048  -2.247  1.00  0.00     0.134 A 
ATOM     19  N   UNL     1       2.116  -7.838  -1.169  1.00  0.00    -0.348 N 
ATOM     20  N   UNL     1       3.581  -9.314  -1.925  1.00  0.00    -0.245 NA
ATOM     21  C   UNL     1       2.448  -9.158  -1.284  1.00  0.00     0.196 A 
ATOM     22  H   UNL     1       1.321  -7.478  -0.712  1.00  0.00     0.167 HD
ENDBRANCH  16  17
ENDBRANCH  15  16
ENDBRANCH  13  15
ENDBRANCH   6  11
ENDBRANCH   5   6
ENDBRANCH   1   5
BRANCH   3  23
ATOM     23  C   UNL     1       4.008  -1.349   0.761  1.00  0.00     0.117 C 
BRANCH  23  24
ATOM     24  C   UNL     1       3.902  -2.209   2.012  1.00  0.00     0.042 C 
BRANCH  24  25
ATOM     25  C   UNL     1       5.182  -2.954   2.370  1.00  0.00     0.118 C 
BRANCH  25  26
ATOM     26  N   UNL     1       6.289  -2.050   2.656  1.00  0.00    -0.352 N 
ATOM     27  C   UNL     1       6.903  -1.705   3.830  1.00  0.00     0.251 C 
ATOM     28  H   UNL     1       6.663  -1.607   1.861  1.00  0.00     0.163 HD
ATOM     29  O   UNL     1       7.657  -0.728   3.833  1.00  0.00    -0.269 OA
BRANCH  27  30
ATOM     30  C   UNL     1       6.698  -2.463   5.086  1.00  0.00     0.039 A 
ATOM     31  C   UNL     1       6.770  -1.772   6.302  1.00  0.00     0.014 A 
ATOM     32  C   UNL     1       6.537  -3.850   5.097  1.00  0.00     0.014 A 
ATOM     33  C   UNL     1       6.651  -2.461   7.513  1.00  0.00     0.010 A 
ATOM     34  C   UNL     1       6.329  -4.525   6.299  1.00  0.00     0.010 A 
ATOM     35  C   UNL     1       6.410  -3.843   7.521  1.00  0.00    -0.014 A 
BRANCH  35  36
ATOM     36  C   UNL     1       6.297  -4.598   8.796  1.00  0.00     0.031 A 
ATOM     37  C   UNL     1       7.307  -5.663   9.136  1.00  0.00     0.074 A 
ATOM     38  C   UNL     1       5.264  -4.363   9.627  1.00  0.00     0.049 A 
ATOM     39  N   UNL     1       7.341  -6.475  10.162  1.00  0.00    -0.248 NA
ATOM     40  C   UNL     1       8.408  -5.861   8.180  1.00  0.00     0.031 C 
ATOM     41  C   UNL     1       4.193  -3.392   9.396  1.00  0.00     0.029 A 
ATOM     42  N   UNL     1       4.942  -4.931  10.835  1.00  0.00    -0.354 N 
ATOM     43  C   UNL     1       8.445  -7.294   9.961  1.00  0.00     0.074 A 
ATOM     44  C   UNL     1       9.028  -6.913   8.693  1.00  0.00     0.031 C 
ATOM     45  C   UNL     1       3.349  -3.412  10.440  1.00  0.00     0.029 A 
ATOM     46  C   UNL     1       3.799  -4.418  11.397  1.00  0.00     0.049 A 
ATOM     47  H   UNL     1       5.480  -5.639  11.257  1.00  0.00     0.167 HD
ATOM     48  C   UNL     1       8.946  -8.260  10.768  1.00  0.00     0.037 A 
ATOM     49  C   UNL     1       3.184  -4.724  12.555  1.00  0.00     0.037 A 
ATOM     50  C   UNL     1       8.396  -8.607  12.052  1.00  0.00     0.049 A 
ATOM     51  C   UNL     1       3.773  -5.780  13.446  1.00  0.00     0.074 A 
ATOM     52  C   UNL     1       8.870  -9.524  12.974  1.00  0.00     0.029 A 
ATOM     53  N   UNL     1       7.253  -8.044  12.597  1.00  0.00    -0.354 N 
ATOM     54  N   UNL     1       4.848  -6.508  13.267  1.00  0.00    -0.248 NA
ATOM     55  C   UNL     1       3.065  -6.054  14.705  1.00  0.00     0.031 C 
ATOM     56  C   UNL     1       7.997  -9.535  14.067  1.00  0.00     0.029 A 
ATOM     57  C   UNL     1       6.999  -8.602  13.839  1.00  0.00     0.049 A 
ATOM     58  H   UNL     1       6.704  -7.351  12.166  1.00  0.00     0.167 HD
ATOM     59  C   UNL     1       4.958  -7.308  14.396  1.00  0.00     0.074 A 
ATOM     60  C   UNL     1       3.849  -6.966  15.262  1.00  0.00     0.031 C 
ATOM     61  C   UNL     1       5.893  -8.244  14.689  1.00  0.00     0.037 A 
BRANCH  48  62
ATOM     62  C   UNL     1      10.159  -9.001  10.288  1.00  0.00     0.057 A 
ATOM     63  C   UNL     1      11.422  -8.396  10.241  1.00  0.00     0.134 A 
ATOM     64  C   UNL     1      10.069 -10.341   9.891  1.00  0.00     0.134 A 
ATOM     65  F   UNL     1      11.573  -7.111  10.595  1.00  0.00    -0.206 F 
ATOM     66  C   UNL     1      12.547  -9.089   9.791  1.00  0.00     0.040 A 
ATOM     67  C   UNL     1      11.192 -11.052   9.463  1.00  0.00     0.040 A 
ATOM     68  F   UNL     1       8.891 -10.982   9.918  1.00  0.00    -0.206 F 
ATOM     69  C   UNL     1      12.434 -10.423   9.406  1.00  0.00     0.006 A 
ENDBRANCH  48  62
BRANCH  49  70
ATOM     70  C   UNL     1       1.955  -3.996  12.955  1.00  0.00     0.057 A 
ATOM     71  C   UNL     1       1.982  -3.061  13.996  1.00  0.00     0.134 A 
ATOM     72  C   UNL     1       0.731  -4.217  12.314  1.00  0.00     0.134 A 
ATOM     73  F   UNL     1       3.123  -2.823  14.659  1.00  0.00    -0.206 F 
ATOM     74  C   UNL     1       0.831  -2.381  14.397  1.00  0.00     0.040 A 
ATOM     75  C   UNL     1      -0.424  -3.528  12.691  1.00  0.00     0.040 A 
ATOM     76  F   UNL     1       0.643  -5.096  11.306  1.00  0.00    -0.206 F 
ATOM     77  C   UNL     1      -0.376  -2.612  13.740  1.00  0.00     0.006 A 
ENDBRANCH  49  70
BRANCH  61  78
ATOM     78  C   UNL     1       5.769  -8.943  16.009  1.00  0.00     0.057 A 
ATOM     79  C   UNL     1       4.796  -9.925  16.231  1.00  0.00     0.134 A 
ATOM     80  C   UNL     1       6.652  -8.654  17.056  1.00  0.00     0.134 A 
ATOM     81  F   UNL     1       3.912 -10.237  15.271  1.00  0.00    -0.206 F 
ATOM     82  C   UNL     1       4.693 -10.582  17.459  1.00  0.00     0.040 A 
ATOM     83  C   UNL     1       6.573  -9.319  18.280  1.00  0.00     0.040 A 
ATOM     84  F   UNL     1       7.610  -7.727  16.902  1.00  0.00    -0.206 F 
ATOM     85  C   UNL     1       5.588 -10.283  18.485  1.00  0.00     0.006 A 
ENDBRANCH  61  78
ENDBRANCH  35  36
ENDBRANCH  27  30
ENDBRANCH  25  26
ENDBRANCH  24  25
ENDBRANCH  23  24
ENDBRANCH   3  23
TORSDOF 16
