REMARK SMILES CC[C@@](C)([NH2+]CC(=O)N[C@@H](C)c1ccc(F)cc1)C(=O)NCCCNC(=O)c1ccc(-c2c3nc(c(-c4c(F)cccc4F)c4ccc([nH]4)c(-c4c(F)cccc4F)c4nc(c(-c5c(F)cccc5F)c5ccc2[nH]5)C=C4)C=C3)cc1
REMARK SMILES IDX 19 1 20 2 21 3 3 5 4 6 2 7 1 8 5 9 6 12 7 13 8 14 9 15 10 17
REMARK SMILES IDX 11 18 12 19 13 20 18 21 14 22 17 23 15 24 16 25 22 26 23 27
REMARK SMILES IDX 24 28 25 29 26 30 27 32 28 33 29 34 81 35 30 36 80 37 31 38
REMARK SMILES IDX 32 39 33 40 74 41 34 42 79 43 73 44 75 45 35 46 78 47 72 48
REMARK SMILES IDX 71 49 36 51 62 52 45 53 61 54 46 55 49 56 60 57 76 58 47 59
REMARK SMILES IDX 48 60 59 62 77 63 50 64 37 65 38 66 43 67 39 68 40 69 42 70
REMARK SMILES IDX 44 71 41 72 63 73 64 74 69 75 65 76 66 77 68 78 70 79 67 80
REMARK SMILES IDX 51 81 52 82 57 83 53 84 54 85 56 86 58 87 55 88
REMARK H PARENT 21 4 5 10 5 11 9 16 25 31 75 50 49 61
REMARK Flexibility Score: inf
ROOT
ATOM      1  C   UNL     1       2.140  -2.300   0.067  1.00  0.00     0.281 C 
ATOM      2  O   UNL     1       2.757  -1.234   0.157  1.00  0.00    -0.268 OA
ATOM      3  N   UNL     1       2.918  -3.442  -0.033  1.00  0.00    -0.351 N 
ATOM      4  H   UNL     1       3.277  -3.698  -0.914  1.00  0.00     0.163 HD
ENDROOT
BRANCH   1   5
ATOM      5  C   UNL     1       0.541  -2.349  -0.106  1.00  0.00     0.172 C 
ATOM      6  C   UNL     1      -0.450  -1.641   0.837  1.00  0.00     0.090 C 
BRANCH   5   7
ATOM      7  C   UNL     1       0.336  -1.553  -1.460  1.00  0.00     0.075 C 
ATOM      8  C   UNL     1       0.427  -0.013  -1.292  1.00  0.00     0.011 C 
ENDBRANCH   5   7
BRANCH   5   9
ATOM      9  N   UNL     1       0.074  -3.735  -0.194  1.00  0.00    -0.326 N 
ATOM     10  H   UNL     1       0.644  -4.183  -0.911  1.00  0.00     0.347 HD
ATOM     11  H   UNL     1      -0.925  -3.613  -0.356  1.00  0.00     0.347 HD
BRANCH   9  12
ATOM     12  C   UNL     1       0.089  -4.646   0.975  1.00  0.00     0.362 C 
BRANCH  12  13
ATOM     13  C   UNL     1      -0.083  -4.300   2.491  1.00  0.00     0.275 C 
ATOM     14  O   UNL     1      -0.903  -4.999   3.119  1.00  0.00    -0.268 OA
ATOM     15  N   UNL     1       0.629  -3.483   3.323  1.00  0.00    -0.345 N 
ATOM     16  H   UNL     1       0.614  -3.821   4.247  1.00  0.00     0.164 HD
BRANCH  15  17
ATOM     17  C   UNL     1       1.415  -2.240   3.227  1.00  0.00     0.109 C 
ATOM     18  C   UNL     1       0.615  -1.067   3.820  1.00  0.00     0.036 C 
BRANCH  17  19
ATOM     19  C   UNL     1       2.814  -2.261   3.835  1.00  0.00    -0.026 A 
ATOM     20  C   UNL     1       3.627  -1.110   3.703  1.00  0.00     0.009 A 
ATOM     21  C   UNL     1       3.354  -3.377   4.488  1.00  0.00     0.009 A 
ATOM     22  C   UNL     1       4.913  -1.061   4.242  1.00  0.00     0.039 A 
ATOM     23  C   UNL     1       4.654  -3.336   5.008  1.00  0.00     0.039 A 
ATOM     24  C   UNL     1       5.415  -2.178   4.890  1.00  0.00     0.123 A 
ATOM     25  F   UNL     1       6.653  -2.141   5.399  1.00  0.00    -0.207 F 
ENDBRANCH  17  19
ENDBRANCH  15  17
ENDBRANCH  12  13
ENDBRANCH   9  12
ENDBRANCH   5   9
ENDBRANCH   1   5
BRANCH   3  26
ATOM     26  C   UNL     1       3.223  -4.277   1.123  1.00  0.00     0.118 C 
BRANCH  26  27
ATOM     27  C   UNL     1       3.430  -5.751   0.807  1.00  0.00     0.042 C 
BRANCH  27  28
ATOM     28  C   UNL     1       4.848  -6.215   1.087  1.00  0.00     0.118 C 
BRANCH  28  29
ATOM     29  N   UNL     1       5.178  -6.218   2.513  1.00  0.00    -0.352 N 
ATOM     30  C   UNL     1       5.577  -7.247   3.335  1.00  0.00     0.251 C 
ATOM     31  H   UNL     1       5.101  -5.342   2.956  1.00  0.00     0.163 HD
ATOM     32  O   UNL     1       5.655  -7.067   4.549  1.00  0.00    -0.269 OA
BRANCH  30  33
ATOM     33  C   UNL     1       5.875  -8.578   2.762  1.00  0.00     0.039 A 
ATOM     34  C   UNL     1       5.431  -9.729   3.420  1.00  0.00     0.014 A 
ATOM     35  C   UNL     1       6.554  -8.687   1.549  1.00  0.00     0.014 A 
ATOM     36  C   UNL     1       5.567 -10.974   2.800  1.00  0.00     0.010 A 
ATOM     37  C   UNL     1       6.578  -9.903   0.881  1.00  0.00     0.010 A 
ATOM     38  C   UNL     1       6.082 -11.061   1.496  1.00  0.00    -0.014 A 
BRANCH  38  39
ATOM     39  C   UNL     1       6.114 -12.339   0.741  1.00  0.00     0.031 A 
ATOM     40  C   UNL     1       7.425 -12.874   0.233  1.00  0.00     0.074 A 
ATOM     41  C   UNL     1       4.959 -12.959   0.424  1.00  0.00     0.049 A 
ATOM     42  N   UNL     1       7.651 -13.887  -0.562  1.00  0.00    -0.248 NA
ATOM     43  C   UNL     1       8.641 -12.149   0.640  1.00  0.00     0.031 C 
ATOM     44  C   UNL     1       3.621 -12.508   0.813  1.00  0.00     0.029 A 
ATOM     45  N   UNL     1       4.724 -14.095  -0.310  1.00  0.00    -0.354 N 
ATOM     46  C   UNL     1       9.025 -13.906  -0.765  1.00  0.00     0.074 A 
ATOM     47  C   UNL     1       9.575 -12.768  -0.066  1.00  0.00     0.031 C 
ATOM     48  C   UNL     1       2.710 -13.377   0.345  1.00  0.00     0.029 A 
ATOM     49  C   UNL     1       3.392 -14.415  -0.420  1.00  0.00     0.049 A 
ATOM     50  H   UNL     1       5.442 -14.630  -0.719  1.00  0.00     0.167 HD
ATOM     51  C   UNL     1       9.764 -14.810  -1.448  1.00  0.00     0.037 A 
ATOM     52  C   UNL     1       2.786 -15.427  -1.072  1.00  0.00     0.037 A 
ATOM     53  C   UNL     1       9.213 -15.964  -2.105  1.00  0.00     0.049 A 
ATOM     54  C   UNL     1       3.628 -16.416  -1.828  1.00  0.00     0.074 A 
ATOM     55  C   UNL     1       9.884 -16.976  -2.768  1.00  0.00     0.029 A 
ATOM     56  N   UNL     1       7.861 -16.261  -2.177  1.00  0.00    -0.354 N 
ATOM     57  N   UNL     1       4.931 -16.452  -1.966  1.00  0.00    -0.248 NA
ATOM     58  C   UNL     1       2.921 -17.503  -2.520  1.00  0.00     0.031 C 
ATOM     59  C   UNL     1       8.934 -17.862  -3.280  1.00  0.00     0.029 A 
ATOM     60  C   UNL     1       7.676 -17.431  -2.892  1.00  0.00     0.049 A 
ATOM     61  H   UNL     1       7.141 -15.721  -1.779  1.00  0.00     0.167 HD
ATOM     62  C   UNL     1       5.202 -17.574  -2.737  1.00  0.00     0.074 A 
ATOM     63  C   UNL     1       3.929 -18.198  -3.030  1.00  0.00     0.031 C 
ATOM     64  C   UNL     1       6.400 -18.044  -3.163  1.00  0.00     0.037 A 
BRANCH  51  65
ATOM     65  C   UNL     1      11.250 -14.605  -1.500  1.00  0.00     0.057 A 
ATOM     66  C   UNL     1      11.889 -14.296  -2.707  1.00  0.00     0.134 A 
ATOM     67  C   UNL     1      12.057 -14.778  -0.367  1.00  0.00     0.134 A 
ATOM     68  F   UNL     1      11.178 -14.122  -3.831  1.00  0.00    -0.206 F 
ATOM     69  C   UNL     1      13.278 -14.178  -2.788  1.00  0.00     0.040 A 
ATOM     70  C   UNL     1      13.443 -14.634  -0.429  1.00  0.00     0.040 A 
ATOM     71  F   UNL     1      11.506 -15.062   0.823  1.00  0.00    -0.206 F 
ATOM     72  C   UNL     1      14.059 -14.345  -1.645  1.00  0.00     0.006 A 
ENDBRANCH  51  65
BRANCH  52  73
ATOM     73  C   UNL     1       1.309 -15.568  -1.003  1.00  0.00     0.057 A 
ATOM     74  C   UNL     1       0.451 -14.659  -1.634  1.00  0.00     0.134 A 
ATOM     75  C   UNL     1       0.720 -16.604  -0.268  1.00  0.00     0.134 A 
ATOM     76  F   UNL     1       0.951 -13.639  -2.347  1.00  0.00    -0.206 F 
ATOM     77  C   UNL     1      -0.937 -14.762  -1.521  1.00  0.00     0.040 A 
ATOM     78  C   UNL     1      -0.666 -16.734  -0.166  1.00  0.00     0.040 A 
ATOM     79  F   UNL     1       1.488 -17.516   0.345  1.00  0.00    -0.206 F 
ATOM     80  C   UNL     1      -1.499 -15.805  -0.787  1.00  0.00     0.006 A 
ENDBRANCH  52  73
BRANCH  64  81
ATOM     81  C   UNL     1       6.409 -19.306  -3.972  1.00  0.00     0.057 A 
ATOM     82  C   UNL     1       6.932 -20.490  -3.435  1.00  0.00     0.134 A 
ATOM     83  C   UNL     1       6.009 -19.322  -5.313  1.00  0.00     0.134 A 
ATOM     84  F   UNL     1       7.346 -20.535  -2.159  1.00  0.00    -0.206 F 
ATOM     85  C   UNL     1       7.080 -21.639  -4.212  1.00  0.00     0.040 A 
ATOM     86  C   UNL     1       6.128 -20.473  -6.093  1.00  0.00     0.040 A 
ATOM     87  F   UNL     1       5.492 -18.223  -5.882  1.00  0.00    -0.206 F 
ATOM     88  C   UNL     1       6.678 -21.632  -5.545  1.00  0.00     0.006 A 
ENDBRANCH  64  81
ENDBRANCH  38  39
ENDBRANCH  30  33
ENDBRANCH  28  29
ENDBRANCH  27  28
ENDBRANCH  26  27
ENDBRANCH   3  26
TORSDOF 16
