REMARK SMILES C[N@H+]1CCO[C@H](C[C@@H](NC(=O)OC(C)(C)C)C(=O)NCCCNC(=O)c2ccc(-c3c4nc(c(-c5c(F)cccc5F)c5ccc([nH]5)c(-c5c(F)cccc5F)c5nc(c(-c6c(F)cccc6F)c6ccc3[nH]6)C=C5)C=C4)cc2)C1
REMARK SMILES IDX 20 1 19 2 17 3 18 4 8 6 7 7 6 8 1 9 2 10 3 11 80 12 4 14
REMARK SMILES IDX 5 15 9 16 10 17 11 19 12 20 13 21 14 22 15 23 16 24 21 25
REMARK SMILES IDX 22 26 23 27 24 28 25 30 26 31 27 32 79 33 28 34 78 35 29 36
REMARK SMILES IDX 30 37 31 38 72 39 32 40 77 41 71 42 73 43 33 44 76 45 70 46
REMARK SMILES IDX 69 47 34 49 60 50 43 51 59 52 44 53 47 54 58 55 74 56 45 57
REMARK SMILES IDX 46 58 57 60 75 61 48 62 35 63 36 64 41 65 37 66 38 67 40 68
REMARK SMILES IDX 42 69 39 70 61 71 62 72 67 73 63 74 64 75 66 76 68 77 65 78
REMARK SMILES IDX 49 79 50 80 55 81 51 82 52 83 54 84 56 85 53 86
REMARK H PARENT 19 5 2 13 9 18 23 29 73 48 47 59
REMARK Flexibility Score: inf
ROOT
ATOM      1  C   UNL     1      -0.249  -2.552   5.489  1.00  0.00     0.117 C 
ENDROOT
BRANCH   1   2
ATOM      2  N   UNL     1      -0.518  -3.958   5.247  1.00  0.00    -0.354 N 
ATOM      3  C   UNL     1       0.115  -4.813   4.387  1.00  0.00     0.242 C 
ATOM      4  O   UNL     1      -0.278  -5.982   4.348  1.00  0.00    -0.273 OA
ATOM      5  H   UNL     1      -1.253  -4.348   5.773  1.00  0.00     0.163 HD
BRANCH   3   6
ATOM      6  C   UNL     1       1.135  -4.272   3.361  1.00  0.00     0.177 C 
BRANCH   6   7
ATOM      7  C   UNL     1       0.255  -3.538   2.313  1.00  0.00     0.073 C 
BRANCH   7   8
ATOM      8  C   UNL     1       0.968  -2.685   1.268  1.00  0.00     0.176 C 
ATOM      9  C   UNL     1       1.149   0.057  -0.249  1.00  0.00     0.332 C 
ATOM     10  N   UNL     1       0.475  -1.159  -0.698  1.00  0.00    -0.333 N 
ATOM     11  C   UNL     1       1.375  -2.040  -1.469  1.00  0.00     0.290 C 
ATOM     12  C   UNL     1      -0.091  -1.935   0.419  1.00  0.00     0.294 C 
ATOM     13  H   UNL     1      -0.284  -0.837  -1.298  1.00  0.00     0.348 HD
ATOM     14  C   UNL     1       2.397  -2.809  -0.609  1.00  0.00     0.222 C 
ATOM     15  O   UNL     1       1.770  -3.543   0.452  1.00  0.00    -0.366 OA
ENDBRANCH   7   8
ENDBRANCH   6   7
BRANCH   6  16
ATOM     16  N   UNL     1       2.205  -3.427   3.913  1.00  0.00    -0.310 N 
ATOM     17  C   UNL     1       2.896  -3.603   5.082  1.00  0.00     0.408 C 
ATOM     18  H   UNL     1       2.455  -2.640   3.377  1.00  0.00     0.167 HD
ATOM     19  O   UNL     1       3.964  -3.031   5.264  1.00  0.00    -0.225 OA
BRANCH  17  20
ATOM     20  O   UNL     1       2.232  -4.338   5.998  1.00  0.00    -0.444 OA
BRANCH  20  21
ATOM     21  C   UNL     1       2.638  -4.404   7.392  1.00  0.00     0.106 C 
ATOM     22  C   UNL     1       3.946  -5.179   7.541  1.00  0.00     0.056 C 
ATOM     23  C   UNL     1       2.733  -3.018   8.049  1.00  0.00     0.056 C 
ATOM     24  C   UNL     1       1.508  -5.183   8.089  1.00  0.00     0.056 C 
ENDBRANCH  20  21
ENDBRANCH  17  20
ENDBRANCH   6  16
ENDBRANCH   3   6
ENDBRANCH   1   2
BRANCH   1  25
ATOM     25  C   UNL     1      -1.517  -1.751   5.686  1.00  0.00     0.042 C 
BRANCH  25  26
ATOM     26  C   UNL     1      -2.296  -2.167   6.921  1.00  0.00     0.118 C 
BRANCH  26  27
ATOM     27  N   UNL     1      -1.561  -1.947   8.161  1.00  0.00    -0.352 N 
ATOM     28  C   UNL     1      -1.917  -1.200   9.258  1.00  0.00     0.251 C 
ATOM     29  H   UNL     1      -0.688  -2.396   8.221  1.00  0.00     0.163 HD
ATOM     30  O   UNL     1      -1.111  -0.984  10.155  1.00  0.00    -0.269 OA
BRANCH  28  31
ATOM     31  C   UNL     1      -3.278  -0.635   9.322  1.00  0.00     0.039 A 
ATOM     32  C   UNL     1      -3.445   0.711   9.650  1.00  0.00     0.014 A 
ATOM     33  C   UNL     1      -4.379  -1.428   8.988  1.00  0.00     0.014 A 
ATOM     34  C   UNL     1      -4.713   1.284   9.557  1.00  0.00     0.010 A 
ATOM     35  C   UNL     1      -5.616  -0.833   8.793  1.00  0.00     0.010 A 
ATOM     36  C   UNL     1      -5.797   0.528   9.081  1.00  0.00    -0.014 A 
BRANCH  36  37
ATOM     37  C   UNL     1      -7.136   1.132   8.875  1.00  0.00     0.031 A 
ATOM     38  C   UNL     1      -8.318   0.603   9.636  1.00  0.00     0.074 A 
ATOM     39  C   UNL     1      -7.301   2.083   7.936  1.00  0.00     0.049 A 
ATOM     40  N   UNL     1      -9.582   0.922   9.528  1.00  0.00    -0.248 NA
ATOM     41  C   UNL     1      -8.050  -0.457  10.623  1.00  0.00     0.031 C 
ATOM     42  C   UNL     1      -6.242   2.626   7.082  1.00  0.00     0.029 A 
ATOM     43  N   UNL     1      -8.429   2.750   7.529  1.00  0.00    -0.354 N 
ATOM     44  C   UNL     1     -10.257   0.088  10.409  1.00  0.00     0.074 A 
ATOM     45  C   UNL     1      -9.274  -0.792  11.000  1.00  0.00     0.031 C 
ATOM     46  C   UNL     1      -6.767   3.556   6.268  1.00  0.00     0.029 A 
ATOM     47  C   UNL     1      -8.202   3.648   6.514  1.00  0.00     0.049 A 
ATOM     48  H   UNL     1      -9.316   2.599   7.927  1.00  0.00     0.167 HD
ATOM     49  C   UNL     1     -11.575   0.073  10.716  1.00  0.00     0.037 A 
ATOM     50  C   UNL     1      -9.058   4.448   5.851  1.00  0.00     0.037 A 
ATOM     51  C   UNL     1     -12.541   0.977  10.152  1.00  0.00     0.049 A 
ATOM     52  C   UNL     1     -10.513   4.434   6.228  1.00  0.00     0.074 A 
ATOM     53  C   UNL     1     -13.882   1.109  10.463  1.00  0.00     0.029 A 
ATOM     54  N   UNL     1     -12.266   1.903   9.157  1.00  0.00    -0.354 N 
ATOM     55  N   UNL     1     -11.125   3.703   7.129  1.00  0.00    -0.248 NA
ATOM     56  C   UNL     1     -11.395   5.358   5.504  1.00  0.00     0.031 C 
ATOM     57  C   UNL     1     -14.430   2.083   9.622  1.00  0.00     0.029 A 
ATOM     58  C   UNL     1     -13.419   2.592   8.822  1.00  0.00     0.049 A 
ATOM     59  H   UNL     1     -11.382   2.049   8.749  1.00  0.00     0.167 HD
ATOM     60  C   UNL     1     -12.457   4.093   7.095  1.00  0.00     0.074 A 
ATOM     61  C   UNL     1     -12.560   5.137   6.096  1.00  0.00     0.031 C 
ATOM     62  C   UNL     1     -13.501   3.628   7.824  1.00  0.00     0.037 A 
BRANCH  49  63
ATOM     63  C   UNL     1     -12.043  -0.953  11.708  1.00  0.00     0.057 A 
ATOM     64  C   UNL     1     -11.692  -0.888  13.063  1.00  0.00     0.134 A 
ATOM     65  C   UNL     1     -12.869  -2.009  11.305  1.00  0.00     0.134 A 
ATOM     66  F   UNL     1     -10.891   0.090  13.513  1.00  0.00    -0.206 F 
ATOM     67  C   UNL     1     -12.119  -1.854  13.976  1.00  0.00     0.040 A 
ATOM     68  C   UNL     1     -13.327  -2.965  12.214  1.00  0.00     0.040 A 
ATOM     69  F   UNL     1     -13.247  -2.129  10.024  1.00  0.00    -0.206 F 
ATOM     70  C   UNL     1     -12.945  -2.893  13.552  1.00  0.00     0.006 A 
ENDBRANCH  49  63
BRANCH  50  71
ATOM     71  C   UNL     1      -8.555   5.343   4.780  1.00  0.00     0.057 A 
ATOM     72  C   UNL     1      -8.495   6.729   4.965  1.00  0.00     0.134 A 
ATOM     73  C   UNL     1      -8.112   4.837   3.552  1.00  0.00     0.134 A 
ATOM     74  F   UNL     1      -8.919   7.275   6.114  1.00  0.00    -0.206 F 
ATOM     75  C   UNL     1      -8.028   7.582   3.962  1.00  0.00     0.040 A 
ATOM     76  C   UNL     1      -7.620   5.675   2.550  1.00  0.00     0.040 A 
ATOM     77  F   UNL     1      -8.133   3.517   3.316  1.00  0.00    -0.206 F 
ATOM     78  C   UNL     1      -7.584   7.053   2.752  1.00  0.00     0.006 A 
ENDBRANCH  50  71
BRANCH  62  79
ATOM     79  C   UNL     1     -14.840   4.261   7.584  1.00  0.00     0.057 A 
ATOM     80  C   UNL     1     -15.576   4.012   6.419  1.00  0.00     0.134 A 
ATOM     81  C   UNL     1     -15.418   5.093   8.552  1.00  0.00     0.134 A 
ATOM     82  F   UNL     1     -15.072   3.235   5.449  1.00  0.00    -0.206 F 
ATOM     83  C   UNL     1     -16.833   4.584   6.217  1.00  0.00     0.040 A 
ATOM     84  C   UNL     1     -16.685   5.648   8.372  1.00  0.00     0.040 A 
ATOM     85  F   UNL     1     -14.769   5.364   9.694  1.00  0.00    -0.206 F 
ATOM     86  C   UNL     1     -17.394   5.398   7.199  1.00  0.00     0.006 A 
ENDBRANCH  62  79
ENDBRANCH  36  37
ENDBRANCH  28  31
ENDBRANCH  26  27
ENDBRANCH  25  26
ENDBRANCH   1  25
TORSDOF 15
