REMARK SMILES CC(=O)Nc1cnc(N2CC=C(c3ccccc3C)CC2)c(C(=O)NCCCNC(=O)c2ccc(-c3c4nc(c(-c5c(F)cccc5F)c5ccc([nH]5)c(-c5c(F)cccc5F)c5nc(c(-c6c(F)cccc6F)c6ccc3[nH]6)C=C5)C=C4)cc2)c1
REMARK SMILES IDX 27 1 26 2 25 3 23 4 24 5 22 7 5 8 6 9 86 10 7 11 8 12 4 13
REMARK SMILES IDX 1 14 2 15 3 16 9 18 10 19 21 20 11 21 20 22 12 23 13 24
REMARK SMILES IDX 14 25 18 26 15 27 17 28 19 29 16 30 28 31 29 32 30 33 31 35
REMARK SMILES IDX 32 36 33 37 85 38 34 39 84 40 35 41 36 42 37 43 78 44 38 45
REMARK SMILES IDX 83 46 77 47 79 48 39 49 82 50 76 51 75 52 40 54 66 55 49 56
REMARK SMILES IDX 65 57 50 58 53 59 64 60 80 61 51 62 52 63 63 65 81 66 54 67
REMARK SMILES IDX 41 68 42 69 47 70 43 71 44 72 46 73 48 74 45 75 67 76 68 77
REMARK SMILES IDX 73 78 69 79 70 80 72 81 74 82 71 83 55 84 56 85 61 86 57 87
REMARK SMILES IDX 58 88 60 89 62 90 59 91
REMARK H PARENT 25 6 4 17 29 34 79 53 53 64
REMARK Flexibility Score: inf
ROOT
ATOM      1  C   UNL     1       4.420   0.412  -0.262  1.00  0.00     0.042 C 
ENDROOT
BRANCH   1   2
ATOM      2  C   UNL     1       4.158  -1.087  -0.109  1.00  0.00     0.118 C 
BRANCH   2   3
ATOM      3  N   UNL     1       4.868  -1.641   1.033  1.00  0.00    -0.352 N 
ATOM      4  C   UNL     1       4.644  -1.736   2.390  1.00  0.00     0.255 C 
ATOM      5  O   UNL     1       5.531  -2.365   2.968  1.00  0.00    -0.269 OA
ATOM      6  H   UNL     1       5.724  -2.050   0.771  1.00  0.00     0.163 HD
BRANCH   4   7
ATOM      7  C   UNL     1       3.464  -1.157   3.136  1.00  0.00     0.084 A 
ATOM      8  C   UNL     1       1.420   0.204   3.139  1.00  0.00     0.060 A 
ATOM      9  C   UNL     1       1.262  -0.140   4.464  1.00  0.00     0.139 A 
ATOM     10  C   UNL     1       2.551  -0.292   2.500  1.00  0.00     0.045 A 
ATOM     11  N   UNL     1       2.102  -0.959   5.126  1.00  0.00    -0.236 NA
ATOM     12  C   UNL     1       3.199  -1.466   4.492  1.00  0.00     0.141 A 
BRANCH   8  13
ATOM     13  N   UNL     1       0.491   1.073   2.541  1.00  0.00    -0.325 N 
ATOM     14  C   UNL     1       0.519   0.267   0.179  1.00  0.00     0.114 C 
ATOM     15  C   UNL     1       0.144   1.270   1.235  1.00  0.00     0.221 C 
ATOM     16  O   UNL     1      -0.536   2.256   0.943  1.00  0.00    -0.275 OA
ATOM     17  H   UNL     1       0.003   1.642   3.178  1.00  0.00     0.169 HD
ENDBRANCH   8  13
BRANCH  12  18
ATOM     18  N   UNL     1       3.971  -2.258   5.304  1.00  0.00    -0.352 N 
ATOM     19  C   UNL     1       3.353  -3.411   5.941  1.00  0.00     0.146 C 
ATOM     20  C   UNL     1       5.338  -1.893   5.658  1.00  0.00     0.123 C 
ATOM     21  C   UNL     1       3.938  -3.687   7.300  1.00  0.00    -0.002 C 
ATOM     22  C   UNL     1       5.479  -1.752   7.179  1.00  0.00     0.057 C 
ATOM     23  C   UNL     1       4.893  -2.944   7.888  1.00  0.00    -0.041 C 
BRANCH  23  24
ATOM     24  C   UNL     1       5.421  -3.305   9.217  1.00  0.00    -0.020 A 
ATOM     25  C   UNL     1       6.111  -4.524   9.344  1.00  0.00     0.008 A 
ATOM     26  C   UNL     1       5.268  -2.483  10.352  1.00  0.00    -0.044 A 
ATOM     27  C   UNL     1       6.654  -4.921  10.566  1.00  0.00     0.001 A 
ATOM     28  C   UNL     1       5.836  -2.890  11.574  1.00  0.00     0.004 A 
ATOM     29  C   UNL     1       4.537  -1.170  10.303  1.00  0.00     0.045 C 
ATOM     30  C   UNL     1       6.520  -4.101  11.681  1.00  0.00     0.000 A 
ENDBRANCH  23  24
ENDBRANCH  12  18
ENDBRANCH   4   7
ENDBRANCH   2   3
ENDBRANCH   1   2
BRANCH   1  31
ATOM     31  C   UNL     1       5.539   0.738  -1.234  1.00  0.00     0.118 C 
BRANCH  31  32
ATOM     32  N   UNL     1       5.083   0.942  -2.607  1.00  0.00    -0.352 N 
ATOM     33  C   UNL     1       5.857   1.121  -3.743  1.00  0.00     0.251 C 
ATOM     34  H   UNL     1       4.108   0.953  -2.742  1.00  0.00     0.163 HD
ATOM     35  O   UNL     1       5.347   1.252  -4.842  1.00  0.00    -0.269 OA
BRANCH  33  36
ATOM     36  C   UNL     1       7.325   1.022  -3.595  1.00  0.00     0.039 A 
ATOM     37  C   UNL     1       7.973   0.006  -4.303  1.00  0.00     0.014 A 
ATOM     38  C   UNL     1       7.969   1.711  -2.568  1.00  0.00     0.014 A 
ATOM     39  C   UNL     1       9.172  -0.492  -3.809  1.00  0.00     0.010 A 
ATOM     40  C   UNL     1       9.114   1.161  -2.028  1.00  0.00     0.010 A 
ATOM     41  C   UNL     1       9.665   0.010  -2.604  1.00  0.00    -0.014 A 
BRANCH  41  42
ATOM     42  C   UNL     1      10.659  -0.706  -1.818  1.00  0.00     0.031 A 
ATOM     43  C   UNL     1      12.065  -0.267  -1.809  1.00  0.00     0.074 A 
ATOM     44  C   UNL     1      10.294  -1.788  -1.091  1.00  0.00     0.049 A 
ATOM     45  N   UNL     1      13.048  -1.050  -1.515  1.00  0.00    -0.248 NA
ATOM     46  C   UNL     1      12.498   1.068  -2.216  1.00  0.00     0.031 C 
ATOM     47  C   UNL     1      11.085  -2.481  -0.075  1.00  0.00     0.029 A 
ATOM     48  N   UNL     1       9.207  -2.646  -1.330  1.00  0.00    -0.354 N 
ATOM     49  C   UNL     1      14.153  -0.260  -1.345  1.00  0.00     0.074 A 
ATOM     50  C   UNL     1      13.810   0.996  -1.961  1.00  0.00     0.031 C 
ATOM     51  C   UNL     1      10.671  -3.755  -0.003  1.00  0.00     0.029 A 
ATOM     52  C   UNL     1       9.694  -3.946  -1.060  1.00  0.00     0.049 A 
ATOM     53  H   UNL     1       8.301  -2.396  -1.622  1.00  0.00     0.167 HD
ATOM     54  C   UNL     1      15.157  -0.709  -0.544  1.00  0.00     0.037 A 
ATOM     55  C   UNL     1       9.756  -4.913  -2.015  1.00  0.00     0.037 A 
ATOM     56  C   UNL     1      15.041  -2.145  -0.283  1.00  0.00     0.049 A 
ATOM     57  C   UNL     1      11.121  -5.527  -2.212  1.00  0.00     0.074 A 
ATOM     58  C   UNL     1      14.807  -2.910   0.846  1.00  0.00     0.029 A 
ATOM     59  N   UNL     1      14.980  -3.021  -1.364  1.00  0.00    -0.354 N 
ATOM     60  N   UNL     1      12.234  -5.018  -1.763  1.00  0.00    -0.248 NA
ATOM     61  C   UNL     1      11.338  -6.753  -2.969  1.00  0.00     0.031 C 
ATOM     62  C   UNL     1      14.562  -4.249   0.427  1.00  0.00     0.029 A 
ATOM     63  C   UNL     1      14.685  -4.304  -0.951  1.00  0.00     0.049 A 
ATOM     64  H   UNL     1      15.127  -2.759  -2.302  1.00  0.00     0.167 HD
ATOM     65  C   UNL     1      13.301  -5.776  -2.190  1.00  0.00     0.074 A 
ATOM     66  C   UNL     1      12.675  -6.875  -2.901  1.00  0.00     0.031 C 
ATOM     67  C   UNL     1      14.591  -5.388  -1.931  1.00  0.00     0.037 A 
BRANCH  54  68
ATOM     68  C   UNL     1      16.151   0.189   0.164  1.00  0.00     0.057 A 
ATOM     69  C   UNL     1      17.238  -0.367   0.866  1.00  0.00     0.134 A 
ATOM     70  C   UNL     1      16.024   1.587   0.313  1.00  0.00     0.134 A 
ATOM     71  F   UNL     1      17.481  -1.685   0.846  1.00  0.00    -0.206 F 
ATOM     72  C   UNL     1      18.117   0.402   1.646  1.00  0.00     0.040 A 
ATOM     73  C   UNL     1      16.929   2.372   1.039  1.00  0.00     0.040 A 
ATOM     74  F   UNL     1      14.982   2.272  -0.173  1.00  0.00    -0.206 F 
ATOM     75  C   UNL     1      17.974   1.779   1.724  1.00  0.00     0.006 A 
ENDBRANCH  54  68
BRANCH  55  76
ATOM     76  C   UNL     1       8.723  -4.785  -3.071  1.00  0.00     0.057 A 
ATOM     77  C   UNL     1       7.371  -4.945  -2.723  1.00  0.00     0.134 A 
ATOM     78  C   UNL     1       8.997  -4.180  -4.300  1.00  0.00     0.134 A 
ATOM     79  F   UNL     1       7.039  -5.519  -1.555  1.00  0.00    -0.206 F 
ATOM     80  C   UNL     1       6.338  -4.435  -3.514  1.00  0.00     0.040 A 
ATOM     81  C   UNL     1       7.970  -3.671  -5.105  1.00  0.00     0.040 A 
ATOM     82  F   UNL     1      10.262  -3.970  -4.690  1.00  0.00    -0.206 F 
ATOM     83  C   UNL     1       6.641  -3.766  -4.695  1.00  0.00     0.006 A 
ENDBRANCH  55  76
BRANCH  67  84
ATOM     84  C   UNL     1      15.894  -5.958  -2.499  1.00  0.00     0.057 A 
ATOM     85  C   UNL     1      16.012  -6.909  -3.525  1.00  0.00     0.134 A 
ATOM     86  C   UNL     1      17.146  -5.455  -2.050  1.00  0.00     0.134 A 
ATOM     87  F   UNL     1      14.951  -7.428  -4.146  1.00  0.00    -0.206 F 
ATOM     88  C   UNL     1      17.249  -7.355  -4.024  1.00  0.00     0.040 A 
ATOM     89  C   UNL     1      18.382  -5.856  -2.574  1.00  0.00     0.040 A 
ATOM     90  F   UNL     1      17.240  -4.524  -1.091  1.00  0.00    -0.206 F 
ATOM     91  C   UNL     1      18.441  -6.822  -3.558  1.00  0.00     0.006 A 
ENDBRANCH  67  84
ENDBRANCH  41  42
ENDBRANCH  33  36
ENDBRANCH  31  32
ENDBRANCH   1  31
TORSDOF 13
