REMARK SMILES COc1cc(F)ccc1NCC(C)(C)C(=O)NCCCNC(=O)c1ccc(-c2c3nc(c(-c4c(F)cccc4F)c4ccc([nH]4)c(-c4c(F)cccc4F)c4nc(c(-c5c(F)cccc5F)c5ccc2[nH]5)C=C4)C=C3)cc1
REMARK SMILES IDX 18 1 17 2 15 3 16 4 12 6 13 7 14 8 11 9 10 10 9 12 3 13 4 14
REMARK SMILES IDX 5 15 8 16 6 17 7 18 2 19 1 20 19 21 20 22 21 23 22 24 23 26
REMARK SMILES IDX 24 27 25 28 77 29 26 30 76 31 27 32 28 33 29 34 70 35 30 36
REMARK SMILES IDX 75 37 69 38 71 39 31 40 74 41 68 42 67 43 32 45 58 46 41 47
REMARK SMILES IDX 57 48 42 49 45 50 56 51 72 52 43 53 44 54 55 56 73 57 46 58
REMARK SMILES IDX 33 59 34 60 39 61 35 62 36 63 38 64 40 65 37 66 59 67 60 68
REMARK SMILES IDX 65 69 61 70 62 71 64 72 66 73 63 74 47 75 48 76 53 77 49 78
REMARK SMILES IDX 50 79 52 80 54 81 51 82
REMARK H PARENT 17 5 10 11 21 25 71 44 45 55
REMARK Flexibility Score: inf
ROOT
ATOM      1  C   UNL     1      -3.612   6.673  -0.789  1.00  0.00     0.117 C 
ENDROOT
BRANCH   1   2
ATOM      2  N   UNL     1      -2.376   6.321  -0.118  1.00  0.00    -0.356 N 
ATOM      3  C   UNL     1      -2.096   5.526   0.949  1.00  0.00     0.227 C 
ATOM      4  O   UNL     1      -1.002   5.744   1.478  1.00  0.00    -0.274 OA
ATOM      5  H   UNL     1      -1.579   6.742  -0.514  1.00  0.00     0.163 HD
BRANCH   3   6
ATOM      6  C   UNL     1      -3.093   4.493   1.510  1.00  0.00     0.061 C 
ATOM      7  C   UNL     1      -3.685   3.575   0.426  1.00  0.00     0.023 C 
ATOM      8  C   UNL     1      -4.214   5.242   2.257  1.00  0.00     0.023 C 
BRANCH   6   9
ATOM      9  C   UNL     1      -2.364   3.610   2.569  1.00  0.00     0.129 C 
BRANCH   9  10
ATOM     10  N   UNL     1      -1.351   2.737   1.996  1.00  0.00    -0.381 N 
ATOM     11  H   UNL     1      -1.650   2.124   1.286  1.00  0.00     0.160 HD
BRANCH  10  12
ATOM     12  C   UNL     1      -0.009   2.675   2.343  1.00  0.00     0.077 A 
ATOM     13  C   UNL     1       0.846   1.816   1.604  1.00  0.00     0.144 A 
ATOM     14  C   UNL     1       2.209   1.731   1.906  1.00  0.00     0.087 A 
ATOM     15  C   UNL     1       2.724   2.481   2.954  1.00  0.00     0.127 A 
ATOM     16  C   UNL     1       0.553   3.414   3.393  1.00  0.00     0.032 A 
ATOM     17  F   UNL     1       4.029   2.399   3.245  1.00  0.00    -0.207 F 
ATOM     18  C   UNL     1       1.911   3.317   3.702  1.00  0.00     0.041 A 
BRANCH  13  19
ATOM     19  O   UNL     1       0.244   1.125   0.573  1.00  0.00    -0.494 OA
ATOM     20  C   UNL     1       0.908  -0.058   0.143  1.00  0.00     0.278 C 
ENDBRANCH  13  19
ENDBRANCH  10  12
ENDBRANCH   9  10
ENDBRANCH   6   9
ENDBRANCH   3   6
ENDBRANCH   1   2
BRANCH   1  21
ATOM     21  C   UNL     1      -4.053   8.092  -0.435  1.00  0.00     0.042 C 
BRANCH  21  22
ATOM     22  C   UNL     1      -3.099   9.186  -0.907  1.00  0.00     0.118 C 
BRANCH  22  23
ATOM     23  N   UNL     1      -2.979   9.239  -2.357  1.00  0.00    -0.352 N 
ATOM     24  C   UNL     1      -3.243  10.254  -3.238  1.00  0.00     0.251 C 
ATOM     25  H   UNL     1      -2.655   8.408  -2.773  1.00  0.00     0.163 HD
ATOM     26  O   UNL     1      -3.248  10.013  -4.446  1.00  0.00    -0.269 OA
BRANCH  24  27
ATOM     27  C   UNL     1      -3.538  11.627  -2.769  1.00  0.00     0.039 A 
ATOM     28  C   UNL     1      -4.510  12.367  -3.449  1.00  0.00     0.014 A 
ATOM     29  C   UNL     1      -2.834  12.213  -1.713  1.00  0.00     0.014 A 
ATOM     30  C   UNL     1      -4.812  13.667  -3.039  1.00  0.00     0.010 A 
ATOM     31  C   UNL     1      -3.186  13.484  -1.258  1.00  0.00     0.010 A 
ATOM     32  C   UNL     1      -4.174  14.226  -1.920  1.00  0.00    -0.014 A 
BRANCH  32  33
ATOM     33  C   UNL     1      -4.535  15.585  -1.441  1.00  0.00     0.031 A 
ATOM     34  C   UNL     1      -3.538  16.709  -1.498  1.00  0.00     0.074 A 
ATOM     35  C   UNL     1      -5.760  15.799  -0.923  1.00  0.00     0.049 A 
ATOM     36  N   UNL     1      -3.675  17.953  -1.113  1.00  0.00    -0.248 NA
ATOM     37  C   UNL     1      -2.206  16.391  -2.037  1.00  0.00     0.031 C 
ATOM     38  C   UNL     1      -6.801  14.782  -0.766  1.00  0.00     0.029 A 
ATOM     39  N   UNL     1      -6.338  16.944  -0.435  1.00  0.00    -0.354 N 
ATOM     40  C   UNL     1      -2.449  18.560  -1.350  1.00  0.00     0.074 A 
ATOM     41  C   UNL     1      -1.565  17.539  -1.869  1.00  0.00     0.031 C 
ATOM     42  C   UNL     1      -7.902  15.355  -0.255  1.00  0.00     0.029 A 
ATOM     43  C   UNL     1      -7.636  16.772  -0.022  1.00  0.00     0.049 A 
ATOM     44  H   UNL     1      -5.867  17.807  -0.386  1.00  0.00     0.167 HD
ATOM     45  C   UNL     1      -2.098  19.856  -1.174  1.00  0.00     0.037 A 
ATOM     46  C   UNL     1      -8.518  17.656   0.482  1.00  0.00     0.037 A 
ATOM     47  C   UNL     1      -2.987  20.880  -0.693  1.00  0.00     0.049 A 
ATOM     48  C   UNL     1      -8.111  19.091   0.650  1.00  0.00     0.074 A 
ATOM     49  C   UNL     1      -2.739  22.234  -0.544  1.00  0.00     0.029 A 
ATOM     50  N   UNL     1      -4.294  20.665  -0.286  1.00  0.00    -0.354 N 
ATOM     51  N   UNL     1      -6.964  19.661   0.371  1.00  0.00    -0.248 NA
ATOM     52  C   UNL     1      -9.121  20.007   1.200  1.00  0.00     0.031 C 
ATOM     53  C   UNL     1      -3.888  22.833  -0.017  1.00  0.00     0.029 A 
ATOM     54  C   UNL     1      -4.861  21.858   0.129  1.00  0.00     0.049 A 
ATOM     55  H   UNL     1      -4.752  19.793  -0.291  1.00  0.00     0.167 HD
ATOM     56  C   UNL     1      -7.116  21.001   0.700  1.00  0.00     0.074 A 
ATOM     57  C   UNL     1      -8.472  21.164   1.181  1.00  0.00     0.031 C 
ATOM     58  C   UNL     1      -6.209  22.004   0.614  1.00  0.00     0.037 A 
BRANCH  45  59
ATOM     59  C   UNL     1      -0.694  20.248  -1.522  1.00  0.00     0.057 A 
ATOM     60  C   UNL     1       0.226  20.584  -0.521  1.00  0.00     0.134 A 
ATOM     61  C   UNL     1      -0.269  20.350  -2.853  1.00  0.00     0.134 A 
ATOM     62  F   UNL     1      -0.119  20.514   0.773  1.00  0.00    -0.206 F 
ATOM     63  C   UNL     1       1.518  21.013  -0.832  1.00  0.00     0.040 A 
ATOM     64  C   UNL     1       1.027  20.756  -3.176  1.00  0.00     0.040 A 
ATOM     65  F   UNL     1      -1.099  20.032  -3.857  1.00  0.00    -0.206 F 
ATOM     66  C   UNL     1       1.922  21.096  -2.163  1.00  0.00     0.006 A 
ENDBRANCH  45  59
BRANCH  46  67
ATOM     67  C   UNL     1      -9.890  17.209   0.823  1.00  0.00     0.057 A 
ATOM     68  C   UNL     1     -10.143  16.407   1.942  1.00  0.00     0.134 A 
ATOM     69  C   UNL     1     -10.979  17.557   0.016  1.00  0.00     0.134 A 
ATOM     70  F   UNL     1      -9.139  16.034   2.749  1.00  0.00    -0.206 F 
ATOM     71  C   UNL     1     -11.429  15.955   2.239  1.00  0.00     0.040 A 
ATOM     72  C   UNL     1     -12.273  17.128   0.311  1.00  0.00     0.040 A 
ATOM     73  F   UNL     1     -10.798  18.338  -1.059  1.00  0.00    -0.206 F 
ATOM     74  C   UNL     1     -12.500  16.318   1.423  1.00  0.00     0.006 A 
ENDBRANCH  46  67
BRANCH  58  75
ATOM     75  C   UNL     1      -6.652  23.369   1.048  1.00  0.00     0.057 A 
ATOM     76  C   UNL     1      -6.886  24.379   0.108  1.00  0.00     0.134 A 
ATOM     77  C   UNL     1      -6.790  23.695   2.403  1.00  0.00     0.134 A 
ATOM     78  F   UNL     1      -6.763  24.131  -1.204  1.00  0.00    -0.206 F 
ATOM     79  C   UNL     1      -7.236  25.672   0.501  1.00  0.00     0.040 A 
ATOM     80  C   UNL     1      -7.159  24.979   2.807  1.00  0.00     0.040 A 
ATOM     81  F   UNL     1      -6.590  22.767   3.350  1.00  0.00    -0.206 F 
ATOM     82  C   UNL     1      -7.376  25.973   1.855  1.00  0.00     0.006 A 
ENDBRANCH  58  75
ENDBRANCH  32  33
ENDBRANCH  24  27
ENDBRANCH  22  23
ENDBRANCH  21  22
ENDBRANCH   1  21
TORSDOF 14
