REMARK SMILES C=C1C[C@@]23CC[C@H]4[C@@](C)(CCC[C@@]4(C)C(=O)NCCCNC(=O)c4ccc(-c5c6nc(c(-c7c(F)cccc7F)c7ccc([nH]7)c(-c7c(F)cccc7F)c7nc(c(-c8c(F)cccc8F)c8ccc5[nH]8)C=C7)C=C6)cc4)[C@H]2CC[C@]1(O)C3
REMARK SMILES IDX 19 1 18 2 17 3 15 4 16 5 13 7 1 8 2 9 3 10 81 11 4 12 80 13
REMARK SMILES IDX 83 14 5 15 78 16 79 17 6 18 8 19 7 20 9 21 10 22 11 23 12 24
REMARK SMILES IDX 14 25 82 26 20 28 21 29 22 30 23 32 24 33 25 34 77 35 26 36
REMARK SMILES IDX 76 37 27 38 28 39 29 40 70 41 30 42 75 43 69 44 71 45 31 46
REMARK SMILES IDX 74 47 68 48 67 49 32 51 58 52 41 53 57 54 42 55 45 56 56 57
REMARK SMILES IDX 72 58 43 59 44 60 55 62 73 63 46 64 33 65 34 66 39 67 35 68
REMARK SMILES IDX 36 69 38 70 40 71 37 72 59 73 60 74 65 75 61 76 62 77 64 78
REMARK SMILES IDX 66 79 63 80 47 81 48 82 53 83 49 84 50 85 52 86 54 87 51 88
REMARK H PARENT 17 6 82 27 21 31 71 50 45 61
REMARK Flexibility Score: inf
ROOT
ATOM      1  C   UNL     1      -4.548  -4.088   6.330  1.00  0.00     0.042 C 
ENDROOT
BRANCH   1   2
ATOM      2  C   UNL     1      -3.138  -4.260   5.805  1.00  0.00     0.117 C 
BRANCH   2   3
ATOM      3  N   UNL     1      -2.570  -5.524   6.223  1.00  0.00    -0.356 N 
ATOM      4  C   UNL     1      -1.914  -6.504   5.563  1.00  0.00     0.226 C 
ATOM      5  O   UNL     1      -1.503  -7.420   6.285  1.00  0.00    -0.274 OA
ATOM      6  H   UNL     1      -2.683  -5.707   7.184  1.00  0.00     0.163 HD
BRANCH   4   7
ATOM      7  C   UNL     1      -1.744  -6.538   4.035  1.00  0.00     0.050 C 
ATOM      8  C   UNL     1       1.434  -0.099   0.083  1.00  0.00     0.011 C 
ATOM      9  C   UNL     1       0.908  -0.919   1.004  1.00  0.00    -0.045 C 
ATOM     10  C   UNL     1       1.297  -2.376   1.194  1.00  0.00     0.040 C 
ATOM     11  C   UNL     1      -0.345  -0.665   1.800  1.00  0.00     0.086 C 
ATOM     12  C   UNL     1       0.005  -3.008   1.795  1.00  0.00    -0.020 C 
ATOM     13  C   UNL     1      -0.097  -0.572   3.320  1.00  0.00     0.040 C 
ATOM     14  C   UNL     1      -1.067  -1.947   1.446  1.00  0.00     0.047 C 
ATOM     15  C   UNL     1      -0.402  -4.300   1.130  1.00  0.00     0.008 C 
ATOM     16  C   UNL     1       0.008  -3.126   3.358  1.00  0.00     0.002 C 
ATOM     17  C   UNL     1       0.583  -1.820   3.975  1.00  0.00     0.008 C 
ATOM     18  C   UNL     1      -1.595  -4.883   1.918  1.00  0.00     0.006 C 
ATOM     19  C   UNL     1       0.090  -4.589   4.037  1.00  0.00    -0.025 C 
ATOM     20  C   UNL     1      -1.058  -5.375   3.290  1.00  0.00     0.010 C 
ATOM     21  C   UNL     1       0.068  -4.273   5.555  1.00  0.00     0.012 C 
ATOM     22  C   UNL     1       1.251  -5.673   3.978  1.00  0.00     0.007 C 
ATOM     23  C   UNL     1       0.790  -7.239   3.953  1.00  0.00     0.002 C 
ATOM     24  C   UNL     1      -0.725  -7.688   3.747  1.00  0.00     0.017 C 
ATOM     25  C   UNL     1      -3.153  -6.825   3.475  1.00  0.00     0.022 C 
BRANCH  11  26
ATOM     26  O   UNL     1      -1.093   0.444   1.342  1.00  0.00    -0.386 OA
ATOM     27  H   UNL     1      -0.628   1.264   1.570  1.00  0.00     0.211 HD
ENDBRANCH  11  26
ENDBRANCH   4   7
ENDBRANCH   2   3
ENDBRANCH   1   2
BRANCH   1  28
ATOM     28  C   UNL     1      -4.633  -4.176   7.851  1.00  0.00     0.118 C 
BRANCH  28  29
ATOM     29  N   UNL     1      -3.901  -3.121   8.545  1.00  0.00    -0.352 N 
ATOM     30  C   UNL     1      -4.359  -2.233   9.499  1.00  0.00     0.251 C 
ATOM     31  H   UNL     1      -2.952  -3.030   8.300  1.00  0.00     0.163 HD
ATOM     32  O   UNL     1      -3.669  -1.315   9.886  1.00  0.00    -0.269 OA
BRANCH  30  33
ATOM     33  C   UNL     1      -5.732  -2.416  10.015  1.00  0.00     0.039 A 
ATOM     34  C   UNL     1      -6.603  -1.326  10.024  1.00  0.00     0.014 A 
ATOM     35  C   UNL     1      -6.167  -3.682  10.413  1.00  0.00     0.014 A 
ATOM     36  C   UNL     1      -7.942  -1.528  10.359  1.00  0.00     0.010 A 
ATOM     37  C   UNL     1      -7.518  -3.899  10.642  1.00  0.00     0.010 A 
ATOM     38  C   UNL     1      -8.418  -2.823  10.625  1.00  0.00    -0.014 A 
BRANCH  38  39
ATOM     39  C   UNL     1      -9.853  -3.075  10.902  1.00  0.00     0.031 A 
ATOM     40  C   UNL     1     -10.268  -3.647  12.229  1.00  0.00     0.074 A 
ATOM     41  C   UNL     1     -10.770  -2.850   9.941  1.00  0.00     0.049 A 
ATOM     42  N   UNL     1     -11.460  -3.992  12.644  1.00  0.00    -0.248 NA
ATOM     43  C   UNL     1      -9.198  -3.893  13.210  1.00  0.00     0.031 C 
ATOM     44  C   UNL     1     -10.484  -2.350   8.594  1.00  0.00     0.029 A 
ATOM     45  N   UNL     1     -12.132  -3.017   9.948  1.00  0.00    -0.354 N 
ATOM     46  C   UNL     1     -11.279  -4.503  13.923  1.00  0.00     0.074 A 
ATOM     47  C   UNL     1      -9.858  -4.490  14.189  1.00  0.00     0.031 C 
ATOM     48  C   UNL     1     -11.637  -2.219   7.919  1.00  0.00     0.029 A 
ATOM     49  C   UNL     1     -12.738  -2.662   8.767  1.00  0.00     0.049 A 
ATOM     50  H   UNL     1     -12.628  -3.359  10.727  1.00  0.00     0.167 HD
ATOM     51  C   UNL     1     -12.215  -4.917  14.809  1.00  0.00     0.037 A 
ATOM     52  C   UNL     1     -14.036  -2.695   8.410  1.00  0.00     0.037 A 
ATOM     53  C   UNL     1     -13.629  -4.907  14.547  1.00  0.00     0.049 A 
ATOM     54  C   UNL     1     -15.055  -3.172   9.409  1.00  0.00     0.074 A 
ATOM     55  C   UNL     1     -14.665  -5.256  15.395  1.00  0.00     0.029 A 
ATOM     56  N   UNL     1     -14.205  -4.529  13.343  1.00  0.00    -0.354 N 
ATOM     57  N   UNL     1     -14.877  -3.585  10.640  1.00  0.00    -0.248 NA
ATOM     58  C   UNL     1     -16.457  -3.180   8.970  1.00  0.00     0.031 C 
ATOM     59  C   UNL     1     -15.865  -5.135  14.688  1.00  0.00     0.029 A 
ATOM     60  C   UNL     1     -15.582  -4.657  13.419  1.00  0.00     0.049 A 
ATOM     61  H   UNL     1     -13.709  -4.216  12.553  1.00  0.00     0.167 HD
ATOM     62  C   UNL     1     -16.143  -3.871  11.133  1.00  0.00     0.074 A 
ATOM     63  C   UNL     1     -17.081  -3.569  10.072  1.00  0.00     0.031 C 
ATOM     64  C   UNL     1     -16.500  -4.341  12.354  1.00  0.00     0.037 A 
BRANCH  51  65
ATOM     65  C   UNL     1     -11.734  -5.404  16.145  1.00  0.00     0.057 A 
ATOM     66  C   UNL     1     -11.165  -4.536  17.088  1.00  0.00     0.134 A 
ATOM     67  C   UNL     1     -11.864  -6.751  16.506  1.00  0.00     0.134 A 
ATOM     68  F   UNL     1     -10.997  -3.236  16.801  1.00  0.00    -0.206 F 
ATOM     69  C   UNL     1     -10.718  -4.994  18.328  1.00  0.00     0.040 A 
ATOM     70  C   UNL     1     -11.449  -7.215  17.756  1.00  0.00     0.040 A 
ATOM     71  F   UNL     1     -12.403  -7.636  15.654  1.00  0.00    -0.206 F 
ATOM     72  C   UNL     1     -10.867  -6.337  18.668  1.00  0.00     0.006 A 
ENDBRANCH  51  65
BRANCH  52  73
ATOM     73  C   UNL     1     -14.453  -2.241   7.059  1.00  0.00     0.057 A 
ATOM     74  C   UNL     1     -15.207  -1.073   6.891  1.00  0.00     0.134 A 
ATOM     75  C   UNL     1     -14.127  -2.967   5.907  1.00  0.00     0.134 A 
ATOM     76  F   UNL     1     -15.566  -0.343   7.957  1.00  0.00    -0.206 F 
ATOM     77  C   UNL     1     -15.644  -0.658   5.632  1.00  0.00     0.040 A 
ATOM     78  C   UNL     1     -14.534  -2.549   4.639  1.00  0.00     0.040 A 
ATOM     79  F   UNL     1     -13.398  -4.089   5.997  1.00  0.00    -0.206 F 
ATOM     80  C   UNL     1     -15.303  -1.395   4.500  1.00  0.00     0.006 A 
ENDBRANCH  52  73
BRANCH  64  81
ATOM     81  C   UNL     1     -17.966  -4.516  12.621  1.00  0.00     0.057 A 
ATOM     82  C   UNL     1     -18.715  -5.534  12.016  1.00  0.00     0.134 A 
ATOM     83  C   UNL     1     -18.628  -3.677  13.527  1.00  0.00     0.134 A 
ATOM     84  F   UNL     1     -18.143  -6.363  11.130  1.00  0.00    -0.206 F 
ATOM     85  C   UNL     1     -20.075  -5.693  12.282  1.00  0.00     0.040 A 
ATOM     86  C   UNL     1     -19.981  -3.846  13.823  1.00  0.00     0.040 A 
ATOM     87  F   UNL     1     -17.968  -2.689  14.149  1.00  0.00    -0.206 F 
ATOM     88  C   UNL     1     -20.710  -4.852  13.194  1.00  0.00     0.006 A 
ENDBRANCH  64  81
ENDBRANCH  38  39
ENDBRANCH  30  33
ENDBRANCH  28  29
ENDBRANCH   1  28
TORSDOF 11
