REMARK SMILES CC1(C)CC[N@H+](CCOc2ccc(C(=O)NCCCNC(=O)c3ccc(-c4c5nc(c(-c6c(F)cccc6F)c6ccc([nH]6)c(-c6c(F)cccc6F)c6nc(c(-c7c(F)cccc7F)c7ccc4[nH]7)C=C6)C=C5)cc3)cc2)C1
REMARK SMILES IDX 17 1 16 2 14 3 15 4 13 6 10 7 11 8 78 9 12 10 77 11 9 12
REMARK SMILES IDX 8 13 7 14 6 15 1 16 2 17 3 18 4 19 79 20 5 21 18 23 19 24
REMARK SMILES IDX 20 25 21 26 22 28 23 29 24 30 76 31 25 32 75 33 26 34 27 35
REMARK SMILES IDX 28 36 69 37 29 38 74 39 68 40 70 41 30 42 73 43 67 44 66 45
REMARK SMILES IDX 31 47 57 48 40 49 56 50 41 51 44 52 55 53 71 54 42 55 43 56
REMARK SMILES IDX 54 58 72 59 45 60 32 61 33 62 38 63 34 64 35 65 37 66 39 67
REMARK SMILES IDX 36 68 58 69 59 70 64 71 60 72 61 73 63 74 65 75 62 76 46 77
REMARK SMILES IDX 47 78 52 79 48 80 49 81 51 82 53 83 50 84
REMARK H PARENT 16 5 6 22 20 27 70 46 44 57
REMARK Flexibility Score: inf
ROOT
ATOM      1  C   UNL     1      -0.346  -2.515  -2.770  1.00  0.00     0.118 C 
ENDROOT
BRANCH   1   2
ATOM      2  N   UNL     1      -0.773  -3.771  -2.165  1.00  0.00    -0.352 N 
ATOM      3  C   UNL     1      -0.572  -4.277  -0.896  1.00  0.00     0.251 C 
ATOM      4  O   UNL     1      -1.254  -5.227  -0.521  1.00  0.00    -0.269 OA
ATOM      5  H   UNL     1      -1.293  -4.357  -2.762  1.00  0.00     0.163 HD
BRANCH   3   6
ATOM      6  C   UNL     1       0.392  -3.660   0.050  1.00  0.00     0.040 A 
ATOM      7  C   UNL     1       1.955  -2.068   1.715  1.00  0.00     0.119 A 
ATOM      8  C   UNL     1       0.758  -2.592   2.202  1.00  0.00     0.047 A 
ATOM      9  C   UNL     1       2.481  -2.539   0.512  1.00  0.00     0.047 A 
ATOM     10  C   UNL     1      -0.030  -3.390   1.362  1.00  0.00     0.017 A 
ATOM     11  C   UNL     1       1.689  -3.317  -0.338  1.00  0.00     0.017 A 
BRANCH   7  12
ATOM     12  O   UNL     1       2.629  -1.054   2.339  1.00  0.00    -0.488 OA
BRANCH  12  13
ATOM     13  C   UNL     1       1.895   0.196   2.401  1.00  0.00     0.290 C 
BRANCH  13  14
ATOM     14  C   UNL     1       2.245   1.194   1.252  1.00  0.00     0.304 C 
BRANCH  14  15
ATOM     15  N   UNL     1       1.339   1.436   0.101  1.00  0.00    -0.332 N 
ATOM     16  C   UNL     1      -1.646   1.346  -1.446  1.00  0.00     0.017 C 
ATOM     17  C   UNL     1      -1.061   1.018  -0.059  1.00  0.00     0.019 C 
ATOM     18  C   UNL     1      -2.205   0.827   0.938  1.00  0.00     0.017 C 
ATOM     19  C   UNL     1      -0.246  -0.251  -0.172  1.00  0.00     0.073 C 
ATOM     20  C   UNL     1       0.015   2.016   0.429  1.00  0.00     0.268 C 
ATOM     21  C   UNL     1       1.088   0.241  -0.694  1.00  0.00     0.263 C 
ATOM     22  H   UNL     1       1.871   2.128  -0.427  1.00  0.00     0.348 HD
ENDBRANCH  14  15
ENDBRANCH  13  14
ENDBRANCH  12  13
ENDBRANCH   7  12
ENDBRANCH   3   6
ENDBRANCH   1   2
BRANCH   1  23
ATOM     23  C   UNL     1       0.308  -2.667  -4.133  1.00  0.00     0.042 C 
BRANCH  23  24
ATOM     24  C   UNL     1      -0.632  -3.118  -5.242  1.00  0.00     0.118 C 
BRANCH  24  25
ATOM     25  N   UNL     1      -1.508  -2.062  -5.739  1.00  0.00    -0.352 N 
ATOM     26  C   UNL     1      -1.619  -1.504  -6.996  1.00  0.00     0.251 C 
ATOM     27  H   UNL     1      -2.121  -1.687  -5.066  1.00  0.00     0.163 HD
ATOM     28  O   UNL     1      -2.366  -0.550  -7.170  1.00  0.00    -0.269 OA
BRANCH  26  29
ATOM     29  C   UNL     1      -0.808  -2.014  -8.130  1.00  0.00     0.039 A 
ATOM     30  C   UNL     1      -0.219  -1.093  -9.004  1.00  0.00     0.014 A 
ATOM     31  C   UNL     1      -0.611  -3.379  -8.336  1.00  0.00     0.014 A 
ATOM     32  C   UNL     1       0.653  -1.537 -10.003  1.00  0.00     0.010 A 
ATOM     33  C   UNL     1       0.333  -3.814  -9.265  1.00  0.00     0.010 A 
ATOM     34  C   UNL     1       0.988  -2.897 -10.100  1.00  0.00    -0.014 A 
BRANCH  34  35
ATOM     35  C   UNL     1       2.044  -3.377 -11.033  1.00  0.00     0.031 A 
ATOM     36  C   UNL     1       1.718  -4.381 -12.106  1.00  0.00     0.074 A 
ATOM     37  C   UNL     1       3.321  -2.981 -10.853  1.00  0.00     0.049 A 
ATOM     38  N   UNL     1       2.523  -4.995 -12.937  1.00  0.00    -0.248 NA
ATOM     39  C   UNL     1       0.305  -4.769 -12.246  1.00  0.00     0.031 C 
ATOM     40  C   UNL     1       3.784  -2.055  -9.817  1.00  0.00     0.029 A 
ATOM     41  N   UNL     1       4.471  -3.323 -11.524  1.00  0.00    -0.354 N 
ATOM     42  C   UNL     1       1.721  -5.851 -13.680  1.00  0.00     0.074 A 
ATOM     43  C   UNL     1       0.373  -5.713 -13.173  1.00  0.00     0.031 C 
ATOM     44  C   UNL     1       5.111  -1.892  -9.931  1.00  0.00     0.029 A 
ATOM     45  C   UNL     1       5.604  -2.736 -11.013  1.00  0.00     0.049 A 
ATOM     46  H   UNL     1       4.481  -3.932 -12.298  1.00  0.00     0.167 HD
ATOM     47  C   UNL     1       2.072  -6.664 -14.705  1.00  0.00     0.037 A 
ATOM     48  C   UNL     1       6.899  -2.876 -11.360  1.00  0.00     0.037 A 
ATOM     49  C   UNL     1       3.409  -6.779 -15.228  1.00  0.00     0.049 A 
ATOM     50  C   UNL     1       7.261  -3.794 -12.496  1.00  0.00     0.074 A 
ATOM     51  C   UNL     1       3.845  -7.516 -16.316  1.00  0.00     0.029 A 
ATOM     52  N   UNL     1       4.524  -6.150 -14.698  1.00  0.00    -0.354 N 
ATOM     53  N   UNL     1       6.478  -4.532 -13.244  1.00  0.00    -0.248 NA
ATOM     54  C   UNL     1       8.688  -3.896 -12.838  1.00  0.00     0.031 C 
ATOM     55  C   UNL     1       5.233  -7.379 -16.408  1.00  0.00     0.029 A 
ATOM     56  C   UNL     1       5.654  -6.509 -15.415  1.00  0.00     0.049 A 
ATOM     57  H   UNL     1       4.515  -5.538 -13.926  1.00  0.00     0.167 HD
ATOM     58  C   UNL     1       7.311  -5.164 -14.159  1.00  0.00     0.074 A 
ATOM     59  C   UNL     1       8.657  -4.709 -13.884  1.00  0.00     0.031 C 
ATOM     60  C   UNL     1       6.989  -6.045 -15.136  1.00  0.00     0.037 A 
BRANCH  47  61
ATOM     61  C   UNL     1       0.996  -7.500 -15.337  1.00  0.00     0.057 A 
ATOM     62  C   UNL     1      -0.015  -6.935 -16.126  1.00  0.00     0.134 A 
ATOM     63  C   UNL     1       1.008  -8.895 -15.207  1.00  0.00     0.134 A 
ATOM     64  F   UNL     1      -0.090  -5.605 -16.285  1.00  0.00    -0.206 F 
ATOM     65  C   UNL     1      -0.985  -7.725 -16.745  1.00  0.00     0.040 A 
ATOM     66  C   UNL     1       0.060  -9.697 -15.845  1.00  0.00     0.040 A 
ATOM     67  F   UNL     1       1.953  -9.503 -14.473  1.00  0.00    -0.206 F 
ATOM     68  C   UNL     1      -0.943  -9.111 -16.613  1.00  0.00     0.006 A 
ENDBRANCH  47  61
BRANCH  48  69
ATOM     69  C   UNL     1       7.955  -2.135 -10.623  1.00  0.00     0.057 A 
ATOM     70  C   UNL     1       8.691  -1.116 -11.240  1.00  0.00     0.134 A 
ATOM     71  C   UNL     1       8.273  -2.442  -9.294  1.00  0.00     0.134 A 
ATOM     72  F   UNL     1       8.449  -0.787 -12.518  1.00  0.00    -0.206 F 
ATOM     73  C   UNL     1       9.720  -0.449 -10.573  1.00  0.00     0.040 A 
ATOM     74  C   UNL     1       9.279  -1.763  -8.605  1.00  0.00     0.040 A 
ATOM     75  F   UNL     1       7.601  -3.403  -8.642  1.00  0.00    -0.206 F 
ATOM     76  C   UNL     1      10.014  -0.769  -9.249  1.00  0.00     0.006 A 
ENDBRANCH  48  69
BRANCH  60  77
ATOM     77  C   UNL     1       8.103  -6.553 -16.004  1.00  0.00     0.057 A 
ATOM     78  C   UNL     1       9.064  -7.453 -15.525  1.00  0.00     0.134 A 
ATOM     79  C   UNL     1       8.188  -6.174 -17.351  1.00  0.00     0.134 A 
ATOM     80  F   UNL     1       9.048  -7.846 -14.242  1.00  0.00    -0.206 F 
ATOM     81  C   UNL     1      10.081  -7.940 -16.348  1.00  0.00     0.040 A 
ATOM     82  C   UNL     1       9.182  -6.677 -18.190  1.00  0.00     0.040 A 
ATOM     83  F   UNL     1       7.294  -5.322 -17.876  1.00  0.00    -0.206 F 
ATOM     84  C   UNL     1      10.136  -7.559 -17.687  1.00  0.00     0.006 A 
ENDBRANCH  60  77
ENDBRANCH  34  35
ENDBRANCH  26  29
ENDBRANCH  24  25
ENDBRANCH  23  24
ENDBRANCH   1  23
TORSDOF 14
