REMARK SMILES C=CCN(CC(=O)NCCCNC(=O)c1ccc(-c2c3nc(c(-c4c(F)cccc4F)c4ccc([nH]4)c(-c4c(F)cccc4F)c4nc(c(-c5c(F)cccc5F)c5ccc2[nH]5)C=C4)C=C3)cc1)c1ccc([N+](=O)[O-])cc1Br
REMARK SMILES IDX 9 1 8 2 6 3 7 4 5 6 4 7 3 8 2 9 1 10 69 11 70 12 77 13 71 14
REMARK SMILES IDX 76 15 78 16 72 17 73 18 74 19 75 20 10 21 11 22 12 23 13 24
REMARK SMILES IDX 14 26 15 27 16 28 68 29 17 30 67 31 18 32 19 33 20 34 61 35
REMARK SMILES IDX 21 36 66 37 60 38 62 39 22 40 65 41 59 42 58 43 23 45 49 46
REMARK SMILES IDX 32 47 48 48 33 49 36 50 47 51 63 52 34 53 35 54 46 56 64 57
REMARK SMILES IDX 37 58 24 59 25 60 30 61 26 62 27 63 29 64 31 65 28 66 50 67
REMARK SMILES IDX 51 68 56 69 52 70 53 71 55 72 57 73 54 74 38 75 39 76 44 77
REMARK SMILES IDX 40 78 41 79 43 80 45 81 42 82
REMARK H PARENT 8 5 12 25 62 44 36 55
REMARK Flexibility Score: inf
ROOT
ATOM      1  C   UNL     1      -4.619  -0.606  -1.063  1.00  0.00     0.117 C 
ENDROOT
BRANCH   1   2
ATOM      2  N   UNL     1      -4.648   0.055  -2.352  1.00  0.00    -0.354 N 
ATOM      3  C   UNL     1      -3.668   0.202  -3.295  1.00  0.00     0.239 C 
ATOM      4  O   UNL     1      -3.983   0.792  -4.334  1.00  0.00    -0.273 OA
ATOM      5  H   UNL     1      -5.512   0.464  -2.587  1.00  0.00     0.163 HD
BRANCH   3   6
ATOM      6  C   UNL     1      -2.246  -0.347  -3.087  1.00  0.00     0.216 C 
BRANCH   6   7
ATOM      7  N   UNL     1      -1.405   0.419  -2.147  1.00  0.00    -0.358 N 
BRANCH   7   8
ATOM      8  C   UNL     1      -1.159  -0.101  -0.806  1.00  0.00     0.144 C 
BRANCH   8   9
ATOM      9  C   UNL     1       0.238  -0.609  -0.653  1.00  0.00    -0.014 C 
ATOM     10  C   UNL     1       1.063  -0.245   0.338  1.00  0.00     0.006 C 
ENDBRANCH   8   9
ENDBRANCH   7   8
BRANCH   7  11
ATOM     11  C   UNL     1      -1.112   1.755  -2.412  1.00  0.00     0.052 A 
ATOM     12  C   UNL     1      -2.117   2.727  -2.249  1.00  0.00     0.034 A 
ATOM     13  C   UNL     1       0.164   2.214  -2.810  1.00  0.00     0.048 A 
ATOM     14  C   UNL     1      -1.874   4.090  -2.439  1.00  0.00     0.088 A 
ATOM     15  C   UNL     1       0.436   3.583  -2.958  1.00  0.00     0.103 A 
ATOM     16  Br  UNL     1       1.583   1.033  -3.273  1.00  0.00    -0.048 Br
ATOM     17  C   UNL     1      -0.588   4.512  -2.769  1.00  0.00     0.270 A 
BRANCH  17  18
ATOM     18  N   UNL     1      -0.312   5.942  -2.922  1.00  0.00     0.062 N 
ATOM     19  O   UNL     1      -1.279   6.700  -3.077  1.00  0.00    -0.258 OA
ATOM     20  O   UNL     1       0.871   6.306  -2.874  1.00  0.00    -0.258 OA
ENDBRANCH  17  18
ENDBRANCH   7  11
ENDBRANCH   6   7
ENDBRANCH   3   6
ENDBRANCH   1   2
BRANCH   1  21
ATOM     21  C   UNL     1      -4.416   0.367   0.099  1.00  0.00     0.042 C 
BRANCH  21  22
ATOM     22  C   UNL     1      -5.599   1.288   0.394  1.00  0.00     0.118 C 
BRANCH  22  23
ATOM     23  N   UNL     1      -6.753   0.567   0.900  1.00  0.00    -0.352 N 
ATOM     24  C   UNL     1      -7.476   0.711   2.058  1.00  0.00     0.251 C 
ATOM     25  H   UNL     1      -7.074  -0.151   0.309  1.00  0.00     0.163 HD
ATOM     26  O   UNL     1      -8.308  -0.150   2.334  1.00  0.00    -0.269 OA
BRANCH  24  27
ATOM     27  C   UNL     1      -7.285   1.856   2.984  1.00  0.00     0.039 A 
ATOM     28  C   UNL     1      -7.465   1.624   4.354  1.00  0.00     0.014 A 
ATOM     29  C   UNL     1      -7.039   3.158   2.540  1.00  0.00     0.014 A 
ATOM     30  C   UNL     1      -7.370   2.676   5.270  1.00  0.00     0.010 A 
ATOM     31  C   UNL     1      -6.884   4.200   3.461  1.00  0.00     0.010 A 
ATOM     32  C   UNL     1      -7.063   3.973   4.834  1.00  0.00    -0.014 A 
BRANCH  32  33
ATOM     33  C   UNL     1      -6.956   5.095   5.804  1.00  0.00     0.031 A 
ATOM     34  C   UNL     1      -7.965   6.212   5.798  1.00  0.00     0.074 A 
ATOM     35  C   UNL     1      -5.936   5.125   6.684  1.00  0.00     0.049 A 
ATOM     36  N   UNL     1      -8.018   7.284   6.549  1.00  0.00    -0.248 NA
ATOM     37  C   UNL     1      -9.046   6.122   4.805  1.00  0.00     0.031 C 
ATOM     38  C   UNL     1      -4.872   4.124   6.780  1.00  0.00     0.029 A 
ATOM     39  N   UNL     1      -5.626   6.035   7.665  1.00  0.00    -0.354 N 
ATOM     40  C   UNL     1      -9.124   8.001   6.112  1.00  0.00     0.074 A 
ATOM     41  C   UNL     1      -9.693   7.262   5.004  1.00  0.00     0.031 C 
ATOM     42  C   UNL     1      -4.040   4.463   7.779  1.00  0.00     0.029 A 
ATOM     43  C   UNL     1      -4.495   5.716   8.374  1.00  0.00     0.049 A 
ATOM     44  H   UNL     1      -6.165   6.839   7.842  1.00  0.00     0.167 HD
ATOM     45  C   UNL     1      -9.634   9.158   6.599  1.00  0.00     0.037 A 
ATOM     46  C   UNL     1      -3.890   6.359   9.391  1.00  0.00     0.037 A 
ATOM     47  C   UNL     1      -9.095   9.880   7.721  1.00  0.00     0.049 A 
ATOM     48  C   UNL     1      -4.479   7.638   9.916  1.00  0.00     0.074 A 
ATOM     49  C   UNL     1      -9.579  11.032   8.319  1.00  0.00     0.029 A 
ATOM     50  N   UNL     1      -7.953   9.519   8.417  1.00  0.00    -0.354 N 
ATOM     51  N   UNL     1      -5.554   8.275   9.524  1.00  0.00    -0.248 NA
ATOM     52  C   UNL     1      -3.769   8.285  11.030  1.00  0.00     0.031 C 
ATOM     53  C   UNL     1      -8.712  11.383   9.360  1.00  0.00     0.029 A 
ATOM     54  C   UNL     1      -7.707  10.432   9.429  1.00  0.00     0.049 A 
ATOM     55  H   UNL     1      -7.398   8.729   8.221  1.00  0.00     0.167 HD
ATOM     56  C   UNL     1      -5.664   9.383  10.354  1.00  0.00     0.074 A 
ATOM     57  C   UNL     1      -4.552   9.325  11.280  1.00  0.00     0.031 C 
ATOM     58  C   UNL     1      -6.601  10.360  10.347  1.00  0.00     0.037 A 
BRANCH  45  59
ATOM     59  C   UNL     1     -10.851   9.714   5.920  1.00  0.00     0.057 A 
ATOM     60  C   UNL     1     -12.115   9.134   6.085  1.00  0.00     0.134 A 
ATOM     61  C   UNL     1     -10.764  10.863   5.123  1.00  0.00     0.134 A 
ATOM     62  F   UNL     1     -12.262   8.026   6.826  1.00  0.00    -0.206 F 
ATOM     63  C   UNL     1     -13.247   9.664   5.464  1.00  0.00     0.040 A 
ATOM     64  C   UNL     1     -11.892  11.415   4.515  1.00  0.00     0.040 A 
ATOM     65  F   UNL     1      -9.584  11.471   4.931  1.00  0.00    -0.206 F 
ATOM     66  C   UNL     1     -13.138  10.812   4.681  1.00  0.00     0.006 A 
ENDBRANCH  45  59
BRANCH  46  67
ATOM     67  C   UNL     1      -2.665   5.790  10.002  1.00  0.00     0.057 A 
ATOM     68  C   UNL     1      -2.700   5.208  11.274  1.00  0.00     0.134 A 
ATOM     69  C   UNL     1      -1.433   5.823   9.338  1.00  0.00     0.134 A 
ATOM     70  F   UNL     1      -3.848   5.167  11.965  1.00  0.00    -0.206 F 
ATOM     71  C   UNL     1      -1.550   4.690  11.872  1.00  0.00     0.040 A 
ATOM     72  C   UNL     1      -0.280   5.292   9.915  1.00  0.00     0.040 A 
ATOM     73  F   UNL     1      -1.338   6.365   8.115  1.00  0.00    -0.206 F 
ATOM     74  C   UNL     1      -0.336   4.728  11.189  1.00  0.00     0.006 A 
ENDBRANCH  46  67
BRANCH  58  75
ATOM     75  C   UNL     1      -6.478  11.432  11.387  1.00  0.00     0.057 A 
ATOM     76  C   UNL     1      -5.518  12.446  11.288  1.00  0.00     0.134 A 
ATOM     77  C   UNL     1      -7.348  11.466  12.484  1.00  0.00     0.134 A 
ATOM     78  F   UNL     1      -4.647  12.459  10.267  1.00  0.00    -0.206 F 
ATOM     79  C   UNL     1      -5.415  13.448  12.254  1.00  0.00     0.040 A 
ATOM     80  C   UNL     1      -7.267  12.474  13.446  1.00  0.00     0.040 A 
ATOM     81  F   UNL     1      -8.293  10.526  12.634  1.00  0.00    -0.206 F 
ATOM     82  C   UNL     1      -6.295  13.466  13.334  1.00  0.00     0.006 A 
ENDBRANCH  58  75
ENDBRANCH  32  33
ENDBRANCH  24  27
ENDBRANCH  22  23
ENDBRANCH  21  22
ENDBRANCH   1  21
TORSDOF 15
