REMARK SMILES CC(C)COc1cccc(N2C[C@@H](C(=O)NCCCNC(=O)c3ccc(-c4c5nc(c(-c6c(F)cccc6F)c6ccc([nH]6)c(-c6c(F)cccc6F)c6nc(c(-c7c(F)cccc7F)c7ccc4[nH]7)C=C6)C=C5)cc3)CC2=O)c1
REMARK SMILES IDX 17 1 16 2 14 3 15 4 13 6 11 7 12 8 78 9 77 10 79 11 10 12
REMARK SMILES IDX 6 13 7 14 80 15 8 16 9 17 5 18 4 19 2 20 1 21 3 22 18 23
REMARK SMILES IDX 19 24 20 25 21 26 22 28 23 29 24 30 76 31 25 32 75 33 26 34
REMARK SMILES IDX 27 35 28 36 69 37 29 38 74 39 68 40 70 41 30 42 73 43 67 44
REMARK SMILES IDX 66 45 31 47 57 48 40 49 56 50 41 51 44 52 55 53 71 54 42 55
REMARK SMILES IDX 43 56 54 58 72 59 45 60 32 61 33 62 38 63 34 64 35 65 37 66
REMARK SMILES IDX 39 67 36 68 58 69 59 70 64 71 60 72 61 73 63 74 65 75 62 76
REMARK SMILES IDX 46 77 47 78 52 79 48 80 49 81 51 82 53 83 50 84
REMARK H PARENT 16 5 20 27 70 46 44 57
REMARK Flexibility Score: inf
ROOT
ATOM      1  C   UNL     1       4.016  -1.863   2.273  1.00  0.00     0.117 C 
ENDROOT
BRANCH   1   2
ATOM      2  N   UNL     1       4.574  -1.740   3.610  1.00  0.00    -0.356 N 
ATOM      3  C   UNL     1       4.519  -0.755   4.542  1.00  0.00     0.225 C 
ATOM      4  O   UNL     1       5.074  -0.982   5.621  1.00  0.00    -0.275 OA
ATOM      5  H   UNL     1       5.095  -2.526   3.895  1.00  0.00     0.163 HD
BRANCH   3   6
ATOM      6  C   UNL     1       3.816   0.570   4.331  1.00  0.00     0.107 C 
ATOM      7  N   UNL     1       1.943   1.422   3.183  1.00  0.00    -0.311 N 
ATOM      8  C   UNL     1       2.312   0.446   4.183  1.00  0.00     0.139 C 
ATOM      9  C   UNL     1       3.057   1.951   2.531  1.00  0.00     0.227 C 
ATOM     10  C   UNL     1       4.302   1.365   3.135  1.00  0.00     0.116 C 
ATOM     11  O   UNL     1       3.095   2.752   1.605  1.00  0.00    -0.274 OA
BRANCH   7  12
ATOM     12  C   UNL     1       0.595   1.579   2.767  1.00  0.00     0.047 A 
ATOM     13  C   UNL     1      -0.982   1.661   0.937  1.00  0.00     0.121 A 
ATOM     14  C   UNL     1      -2.050   1.461   1.802  1.00  0.00     0.046 A 
ATOM     15  C   UNL     1       0.307   1.846   1.428  1.00  0.00     0.072 A 
ATOM     16  C   UNL     1      -1.796   1.327   3.165  1.00  0.00     0.006 A 
ATOM     17  C   UNL     1      -0.476   1.335   3.638  1.00  0.00     0.026 A 
BRANCH  13  18
ATOM     18  O   UNL     1      -1.173   1.647  -0.418  1.00  0.00    -0.493 OA
BRANCH  18  19
ATOM     19  C   UNL     1      -0.950   0.329  -0.974  1.00  0.00     0.232 C 
BRANCH  19  20
ATOM     20  C   UNL     1       0.543   0.038  -1.264  1.00  0.00     0.020 C 
ATOM     21  C   UNL     1       1.178  -0.869  -0.200  1.00  0.00     0.011 C 
ATOM     22  C   UNL     1       0.728  -0.646  -2.620  1.00  0.00     0.011 C 
ENDBRANCH  19  20
ENDBRANCH  18  19
ENDBRANCH  13  18
ENDBRANCH   7  12
ENDBRANCH   3   6
ENDBRANCH   1   2
BRANCH   1  23
ATOM     23  C   UNL     1       5.088  -1.887   1.185  1.00  0.00     0.042 C 
BRANCH  23  24
ATOM     24  C   UNL     1       6.064  -3.058   1.266  1.00  0.00     0.118 C 
BRANCH  24  25
ATOM     25  N   UNL     1       5.429  -4.349   1.041  1.00  0.00    -0.352 N 
ATOM     26  C   UNL     1       5.629  -5.282   0.051  1.00  0.00     0.251 C 
ATOM     27  H   UNL     1       4.747  -4.594   1.707  1.00  0.00     0.163 HD
ATOM     28  O   UNL     1       4.860  -6.235  -0.042  1.00  0.00    -0.269 OA
BRANCH  26  29
ATOM     29  C   UNL     1       6.740  -5.141  -0.917  1.00  0.00     0.039 A 
ATOM     30  C   UNL     1       6.503  -5.441  -2.263  1.00  0.00     0.014 A 
ATOM     31  C   UNL     1       8.015  -4.743  -0.510  1.00  0.00     0.014 A 
ATOM     32  C   UNL     1       7.520  -5.268  -3.205  1.00  0.00     0.010 A 
ATOM     33  C   UNL     1       9.001  -4.488  -1.460  1.00  0.00     0.010 A 
ATOM     34  C   UNL     1       8.766  -4.747  -2.819  1.00  0.00    -0.014 A 
BRANCH  34  35
ATOM     35  C   UNL     1       9.830  -4.462  -3.817  1.00  0.00     0.031 A 
ATOM     36  C   UNL     1      11.148  -5.185  -3.752  1.00  0.00     0.074 A 
ATOM     37  C   UNL     1       9.637  -3.503  -4.744  1.00  0.00     0.049 A 
ATOM     38  N   UNL     1      12.220  -5.021  -4.485  1.00  0.00    -0.248 NA
ATOM     39  C   UNL     1      11.286  -6.212  -2.708  1.00  0.00     0.031 C 
ATOM     40  C   UNL     1       8.420  -2.703  -4.894  1.00  0.00     0.029 A 
ATOM     41  N   UNL     1      10.466  -3.032  -5.731  1.00  0.00    -0.354 N 
ATOM     42  C   UNL     1      13.160  -5.914  -3.986  1.00  0.00     0.074 A 
ATOM     43  C   UNL     1      12.553  -6.570  -2.848  1.00  0.00     0.031 C 
ATOM     44  C   UNL     1       8.569  -1.865  -5.931  1.00  0.00     0.029 A 
ATOM     45  C   UNL     1       9.907  -2.032  -6.490  1.00  0.00     0.049 A 
ATOM     46  H   UNL     1      11.376  -3.377  -5.881  1.00  0.00     0.167 HD
ATOM     47  C   UNL     1      14.405  -6.184  -4.448  1.00  0.00     0.037 A 
ATOM     48  C   UNL     1      10.417  -1.324  -7.516  1.00  0.00     0.037 A 
ATOM     49  C   UNL     1      15.006  -5.533  -5.583  1.00  0.00     0.049 A 
ATOM     50  C   UNL     1      11.820  -1.606  -7.979  1.00  0.00     0.074 A 
ATOM     51  C   UNL     1      16.246  -5.762  -6.154  1.00  0.00     0.029 A 
ATOM     52  N   UNL     1      14.411  -4.517  -6.318  1.00  0.00    -0.354 N 
ATOM     53  N   UNL     1      12.675  -2.494  -7.535  1.00  0.00    -0.248 NA
ATOM     54  C   UNL     1      12.326  -0.785  -9.088  1.00  0.00     0.031 C 
ATOM     55  C   UNL     1      16.423  -4.849  -7.198  1.00  0.00     0.029 A 
ATOM     56  C   UNL     1      15.269  -4.091  -7.319  1.00  0.00     0.049 A 
ATOM     57  H   UNL     1      13.511  -4.153  -6.152  1.00  0.00     0.167 HD
ATOM     58  C   UNL     1      13.806  -2.365  -8.332  1.00  0.00     0.074 A 
ATOM     59  C   UNL     1      13.523  -1.318  -9.292  1.00  0.00     0.031 C 
ATOM     60  C   UNL     1      14.973  -3.053  -8.275  1.00  0.00     0.037 A 
BRANCH  47  61
ATOM     61  C   UNL     1      15.200  -7.228  -3.714  1.00  0.00     0.057 A 
ATOM     62  C   UNL     1      14.834  -8.582  -3.729  1.00  0.00     0.134 A 
ATOM     63  C   UNL     1      16.349  -6.882  -2.991  1.00  0.00     0.134 A 
ATOM     64  F   UNL     1      13.739  -8.983  -4.393  1.00  0.00    -0.206 F 
ATOM     65  C   UNL     1      15.557  -9.544  -3.021  1.00  0.00     0.040 A 
ATOM     66  C   UNL     1      17.099  -7.840  -2.306  1.00  0.00     0.040 A 
ATOM     67  F   UNL     1      16.764  -5.607  -2.941  1.00  0.00    -0.206 F 
ATOM     68  C   UNL     1      16.696  -9.174  -2.311  1.00  0.00     0.006 A 
ENDBRANCH  47  61
BRANCH  48  69
ATOM     69  C   UNL     1       9.586  -0.299  -8.198  1.00  0.00     0.057 A 
ATOM     70  C   UNL     1       9.139  -0.495  -9.510  1.00  0.00     0.134 A 
ATOM     71  C   UNL     1       9.223   0.896  -7.566  1.00  0.00     0.134 A 
ATOM     72  F   UNL     1       9.469  -1.612 -10.175  1.00  0.00    -0.206 F 
ATOM     73  C   UNL     1       8.377   0.466 -10.176  1.00  0.00     0.040 A 
ATOM     74  C   UNL     1       8.438   1.855  -8.210  1.00  0.00     0.040 A 
ATOM     75  F   UNL     1       9.613   1.142  -6.306  1.00  0.00    -0.206 F 
ATOM     76  C   UNL     1       8.020   1.644  -9.522  1.00  0.00     0.006 A 
ENDBRANCH  48  69
BRANCH  60  77
ATOM     77  C   UNL     1      16.015  -2.730  -9.307  1.00  0.00     0.057 A 
ATOM     78  C   UNL     1      16.731  -1.527  -9.291  1.00  0.00     0.134 A 
ATOM     79  C   UNL     1      16.334  -3.657 -10.309  1.00  0.00     0.134 A 
ATOM     80  F   UNL     1      16.466  -0.590  -8.367  1.00  0.00    -0.206 F 
ATOM     81  C   UNL     1      17.709  -1.247 -10.247  1.00  0.00     0.040 A 
ATOM     82  C   UNL     1      17.330  -3.402 -11.251  1.00  0.00     0.040 A 
ATOM     83  F   UNL     1      15.693  -4.834 -10.377  1.00  0.00    -0.206 F 
ATOM     84  C   UNL     1      18.017  -2.190 -11.226  1.00  0.00     0.006 A 
ENDBRANCH  60  77
ENDBRANCH  34  35
ENDBRANCH  26  29
ENDBRANCH  24  25
ENDBRANCH  23  24
ENDBRANCH   1  23
TORSDOF 14
