REMARK SMILES O=C(C[C@@H](NS(=O)(=O)c1ccc2c(c1)OCCO2)c1ccccc1)NCCCNC(=O)c1ccc(-c2c3nc(c(-c4c(F)cccc4F)c4ccc([nH]4)c(-c4c(F)cccc4F)c4nc(c(-c5c(F)cccc5F)c5ccc2[nH]5)C=C4)C=C3)cc1
REMARK SMILES IDX 26 1 25 2 1 3 2 4 3 6 4 7 5 8 6 10 7 11 8 12 9 13 10 14
REMARK SMILES IDX 14 15 11 16 13 17 12 18 15 19 18 20 16 21 17 22 19 23 20 24
REMARK SMILES IDX 24 25 21 26 23 27 22 28 27 29 28 30 29 31 30 32 31 34 32 35
REMARK SMILES IDX 33 36 85 37 34 38 84 39 35 40 36 41 37 42 78 43 38 44 83 45
REMARK SMILES IDX 77 46 79 47 39 48 82 49 76 50 75 51 40 53 66 54 49 55 65 56
REMARK SMILES IDX 50 57 53 58 64 59 80 60 51 61 52 62 63 64 81 65 54 66 41 67
REMARK SMILES IDX 42 68 47 69 43 70 44 71 46 72 48 73 45 74 67 75 68 76 73 77
REMARK SMILES IDX 69 78 70 79 72 80 74 81 71 82 55 83 56 84 61 85 57 86 58 87
REMARK SMILES IDX 60 88 62 89 59 90
REMARK H PARENT 25 5 5 9 29 33 79 52 53 63
REMARK Flexibility Score: inf
ROOT
ATOM      1  C   UNL     1       2.069   1.845   1.693  1.00  0.00     0.117 C 
ENDROOT
BRANCH   1   2
ATOM      2  N   UNL     1       2.583   0.704   0.960  1.00  0.00    -0.356 N 
ATOM      3  O   UNL     1       1.101   0.933  -0.781  1.00  0.00    -0.275 OA
ATOM      4  C   UNL     1       2.053   0.357  -0.266  1.00  0.00     0.221 C 
ATOM      5  H   UNL     1       3.318   0.171   1.341  1.00  0.00     0.163 HD
BRANCH   4   6
ATOM      6  C   UNL     1       2.777  -0.768  -0.962  1.00  0.00     0.124 C 
BRANCH   6   7
ATOM      7  C   UNL     1       3.778  -0.193  -1.984  1.00  0.00     0.109 C 
BRANCH   7   8
ATOM      8  N   UNL     1       4.977   0.289  -1.244  1.00  0.00    -0.203 NA
ATOM      9  H   UNL     1       5.504  -0.537  -0.962  1.00  0.00     0.142 HD
BRANCH   8  10
ATOM     10  S   UNL     1       6.064   1.329  -2.015  1.00  0.00     0.241 S 
ATOM     11  O   UNL     1       5.318   2.118  -2.969  1.00  0.00    -0.207 OA
ATOM     12  O   UNL     1       6.809   1.945  -0.938  1.00  0.00    -0.207 OA
BRANCH  10  13
ATOM     13  C   UNL     1       7.192   0.282  -2.885  1.00  0.00     0.086 A 
ATOM     14  C   UNL     1       7.458  -1.012  -2.428  1.00  0.00     0.026 A 
ATOM     15  C   UNL     1       7.728   0.740  -4.093  1.00  0.00     0.072 A 
ATOM     16  C   UNL     1       8.220  -1.875  -3.217  1.00  0.00     0.052 A 
ATOM     17  C   UNL     1       8.488  -0.128  -4.871  1.00  0.00     0.162 A 
ATOM     18  C   UNL     1       8.730  -1.436  -4.438  1.00  0.00     0.161 A 
ATOM     19  O   UNL     1       8.954   0.367  -6.062  1.00  0.00    -0.486 OA
ATOM     20  O   UNL     1       9.434  -2.355  -5.173  1.00  0.00    -0.486 OA
ATOM     21  C   UNL     1       9.310  -0.693  -6.955  1.00  0.00     0.271 C 
ATOM     22  C   UNL     1      10.154  -1.740  -6.247  1.00  0.00     0.271 C 
ENDBRANCH  10  13
ENDBRANCH   8  10
ENDBRANCH   7   8
BRANCH   7  23
ATOM     23  C   UNL     1       4.145  -1.235  -3.033  1.00  0.00    -0.029 A 
ATOM     24  C   UNL     1       4.362  -2.586  -2.707  1.00  0.00     0.005 A 
ATOM     25  C   UNL     1       4.336  -0.835  -4.366  1.00  0.00     0.005 A 
ATOM     26  C   UNL     1       4.754  -3.504  -3.683  1.00  0.00     0.000 A 
ATOM     27  C   UNL     1       4.748  -1.751  -5.336  1.00  0.00     0.000 A 
ATOM     28  C   UNL     1       4.955  -3.084  -4.995  1.00  0.00     0.000 A 
ENDBRANCH   7  23
ENDBRANCH   6   7
ENDBRANCH   4   6
ENDBRANCH   1   2
BRANCH   1  29
ATOM     29  C   UNL     1       2.315   1.758   3.194  1.00  0.00     0.042 C 
BRANCH  29  30
ATOM     30  C   UNL     1       3.780   1.830   3.616  1.00  0.00     0.118 C 
BRANCH  30  31
ATOM     31  N   UNL     1       4.410   3.103   3.312  1.00  0.00    -0.352 N 
ATOM     32  C   UNL     1       5.195   3.911   4.100  1.00  0.00     0.251 C 
ATOM     33  H   UNL     1       4.250   3.439   2.401  1.00  0.00     0.163 HD
ATOM     34  O   UNL     1       5.523   5.019   3.686  1.00  0.00    -0.269 OA
BRANCH  32  35
ATOM     35  C   UNL     1       5.624   3.483   5.452  1.00  0.00     0.039 A 
ATOM     36  C   UNL     1       5.622   4.435   6.478  1.00  0.00     0.014 A 
ATOM     37  C   UNL     1       6.062   2.182   5.717  1.00  0.00     0.014 A 
ATOM     38  C   UNL     1       5.999   4.071   7.772  1.00  0.00     0.010 A 
ATOM     39  C   UNL     1       6.379   1.803   7.022  1.00  0.00     0.010 A 
ATOM     40  C   UNL     1       6.352   2.743   8.063  1.00  0.00    -0.014 A 
BRANCH  40  41
ATOM     41  C   UNL     1       6.687   2.336   9.451  1.00  0.00     0.031 A 
ATOM     42  C   UNL     1       8.081   1.898   9.807  1.00  0.00     0.074 A 
ATOM     43  C   UNL     1       5.721   2.321  10.390  1.00  0.00     0.049 A 
ATOM     44  N   UNL     1       8.550   1.495  10.961  1.00  0.00    -0.248 NA
ATOM     45  C   UNL     1       9.071   1.890   8.720  1.00  0.00     0.031 C 
ATOM     46  C   UNL     1       4.317   2.670  10.164  1.00  0.00     0.029 A 
ATOM     47  N   UNL     1       5.773   1.998  11.722  1.00  0.00    -0.354 N 
ATOM     48  C   UNL     1       9.882   1.173  10.736  1.00  0.00     0.074 A 
ATOM     49  C   UNL     1      10.136   1.386   9.327  1.00  0.00     0.031 C 
ATOM     50  C   UNL     1       3.648   2.569  11.324  1.00  0.00     0.029 A 
ATOM     51  C   UNL     1       4.568   2.128  12.368  1.00  0.00     0.049 A 
ATOM     52  H   UNL     1       6.597   1.702  12.173  1.00  0.00     0.167 HD
ATOM     53  C   UNL     1      10.816   0.756  11.626  1.00  0.00     0.037 A 
ATOM     54  C   UNL     1       4.242   1.922  13.658  1.00  0.00     0.037 A 
ATOM     55  C   UNL     1      10.578   0.577  13.034  1.00  0.00     0.049 A 
ATOM     56  C   UNL     1       5.303   1.496  14.631  1.00  0.00     0.074 A 
ATOM     57  C   UNL     1      11.478   0.216  14.022  1.00  0.00     0.029 A 
ATOM     58  N   UNL     1       9.350   0.749  13.654  1.00  0.00    -0.354 N 
ATOM     59  N   UNL     1       6.573   1.256  14.415  1.00  0.00    -0.248 NA
ATOM     60  C   UNL     1       4.888   1.324  16.030  1.00  0.00     0.031 C 
ATOM     61  C   UNL     1      10.788   0.146  15.238  1.00  0.00     0.029 A 
ATOM     62  C   UNL     1       9.467   0.492  15.011  1.00  0.00     0.049 A 
ATOM     63  H   UNL     1       8.519   1.014  13.198  1.00  0.00     0.167 HD
ATOM     64  C   UNL     1       7.113   0.927  15.651  1.00  0.00     0.074 A 
ATOM     65  C   UNL     1       6.035   1.011  16.615  1.00  0.00     0.031 C 
ATOM     66  C   UNL     1       8.387   0.585  15.959  1.00  0.00     0.037 A 
BRANCH  53  67
ATOM     67  C   UNL     1      12.191   0.476  11.098  1.00  0.00     0.057 A 
ATOM     68  C   UNL     1      13.057   1.510  10.719  1.00  0.00     0.134 A 
ATOM     69  C   UNL     1      12.666  -0.837  10.997  1.00  0.00     0.134 A 
ATOM     70  F   UNL     1      12.656   2.788  10.780  1.00  0.00    -0.206 F 
ATOM     71  C   UNL     1      14.340   1.246  10.236  1.00  0.00     0.040 A 
ATOM     72  C   UNL     1      13.955  -1.112  10.537  1.00  0.00     0.040 A 
ATOM     73  F   UNL     1      11.888  -1.872  11.349  1.00  0.00    -0.206 F 
ATOM     74  C   UNL     1      14.794  -0.069  10.150  1.00  0.00     0.006 A 
ENDBRANCH  53  67
BRANCH  54  75
ATOM     75  C   UNL     1       2.852   2.159  14.114  1.00  0.00     0.057 A 
ATOM     76  C   UNL     1       2.530   3.280  14.886  1.00  0.00     0.134 A 
ATOM     77  C   UNL     1       1.816   1.274  13.793  1.00  0.00     0.134 A 
ATOM     78  F   UNL     1       3.486   4.152  15.239  1.00  0.00    -0.206 F 
ATOM     79  C   UNL     1       1.230   3.508  15.338  1.00  0.00     0.040 A 
ATOM     80  C   UNL     1       0.507   1.499  14.222  1.00  0.00     0.040 A 
ATOM     81  F   UNL     1       2.062   0.185  13.051  1.00  0.00    -0.206 F 
ATOM     82  C   UNL     1       0.213   2.616  15.002  1.00  0.00     0.006 A 
ENDBRANCH  54  75
BRANCH  66  83
ATOM     83  C   UNL     1       8.688   0.303  17.399  1.00  0.00     0.057 A 
ATOM     84  C   UNL     1       8.285  -0.888  18.015  1.00  0.00     0.134 A 
ATOM     85  C   UNL     1       9.408   1.224  18.171  1.00  0.00     0.134 A 
ATOM     86  F   UNL     1       7.580  -1.802  17.332  1.00  0.00    -0.206 F 
ATOM     87  C   UNL     1       8.571  -1.145  19.357  1.00  0.00     0.040 A 
ATOM     88  C   UNL     1       9.716   0.969  19.508  1.00  0.00     0.040 A 
ATOM     89  F   UNL     1       9.826   2.381  17.637  1.00  0.00    -0.206 F 
ATOM     90  C   UNL     1       9.293  -0.217  20.106  1.00  0.00     0.006 A 
ENDBRANCH  66  83
ENDBRANCH  40  41
ENDBRANCH  32  35
ENDBRANCH  30  31
ENDBRANCH  29  30
ENDBRANCH   1  29
TORSDOF 15
