REMARK SMILES C[C@H]1[C@H](C(=O)NCCCNC(=O)c2ccc(-c3c4nc(c(-c5c(F)cccc5F)c5ccc([nH]5)c(-c5c(F)cccc5F)c5nc(c(-c6c(F)cccc6F)c6ccc3[nH]6)C=C5)C=C4)cc2)CCN1C(=O)COc1ccccc1F
REMARK SMILES IDX 7 1 6 2 4 3 5 4 3 6 1 7 2 8 69 9 67 10 68 11 70 12 71 13
REMARK SMILES IDX 72 14 73 15 74 16 75 17 79 18 76 19 78 20 80 21 77 22 8 23
REMARK SMILES IDX 9 24 10 25 11 26 12 28 13 29 14 30 66 31 15 32 65 33 16 34
REMARK SMILES IDX 17 35 18 36 59 37 19 38 64 39 58 40 60 41 20 42 63 43 57 44
REMARK SMILES IDX 56 45 21 47 47 48 30 49 46 50 31 51 34 52 45 53 61 54 32 55
REMARK SMILES IDX 33 56 44 58 62 59 35 60 22 61 23 62 28 63 24 64 25 65 27 66
REMARK SMILES IDX 29 67 26 68 48 69 49 70 54 71 50 72 51 73 53 74 55 75 52 76
REMARK SMILES IDX 36 77 37 78 42 79 38 80 39 81 41 82 43 83 40 84
REMARK H PARENT 6 5 10 27 60 46 34 57
REMARK Flexibility Score: inf
ROOT
ATOM      1  C   UNL     1      -1.222   0.661   2.899  1.00  0.00     0.117 C 
ENDROOT
BRANCH   1   2
ATOM      2  N   UNL     1      -0.647   1.912   2.434  1.00  0.00    -0.356 N 
ATOM      3  C   UNL     1      -0.132   2.278   1.233  1.00  0.00     0.225 C 
ATOM      4  O   UNL     1       0.327   3.421   1.144  1.00  0.00    -0.275 OA
ATOM      5  H   UNL     1      -0.628   2.623   3.114  1.00  0.00     0.163 HD
BRANCH   3   6
ATOM      6  C   UNL     1      -0.094   1.352   0.032  1.00  0.00     0.102 C 
ATOM      7  C   UNL     1       1.962   0.195  -0.794  1.00  0.00     0.032 C 
ATOM      8  C   UNL     1       0.836   0.140   0.240  1.00  0.00     0.094 C 
ATOM      9  N   UNL     1      -0.047  -1.020   0.099  1.00  0.00    -0.336 N 
ATOM     10  C   UNL     1      -1.462   0.819  -0.394  1.00  0.00     0.037 C 
ATOM     11  C   UNL     1      -1.269  -0.670  -0.600  1.00  0.00     0.121 C 
BRANCH   9  12
ATOM     12  C   UNL     1       0.077  -2.283   0.641  1.00  0.00     0.260 C 
ATOM     13  O   UNL     1      -0.915  -2.999   0.823  1.00  0.00    -0.271 OA
BRANCH  12  14
ATOM     14  C   UNL     1       1.457  -2.811   1.060  1.00  0.00     0.329 C 
BRANCH  14  15
ATOM     15  O   UNL     1       2.619  -2.637   0.279  1.00  0.00    -0.481 OA
BRANCH  15  16
ATOM     16  C   UNL     1       2.744  -3.287  -0.918  1.00  0.00     0.155 A 
ATOM     17  C   UNL     1       4.071  -3.522  -1.300  1.00  0.00     0.049 A 
ATOM     18  C   UNL     1       1.733  -3.624  -1.818  1.00  0.00     0.165 A 
ATOM     19  C   UNL     1       4.374  -4.078  -2.548  1.00  0.00     0.004 A 
ATOM     20  C   UNL     1       2.029  -4.164  -3.070  1.00  0.00     0.043 A 
ATOM     21  F   UNL     1       0.443  -3.400  -1.558  1.00  0.00    -0.203 F 
ATOM     22  C   UNL     1       3.351  -4.392  -3.438  1.00  0.00     0.003 A 
ENDBRANCH  15  16
ENDBRANCH  14  15
ENDBRANCH  12  14
ENDBRANCH   9  12
ENDBRANCH   3   6
ENDBRANCH   1   2
BRANCH   1  23
ATOM     23  C   UNL     1      -0.332  -0.036   3.920  1.00  0.00     0.042 C 
BRANCH  23  24
ATOM     24  C   UNL     1      -0.162   0.739   5.222  1.00  0.00     0.118 C 
BRANCH  24  25
ATOM     25  N   UNL     1      -1.416   0.907   5.943  1.00  0.00    -0.352 N 
ATOM     26  C   UNL     1      -1.774   0.507   7.204  1.00  0.00     0.251 C 
ATOM     27  H   UNL     1      -2.119   1.385   5.445  1.00  0.00     0.163 HD
ATOM     28  O   UNL     1      -2.951   0.589   7.554  1.00  0.00    -0.269 OA
BRANCH  26  29
ATOM     29  C   UNL     1      -0.768  -0.035   8.142  1.00  0.00     0.039 A 
ATOM     30  C   UNL     1      -1.119  -1.123   8.947  1.00  0.00     0.014 A 
ATOM     31  C   UNL     1       0.499   0.541   8.262  1.00  0.00     0.014 A 
ATOM     32  C   UNL     1      -0.182  -1.667   9.827  1.00  0.00     0.010 A 
ATOM     33  C   UNL     1       1.458  -0.050   9.081  1.00  0.00     0.010 A 
ATOM     34  C   UNL     1       1.125  -1.155   9.877  1.00  0.00    -0.014 A 
BRANCH  34  35
ATOM     35  C   UNL     1       2.150  -1.761  10.762  1.00  0.00     0.031 A 
ATOM     36  C   UNL     1       2.740  -0.969  11.895  1.00  0.00     0.074 A 
ATOM     37  C   UNL     1       2.592  -3.008  10.507  1.00  0.00     0.049 A 
ATOM     38  N   UNL     1       3.682  -1.310  12.739  1.00  0.00    -0.248 NA
ATOM     39  C   UNL     1       2.226   0.395  12.089  1.00  0.00     0.031 C 
ATOM     40  C   UNL     1       2.141  -3.857   9.403  1.00  0.00     0.029 A 
ATOM     41  N   UNL     1       3.527  -3.774  11.156  1.00  0.00    -0.354 N 
ATOM     42  C   UNL     1       3.880  -0.200  13.552  1.00  0.00     0.074 A 
ATOM     43  C   UNL     1       3.000   0.841  13.066  1.00  0.00     0.031 C 
ATOM     44  C   UNL     1       2.784  -5.035   9.465  1.00  0.00     0.029 A 
ATOM     45  C   UNL     1       3.711  -5.012  10.591  1.00  0.00     0.049 A 
ATOM     46  H   UNL     1       4.020  -3.465  11.951  1.00  0.00     0.167 HD
ATOM     47  C   UNL     1       4.700  -0.069  14.621  1.00  0.00     0.037 A 
ATOM     48  C   UNL     1       4.535  -6.017  10.942  1.00  0.00     0.037 A 
ATOM     49  C   UNL     1       5.556  -1.114  15.119  1.00  0.00     0.049 A 
ATOM     50  C   UNL     1       5.420  -5.855  12.145  1.00  0.00     0.074 A 
ATOM     51  C   UNL     1       6.383  -1.097  16.228  1.00  0.00     0.029 A 
ATOM     52  N   UNL     1       5.689  -2.366  14.539  1.00  0.00    -0.354 N 
ATOM     53  N   UNL     1       5.552  -4.822  12.941  1.00  0.00    -0.248 NA
ATOM     54  C   UNL     1       6.264  -7.004  12.504  1.00  0.00     0.031 C 
ATOM     55  C   UNL     1       7.043  -2.329  16.300  1.00  0.00     0.029 A 
ATOM     56  C   UNL     1       6.597  -3.127  15.259  1.00  0.00     0.049 A 
ATOM     57  H   UNL     1       5.211  -2.670  13.734  1.00  0.00     0.167 HD
ATOM     58  C   UNL     1       6.476  -5.201  13.905  1.00  0.00     0.074 A 
ATOM     59  C   UNL     1       6.859  -6.566  13.604  1.00  0.00     0.031 C 
ATOM     60  C   UNL     1       6.967  -4.482  14.944  1.00  0.00     0.037 A 
BRANCH  47  61
ATOM     61  C   UNL     1       4.702   1.255  15.328  1.00  0.00     0.057 A 
ATOM     62  C   UNL     1       3.611   1.678  16.100  1.00  0.00     0.134 A 
ATOM     63  C   UNL     1       5.811   2.106  15.257  1.00  0.00     0.134 A 
ATOM     64  F   UNL     1       2.512   0.915  16.199  1.00  0.00    -0.206 F 
ATOM     65  C   UNL     1       3.613   2.913  16.752  1.00  0.00     0.040 A 
ATOM     66  C   UNL     1       5.835   3.332  15.925  1.00  0.00     0.040 A 
ATOM     67  F   UNL     1       6.891   1.761  14.539  1.00  0.00    -0.206 F 
ATOM     68  C   UNL     1       4.730   3.741  16.670  1.00  0.00     0.006 A 
ENDBRANCH  47  61
BRANCH  48  69
ATOM     69  C   UNL     1       4.538  -7.276  10.159  1.00  0.00     0.057 A 
ATOM     70  C   UNL     1       3.986  -8.451  10.681  1.00  0.00     0.134 A 
ATOM     71  C   UNL     1       5.084  -7.335   8.871  1.00  0.00     0.134 A 
ATOM     72  F   UNL     1       3.464  -8.460  11.916  1.00  0.00    -0.206 F 
ATOM     73  C   UNL     1       3.992  -9.645   9.959  1.00  0.00     0.040 A 
ATOM     74  C   UNL     1       5.076  -8.516   8.128  1.00  0.00     0.040 A 
ATOM     75  F   UNL     1       5.620  -6.240   8.312  1.00  0.00    -0.206 F 
ATOM     76  C   UNL     1       4.534  -9.678   8.675  1.00  0.00     0.006 A 
ENDBRANCH  48  69
BRANCH  60  77
ATOM     77  C   UNL     1       7.954  -5.169  15.840  1.00  0.00     0.057 A 
ATOM     78  C   UNL     1       9.269  -5.421  15.431  1.00  0.00     0.134 A 
ATOM     79  C   UNL     1       7.590  -5.562  17.134  1.00  0.00     0.134 A 
ATOM     80  F   UNL     1       9.675  -5.081  14.198  1.00  0.00    -0.206 F 
ATOM     81  C   UNL     1      10.182  -6.062  16.270  1.00  0.00     0.040 A 
ATOM     82  C   UNL     1       8.501  -6.182  17.990  1.00  0.00     0.040 A 
ATOM     83  F   UNL     1       6.348  -5.343  17.589  1.00  0.00    -0.206 F 
ATOM     84  C   UNL     1       9.800  -6.440  17.556  1.00  0.00     0.006 A 
ENDBRANCH  60  77
ENDBRANCH  34  35
ENDBRANCH  26  29
ENDBRANCH  24  25
ENDBRANCH  23  24
ENDBRANCH   1  23
TORSDOF 14
