REMARK SMILES C[C@H](NC(=O)c1ccc(C(C)(C)C)cc1)C(=O)N[C@@H](C(=O)NCCCNC(=O)c1ccc(-c2c3nc(c(-c4c(F)cccc4F)c4ccc([nH]4)c(-c4c(F)cccc4F)c4nc(c(-c5c(F)cccc5F)c5ccc2[nH]5)C=C4)C=C3)cc1)[C@H](C)O
REMARK SMILES IDX 20 1 21 2 22 3 19 5 18 6 16 7 17 8 2 10 1 11 3 12 4 13 5 15
REMARK SMILES IDX 6 16 7 17 15 18 8 19 14 20 9 21 10 22 11 23 12 24 13 25
REMARK SMILES IDX 83 26 84 27 85 28 23 30 24 31 25 32 26 33 27 34 28 36 29 37
REMARK SMILES IDX 30 38 82 39 31 40 81 41 32 42 33 43 34 44 75 45 35 46 80 47
REMARK SMILES IDX 74 48 76 49 36 50 79 51 73 52 72 53 37 55 63 56 46 57 62 58
REMARK SMILES IDX 47 59 50 60 61 61 77 62 48 63 49 64 60 66 78 67 51 68 38 69
REMARK SMILES IDX 39 70 44 71 40 72 41 73 43 74 45 75 42 76 64 77 65 78 70 79
REMARK SMILES IDX 66 80 67 81 69 82 71 83 68 84 52 85 53 86 58 87 54 88 55 89
REMARK SMILES IDX 57 90 59 91 56 92
REMARK H PARENT 22 4 18 9 3 14 85 29 26 35 76 54 50 65
REMARK Flexibility Score: inf
ROOT
ATOM      1  C   UNL     1       0.440  -4.059   2.701  1.00  0.00     0.245 C 
ATOM      2  O   UNL     1       1.068  -3.321   3.464  1.00  0.00    -0.273 OA
ATOM      3  N   UNL     1       0.886  -5.343   2.538  1.00  0.00    -0.354 N 
ATOM      4  H   UNL     1       1.674  -5.593   3.072  1.00  0.00     0.163 HD
ENDROOT
BRANCH   1   5
ATOM      5  C   UNL     1      -0.790  -3.560   1.899  1.00  0.00     0.200 C 
BRANCH   5   6
ATOM      6  N   UNL     1      -0.358  -3.394   0.500  1.00  0.00    -0.340 N 
ATOM      7  C   UNL     1      -0.982  -3.625  -0.688  1.00  0.00     0.243 C 
ATOM      8  O   UNL     1      -0.308  -3.478  -1.711  1.00  0.00    -0.273 OA
ATOM      9  H   UNL     1       0.559  -3.048   0.407  1.00  0.00     0.164 HD
BRANCH   7  10
ATOM     10  C   UNL     1      -2.421  -4.176  -0.771  1.00  0.00     0.168 C 
ATOM     11  C   UNL     1      -3.406  -3.295  -0.018  1.00  0.00     0.041 C 
BRANCH  10  12
ATOM     12  N   UNL     1      -2.348  -5.586  -0.384  1.00  0.00    -0.341 N 
ATOM     13  C   UNL     1      -3.287  -6.482   0.048  1.00  0.00     0.251 C 
ATOM     14  H   UNL     1      -1.442  -5.965  -0.448  1.00  0.00     0.164 HD
ATOM     15  O   UNL     1      -2.940  -7.566   0.494  1.00  0.00    -0.269 OA
BRANCH  13  16
ATOM     16  C   UNL     1      -4.708  -6.121  -0.017  1.00  0.00     0.039 A 
ATOM     17  C   UNL     1      -5.463  -6.074   1.151  1.00  0.00     0.014 A 
ATOM     18  C   UNL     1      -5.279  -5.813  -1.249  1.00  0.00     0.014 A 
ATOM     19  C   UNL     1      -6.784  -5.624   1.089  1.00  0.00     0.005 A 
ATOM     20  C   UNL     1      -6.597  -5.363  -1.301  1.00  0.00     0.005 A 
ATOM     21  C   UNL     1      -7.366  -5.220  -0.132  1.00  0.00    -0.043 A 
BRANCH  21  22
ATOM     22  C   UNL     1      -8.796  -4.653  -0.163  1.00  0.00    -0.013 C 
ATOM     23  C   UNL     1      -9.793  -5.791   0.123  1.00  0.00     0.016 C 
ATOM     24  C   UNL     1      -8.960  -3.546   0.904  1.00  0.00     0.016 C 
ATOM     25  C   UNL     1      -9.172  -4.017  -1.521  1.00  0.00     0.016 C 
ENDBRANCH  21  22
ENDBRANCH  13  16
ENDBRANCH  10  12
ENDBRANCH   7  10
ENDBRANCH   5   6
BRANCH   5  26
ATOM     26  C   UNL     1      -1.376  -2.256   2.519  1.00  0.00     0.143 C 
ATOM     27  C   UNL     1      -0.717  -0.960   2.059  1.00  0.00     0.041 C 
BRANCH  26  28
ATOM     28  O   UNL     1      -1.385  -2.292   3.949  1.00  0.00    -0.391 OA
ATOM     29  H   UNL     1      -0.473  -2.305   4.278  1.00  0.00     0.211 HD
ENDBRANCH  26  28
ENDBRANCH   5  26
ENDBRANCH   1   5
BRANCH   3  30
ATOM     30  C   UNL     1       0.348  -6.382   1.681  1.00  0.00     0.117 C 
BRANCH  30  31
ATOM     31  C   UNL     1       1.151  -6.525   0.391  1.00  0.00     0.042 C 
BRANCH  31  32
ATOM     32  C   UNL     1       2.336  -7.469   0.539  1.00  0.00     0.118 C 
BRANCH  32  33
ATOM     33  N   UNL     1       1.917  -8.860   0.663  1.00  0.00    -0.352 N 
ATOM     34  C   UNL     1       2.405  -9.983   0.044  1.00  0.00     0.251 C 
ATOM     35  H   UNL     1       1.170  -9.017   1.286  1.00  0.00     0.163 HD
ATOM     36  O   UNL     1       1.825 -11.056   0.175  1.00  0.00    -0.269 OA
BRANCH  34  37
ATOM     37  C   UNL     1       3.610  -9.901  -0.808  1.00  0.00     0.039 A 
ATOM     38  C   UNL     1       3.619 -10.591  -2.024  1.00  0.00     0.014 A 
ATOM     39  C   UNL     1       4.724  -9.155  -0.416  1.00  0.00     0.014 A 
ATOM     40  C   UNL     1       4.719 -10.480  -2.876  1.00  0.00     0.010 A 
ATOM     41  C   UNL     1       5.785  -8.983  -1.298  1.00  0.00     0.010 A 
ATOM     42  C   UNL     1       5.794  -9.645  -2.535  1.00  0.00    -0.014 A 
BRANCH  42  43
ATOM     43  C   UNL     1       6.939  -9.444  -3.455  1.00  0.00     0.031 A 
ATOM     44  C   UNL     1       8.316  -9.890  -3.054  1.00  0.00     0.074 A 
ATOM     45  C   UNL     1       6.751  -8.789  -4.616  1.00  0.00     0.049 A 
ATOM     46  N   UNL     1       9.454  -9.724  -3.677  1.00  0.00    -0.248 NA
ATOM     47  C   UNL     1       8.432 -10.588  -1.764  1.00  0.00     0.031 C 
ATOM     48  C   UNL     1       5.470  -8.270  -5.098  1.00  0.00     0.029 A 
ATOM     49  N   UNL     1       7.642  -8.441  -5.598  1.00  0.00    -0.354 N 
ATOM     50  C   UNL     1      10.422 -10.271  -2.845  1.00  0.00     0.074 A 
ATOM     51  C   UNL     1       9.744 -10.731  -1.653  1.00  0.00     0.031 C 
ATOM     52  C   UNL     1       5.652  -7.700  -6.300  1.00  0.00     0.029 A 
ATOM     53  C   UNL     1       7.066  -7.776  -6.653  1.00  0.00     0.049 A 
ATOM     54  H   UNL     1       8.604  -8.647  -5.552  1.00  0.00     0.167 HD
ATOM     55  C   UNL     1      11.753 -10.398  -3.064  1.00  0.00     0.037 A 
ATOM     56  C   UNL     1       7.617  -7.283  -7.777  1.00  0.00     0.037 A 
ATOM     57  C   UNL     1      12.417  -9.970  -4.266  1.00  0.00     0.049 A 
ATOM     58  C   UNL     1       9.096  -7.427  -7.994  1.00  0.00     0.074 A 
ATOM     59  C   UNL     1      13.745 -10.127  -4.622  1.00  0.00     0.029 A 
ATOM     60  N   UNL     1      11.800  -9.298  -5.311  1.00  0.00    -0.354 N 
ATOM     61  N   UNL     1       9.991  -8.003  -7.230  1.00  0.00    -0.248 NA
ATOM     62  C   UNL     1       9.641  -6.847  -9.230  1.00  0.00     0.031 C 
ATOM     63  C   UNL     1      13.940  -9.514  -5.865  1.00  0.00     0.029 A 
ATOM     64  C   UNL     1      12.725  -9.009  -6.300  1.00  0.00     0.049 A 
ATOM     65  H   UNL     1      10.845  -9.061  -5.344  1.00  0.00     0.167 HD
ATOM     66  C   UNL     1      11.200  -7.879  -7.900  1.00  0.00     0.074 A 
ATOM     67  C   UNL     1      10.922  -7.178  -9.137  1.00  0.00     0.031 C 
ATOM     68  C   UNL     1      12.429  -8.309  -7.525  1.00  0.00     0.037 A 
BRANCH  55  69
ATOM     69  C   UNL     1      12.569 -11.021  -1.970  1.00  0.00     0.057 A 
ATOM     70  C   UNL     1      12.467 -12.383  -1.654  1.00  0.00     0.134 A 
ATOM     71  C   UNL     1      13.465 -10.249  -1.219  1.00  0.00     0.134 A 
ATOM     72  F   UNL     1      11.618 -13.175  -2.325  1.00  0.00    -0.206 F 
ATOM     73  C   UNL     1      13.197 -12.946  -0.605  1.00  0.00     0.040 A 
ATOM     74  C   UNL     1      14.220 -10.807  -0.186  1.00  0.00     0.040 A 
ATOM     75  F   UNL     1      13.616  -8.941  -1.472  1.00  0.00    -0.206 F 
ATOM     76  C   UNL     1      14.079 -12.157   0.130  1.00  0.00     0.006 A 
ENDBRANCH  55  69
BRANCH  56  77
ATOM     77  C   UNL     1       6.755  -6.646  -8.801  1.00  0.00     0.057 A 
ATOM     78  C   UNL     1       6.471  -7.305 -10.002  1.00  0.00     0.134 A 
ATOM     79  C   UNL     1       6.178  -5.386  -8.602  1.00  0.00     0.134 A 
ATOM     80  F   UNL     1       7.010  -8.507 -10.255  1.00  0.00    -0.206 F 
ATOM     81  C   UNL     1       5.650  -6.733 -10.974  1.00  0.00     0.040 A 
ATOM     82  C   UNL     1       5.339  -4.810  -9.557  1.00  0.00     0.040 A 
ATOM     83  F   UNL     1       6.408  -4.708  -7.468  1.00  0.00    -0.206 F 
ATOM     84  C   UNL     1       5.075  -5.484 -10.749  1.00  0.00     0.006 A 
ENDBRANCH  56  77
BRANCH  68  85
ATOM     85  C   UNL     1      13.560  -8.055  -8.476  1.00  0.00     0.057 A 
ATOM     86  C   UNL     1      14.116  -6.780  -8.635  1.00  0.00     0.134 A 
ATOM     87  C   UNL     1      14.121  -9.105  -9.213  1.00  0.00     0.134 A 
ATOM     88  F   UNL     1      13.612  -5.731  -7.969  1.00  0.00    -0.206 F 
ATOM     89  C   UNL     1      15.182  -6.555  -9.507  1.00  0.00     0.040 A 
ATOM     90  C   UNL     1      15.202  -8.897 -10.071  1.00  0.00     0.040 A 
ATOM     91  F   UNL     1      13.637 -10.351  -9.101  1.00  0.00    -0.206 F 
ATOM     92  C   UNL     1      15.733  -7.618 -10.223  1.00  0.00     0.006 A 
ENDBRANCH  68  85
ENDBRANCH  42  43
ENDBRANCH  34  37
ENDBRANCH  32  33
ENDBRANCH  31  32
ENDBRANCH  30  31
ENDBRANCH   3  30
TORSDOF 17
