REMARK SMILES NS(=O)(=O)c1ccc(/N=N/c2ccc(O)c(C(=O)NCCCNC(=O)c3ccc(-c4c5nc(c(-c6c(F)cccc6F)c6ccc([nH]6)c(-c6c(F)cccc6F)c6nc(c(-c7c(F)cccc7F)c7ccc4[nH]7)C=C6)C=C5)cc3)c2)cc1
REMARK SMILES IDX 20 1 19 2 17 3 18 4 16 6 11 7 12 8 80 9 13 10 14 11 10 12
REMARK SMILES IDX 9 13 8 14 5 15 6 16 82 17 7 18 81 19 2 20 3 21 4 22 1 23
REMARK SMILES IDX 15 26 21 28 22 29 23 30 24 31 25 33 26 34 27 35 79 36 28 37
REMARK SMILES IDX 78 38 29 39 30 40 31 41 72 42 32 43 77 44 71 45 73 46 33 47
REMARK SMILES IDX 76 48 70 49 69 50 34 52 60 53 43 54 59 55 44 56 47 57 58 58
REMARK SMILES IDX 74 59 45 60 46 61 57 63 75 64 48 65 35 66 36 67 41 68 37 69
REMARK SMILES IDX 38 70 40 71 42 72 39 73 61 74 62 75 67 76 63 77 64 78 66 79
REMARK SMILES IDX 68 80 65 81 49 82 50 83 55 84 51 85 52 86 54 87 56 88 53 89
REMARK H PARENT 19 5 1 24 1 25 15 27 23 32 73 51 47 62
REMARK Flexibility Score: inf
ROOT
ATOM      1  C   UNL     1       3.046   6.985  -6.838  1.00  0.00     0.118 C 
ENDROOT
BRANCH   1   2
ATOM      2  N   UNL     1       3.430   8.380  -7.032  1.00  0.00    -0.352 N 
ATOM      3  C   UNL     1       3.369   9.494  -6.226  1.00  0.00     0.255 C 
ATOM      4  O   UNL     1       3.726  10.575  -6.702  1.00  0.00    -0.269 OA
ATOM      5  H   UNL     1       3.811   8.560  -7.922  1.00  0.00     0.163 HD
BRANCH   3   6
ATOM      6  C   UNL     1       2.827   9.489  -4.843  1.00  0.00     0.083 A 
ATOM      7  C   UNL     1       2.079   8.246  -2.874  1.00  0.00     0.087 A 
ATOM      8  C   UNL     1       1.464   9.403  -2.391  1.00  0.00     0.034 A 
ATOM      9  C   UNL     1       2.857   8.352  -4.039  1.00  0.00     0.048 A 
ATOM     10  C   UNL     1       1.587  10.613  -3.084  1.00  0.00     0.049 A 
ATOM     11  C   UNL     1       2.244  10.647  -4.314  1.00  0.00     0.128 A 
BRANCH   7  12
ATOM     12  N   UNL     1       1.863   6.998  -2.228  1.00  0.00    -0.151 NA
ATOM     13  N   UNL     1       1.949   6.072  -3.067  1.00  0.00    -0.151 NA
BRANCH  13  14
ATOM     14  C   UNL     1       1.628   4.796  -2.583  1.00  0.00     0.086 A 
ATOM     15  C   UNL     1       0.917   2.147  -1.999  1.00  0.00     0.082 A 
ATOM     16  C   UNL     1       2.155   2.417  -2.586  1.00  0.00     0.024 A 
ATOM     17  C   UNL     1       0.030   3.186  -1.703  1.00  0.00     0.024 A 
ATOM     18  C   UNL     1       2.503   3.739  -2.873  1.00  0.00     0.031 A 
ATOM     19  C   UNL     1       0.390   4.507  -1.995  1.00  0.00     0.031 A 
BRANCH  15  20
ATOM     20  S   UNL     1       0.436   0.466  -1.722  1.00  0.00     0.238 S 
ATOM     21  O   UNL     1       1.165  -0.389  -2.632  1.00  0.00    -0.207 OA
ATOM     22  O   UNL     1      -0.997   0.398  -1.578  1.00  0.00    -0.207 OA
BRANCH  20  23
ATOM     23  N   UNL     1       1.074   0.172  -0.199  1.00  0.00    -0.225 NA
ATOM     24  H   UNL     1       0.860  -0.786   0.080  1.00  0.00     0.137 HD
ATOM     25  H   UNL     1       0.665   0.821   0.472  1.00  0.00     0.137 HD
ENDBRANCH  20  23
ENDBRANCH  15  20
ENDBRANCH  13  14
ENDBRANCH   7  12
BRANCH  11  26
ATOM     26  O   UNL     1       2.281  11.860  -4.951  1.00  0.00    -0.507 OA
ATOM     27  H   UNL     1       1.876  12.608  -4.558  1.00  0.00     0.293 HD
ENDBRANCH  11  26
ENDBRANCH   3   6
ENDBRANCH   1   2
BRANCH   1  28
ATOM     28  C   UNL     1       2.026   6.475  -7.842  1.00  0.00     0.042 C 
BRANCH  28  29
ATOM     29  C   UNL     1       2.544   6.356  -9.264  1.00  0.00     0.118 C 
BRANCH  29  30
ATOM     30  N   UNL     1       3.643   5.406  -9.390  1.00  0.00    -0.352 N 
ATOM     31  C   UNL     1       3.686   4.146  -9.939  1.00  0.00     0.251 C 
ATOM     32  H   UNL     1       4.499   5.719  -9.019  1.00  0.00     0.163 HD
ATOM     33  O   UNL     1       4.668   3.435  -9.745  1.00  0.00    -0.269 OA
BRANCH  31  34
ATOM     34  C   UNL     1       2.556   3.634 -10.744  1.00  0.00     0.039 A 
ATOM     35  C   UNL     1       2.183   2.292 -10.627  1.00  0.00     0.014 A 
ATOM     36  C   UNL     1       1.873   4.467 -11.631  1.00  0.00     0.014 A 
ATOM     37  C   UNL     1       1.077   1.814 -11.334  1.00  0.00     0.010 A 
ATOM     38  C   UNL     1       0.707   4.024 -12.242  1.00  0.00     0.010 A 
ATOM     39  C   UNL     1       0.300   2.689 -12.111  1.00  0.00    -0.014 A 
BRANCH  39  40
ATOM     40  C   UNL     1      -0.930   2.237 -12.809  1.00  0.00     0.031 A 
ATOM     41  C   UNL     1      -1.031   2.354 -14.307  1.00  0.00     0.074 A 
ATOM     42  C   UNL     1      -1.985   1.801 -12.091  1.00  0.00     0.049 A 
ATOM     43  N   UNL     1      -2.053   2.119 -15.089  1.00  0.00    -0.248 NA
ATOM     44  C   UNL     1       0.167   2.833 -15.018  1.00  0.00     0.031 C 
ATOM     45  C   UNL     1      -2.030   1.688 -10.632  1.00  0.00     0.029 A 
ATOM     46  N   UNL     1      -3.230   1.385 -12.493  1.00  0.00    -0.354 N 
ATOM     47  C   UNL     1      -1.628   2.439 -16.373  1.00  0.00     0.074 A 
ATOM     48  C   UNL     1      -0.278   2.942 -16.260  1.00  0.00     0.031 C 
ATOM     49  C   UNL     1      -3.230   1.211 -10.263  1.00  0.00     0.029 A 
ATOM     50  C   UNL     1      -4.056   1.031 -11.452  1.00  0.00     0.049 A 
ATOM     51  H   UNL     1      -3.506   1.344 -13.437  1.00  0.00     0.167 HD
ATOM     52  C   UNL     1      -2.293   2.300 -17.543  1.00  0.00     0.037 A 
ATOM     53  C   UNL     1      -5.340   0.624 -11.456  1.00  0.00     0.037 A 
ATOM     54  C   UNL     1      -3.627   1.770 -17.653  1.00  0.00     0.049 A 
ATOM     55  C   UNL     1      -6.061   0.493 -12.771  1.00  0.00     0.074 A 
ATOM     56  C   UNL     1      -4.366   1.530 -18.797  1.00  0.00     0.029 A 
ATOM     57  N   UNL     1      -4.421   1.403 -16.577  1.00  0.00    -0.354 N 
ATOM     58  N   UNL     1      -5.621   0.730 -13.983  1.00  0.00    -0.248 NA
ATOM     59  C   UNL     1      -7.455   0.033 -12.719  1.00  0.00     0.031 C 
ATOM     60  C   UNL     1      -5.628   1.071 -18.412  1.00  0.00     0.029 A 
ATOM     61  C   UNL     1      -5.653   0.963 -17.031  1.00  0.00     0.049 A 
ATOM     62  H   UNL     1      -4.149   1.447 -15.632  1.00  0.00     0.167 HD
ATOM     63  C   UNL     1      -6.670   0.413 -14.837  1.00  0.00     0.074 A 
ATOM     64  C   UNL     1      -7.762  -0.046 -14.005  1.00  0.00     0.031 C 
ATOM     65  C   UNL     1      -6.724   0.494 -16.189  1.00  0.00     0.037 A 
BRANCH  52  66
ATOM     66  C   UNL     1      -1.590   2.720 -18.802  1.00  0.00     0.057 A 
ATOM     67  C   UNL     1      -0.491   2.013 -19.309  1.00  0.00     0.134 A 
ATOM     68  C   UNL     1      -2.049   3.816 -19.545  1.00  0.00     0.134 A 
ATOM     69  F   UNL     1       0.008   0.961 -18.642  1.00  0.00    -0.206 F 
ATOM     70  C   UNL     1       0.140   2.395 -20.495  1.00  0.00     0.040 A 
ATOM     71  C   UNL     1      -1.446   4.188 -20.748  1.00  0.00     0.040 A 
ATOM     72  F   UNL     1      -3.099   4.535 -19.122  1.00  0.00    -0.206 F 
ATOM     73  C   UNL     1      -0.344   3.479 -21.223  1.00  0.00     0.006 A 
ENDBRANCH  52  66
BRANCH  53  74
ATOM     74  C   UNL     1      -6.030   0.303 -10.179  1.00  0.00     0.057 A 
ATOM     75  C   UNL     1      -6.425  -1.007  -9.879  1.00  0.00     0.134 A 
ATOM     76  C   UNL     1      -6.338   1.297  -9.242  1.00  0.00     0.134 A 
ATOM     77  F   UNL     1      -6.176  -2.002 -10.743  1.00  0.00    -0.206 F 
ATOM     78  C   UNL     1      -7.128  -1.311  -8.712  1.00  0.00     0.040 A 
ATOM     79  C   UNL     1      -7.012   1.002  -8.056  1.00  0.00     0.040 A 
ATOM     80  F   UNL     1      -5.979   2.570  -9.462  1.00  0.00    -0.206 F 
ATOM     81  C   UNL     1      -7.420  -0.305  -7.794  1.00  0.00     0.006 A 
ENDBRANCH  53  74
BRANCH  65  82
ATOM     82  C   UNL     1      -7.985   0.031 -16.859  1.00  0.00     0.057 A 
ATOM     83  C   UNL     1      -9.183   0.750 -16.771  1.00  0.00     0.134 A 
ATOM     84  C   UNL     1      -7.984  -1.130 -17.645  1.00  0.00     0.134 A 
ATOM     85  F   UNL     1      -9.255   1.864 -16.026  1.00  0.00    -0.206 F 
ATOM     86  C   UNL     1     -10.341   0.320 -17.420  1.00  0.00     0.040 A 
ATOM     87  C   UNL     1      -9.127  -1.552 -18.325  1.00  0.00     0.040 A 
ATOM     88  F   UNL     1      -6.867  -1.860 -17.782  1.00  0.00    -0.206 F 
ATOM     89  C   UNL     1     -10.312  -0.830 -18.207  1.00  0.00     0.006 A 
ENDBRANCH  65  82
ENDBRANCH  39  40
ENDBRANCH  31  34
ENDBRANCH  29  30
ENDBRANCH  28  29
ENDBRANCH   1  28
TORSDOF 15
