REMARK SMILES COc1cc(Cl)c(C)cc1N1C(=O)C[C@H](Nc2cc(C(=O)NCCCNC(=O)c3ccc(-c4c5nc(c(-c6c(F)cccc6F)c6ccc([nH]6)c(-c6c(F)cccc6F)c6nc(c(-c7c(F)cccc7F)c7ccc4[nH]7)C=C6)C=C5)cc3)ccc2C)C1=O
REMARK SMILES IDX 23 1 22 2 20 3 21 4 19 6 17 7 18 8 85 9 84 10 86 11 83 12
REMARK SMILES IDX 16 13 15 15 11 16 12 17 87 18 13 19 14 20 88 21 10 22 3 23
REMARK SMILES IDX 4 24 5 25 9 26 6 27 7 28 8 29 2 30 1 31 24 32 25 33 26 34
REMARK SMILES IDX 27 35 28 37 29 38 30 39 82 40 31 41 81 42 32 43 33 44 34 45
REMARK SMILES IDX 75 46 35 47 80 48 74 49 76 50 36 51 79 52 73 53 72 54 37 56
REMARK SMILES IDX 63 57 46 58 62 59 47 60 50 61 61 62 77 63 48 64 49 65 60 67
REMARK SMILES IDX 78 68 51 69 38 70 39 71 44 72 40 73 41 74 43 75 45 76 42 77
REMARK SMILES IDX 64 78 65 79 70 80 66 81 67 82 69 83 71 84 68 85 52 86 53 87
REMARK SMILES IDX 58 88 54 89 55 90 57 91 59 92 56 93
REMARK H PARENT 22 5 16 14 26 36 76 55 50 66
REMARK Flexibility Score: inf
ROOT
ATOM      1  C   UNL     1       3.093  -3.045  -3.749  1.00  0.00     0.118 C 
ENDROOT
BRANCH   1   2
ATOM      2  N   UNL     1       3.655  -4.397  -3.731  1.00  0.00    -0.352 N 
ATOM      3  C   UNL     1       4.759  -4.958  -3.119  1.00  0.00     0.251 C 
ATOM      4  O   UNL     1       4.991  -6.150  -3.324  1.00  0.00    -0.269 OA
ATOM      5  H   UNL     1       3.138  -5.040  -4.266  1.00  0.00     0.163 HD
BRANCH   3   6
ATOM      6  C   UNL     1       5.716  -4.172  -2.294  1.00  0.00     0.041 A 
ATOM      7  C   UNL     1       6.262  -2.094  -1.172  1.00  0.00     0.038 A 
ATOM      8  C   UNL     1       5.329  -3.040  -1.587  1.00  0.00     0.039 A 
ATOM      9  C   UNL     1       7.616  -2.468  -1.144  1.00  0.00    -0.028 A 
ATOM     10  C   UNL     1       7.998  -3.727  -1.636  1.00  0.00     0.006 A 
ATOM     11  C   UNL     1       8.662  -1.602  -0.492  1.00  0.00     0.046 C 
ATOM     12  C   UNL     1       7.061  -4.551  -2.263  1.00  0.00     0.014 A 
BRANCH   7  13
ATOM     13  N   UNL     1       5.887  -0.797  -0.874  1.00  0.00    -0.373 N 
ATOM     14  H   UNL     1       6.544  -0.085  -1.048  1.00  0.00     0.161 HD
BRANCH  13  15
ATOM     15  C   UNL     1       4.598  -0.397  -0.324  1.00  0.00     0.179 C 
ATOM     16  N   UNL     1       3.306   1.526  -0.674  1.00  0.00    -0.245 N 
ATOM     17  C   UNL     1       3.966   1.750   0.509  1.00  0.00     0.236 C 
ATOM     18  C   UNL     1       3.696   0.361  -1.291  1.00  0.00     0.256 C 
ATOM     19  O   UNL     1       3.850   2.695   1.265  1.00  0.00    -0.274 OA
ATOM     20  C   UNL     1       4.864   0.591   0.796  1.00  0.00     0.136 C 
ATOM     21  O   UNL     1       3.401  -0.018  -2.419  1.00  0.00    -0.272 OA
BRANCH  16  22
ATOM     22  C   UNL     1       2.291   2.388  -1.142  1.00  0.00     0.094 A 
ATOM     23  C   UNL     1       1.007   1.915  -1.455  1.00  0.00     0.144 A 
ATOM     24  C   UNL     1       0.007   2.805  -1.858  1.00  0.00     0.069 A 
ATOM     25  C   UNL     1       0.277   4.173  -1.951  1.00  0.00     0.047 A 
ATOM     26  C   UNL     1       2.544   3.767  -1.230  1.00  0.00     0.035 A 
ATOM     27  Cl  UNL     1      -1.012   5.226  -2.416  1.00  0.00    -0.084 Cl
ATOM     28  C   UNL     1       1.555   4.670  -1.660  1.00  0.00    -0.030 A 
ATOM     29  C   UNL     1       1.899   6.127  -1.802  1.00  0.00     0.046 C 
BRANCH  23  30
ATOM     30  O   UNL     1       0.655   0.591  -1.376  1.00  0.00    -0.495 OA
ATOM     31  C   UNL     1       0.523   0.142  -0.027  1.00  0.00     0.278 C 
ENDBRANCH  23  30
ENDBRANCH  16  22
ENDBRANCH  13  15
ENDBRANCH   7  13
ENDBRANCH   3   6
ENDBRANCH   1   2
BRANCH   1  32
ATOM     32  C   UNL     1       3.311  -2.291  -5.046  1.00  0.00     0.042 C 
BRANCH  32  33
ATOM     33  C   UNL     1       2.107  -2.359  -5.963  1.00  0.00     0.118 C 
BRANCH  33  34
ATOM     34  N   UNL     1       1.009  -1.434  -5.649  1.00  0.00    -0.352 N 
ATOM     35  C   UNL     1      -0.181  -1.221  -6.342  1.00  0.00     0.251 C 
ATOM     36  H   UNL     1       1.132  -0.889  -4.837  1.00  0.00     0.163 HD
ATOM     37  O   UNL     1      -1.051  -0.487  -5.885  1.00  0.00    -0.269 OA
BRANCH  35  38
ATOM     38  C   UNL     1      -0.458  -2.021  -7.564  1.00  0.00     0.039 A 
ATOM     39  C   UNL     1      -1.616  -2.804  -7.551  1.00  0.00     0.014 A 
ATOM     40  C   UNL     1       0.609  -2.359  -8.380  1.00  0.00     0.014 A 
ATOM     41  C   UNL     1      -1.531  -4.115  -7.998  1.00  0.00     0.010 A 
ATOM     42  C   UNL     1       0.765  -3.695  -8.659  1.00  0.00     0.010 A 
ATOM     43  C   UNL     1      -0.281  -4.582  -8.391  1.00  0.00    -0.014 A 
BRANCH  43  44
ATOM     44  C   UNL     1       0.026  -5.981  -8.606  1.00  0.00     0.031 A 
ATOM     45  C   UNL     1      -0.025  -6.451  -9.996  1.00  0.00     0.074 A 
ATOM     46  C   UNL     1       0.384  -6.783  -7.580  1.00  0.00     0.049 A 
ATOM     47  N   UNL     1      -0.367  -7.635 -10.350  1.00  0.00    -0.248 NA
ATOM     48  C   UNL     1       0.221  -5.558 -11.123  1.00  0.00     0.031 C 
ATOM     49  C   UNL     1       0.908  -8.143  -7.645  1.00  0.00     0.029 A 
ATOM     50  N   UNL     1       0.175  -6.562  -6.217  1.00  0.00    -0.354 N 
ATOM     51  C   UNL     1      -0.096  -7.753 -11.697  1.00  0.00     0.074 A 
ATOM     52  C   UNL     1       0.141  -6.406 -12.148  1.00  0.00     0.031 C 
ATOM     53  C   UNL     1       0.736  -8.737  -6.450  1.00  0.00     0.029 A 
ATOM     54  C   UNL     1      -0.013  -7.822  -5.607  1.00  0.00     0.049 A 
ATOM     55  H   UNL     1       0.163  -5.688  -5.764  1.00  0.00     0.167 HD
ATOM     56  C   UNL     1       0.061  -9.002 -12.218  1.00  0.00     0.037 A 
ATOM     57  C   UNL     1      -1.190  -8.117  -4.974  1.00  0.00     0.037 A 
ATOM     58  C   UNL     1      -0.213 -10.004 -11.181  1.00  0.00     0.049 A 
ATOM     59  C   UNL     1      -1.988  -9.155  -5.723  1.00  0.00     0.074 A 
ATOM     60  C   UNL     1       0.632 -10.681 -10.315  1.00  0.00     0.029 A 
ATOM     61  N   UNL     1      -1.494 -10.111 -10.641  1.00  0.00    -0.354 N 
ATOM     62  N   UNL     1      -1.768  -9.475  -6.969  1.00  0.00    -0.248 NA
ATOM     63  C   UNL     1      -3.084  -9.914  -5.132  1.00  0.00     0.031 C 
ATOM     64  C   UNL     1      -0.137 -11.114  -9.204  1.00  0.00     0.029 A 
ATOM     65  C   UNL     1      -1.455 -10.739  -9.407  1.00  0.00     0.049 A 
ATOM     66  H   UNL     1      -2.314  -9.786 -11.078  1.00  0.00     0.167 HD
ATOM     67  C   UNL     1      -2.654 -10.442  -7.356  1.00  0.00     0.074 A 
ATOM     68  C   UNL     1      -3.443 -10.698  -6.163  1.00  0.00     0.031 C 
ATOM     69  C   UNL     1      -2.668 -10.953  -8.624  1.00  0.00     0.037 A 
BRANCH  56  70
ATOM     70  C   UNL     1       0.792  -9.300 -13.514  1.00  0.00     0.057 A 
ATOM     71  C   UNL     1       1.401 -10.555 -13.711  1.00  0.00     0.134 A 
ATOM     72  C   UNL     1       0.999  -8.399 -14.576  1.00  0.00     0.134 A 
ATOM     73  F   UNL     1       1.226 -11.565 -12.848  1.00  0.00    -0.206 F 
ATOM     74  C   UNL     1       2.226 -10.848 -14.807  1.00  0.00     0.040 A 
ATOM     75  C   UNL     1       1.856  -8.660 -15.657  1.00  0.00     0.040 A 
ATOM     76  F   UNL     1       0.339  -7.242 -14.668  1.00  0.00    -0.206 F 
ATOM     77  C   UNL     1       2.484  -9.888 -15.771  1.00  0.00     0.006 A 
ENDBRANCH  56  70
BRANCH  57  78
ATOM     78  C   UNL     1      -1.744  -6.926  -4.263  1.00  0.00     0.057 A 
ATOM     79  C   UNL     1      -0.911  -6.367  -3.274  1.00  0.00     0.134 A 
ATOM     80  C   UNL     1      -2.632  -6.068  -4.912  1.00  0.00     0.134 A 
ATOM     81  F   UNL     1      -0.101  -7.157  -2.551  1.00  0.00    -0.206 F 
ATOM     82  C   UNL     1      -0.739  -4.987  -3.171  1.00  0.00     0.040 A 
ATOM     83  C   UNL     1      -2.506  -4.684  -4.771  1.00  0.00     0.040 A 
ATOM     84  F   UNL     1      -3.515  -6.539  -5.804  1.00  0.00    -0.206 F 
ATOM     85  C   UNL     1      -1.495  -4.142  -3.975  1.00  0.00     0.006 A 
ENDBRANCH  57  78
BRANCH  69  86
ATOM     86  C   UNL     1      -3.770 -11.817  -9.184  1.00  0.00     0.057 A 
ATOM     87  C   UNL     1      -5.096 -11.797  -8.727  1.00  0.00     0.134 A 
ATOM     88  C   UNL     1      -3.541 -12.640 -10.308  1.00  0.00     0.134 A 
ATOM     89  F   UNL     1      -5.503 -10.940  -7.781  1.00  0.00    -0.206 F 
ATOM     90  C   UNL     1      -6.089 -12.625  -9.261  1.00  0.00     0.040 A 
ATOM     91  C   UNL     1      -4.542 -13.414 -10.899  1.00  0.00     0.040 A 
ATOM     92  F   UNL     1      -2.340 -12.716 -10.901  1.00  0.00    -0.206 F 
ATOM     93  C   UNL     1      -5.815 -13.436 -10.354  1.00  0.00     0.006 A 
ENDBRANCH  69  86
ENDBRANCH  43  44
ENDBRANCH  35  38
ENDBRANCH  33  34
ENDBRANCH  32  33
ENDBRANCH   1  32
TORSDOF 14
