REMARK SMILES O=C(CCC(=O)N1Cc2[nH]cnc2C[C@H]1C(=O)NCc1ccccc1)NCCCNC(=O)c1ccc(-c2c3nc(c(-c4c(F)cccc4F)c4ccc([nH]4)c(-c4c(F)cccc4F)c4nc(c(-c5c(F)cccc5F)c5ccc2[nH]5)C=C4)C=C3)cc1
REMARK SMILES IDX 1 1 2 2 26 3 3 5 4 6 5 7 6 8 7 9 8 10 15 11 9 12 14 13 10 14
REMARK SMILES IDX 13 15 11 16 12 18 16 19 17 20 18 21 19 23 20 24 21 25 25 26
REMARK SMILES IDX 22 27 24 28 23 29 27 30 28 31 29 32 30 33 31 34 32 36 33 37
REMARK SMILES IDX 34 38 86 39 35 40 85 41 36 42 37 43 38 44 79 45 39 46 84 47
REMARK SMILES IDX 78 48 80 49 40 50 83 51 77 52 76 53 41 55 67 56 50 57 66 58
REMARK SMILES IDX 51 59 54 60 65 61 81 62 52 63 53 64 64 66 82 67 55 68 42 69
REMARK SMILES IDX 43 70 48 71 44 72 45 73 47 74 49 75 46 76 68 77 69 78 74 79
REMARK SMILES IDX 70 80 71 81 73 82 75 83 72 84 56 85 57 86 62 87 58 88 59 89
REMARK SMILES IDX 61 90 63 91 60 92
REMARK H PARENT 26 4 10 17 18 22 30 35 80 54 54 65
REMARK Flexibility Score: inf
ROOT
ATOM      1  O   UNL     1       0.800  -0.315   0.017  1.00  0.00    -0.275 OA
ATOM      2  C   UNL     1       1.874  -0.425   0.602  1.00  0.00     0.220 C 
ATOM      3  N   UNL     1       2.134   0.219   1.815  1.00  0.00    -0.356 N 
ATOM      4  H   UNL     1       2.892  -0.069   2.373  1.00  0.00     0.163 HD
ENDROOT
BRANCH   2   5
ATOM      5  C   UNL     1       3.052  -1.190  -0.025  1.00  0.00     0.110 C 
BRANCH   5   6
ATOM      6  C   UNL     1       3.427  -0.665  -1.431  1.00  0.00     0.110 C 
BRANCH   6   7
ATOM      7  C   UNL     1       4.779   0.059  -1.563  1.00  0.00     0.224 C 
ATOM      8  O   UNL     1       5.761  -0.567  -1.972  1.00  0.00    -0.275 OA
BRANCH   7   9
ATOM      9  N   UNL     1       4.864   1.411  -1.248  1.00  0.00    -0.324 N 
ATOM     10  C   UNL     1       6.115   2.155  -1.555  1.00  0.00     0.176 C 
ATOM     11  C   UNL     1       3.860   2.080  -0.386  1.00  0.00     0.180 C 
ATOM     12  C   UNL     1       6.436   3.043  -0.410  1.00  0.00     0.058 A 
ATOM     13  C   UNL     1       4.465   2.418   0.968  1.00  0.00     0.093 C 
ATOM     14  N   UNL     1       7.386   4.026  -0.311  1.00  0.00    -0.347 N 
ATOM     15  C   UNL     1       5.723   3.140   0.755  1.00  0.00     0.066 A 
ATOM     16  C   UNL     1       7.229   4.615   0.918  1.00  0.00     0.197 A 
ATOM     17  H   UNL     1       8.054   4.264  -0.993  1.00  0.00     0.167 HD
ATOM     18  N   UNL     1       6.221   4.095   1.577  1.00  0.00    -0.242 NA
BRANCH  11  19
ATOM     19  C   UNL     1       2.752   2.954  -1.007  1.00  0.00     0.243 C 
ATOM     20  O   UNL     1       1.972   2.449  -1.825  1.00  0.00    -0.273 OA
ATOM     21  N   UNL     1       2.523   4.255  -0.712  1.00  0.00    -0.350 N 
ATOM     22  H   UNL     1       1.588   4.540  -0.834  1.00  0.00     0.163 HD
BRANCH  21  23
ATOM     23  C   UNL     1       3.409   5.301  -0.248  1.00  0.00     0.151 C 
BRANCH  23  24
ATOM     24  C   UNL     1       4.131   5.971  -1.394  1.00  0.00    -0.029 A 
ATOM     25  C   UNL     1       4.549   5.263  -2.533  1.00  0.00     0.005 A 
ATOM     26  C   UNL     1       4.453   7.330  -1.307  1.00  0.00     0.005 A 
ATOM     27  C   UNL     1       5.294   5.878  -3.536  1.00  0.00     0.000 A 
ATOM     28  C   UNL     1       5.176   7.956  -2.326  1.00  0.00     0.000 A 
ATOM     29  C   UNL     1       5.609   7.227  -3.432  1.00  0.00     0.000 A 
ENDBRANCH  23  24
ENDBRANCH  21  23
ENDBRANCH  11  19
ENDBRANCH   7   9
ENDBRANCH   6   7
ENDBRANCH   5   6
ENDBRANCH   2   5
BRANCH   3  30
ATOM     30  C   UNL     1       1.275   1.327   2.255  1.00  0.00     0.117 C 
BRANCH  30  31
ATOM     31  C   UNL     1       1.319   1.747   3.738  1.00  0.00     0.042 C 
BRANCH  31  32
ATOM     32  C   UNL     1       2.625   2.321   4.292  1.00  0.00     0.118 C 
BRANCH  32  33
ATOM     33  N   UNL     1       2.983   3.699   3.894  1.00  0.00    -0.352 N 
ATOM     34  C   UNL     1       4.144   4.470   4.113  1.00  0.00     0.251 C 
ATOM     35  H   UNL     1       2.282   4.163   3.382  1.00  0.00     0.163 HD
ATOM     36  O   UNL     1       4.064   5.686   4.023  1.00  0.00    -0.269 OA
BRANCH  34  37
ATOM     37  C   UNL     1       5.462   3.833   4.425  1.00  0.00     0.039 A 
ATOM     38  C   UNL     1       6.616   4.495   4.877  1.00  0.00     0.014 A 
ATOM     39  C   UNL     1       5.589   2.500   4.119  1.00  0.00     0.014 A 
ATOM     40  C   UNL     1       7.840   3.785   4.989  1.00  0.00     0.010 A 
ATOM     41  C   UNL     1       6.692   1.765   4.405  1.00  0.00     0.010 A 
ATOM     42  C   UNL     1       7.865   2.410   4.730  1.00  0.00    -0.014 A 
BRANCH  42  43
ATOM     43  C   UNL     1       8.983   1.476   4.872  1.00  0.00     0.031 A 
ATOM     44  C   UNL     1       9.019   0.847   6.225  1.00  0.00     0.074 A 
ATOM     45  C   UNL     1       9.516   0.814   3.817  1.00  0.00     0.049 A 
ATOM     46  N   UNL     1       9.784   1.157   7.222  1.00  0.00    -0.248 NA
ATOM     47  C   UNL     1       7.896  -0.043   6.603  1.00  0.00     0.031 C 
ATOM     48  C   UNL     1       9.227   0.958   2.385  1.00  0.00     0.029 A 
ATOM     49  N   UNL     1      10.362  -0.257   3.839  1.00  0.00    -0.354 N 
ATOM     50  C   UNL     1       9.326   0.362   8.268  1.00  0.00     0.074 A 
ATOM     51  C   UNL     1       7.980   0.013   7.931  1.00  0.00     0.031 C 
ATOM     52  C   UNL     1       9.749  -0.097   1.710  1.00  0.00     0.029 A 
ATOM     53  C   UNL     1      10.473  -0.951   2.638  1.00  0.00     0.049 A 
ATOM     54  H   UNL     1      10.858  -0.519   4.648  1.00  0.00     0.167 HD
ATOM     55  C   UNL     1      10.162  -0.283   9.130  1.00  0.00     0.037 A 
ATOM     56  C   UNL     1      11.060  -2.169   2.469  1.00  0.00     0.037 A 
ATOM     57  C   UNL     1      11.526   0.137   8.916  1.00  0.00     0.049 A 
ATOM     58  C   UNL     1      11.868  -2.442   3.691  1.00  0.00     0.074 A 
ATOM     59  C   UNL     1      12.177   1.355   8.919  1.00  0.00     0.029 A 
ATOM     60  N   UNL     1      12.348  -0.728   8.229  1.00  0.00    -0.354 N 
ATOM     61  N   UNL     1      12.948  -1.785   4.014  1.00  0.00    -0.248 NA
ATOM     62  C   UNL     1      11.208  -3.126   4.797  1.00  0.00     0.031 C 
ATOM     63  C   UNL     1      13.094   1.283   7.830  1.00  0.00     0.029 A 
ATOM     64  C   UNL     1      13.013   0.004   7.279  1.00  0.00     0.049 A 
ATOM     65  H   UNL     1      12.442  -1.695   8.391  1.00  0.00     0.167 HD
ATOM     66  C   UNL     1      12.861  -1.608   5.388  1.00  0.00     0.074 A 
ATOM     67  C   UNL     1      11.813  -2.526   5.827  1.00  0.00     0.031 C 
ATOM     68  C   UNL     1      13.421  -0.519   5.995  1.00  0.00     0.037 A 
BRANCH  55  69
ATOM     69  C   UNL     1       9.832  -1.551   9.894  1.00  0.00     0.057 A 
ATOM     70  C   UNL     1      10.721  -1.965  10.902  1.00  0.00     0.134 A 
ATOM     71  C   UNL     1       8.835  -2.497   9.568  1.00  0.00     0.134 A 
ATOM     72  F   UNL     1      11.717  -1.165  11.311  1.00  0.00    -0.206 F 
ATOM     73  C   UNL     1      10.667  -3.239  11.481  1.00  0.00     0.040 A 
ATOM     74  C   UNL     1       8.734  -3.746  10.185  1.00  0.00     0.040 A 
ATOM     75  F   UNL     1       7.956  -2.327   8.575  1.00  0.00    -0.206 F 
ATOM     76  C   UNL     1       9.673  -4.137  11.120  1.00  0.00     0.006 A 
ENDBRANCH  55  69
BRANCH  56  77
ATOM     77  C   UNL     1      10.779  -3.231   1.467  1.00  0.00     0.057 A 
ATOM     78  C   UNL     1      11.669  -4.297   1.245  1.00  0.00     0.134 A 
ATOM     79  C   UNL     1       9.511  -3.369   0.874  1.00  0.00     0.134 A 
ATOM     80  F   UNL     1      12.888  -4.294   1.804  1.00  0.00    -0.206 F 
ATOM     81  C   UNL     1      11.316  -5.429   0.493  1.00  0.00     0.040 A 
ATOM     82  C   UNL     1       9.150  -4.487   0.111  1.00  0.00     0.040 A 
ATOM     83  F   UNL     1       8.546  -2.466   1.091  1.00  0.00    -0.206 F 
ATOM     84  C   UNL     1      10.049  -5.530  -0.072  1.00  0.00     0.006 A 
ENDBRANCH  56  77
BRANCH  68  85
ATOM     85  C   UNL     1      14.332   0.356   5.176  1.00  0.00     0.057 A 
ATOM     86  C   UNL     1      13.918   1.081   4.048  1.00  0.00     0.134 A 
ATOM     87  C   UNL     1      15.620   0.619   5.652  1.00  0.00     0.134 A 
ATOM     88  F   UNL     1      12.672   0.980   3.576  1.00  0.00    -0.206 F 
ATOM     89  C   UNL     1      14.756   1.995   3.403  1.00  0.00     0.040 A 
ATOM     90  C   UNL     1      16.456   1.556   5.040  1.00  0.00     0.040 A 
ATOM     91  F   UNL     1      16.068   0.008   6.761  1.00  0.00    -0.206 F 
ATOM     92  C   UNL     1      16.028   2.242   3.906  1.00  0.00     0.006 A 
ENDBRANCH  68  85
ENDBRANCH  42  43
ENDBRANCH  34  37
ENDBRANCH  32  33
ENDBRANCH  31  32
ENDBRANCH  30  31
ENDBRANCH   3  30
TORSDOF 16
