REMARK SMILES C[C@H](Cc1cccs1)N(C)C(=O)[C@@H]([NH3+])CCC(=O)NCCCNC(=O)c1ccc(-c2c3nc(c(-c4c(F)cccc4F)c4ccc([nH]4)c(-c4c(F)cccc4F)c4nc(c(-c5c(F)cccc5F)c5ccc2[nH]5)C=C4)C=C3)cc1
REMARK SMILES IDX 17 1 18 2 19 3 16 5 15 6 13 7 11 8 12 9 9 10 10 11 2 12 1 13
REMARK SMILES IDX 3 14 4 15 5 16 8 17 6 18 7 19 14 20 20 24 21 25 22 26 23 27
REMARK SMILES IDX 24 28 25 30 26 31 27 32 79 33 28 34 78 35 29 36 30 37 31 38
REMARK SMILES IDX 72 39 32 40 77 41 71 42 73 43 33 44 76 45 70 46 69 47 34 49
REMARK SMILES IDX 60 50 43 51 59 52 44 53 47 54 58 55 74 56 45 57 46 58 57 60
REMARK SMILES IDX 75 61 48 62 35 63 36 64 41 65 37 66 38 67 40 68 42 69 39 70
REMARK SMILES IDX 61 71 62 72 67 73 63 74 64 75 66 76 68 77 65 78 49 79 50 80
REMARK SMILES IDX 55 81 51 82 52 83 54 84 56 85 53 86
REMARK H PARENT 19 4 14 21 14 22 14 23 23 29 73 48 47 59
REMARK Flexibility Score: inf
ROOT
ATOM      1  C   UNL     1      -4.069   3.405  -2.383  1.00  0.00     0.220 C 
ATOM      2  O   UNL     1      -5.081   4.104  -2.473  1.00  0.00    -0.275 OA
ATOM      3  N   UNL     1      -3.755   2.596  -3.431  1.00  0.00    -0.356 N 
ATOM      4  H   UNL     1      -4.322   2.708  -4.229  1.00  0.00     0.163 HD
ENDROOT
BRANCH   1   5
ATOM      5  C   UNL     1      -3.199   3.458  -1.139  1.00  0.00     0.106 C 
BRANCH   5   6
ATOM      6  C   UNL     1      -3.773   2.667   0.044  1.00  0.00     0.085 C 
BRANCH   6   7
ATOM      7  C   UNL     1      -3.374   1.187   0.076  1.00  0.00     0.271 C 
BRANCH   7   8
ATOM      8  C   UNL     1      -1.846   0.900   0.019  1.00  0.00     0.280 C 
ATOM      9  O   UNL     1      -1.434   0.253  -0.948  1.00  0.00    -0.268 OA
BRANCH   8  10
ATOM     10  N   UNL     1      -0.971   1.373   0.983  1.00  0.00    -0.338 N 
ATOM     11  C   UNL     1      -1.423   1.936   2.251  1.00  0.00     0.147 C 
BRANCH  10  12
ATOM     12  C   UNL     1       0.495   1.481   0.706  1.00  0.00     0.087 C 
ATOM     13  C   UNL     1       0.811   2.832   0.056  1.00  0.00     0.031 C 
BRANCH  12  14
ATOM     14  C   UNL     1       1.184   0.240   0.059  1.00  0.00     0.071 C 
BRANCH  14  15
ATOM     15  C   UNL     1       1.763   0.399  -1.333  1.00  0.00     0.007 A 
ATOM     16  C   UNL     1       1.160   0.813  -2.506  1.00  0.00     0.015 A 
ATOM     17  S   UNL     1       3.401  -0.041  -1.626  1.00  0.00    -0.149 S 
ATOM     18  C   UNL     1       2.033   0.785  -3.630  1.00  0.00     0.012 A 
ATOM     19  C   UNL     1       3.283   0.326  -3.291  1.00  0.00     0.065 A 
ENDBRANCH  14  15
ENDBRANCH  12  14
ENDBRANCH  10  12
ENDBRANCH   8  10
ENDBRANCH   7   8
BRANCH   7  20
ATOM     20  N   UNL     1      -4.013   0.454   1.185  1.00  0.00    -0.347 N 
ATOM     21  H   UNL     1      -3.656   0.804   2.074  1.00  0.00     0.345 HD
ATOM     22  H   UNL     1      -3.801  -0.541   1.102  1.00  0.00     0.345 HD
ATOM     23  H   UNL     1      -5.023   0.591   1.146  1.00  0.00     0.345 HD
ENDBRANCH   7  20
ENDBRANCH   6   7
ENDBRANCH   5   6
ENDBRANCH   1   5
BRANCH   3  24
ATOM     24  C   UNL     1      -2.712   1.593  -3.555  1.00  0.00     0.117 C 
BRANCH  24  25
ATOM     25  C   UNL     1      -3.285   0.187  -3.418  1.00  0.00     0.042 C 
BRANCH  25  26
ATOM     26  C   UNL     1      -3.742  -0.416  -4.733  1.00  0.00     0.118 C 
BRANCH  26  27
ATOM     27  N   UNL     1      -2.631  -0.952  -5.505  1.00  0.00    -0.352 N 
ATOM     28  C   UNL     1      -2.276  -2.248  -5.794  1.00  0.00     0.251 C 
ATOM     29  H   UNL     1      -2.031  -0.270  -5.885  1.00  0.00     0.163 HD
ATOM     30  O   UNL     1      -1.179  -2.465  -6.301  1.00  0.00    -0.269 OA
BRANCH  28  31
ATOM     31  C   UNL     1      -3.182  -3.388  -5.502  1.00  0.00     0.039 A 
ATOM     32  C   UNL     1      -2.620  -4.620  -5.142  1.00  0.00     0.014 A 
ATOM     33  C   UNL     1      -4.567  -3.287  -5.638  1.00  0.00     0.014 A 
ATOM     34  C   UNL     1      -3.444  -5.720  -4.878  1.00  0.00     0.010 A 
ATOM     35  C   UNL     1      -5.390  -4.346  -5.266  1.00  0.00     0.010 A 
ATOM     36  C   UNL     1      -4.840  -5.585  -4.909  1.00  0.00    -0.014 A 
BRANCH  36  37
ATOM     37  C   UNL     1      -5.746  -6.733  -4.634  1.00  0.00     0.031 A 
ATOM     38  C   UNL     1      -6.703  -7.206  -5.699  1.00  0.00     0.074 A 
ATOM     39  C   UNL     1      -5.760  -7.309  -3.416  1.00  0.00     0.049 A 
ATOM     40  N   UNL     1      -7.642  -8.115  -5.626  1.00  0.00    -0.248 NA
ATOM     41  C   UNL     1      -6.615  -6.544  -7.011  1.00  0.00     0.031 C 
ATOM     42  C   UNL     1      -4.919  -6.919  -2.283  1.00  0.00     0.029 A 
ATOM     43  N   UNL     1      -6.520  -8.341  -2.925  1.00  0.00    -0.354 N 
ATOM     44  C   UNL     1      -8.271  -8.110  -6.865  1.00  0.00     0.074 A 
ATOM     45  C   UNL     1      -7.647  -7.070  -7.652  1.00  0.00     0.031 C 
ATOM     46  C   UNL     1      -5.190  -7.718  -1.238  1.00  0.00     0.029 A 
ATOM     47  C   UNL     1      -6.250  -8.649  -1.613  1.00  0.00     0.049 A 
ATOM     48  H   UNL     1      -7.194  -8.816  -3.462  1.00  0.00     0.167 HD
ATOM     49  C   UNL     1      -9.261  -8.915  -7.320  1.00  0.00     0.037 A 
ATOM     50  C   UNL     1      -6.799  -9.574  -0.803  1.00  0.00     0.037 A 
ATOM     51  C   UNL     1      -9.848  -9.982  -6.556  1.00  0.00     0.049 A 
ATOM     52  C   UNL     1      -7.885 -10.468  -1.335  1.00  0.00     0.074 A 
ATOM     53  C   UNL     1     -10.809 -10.898  -6.949  1.00  0.00     0.029 A 
ATOM     54  N   UNL     1      -9.523 -10.281  -5.242  1.00  0.00    -0.354 N 
ATOM     55  N   UNL     1      -8.430 -10.488  -2.528  1.00  0.00    -0.248 NA
ATOM     56  C   UNL     1      -8.428 -11.473  -0.411  1.00  0.00     0.031 C 
ATOM     57  C   UNL     1     -11.091 -11.729  -5.860  1.00  0.00     0.029 A 
ATOM     58  C   UNL     1     -10.274 -11.359  -4.803  1.00  0.00     0.049 A 
ATOM     59  H   UNL     1      -8.856  -9.800  -4.701  1.00  0.00     0.167 HD
ATOM     60  C   UNL     1      -9.356 -11.522  -2.506  1.00  0.00     0.074 A 
ATOM     61  C   UNL     1      -9.291 -12.114  -1.186  1.00  0.00     0.031 C 
ATOM     62  C   UNL     1     -10.187 -11.943  -3.490  1.00  0.00     0.037 A 
BRANCH  49  63
ATOM     63  C   UNL     1      -9.761  -8.678  -8.716  1.00  0.00     0.057 A 
ATOM     64  C   UNL     1      -8.980  -8.973  -9.842  1.00  0.00     0.134 A 
ATOM     65  C   UNL     1     -11.050  -8.176  -8.940  1.00  0.00     0.134 A 
ATOM     66  F   UNL     1      -7.732  -9.444  -9.699  1.00  0.00    -0.206 F 
ATOM     67  C   UNL     1      -9.451  -8.750 -11.137  1.00  0.00     0.040 A 
ATOM     68  C   UNL     1     -11.542  -7.976 -10.231  1.00  0.00     0.040 A 
ATOM     69  F   UNL     1     -11.854  -7.879  -7.908  1.00  0.00    -0.206 F 
ATOM     70  C   UNL     1     -10.738  -8.256 -11.334  1.00  0.00     0.006 A 
ENDBRANCH  49  63
BRANCH  50  71
ATOM     71  C   UNL     1      -6.314  -9.723   0.593  1.00  0.00     0.057 A 
ATOM     72  C   UNL     1      -5.577 -10.847   0.983  1.00  0.00     0.134 A 
ATOM     73  C   UNL     1      -6.581  -8.756   1.569  1.00  0.00     0.134 A 
ATOM     74  F   UNL     1      -5.306 -11.817   0.097  1.00  0.00    -0.206 F 
ATOM     75  C   UNL     1      -5.139 -11.015   2.297  1.00  0.00     0.040 A 
ATOM     76  C   UNL     1      -6.128  -8.899   2.882  1.00  0.00     0.040 A 
ATOM     77  F   UNL     1      -7.276  -7.652   1.258  1.00  0.00    -0.206 F 
ATOM     78  C   UNL     1      -5.411 -10.036   3.251  1.00  0.00     0.006 A 
ENDBRANCH  50  71
BRANCH  62  79
ATOM     79  C   UNL     1     -11.064 -13.123  -3.191  1.00  0.00     0.057 A 
ATOM     80  C   UNL     1     -12.176 -13.023  -2.346  1.00  0.00     0.134 A 
ATOM     81  C   UNL     1     -10.815 -14.364  -3.791  1.00  0.00     0.134 A 
ATOM     82  F   UNL     1     -12.460 -11.864  -1.732  1.00  0.00    -0.206 F 
ATOM     83  C   UNL     1     -12.998 -14.121  -2.092  1.00  0.00     0.040 A 
ATOM     84  C   UNL     1     -11.644 -15.463  -3.565  1.00  0.00     0.040 A 
ATOM     85  F   UNL     1      -9.771 -14.524  -4.618  1.00  0.00    -0.206 F 
ATOM     86  C   UNL     1     -12.736 -15.344  -2.708  1.00  0.00     0.006 A 
ENDBRANCH  62  79
ENDBRANCH  36  37
ENDBRANCH  28  31
ENDBRANCH  26  27
ENDBRANCH  25  26
ENDBRANCH  24  25
ENDBRANCH   3  24
TORSDOF 18
