REMARK SMILES Cc1cnn([C@H]2CC[C@@]([NH3+])(C(=O)NCCCNC(=O)c3ccc(-c4c5nc(c(-c6c(F)cccc6F)c6ccc([nH]6)c(-c6c(F)cccc6F)c6nc(c(-c7c(F)cccc7F)c7ccc4[nH]7)C=C6)C=C5)cc3)C2)c1
REMARK SMILES IDX 15 1 14 2 13 3 11 4 12 5 9 7 6 8 7 9 74 10 8 11 5 12 1 13
REMARK SMILES IDX 2 14 3 15 75 16 4 17 10 18 16 22 17 23 18 24 19 26 20 27
REMARK SMILES IDX 21 28 73 29 22 30 72 31 23 32 24 33 25 34 66 35 26 36 71 37
REMARK SMILES IDX 65 38 67 39 27 40 70 41 64 42 63 43 28 45 54 46 37 47 53 48
REMARK SMILES IDX 38 49 41 50 52 51 68 52 39 53 40 54 51 56 69 57 42 58 29 59
REMARK SMILES IDX 30 60 35 61 31 62 32 63 34 64 36 65 33 66 55 67 56 68 61 69
REMARK SMILES IDX 57 70 58 71 60 72 62 73 59 74 43 75 44 76 49 77 45 78 46 79
REMARK SMILES IDX 48 80 50 81 47 82
REMARK H PARENT 13 6 10 19 10 20 10 21 17 25 67 44 41 55
REMARK Flexibility Score: inf
ROOT
ATOM      1  C   UNL     1       1.727   9.459  -3.418  1.00  0.00     0.042 C 
ENDROOT
BRANCH   1   2
ATOM      2  C   UNL     1       2.599   9.248  -2.180  1.00  0.00     0.118 C 
BRANCH   2   3
ATOM      3  N   UNL     1       1.855   9.085  -0.938  1.00  0.00    -0.351 N 
ATOM      4  C   UNL     1       1.896   8.053  -0.037  1.00  0.00     0.281 C 
ATOM      5  O   UNL     1       1.530   8.305   1.112  1.00  0.00    -0.268 OA
ATOM      6  H   UNL     1       1.237   9.818  -0.715  1.00  0.00     0.163 HD
BRANCH   4   7
ATOM      7  C   UNL     1       2.474   6.656  -0.440  1.00  0.00     0.176 C 
ATOM      8  C   UNL     1       0.873   5.003   0.419  1.00  0.00     0.114 C 
ATOM      9  C   UNL     1       0.672   5.114  -1.105  1.00  0.00     0.034 C 
ATOM     10  C   UNL     1       2.292   5.558   0.622  1.00  0.00     0.106 C 
ATOM     11  C   UNL     1       1.745   6.067  -1.651  1.00  0.00     0.081 C 
BRANCH   8  12
ATOM     12  N   UNL     1      -0.168   5.639   1.214  1.00  0.00    -0.269 N 
ATOM     13  C   UNL     1      -1.499   7.888   3.729  1.00  0.00     0.048 C 
ATOM     14  C   UNL     1      -1.229   6.890   2.674  1.00  0.00    -0.013 A 
ATOM     15  C   UNL     1      -2.088   6.387   1.677  1.00  0.00     0.138 A 
ATOM     16  C   UNL     1      -0.033   6.255   2.426  1.00  0.00     0.112 A 
ATOM     17  N   UNL     1      -1.457   5.583   0.816  1.00  0.00    -0.181 NA
ENDBRANCH   8  12
BRANCH   7  18
ATOM     18  N   UNL     1       3.925   6.842  -0.665  1.00  0.00    -0.345 N 
ATOM     19  H   UNL     1       4.070   7.568  -1.367  1.00  0.00     0.345 HD
ATOM     20  H   UNL     1       4.334   5.967  -0.991  1.00  0.00     0.345 HD
ATOM     21  H   UNL     1       4.372   7.121   0.209  1.00  0.00     0.345 HD
ENDBRANCH   7  18
ENDBRANCH   4   7
ENDBRANCH   2   3
ENDBRANCH   1   2
BRANCH   1  22
ATOM     22  C   UNL     1       0.911  10.736  -3.374  1.00  0.00     0.118 C 
BRANCH  22  23
ATOM     23  N   UNL     1       1.718  11.953  -3.445  1.00  0.00    -0.352 N 
ATOM     24  C   UNL     1       1.270  13.261  -3.550  1.00  0.00     0.251 C 
ATOM     25  H   UNL     1       2.694  11.830  -3.415  1.00  0.00     0.163 HD
ATOM     26  O   UNL     1       2.008  14.151  -3.931  1.00  0.00    -0.269 OA
BRANCH  24  27
ATOM     27  C   UNL     1      -0.132  13.551  -3.188  1.00  0.00     0.039 A 
ATOM     28  C   UNL     1      -0.909  14.435  -3.938  1.00  0.00     0.014 A 
ATOM     29  C   UNL     1      -0.675  12.882  -2.093  1.00  0.00     0.014 A 
ATOM     30  C   UNL     1      -2.260  14.569  -3.622  1.00  0.00     0.010 A 
ATOM     31  C   UNL     1      -2.030  12.878  -1.897  1.00  0.00     0.010 A 
ATOM     32  C   UNL     1      -2.820  13.762  -2.615  1.00  0.00    -0.014 A 
BRANCH  32  33
ATOM     33  C   UNL     1      -4.265  13.708  -2.413  1.00  0.00     0.031 A 
ATOM     34  C   UNL     1      -5.003  13.389  -3.661  1.00  0.00     0.074 A 
ATOM     35  C   UNL     1      -4.857  13.727  -1.196  1.00  0.00     0.049 A 
ATOM     36  N   UNL     1      -5.699  14.203  -4.381  1.00  0.00    -0.248 NA
ATOM     37  C   UNL     1      -4.791  12.075  -4.297  1.00  0.00     0.031 C 
ATOM     38  C   UNL     1      -4.198  13.710   0.117  1.00  0.00     0.029 A 
ATOM     39  N   UNL     1      -6.182  13.673  -0.861  1.00  0.00    -0.354 N 
ATOM     40  C   UNL     1      -6.251  13.424  -5.394  1.00  0.00     0.074 A 
ATOM     41  C   UNL     1      -5.475  12.216  -5.436  1.00  0.00     0.031 C 
ATOM     42  C   UNL     1      -5.099  13.420   1.082  1.00  0.00     0.029 A 
ATOM     43  C   UNL     1      -6.423  13.417   0.490  1.00  0.00     0.049 A 
ATOM     44  H   UNL     1      -6.904  13.805  -1.517  1.00  0.00     0.167 HD
ATOM     45  C   UNL     1      -7.508  13.700  -5.841  1.00  0.00     0.037 A 
ATOM     46  C   UNL     1      -7.626  13.239   1.091  1.00  0.00     0.037 A 
ATOM     47  C   UNL     1      -7.930  14.993  -5.359  1.00  0.00     0.049 A 
ATOM     48  C   UNL     1      -8.648  13.851   0.218  1.00  0.00     0.074 A 
ATOM     49  C   UNL     1      -7.662  16.314  -5.642  1.00  0.00     0.029 A 
ATOM     50  N   UNL     1      -8.472  14.946  -4.102  1.00  0.00    -0.354 N 
ATOM     51  N   UNL     1      -8.747  15.136   0.031  1.00  0.00    -0.248 NA
ATOM     52  C   UNL     1      -9.358  13.018  -0.746  1.00  0.00     0.031 C 
ATOM     53  C   UNL     1      -7.944  17.044  -4.447  1.00  0.00     0.029 A 
ATOM     54  C   UNL     1      -8.432  16.164  -3.485  1.00  0.00     0.049 A 
ATOM     55  H   UNL     1      -8.844  14.132  -3.693  1.00  0.00     0.167 HD
ATOM     56  C   UNL     1      -9.124  15.250  -1.291  1.00  0.00     0.074 A 
ATOM     57  C   UNL     1      -9.667  13.947  -1.654  1.00  0.00     0.031 C 
ATOM     58  C   UNL     1      -8.638  16.266  -2.059  1.00  0.00     0.037 A 
BRANCH  45  59
ATOM     59  C   UNL     1      -8.550  12.659  -6.215  1.00  0.00     0.057 A 
ATOM     60  C   UNL     1      -9.805  13.101  -6.681  1.00  0.00     0.134 A 
ATOM     61  C   UNL     1      -8.507  11.299  -5.842  1.00  0.00     0.134 A 
ATOM     62  F   UNL     1      -9.987  14.375  -7.063  1.00  0.00    -0.206 F 
ATOM     63  C   UNL     1     -10.940  12.280  -6.695  1.00  0.00     0.040 A 
ATOM     64  C   UNL     1      -9.625  10.459  -5.895  1.00  0.00     0.040 A 
ATOM     65  F   UNL     1      -7.422  10.727  -5.313  1.00  0.00    -0.206 F 
ATOM     66  C   UNL     1     -10.855  10.955  -6.292  1.00  0.00     0.006 A 
ENDBRANCH  45  59
BRANCH  46  67
ATOM     67  C   UNL     1      -8.014  12.460   2.287  1.00  0.00     0.057 A 
ATOM     68  C   UNL     1      -9.204  12.731   2.982  1.00  0.00     0.134 A 
ATOM     69  C   UNL     1      -7.391  11.237   2.579  1.00  0.00     0.134 A 
ATOM     70  F   UNL     1      -9.885  13.863   2.752  1.00  0.00    -0.206 F 
ATOM     71  C   UNL     1      -9.770  11.815   3.878  1.00  0.00     0.040 A 
ATOM     72  C   UNL     1      -7.946  10.312   3.472  1.00  0.00     0.040 A 
ATOM     73  F   UNL     1      -6.278  10.862   1.931  1.00  0.00    -0.206 F 
ATOM     74  C   UNL     1      -9.150  10.591   4.110  1.00  0.00     0.006 A 
ENDBRANCH  46  67
BRANCH  58  75
ATOM     75  C   UNL     1      -8.162  17.494  -1.349  1.00  0.00     0.057 A 
ATOM     76  C   UNL     1      -7.037  17.555  -0.516  1.00  0.00     0.134 A 
ATOM     77  C   UNL     1      -8.864  18.685  -1.561  1.00  0.00     0.134 A 
ATOM     78  F   UNL     1      -6.265  16.480  -0.310  1.00  0.00    -0.206 F 
ATOM     79  C   UNL     1      -6.654  18.745   0.112  1.00  0.00     0.040 A 
ATOM     80  C   UNL     1      -8.474  19.885  -0.968  1.00  0.00     0.040 A 
ATOM     81  F   UNL     1      -9.930  18.704  -2.376  1.00  0.00    -0.206 F 
ATOM     82  C   UNL     1      -7.373  19.915  -0.117  1.00  0.00     0.006 A 
ENDBRANCH  58  75
ENDBRANCH  32  33
ENDBRANCH  24  27
ENDBRANCH  22  23
ENDBRANCH   1  22
TORSDOF 12
