REMARK SMILES CCS(=O)(=O)N1CCC[C@@H](C(=O)NCCCNC(=O)c2ccc(-c3c4nc(c(-c5c(F)cccc5F)c5ccc([nH]5)c(-c5c(F)cccc5F)c5nc(c(-c6c(F)cccc6F)c6ccc3[nH]6)C=C5)C=C4)cc2)C1
REMARK SMILES IDX 15 1 14 2 13 3 11 4 12 5 10 7 6 8 7 9 74 10 8 11 9 12 3 13
REMARK SMILES IDX 4 14 5 15 2 16 1 17 16 18 17 19 18 20 19 22 20 23 21 24
REMARK SMILES IDX 73 25 22 26 72 27 23 28 24 29 25 30 66 31 26 32 71 33 65 34
REMARK SMILES IDX 67 35 27 36 70 37 64 38 63 39 28 41 54 42 37 43 53 44 38 45
REMARK SMILES IDX 41 46 52 47 68 48 39 49 40 50 51 52 69 53 42 54 29 55 30 56
REMARK SMILES IDX 35 57 31 58 32 59 34 60 36 61 33 62 55 63 56 64 61 65 57 66
REMARK SMILES IDX 58 67 60 68 62 69 59 70 43 71 44 72 49 73 45 74 46 75 48 76
REMARK SMILES IDX 50 77 47 78
REMARK H PARENT 13 6 17 21 67 40 41 51
REMARK Flexibility Score: inf
ROOT
ATOM      1  C   UNL     1       3.591   4.923  -5.371  1.00  0.00     0.042 C 
ENDROOT
BRANCH   1   2
ATOM      2  C   UNL     1       4.678   4.215  -4.577  1.00  0.00     0.117 C 
BRANCH   2   3
ATOM      3  N   UNL     1       5.325   5.096  -3.616  1.00  0.00    -0.356 N 
ATOM      4  C   UNL     1       5.494   4.987  -2.269  1.00  0.00     0.224 C 
ATOM      5  O   UNL     1       6.104   5.893  -1.697  1.00  0.00    -0.275 OA
ATOM      6  H   UNL     1       5.708   5.913  -4.008  1.00  0.00     0.163 HD
BRANCH   4   7
ATOM      7  C   UNL     1       4.962   3.796  -1.488  1.00  0.00     0.093 C 
ATOM      8  N   UNL     1       2.836   2.513  -1.018  1.00  0.00    -0.201 NA
ATOM      9  C   UNL     1       3.425   1.357  -1.749  1.00  0.00     0.102 C 
ATOM     10  C   UNL     1       3.430   3.809  -1.491  1.00  0.00     0.115 C 
ATOM     11  C   UNL     1       4.906   1.268  -1.412  1.00  0.00     0.018 C 
ATOM     12  C   UNL     1       5.641   2.494  -1.927  1.00  0.00     0.016 C 
BRANCH   8  13
ATOM     13  S   UNL     1       1.119   2.555  -1.014  1.00  0.00     0.213 S 
ATOM     14  O   UNL     1       0.664   1.984  -2.262  1.00  0.00    -0.212 OA
ATOM     15  O   UNL     1       0.721   3.897  -0.633  1.00  0.00    -0.212 OA
BRANCH  13  16
ATOM     16  C   UNL     1       0.654   1.490   0.348  1.00  0.00     0.151 C 
ATOM     17  C   UNL     1       0.963   0.022   0.163  1.00  0.00     0.022 C 
ENDBRANCH  13  16
ENDBRANCH   8  13
ENDBRANCH   4   7
ENDBRANCH   2   3
ENDBRANCH   1   2
BRANCH   1  18
ATOM     18  C   UNL     1       4.114   6.016  -6.292  1.00  0.00     0.118 C 
BRANCH  18  19
ATOM     19  N   UNL     1       4.996   5.503  -7.333  1.00  0.00    -0.352 N 
ATOM     20  C   UNL     1       4.878   5.563  -8.700  1.00  0.00     0.251 C 
ATOM     21  H   UNL     1       5.801   5.041  -7.005  1.00  0.00     0.163 HD
ATOM     22  O   UNL     1       5.637   4.906  -9.406  1.00  0.00    -0.269 OA
BRANCH  20  23
ATOM     23  C   UNL     1       3.828   6.397  -9.321  1.00  0.00     0.039 A 
ATOM     24  C   UNL     1       3.126   5.893 -10.419  1.00  0.00     0.014 A 
ATOM     25  C   UNL     1       3.538   7.672  -8.830  1.00  0.00     0.014 A 
ATOM     26  C   UNL     1       2.085   6.638 -10.976  1.00  0.00     0.010 A 
ATOM     27  C   UNL     1       2.441   8.370  -9.323  1.00  0.00     0.010 A 
ATOM     28  C   UNL     1       1.706   7.864 -10.405  1.00  0.00    -0.014 A 
BRANCH  28  29
ATOM     29  C   UNL     1       0.543   8.629 -10.921  1.00  0.00     0.031 A 
ATOM     30  C   UNL     1       0.733  10.012 -11.481  1.00  0.00     0.074 A 
ATOM     31  C   UNL     1      -0.695   8.109 -10.817  1.00  0.00     0.049 A 
ATOM     32  N   UNL     1      -0.166  10.858 -11.916  1.00  0.00    -0.248 NA
ATOM     33  C   UNL     1       2.112  10.522 -11.530  1.00  0.00     0.031 C 
ATOM     34  C   UNL     1      -1.018   6.802 -10.242  1.00  0.00     0.029 A 
ATOM     35  N   UNL     1      -1.915   8.621 -11.181  1.00  0.00    -0.354 N 
ATOM     36  C   UNL     1       0.536  12.003 -12.274  1.00  0.00     0.074 A 
ATOM     37  C   UNL     1       1.925  11.765 -11.947  1.00  0.00     0.031 C 
ATOM     38  C   UNL     1      -2.343   6.605 -10.315  1.00  0.00     0.029 A 
ATOM     39  C   UNL     1      -2.969   7.787 -10.899  1.00  0.00     0.049 A 
ATOM     40  H   UNL     1      -2.024   9.504 -11.603  1.00  0.00     0.167 HD
ATOM     41  C   UNL     1       0.070  13.139 -12.844  1.00  0.00     0.037 A 
ATOM     42  C   UNL     1      -4.292   7.957 -11.081  1.00  0.00     0.037 A 
ATOM     43  C   UNL     1      -1.312  13.366 -13.179  1.00  0.00     0.049 A 
ATOM     44  C   UNL     1      -4.789   9.231 -11.704  1.00  0.00     0.074 A 
ATOM     45  C   UNL     1      -1.876  14.456 -13.817  1.00  0.00     0.029 A 
ATOM     46  N   UNL     1      -2.348  12.490 -12.891  1.00  0.00    -0.354 N 
ATOM     47  N   UNL     1      -4.106  10.274 -12.111  1.00  0.00    -0.248 NA
ATOM     48  C   UNL     1      -6.240   9.350 -11.900  1.00  0.00     0.031 C 
ATOM     49  C   UNL     1      -3.261  14.266 -13.862  1.00  0.00     0.029 A 
ATOM     50  C   UNL     1      -3.554  13.029 -13.310  1.00  0.00     0.049 A 
ATOM     51  H   UNL     1      -2.243  11.614 -12.453  1.00  0.00     0.167 HD
ATOM     52  C   UNL     1      -5.038  11.160 -12.635  1.00  0.00     0.074 A 
ATOM     53  C   UNL     1      -6.334  10.525 -12.507  1.00  0.00     0.031 C 
ATOM     54  C   UNL     1      -4.838  12.387 -13.176  1.00  0.00     0.037 A 
BRANCH  41  55
ATOM     55  C   UNL     1       1.068  14.227 -13.130  1.00  0.00     0.057 A 
ATOM     56  C   UNL     1       2.070  14.081 -14.100  1.00  0.00     0.134 A 
ATOM     57  C   UNL     1       1.019  15.442 -12.435  1.00  0.00     0.134 A 
ATOM     58  F   UNL     1       2.182  12.939 -14.796  1.00  0.00    -0.206 F 
ATOM     59  C   UNL     1       3.010  15.085 -14.338  1.00  0.00     0.040 A 
ATOM     60  C   UNL     1       1.933  16.467 -12.689  1.00  0.00     0.040 A 
ATOM     61  F   UNL     1       0.082  15.656 -11.499  1.00  0.00    -0.206 F 
ATOM     62  C   UNL     1       2.939  16.285 -13.635  1.00  0.00     0.006 A 
ENDBRANCH  41  55
BRANCH  42  63
ATOM     63  C   UNL     1      -5.234   6.880 -10.686  1.00  0.00     0.057 A 
ATOM     64  C   UNL     1      -5.917   6.128 -11.649  1.00  0.00     0.134 A 
ATOM     65  C   UNL     1      -5.461   6.564  -9.341  1.00  0.00     0.134 A 
ATOM     66  F   UNL     1      -5.755   6.395 -12.953  1.00  0.00    -0.206 F 
ATOM     67  C   UNL     1      -6.802   5.111 -11.290  1.00  0.00     0.040 A 
ATOM     68  C   UNL     1      -6.322   5.531  -8.968  1.00  0.00     0.040 A 
ATOM     69  F   UNL     1      -4.830   7.240  -8.370  1.00  0.00    -0.206 F 
ATOM     70  C   UNL     1      -7.001   4.805  -9.945  1.00  0.00     0.006 A 
ENDBRANCH  42  63
BRANCH  54  71
ATOM     71  C   UNL     1      -6.043  13.112 -13.704  1.00  0.00     0.057 A 
ATOM     72  C   UNL     1      -7.021  13.647 -12.856  1.00  0.00     0.134 A 
ATOM     73  C   UNL     1      -6.204  13.313 -15.082  1.00  0.00     0.134 A 
ATOM     74  F   UNL     1      -6.934  13.479 -11.527  1.00  0.00    -0.206 F 
ATOM     75  C   UNL     1      -8.127  14.334 -13.359  1.00  0.00     0.040 A 
ATOM     76  C   UNL     1      -7.289  14.025 -15.595  1.00  0.00     0.040 A 
ATOM     77  F   UNL     1      -5.300  12.836 -15.951  1.00  0.00    -0.206 F 
ATOM     78  C   UNL     1      -8.259  14.532 -14.732  1.00  0.00     0.006 A 
ENDBRANCH  54  71
ENDBRANCH  28  29
ENDBRANCH  20  23
ENDBRANCH  18  19
ENDBRANCH   1  18
TORSDOF 12
