REMARK SMILES O=C(NCCCNC(=O)c1cccc(S(=O)(=O)NC[C@@H]2COc3ccccc3O2)c1)c1ccc(-c2c3nc(c(-c4c(F)cccc4F)c4ccc([nH]4)c(-c4c(F)cccc4F)c4nc(c(-c5c(F)cccc5F)c5ccc2[nH]5)C=C4)C=C3)cc1
REMARK SMILES IDX 6 1 5 2 4 3 3 4 1 5 2 6 31 8 32 9 84 10 33 11 83 12 34 13
REMARK SMILES IDX 35 14 36 15 77 16 37 17 82 18 76 19 78 20 38 21 81 22 75 23
REMARK SMILES IDX 74 24 39 26 65 27 48 28 64 29 49 30 52 31 63 32 79 33 50 34
REMARK SMILES IDX 51 35 62 37 80 38 53 39 40 40 41 41 46 42 42 43 43 44 45 45
REMARK SMILES IDX 47 46 44 47 66 48 67 49 72 50 68 51 69 52 71 53 73 54 70 55
REMARK SMILES IDX 54 56 55 57 60 58 56 59 57 60 59 61 61 62 58 63 7 64 8 65
REMARK SMILES IDX 9 67 10 68 11 69 30 70 12 71 14 72 13 73 15 74 16 75 17 76
REMARK SMILES IDX 18 77 19 79 20 80 21 81 29 82 22 83 28 84 23 85 27 86 24 87
REMARK SMILES IDX 26 88 25 89
REMARK H PARENT 3 7 78 25 52 36 7 66 18 78
REMARK Flexibility Score: inf
ROOT
ATOM      1  C   UNL     1       4.476   3.368  -1.176  1.00  0.00     0.118 C 
ENDROOT
BRANCH   1   2
ATOM      2  C   UNL     1       4.955   1.932  -1.056  1.00  0.00     0.042 C 
BRANCH   2   3
ATOM      3  C   UNL     1       4.565   1.277   0.260  1.00  0.00     0.118 C 
BRANCH   3   4
ATOM      4  N   UNL     1       3.132   1.031   0.359  1.00  0.00    -0.352 N 
ATOM      5  O   UNL     1       1.187  -0.070   0.101  1.00  0.00    -0.269 OA
ATOM      6  C   UNL     1       2.411  -0.125   0.179  1.00  0.00     0.251 C 
ATOM      7  H   UNL     1       2.593   1.821   0.594  1.00  0.00     0.163 HD
BRANCH   6   8
ATOM      8  C   UNL     1       3.098  -1.429   0.054  1.00  0.00     0.039 A 
ATOM      9  C   UNL     1       4.191  -1.742   0.861  1.00  0.00     0.014 A 
ATOM     10  C   UNL     1       2.616  -2.374  -0.858  1.00  0.00     0.014 A 
ATOM     11  C   UNL     1       4.907  -2.911   0.638  1.00  0.00     0.010 A 
ATOM     12  C   UNL     1       3.268  -3.603  -1.000  1.00  0.00     0.010 A 
ATOM     13  C   UNL     1       4.439  -3.868  -0.275  1.00  0.00    -0.014 A 
BRANCH  13  14
ATOM     14  C   UNL     1       5.155  -5.164  -0.385  1.00  0.00     0.031 A 
ATOM     15  C   UNL     1       5.816  -5.587  -1.666  1.00  0.00     0.074 A 
ATOM     16  C   UNL     1       5.235  -5.947   0.710  1.00  0.00     0.049 A 
ATOM     17  N   UNL     1       6.497  -6.677  -1.917  1.00  0.00    -0.248 NA
ATOM     18  C   UNL     1       5.694  -4.678  -2.816  1.00  0.00     0.031 C 
ATOM     19  C   UNL     1       4.620  -5.646   2.007  1.00  0.00     0.029 A 
ATOM     20  N   UNL     1       5.881  -7.137   0.920  1.00  0.00    -0.354 N 
ATOM     21  C   UNL     1       6.864  -6.598  -3.254  1.00  0.00     0.074 A 
ATOM     22  C   UNL     1       6.315  -5.361  -3.769  1.00  0.00     0.031 C 
ATOM     23  C   UNL     1       4.964  -6.595   2.889  1.00  0.00     0.029 A 
ATOM     24  C   UNL     1       5.763  -7.605   2.206  1.00  0.00     0.049 A 
ATOM     25  H   UNL     1       6.381  -7.612   0.217  1.00  0.00     0.167 HD
ATOM     26  C   UNL     1       7.599  -7.474  -3.981  1.00  0.00     0.037 A 
ATOM     27  C   UNL     1       6.229  -8.732   2.773  1.00  0.00     0.037 A 
ATOM     28  C   UNL     1       8.162  -8.692  -3.456  1.00  0.00     0.049 A 
ATOM     29  C   UNL     1       7.029  -9.688   1.940  1.00  0.00     0.074 A 
ATOM     30  C   UNL     1       8.950  -9.627  -4.106  1.00  0.00     0.029 A 
ATOM     31  N   UNL     1       7.997  -9.144  -2.156  1.00  0.00    -0.354 N 
ATOM     32  N   UNL     1       7.389  -9.584   0.684  1.00  0.00    -0.248 NA
ATOM     33  C   UNL     1       7.479 -10.920   2.599  1.00  0.00     0.031 C 
ATOM     34  C   UNL     1       9.230 -10.664  -3.209  1.00  0.00     0.029 A 
ATOM     35  C   UNL     1       8.652 -10.354  -1.989  1.00  0.00     0.049 A 
ATOM     36  H   UNL     1       7.490  -8.675  -1.454  1.00  0.00     0.167 HD
ATOM     37  C   UNL     1       8.119 -10.729   0.404  1.00  0.00     0.074 A 
ATOM     38  C   UNL     1       8.169 -11.503   1.628  1.00  0.00     0.031 C 
ATOM     39  C   UNL     1       8.692 -11.109  -0.763  1.00  0.00     0.037 A 
BRANCH  26  40
ATOM     40  C   UNL     1       7.829  -7.160  -5.430  1.00  0.00     0.057 A 
ATOM     41  C   UNL     1       8.718  -6.159  -5.840  1.00  0.00     0.134 A 
ATOM     42  C   UNL     1       7.197  -7.911  -6.430  1.00  0.00     0.134 A 
ATOM     43  F   UNL     1       9.347  -5.396  -4.933  1.00  0.00    -0.206 F 
ATOM     44  C   UNL     1       8.962  -5.907  -7.192  1.00  0.00     0.040 A 
ATOM     45  C   UNL     1       7.448  -7.684  -7.785  1.00  0.00     0.040 A 
ATOM     46  F   UNL     1       6.338  -8.889  -6.107  1.00  0.00    -0.206 F 
ATOM     47  C   UNL     1       8.331  -6.677  -8.168  1.00  0.00     0.006 A 
ENDBRANCH  26  40
BRANCH  27  48
ATOM     48  C   UNL     1       5.938  -9.015   4.200  1.00  0.00     0.057 A 
ATOM     49  C   UNL     1       6.948  -8.983   5.167  1.00  0.00     0.134 A 
ATOM     50  C   UNL     1       4.639  -9.313   4.631  1.00  0.00     0.134 A 
ATOM     51  F   UNL     1       8.214  -8.718   4.812  1.00  0.00    -0.206 F 
ATOM     52  C   UNL     1       6.681  -9.250   6.510  1.00  0.00     0.040 A 
ATOM     53  C   UNL     1       4.353  -9.556   5.975  1.00  0.00     0.040 A 
ATOM     54  F   UNL     1       3.626  -9.350   3.753  1.00  0.00    -0.206 F 
ATOM     55  C   UNL     1       5.378  -9.531   6.918  1.00  0.00     0.006 A 
ENDBRANCH  27  48
BRANCH  39  56
ATOM     56  C   UNL     1       9.442 -12.406  -0.758  1.00  0.00     0.057 A 
ATOM     57  C   UNL     1       8.778 -13.639  -0.726  1.00  0.00     0.134 A 
ATOM     58  C   UNL     1      10.841 -12.422  -0.808  1.00  0.00     0.134 A 
ATOM     59  F   UNL     1       7.439 -13.689  -0.662  1.00  0.00    -0.206 F 
ATOM     60  C   UNL     1       9.482 -14.844  -0.720  1.00  0.00     0.040 A 
ATOM     61  C   UNL     1      11.555 -13.620  -0.826  1.00  0.00     0.040 A 
ATOM     62  F   UNL     1      11.534 -11.274  -0.846  1.00  0.00    -0.206 F 
ATOM     63  C   UNL     1      10.875 -14.835  -0.776  1.00  0.00     0.006 A 
ENDBRANCH  39  56
ENDBRANCH  13  14
ENDBRANCH   6   8
ENDBRANCH   3   4
ENDBRANCH   2   3
ENDBRANCH   1   2
BRANCH   1  64
ATOM     64  N   UNL     1       5.072   4.219  -0.153  1.00  0.00    -0.352 N 
ATOM     65  C   UNL     1       6.048   5.178  -0.241  1.00  0.00     0.251 C 
ATOM     66  H   UNL     1       4.713   4.081   0.753  1.00  0.00     0.163 HD
ATOM     67  O   UNL     1       6.607   5.559   0.783  1.00  0.00    -0.269 OA
BRANCH  65  68
ATOM     68  C   UNL     1       6.376   5.825  -1.531  1.00  0.00     0.041 A 
ATOM     69  C   UNL     1       7.665   6.304  -1.772  1.00  0.00     0.014 A 
ATOM     70  C   UNL     1       5.365   6.113  -2.442  1.00  0.00     0.035 A 
ATOM     71  C   UNL     1       7.933   7.036  -2.936  1.00  0.00     0.002 A 
ATOM     72  C   UNL     1       5.615   6.877  -3.576  1.00  0.00     0.083 A 
ATOM     73  C   UNL     1       6.906   7.330  -3.841  1.00  0.00     0.022 A 
BRANCH  72  74
ATOM     74  S   UNL     1       4.270   7.292  -4.658  1.00  0.00     0.240 S 
ATOM     75  O   UNL     1       4.033   8.711  -4.564  1.00  0.00    -0.207 OA
ATOM     76  O   UNL     1       4.534   6.622  -5.911  1.00  0.00    -0.207 OA
BRANCH  74  77
ATOM     77  N   UNL     1       2.949   6.471  -3.983  1.00  0.00    -0.207 NA
ATOM     78  H   UNL     1       3.339   5.729  -3.401  1.00  0.00     0.141 HD
BRANCH  77  79
ATOM     79  C   UNL     1       1.938   7.176  -3.144  1.00  0.00     0.147 C 
BRANCH  79  80
ATOM     80  C   UNL     1       2.467   7.964  -1.925  1.00  0.00     0.226 C 
ATOM     81  C   UNL     1       2.532   7.165  -0.619  1.00  0.00     0.276 C 
ATOM     82  O   UNL     1       1.651   9.141  -1.741  1.00  0.00    -0.482 OA
ATOM     83  O   UNL     1       1.239   6.721  -0.206  1.00  0.00    -0.486 OA
ATOM     84  C   UNL     1       0.603   8.965  -0.877  1.00  0.00     0.161 A 
ATOM     85  C   UNL     1       0.391   7.795  -0.143  1.00  0.00     0.161 A 
ATOM     86  C   UNL     1      -0.270  10.038  -0.729  1.00  0.00     0.050 A 
ATOM     87  C   UNL     1      -0.707   7.678   0.704  1.00  0.00     0.050 A 
ATOM     88  C   UNL     1      -1.357   9.937   0.141  1.00  0.00     0.004 A 
ATOM     89  C   UNL     1      -1.578   8.756   0.853  1.00  0.00     0.004 A 
ENDBRANCH  79  80
ENDBRANCH  77  79
ENDBRANCH  74  77
ENDBRANCH  72  74
ENDBRANCH  65  68
ENDBRANCH   1  64
TORSDOF 14
