REMARK SMILES O=C(NCCCNC(=O)c1cn(C2CC2)c2cc(N3CC[NH2+]CC3)ccc2c1=O)c1ccc(-c2c3nc(c(-c4c(F)cccc4F)c4ccc([nH]4)c(-c4c(F)cccc4F)c4nc(c(-c5c(F)cccc5F)c5ccc2[nH]5)C=C4)C=C3)cc1
REMARK SMILES IDX 4 1 3 2 1 3 2 4 30 6 31 7 83 8 32 9 82 10 33 11 34 12 35 13
REMARK SMILES IDX 76 14 36 15 81 16 75 17 77 18 37 19 80 20 74 21 73 22 38 24
REMARK SMILES IDX 64 25 47 26 63 27 48 28 51 29 62 30 78 31 49 32 50 33 61 35
REMARK SMILES IDX 79 36 52 37 39 38 40 39 45 40 41 41 42 42 44 43 46 44 43 45
REMARK SMILES IDX 65 46 66 47 71 48 67 49 68 50 70 51 72 52 69 53 53 54 54 55
REMARK SMILES IDX 59 56 55 57 56 58 58 59 60 60 57 61 5 62 6 63 7 64 8 65 9 67
REMARK SMILES IDX 10 68 11 69 28 70 12 71 27 72 29 73 16 74 26 75 17 76 25 77
REMARK SMILES IDX 18 78 13 79 14 80 15 81 19 82 20 83 24 84 21 85 23 86 22 87
REMARK H PARENT 3 5 77 23 51 34 7 66 22 88 22 89
REMARK Flexibility Score: inf
ROOT
ATOM      1  C   UNL     1       4.725  -0.863   0.949  1.00  0.00     0.118 C 
ENDROOT
BRANCH   1   2
ATOM      2  N   UNL     1       3.279  -0.817   0.792  1.00  0.00    -0.352 N 
ATOM      3  O   UNL     1       1.266  -0.014   0.228  1.00  0.00    -0.269 OA
ATOM      4  C   UNL     1       2.481   0.003   0.038  1.00  0.00     0.251 C 
ATOM      5  H   UNL     1       2.790  -1.490   1.319  1.00  0.00     0.163 HD
BRANCH   4   6
ATOM      6  C   UNL     1       3.042   0.896  -1.003  1.00  0.00     0.039 A 
ATOM      7  C   UNL     1       2.417   2.128  -1.233  1.00  0.00     0.014 A 
ATOM      8  C   UNL     1       4.095   0.493  -1.827  1.00  0.00     0.014 A 
ATOM      9  C   UNL     1       2.851   2.956  -2.273  1.00  0.00     0.010 A 
ATOM     10  C   UNL     1       4.573   1.347  -2.819  1.00  0.00     0.010 A 
ATOM     11  C   UNL     1       3.933   2.570  -3.074  1.00  0.00    -0.014 A 
BRANCH  11  12
ATOM     12  C   UNL     1       4.344   3.355  -4.264  1.00  0.00     0.031 A 
ATOM     13  C   UNL     1       4.150   2.758  -5.633  1.00  0.00     0.074 A 
ATOM     14  C   UNL     1       4.939   4.555  -4.129  1.00  0.00     0.049 A 
ATOM     15  N   UNL     1       4.590   3.176  -6.792  1.00  0.00    -0.248 NA
ATOM     16  C   UNL     1       3.381   1.504  -5.700  1.00  0.00     0.031 C 
ATOM     17  C   UNL     1       5.186   5.245  -2.863  1.00  0.00     0.029 A 
ATOM     18  N   UNL     1       5.465   5.397  -5.077  1.00  0.00    -0.354 N 
ATOM     19  C   UNL     1       4.192   2.216  -7.714  1.00  0.00     0.074 A 
ATOM     20  C   UNL     1       3.494   1.184  -6.981  1.00  0.00     0.031 C 
ATOM     21  C   UNL     1       5.817   6.405  -3.112  1.00  0.00     0.029 A 
ATOM     22  C   UNL     1       6.055   6.519  -4.549  1.00  0.00     0.049 A 
ATOM     23  H   UNL     1       5.424   5.213  -6.043  1.00  0.00     0.167 HD
ATOM     24  C   UNL     1       4.380   2.202  -9.054  1.00  0.00     0.037 A 
ATOM     25  C   UNL     1       6.732   7.512  -5.156  1.00  0.00     0.037 A 
ATOM     26  C   UNL     1       5.014   3.259  -9.793  1.00  0.00     0.049 A 
ATOM     27  C   UNL     1       6.927   7.471  -6.648  1.00  0.00     0.074 A 
ATOM     28  C   UNL     1       5.183   3.373 -11.162  1.00  0.00     0.029 A 
ATOM     29  N   UNL     1       5.575   4.389  -9.222  1.00  0.00    -0.354 N 
ATOM     30  N   UNL     1       6.516   6.576  -7.512  1.00  0.00    -0.248 NA
ATOM     31  C   UNL     1       7.689   8.577  -7.248  1.00  0.00     0.031 C 
ATOM     32  C   UNL     1       5.870   4.564 -11.418  1.00  0.00     0.029 A 
ATOM     33  C   UNL     1       6.104   5.201 -10.210  1.00  0.00     0.049 A 
ATOM     34  H   UNL     1       5.594   4.586  -8.258  1.00  0.00     0.167 HD
ATOM     35  C   UNL     1       6.941   7.024  -8.756  1.00  0.00     0.074 A 
ATOM     36  C   UNL     1       7.639   8.273  -8.537  1.00  0.00     0.031 C 
ATOM     37  C   UNL     1       6.772   6.452  -9.972  1.00  0.00     0.037 A 
BRANCH  24  38
ATOM     38  C   UNL     1       3.894   1.003  -9.810  1.00  0.00     0.057 A 
ATOM     39  C   UNL     1       4.804   0.073 -10.326  1.00  0.00     0.134 A 
ATOM     40  C   UNL     1       2.533   0.788 -10.060  1.00  0.00     0.134 A 
ATOM     41  F   UNL     1       6.122   0.224 -10.124  1.00  0.00    -0.206 F 
ATOM     42  C   UNL     1       4.378  -1.029 -11.069  1.00  0.00     0.040 A 
ATOM     43  C   UNL     1       2.093  -0.322 -10.783  1.00  0.00     0.040 A 
ATOM     44  F   UNL     1       1.612   1.636  -9.579  1.00  0.00    -0.206 F 
ATOM     45  C   UNL     1       3.017  -1.230 -11.295  1.00  0.00     0.006 A 
ENDBRANCH  24  38
BRANCH  25  46
ATOM     46  C   UNL     1       7.292   8.634  -4.363  1.00  0.00     0.057 A 
ATOM     47  C   UNL     1       8.408   8.459  -3.536  1.00  0.00     0.134 A 
ATOM     48  C   UNL     1       6.749   9.920  -4.453  1.00  0.00     0.134 A 
ATOM     49  F   UNL     1       8.973   7.250  -3.408  1.00  0.00    -0.206 F 
ATOM     50  C   UNL     1       8.965   9.525  -2.829  1.00  0.00     0.040 A 
ATOM     51  C   UNL     1       7.309  11.000  -3.768  1.00  0.00     0.040 A 
ATOM     52  F   UNL     1       5.694  10.153  -5.249  1.00  0.00    -0.206 F 
ATOM     53  C   UNL     1       8.420  10.802  -2.951  1.00  0.00     0.006 A 
ENDBRANCH  25  46
BRANCH  37  54
ATOM     54  C   UNL     1       7.306   7.192 -11.160  1.00  0.00     0.057 A 
ATOM     55  C   UNL     1       6.436   7.859 -12.032  1.00  0.00     0.134 A 
ATOM     56  C   UNL     1       8.671   7.201 -11.467  1.00  0.00     0.134 A 
ATOM     57  F   UNL     1       5.116   7.880 -11.794  1.00  0.00    -0.206 F 
ATOM     58  C   UNL     1       6.907   8.503 -13.176  1.00  0.00     0.040 A 
ATOM     59  C   UNL     1       9.156   7.859 -12.598  1.00  0.00     0.040 A 
ATOM     60  F   UNL     1       9.553   6.591 -10.662  1.00  0.00    -0.206 F 
ATOM     61  C   UNL     1       8.271   8.506 -13.460  1.00  0.00     0.006 A 
ENDBRANCH  37  54
ENDBRANCH  11  12
ENDBRANCH   4   6
ENDBRANCH   1   2
BRANCH   1  62
ATOM     62  C   UNL     1       5.169  -0.542   2.369  1.00  0.00     0.042 C 
BRANCH  62  63
ATOM     63  C   UNL     1       4.612  -1.474   3.436  1.00  0.00     0.118 C 
BRANCH  63  64
ATOM     64  N   UNL     1       5.034  -2.858   3.267  1.00  0.00    -0.352 N 
ATOM     65  C   UNL     1       5.741  -3.665   4.118  1.00  0.00     0.256 C 
ATOM     66  H   UNL     1       4.771  -3.275   2.414  1.00  0.00     0.163 HD
ATOM     67  O   UNL     1       6.003  -4.820   3.788  1.00  0.00    -0.269 OA
BRANCH  65  68
ATOM     68  C   UNL     1       6.132  -3.128   5.432  1.00  0.00     0.104 A 
ATOM     69  C   UNL     1       5.170  -2.735   6.280  1.00  0.00     0.104 A 
ATOM     70  C   UNL     1       7.538  -2.970   5.852  1.00  0.00     0.202 A 
ATOM     71  N   UNL     1       5.364  -2.097   7.489  1.00  0.00    -0.343 N 
ATOM     72  C   UNL     1       7.779  -2.452   7.223  1.00  0.00     0.047 A 
ATOM     73  O   UNL     1       8.477  -3.216   5.101  1.00  0.00    -0.288 OA
ATOM     74  C   UNL     1       6.692  -2.029   8.013  1.00  0.00     0.054 A 
ATOM     75  C   UNL     1       9.093  -2.351   7.691  1.00  0.00     0.016 A 
ATOM     76  C   UNL     1       6.976  -1.536   9.297  1.00  0.00     0.053 A 
ATOM     77  C   UNL     1       9.341  -1.808   8.951  1.00  0.00     0.027 A 
ATOM     78  C   UNL     1       8.290  -1.388   9.771  1.00  0.00     0.039 A 
BRANCH  71  79
ATOM     79  C   UNL     1       4.253  -1.324   8.102  1.00  0.00     0.087 C 
ATOM     80  C   UNL     1       2.950  -0.978   7.420  1.00  0.00     0.027 C 
ATOM     81  C   UNL     1       2.972  -1.987   8.532  1.00  0.00     0.027 C 
ENDBRANCH  71  79
BRANCH  78  82
ATOM     82  N   UNL     1       8.507  -0.826  11.012  1.00  0.00    -0.360 N 
ATOM     83  C   UNL     1       8.042  -1.532  12.212  1.00  0.00     0.178 C 
ATOM     84  C   UNL     1       9.524   0.212  11.214  1.00  0.00     0.178 C 
ATOM     85  C   UNL     1       9.250  -1.989  13.066  1.00  0.00     0.282 C 
ATOM     86  C   UNL     1      10.668  -0.294  12.118  1.00  0.00     0.282 C 
ATOM     87  N   UNL     1      10.198  -0.897  13.385  1.00  0.00    -0.343 N 
ATOM     88  H   UNL     1      10.992  -1.273  13.902  1.00  0.00     0.346 HD
ATOM     89  H   UNL     1       9.735  -0.190  13.957  1.00  0.00     0.346 HD
ENDBRANCH  78  82
ENDBRANCH  65  68
ENDBRANCH  63  64
ENDBRANCH  62  63
ENDBRANCH   1  62
TORSDOF 12
