REMARK SMILES Nc1ccc(O)c(C(=O)NCCCNC(=O)c2ccc(-c3c4nc(c(-c5c(F)cccc5F)c5ccc([nH]5)c(-c5c(F)cccc5F)c5nc(c(-c6c(F)cccc6F)c6ccc3[nH]6)C=C5)C=C4)cc2)c1
REMARK SMILES IDX 12 1 11 2 10 3 8 4 9 5 7 7 2 8 3 9 71 10 4 11 5 12 1 13 6 16
REMARK SMILES IDX 13 18 14 19 15 20 16 22 17 23 18 24 70 25 19 26 69 27 20 28
REMARK SMILES IDX 21 29 22 30 63 31 23 32 68 33 62 34 64 35 24 36 67 37 61 38
REMARK SMILES IDX 60 39 25 41 51 42 34 43 50 44 35 45 38 46 49 47 65 48 36 49
REMARK SMILES IDX 37 50 48 52 66 53 39 54 26 55 27 56 32 57 28 58 29 59 31 60
REMARK SMILES IDX 33 61 30 62 52 63 53 64 58 65 54 66 55 67 57 68 59 69 56 70
REMARK SMILES IDX 40 71 41 72 46 73 42 74 43 75 45 76 47 77 44 78
REMARK H PARENT 10 6 1 14 1 15 6 17 14 21 64 40 38 51
REMARK Flexibility Score: inf
ROOT
ATOM      1  C   UNL     1      -1.344  -4.549  -0.687  1.00  0.00     0.042 C 
ENDROOT
BRANCH   1   2
ATOM      2  C   UNL     1      -0.654  -3.964   0.545  1.00  0.00     0.118 C 
BRANCH   2   3
ATOM      3  N   UNL     1       0.700  -3.555   0.225  1.00  0.00    -0.352 N 
ATOM      4  C   UNL     1       1.276  -2.347  -0.062  1.00  0.00     0.255 C 
ATOM      5  O   UNL     1       2.494  -2.351  -0.269  1.00  0.00    -0.269 OA
ATOM      6  H   UNL     1       1.340  -4.304   0.212  1.00  0.00     0.163 HD
BRANCH   4   7
ATOM      7  C   UNL     1       0.565  -1.037  -0.077  1.00  0.00     0.083 A 
ATOM      8  C   UNL     1      -1.448   0.349  -0.144  1.00  0.00     0.032 A 
ATOM      9  C   UNL     1      -0.663   1.492   0.005  1.00  0.00     0.029 A 
ATOM     10  C   UNL     1      -0.817  -0.896  -0.261  1.00  0.00     0.043 A 
ATOM     11  C   UNL     1       0.721   1.389   0.114  1.00  0.00     0.049 A 
ATOM     12  C   UNL     1       1.327   0.135   0.083  1.00  0.00     0.128 A 
BRANCH   8  13
ATOM     13  N   UNL     1      -2.821   0.459  -0.308  1.00  0.00    -0.399 N 
ATOM     14  H   UNL     1      -3.258   1.337  -0.225  1.00  0.00     0.156 HD
ATOM     15  H   UNL     1      -3.358  -0.341  -0.509  1.00  0.00     0.156 HD
ENDBRANCH   8  13
BRANCH  12  16
ATOM     16  O   UNL     1       2.693   0.140   0.204  1.00  0.00    -0.507 OA
ATOM     17  H   UNL     1       3.151   0.951   0.309  1.00  0.00     0.293 HD
ENDBRANCH  12  16
ENDBRANCH   4   7
ENDBRANCH   2   3
ENDBRANCH   1   2
BRANCH   1  18
ATOM     18  C   UNL     1      -0.873  -5.967  -1.007  1.00  0.00     0.118 C 
BRANCH  18  19
ATOM     19  N   UNL     1      -1.317  -6.926  -0.001  1.00  0.00    -0.352 N 
ATOM     20  C   UNL     1      -2.134  -8.022  -0.130  1.00  0.00     0.251 C 
ATOM     21  H   UNL     1      -0.980  -6.762   0.909  1.00  0.00     0.163 HD
ATOM     22  O   UNL     1      -2.594  -8.565   0.868  1.00  0.00    -0.269 OA
BRANCH  20  23
ATOM     23  C   UNL     1      -2.465  -8.540  -1.473  1.00  0.00     0.039 A 
ATOM     24  C   UNL     1      -3.780  -8.922  -1.750  1.00  0.00     0.014 A 
ATOM     25  C   UNL     1      -1.474  -8.662  -2.449  1.00  0.00     0.014 A 
ATOM     26  C   UNL     1      -4.116  -9.360  -3.033  1.00  0.00     0.010 A 
ATOM     27  C   UNL     1      -1.825  -9.025  -3.744  1.00  0.00     0.010 A 
ATOM     28  C   UNL     1      -3.149  -9.376  -4.050  1.00  0.00    -0.014 A 
BRANCH  28  29
ATOM     29  C   UNL     1      -3.489  -9.744  -5.447  1.00  0.00     0.031 A 
ATOM     30  C   UNL     1      -2.843 -10.941  -6.086  1.00  0.00     0.074 A 
ATOM     31  C   UNL     1      -4.301  -8.945  -6.167  1.00  0.00     0.049 A 
ATOM     32  N   UNL     1      -2.897 -11.345  -7.329  1.00  0.00    -0.248 NA
ATOM     33  C   UNL     1      -1.998 -11.776  -5.217  1.00  0.00     0.031 C 
ATOM     34  C   UNL     1      -4.958  -7.735  -5.669  1.00  0.00     0.029 A 
ATOM     35  N   UNL     1      -4.692  -9.018  -7.480  1.00  0.00    -0.354 N 
ATOM     36  C   UNL     1      -2.079 -12.467  -7.396  1.00  0.00     0.074 A 
ATOM     37  C   UNL     1      -1.502 -12.649  -6.082  1.00  0.00     0.031 C 
ATOM     38  C   UNL     1      -5.680  -7.188  -6.659  1.00  0.00     0.029 A 
ATOM     39  C   UNL     1      -5.498  -7.976  -7.873  1.00  0.00     0.049 A 
ATOM     40  H   UNL     1      -4.422  -9.748  -8.084  1.00  0.00     0.167 HD
ATOM     41  C   UNL     1      -1.847 -13.281  -8.452  1.00  0.00     0.037 A 
ATOM     42  C   UNL     1      -6.013  -7.678  -9.081  1.00  0.00     0.037 A 
ATOM     43  C   UNL     1      -2.442 -13.103  -9.751  1.00  0.00     0.049 A 
ATOM     44  C   UNL     1      -5.718  -8.583 -10.246  1.00  0.00     0.074 A 
ATOM     45  C   UNL     1      -2.317 -13.905 -10.872  1.00  0.00     0.029 A 
ATOM     46  N   UNL     1      -3.268 -12.047 -10.103  1.00  0.00    -0.354 N 
ATOM     47  N   UNL     1      -4.995  -9.676 -10.281  1.00  0.00    -0.248 NA
ATOM     48  C   UNL     1      -6.312  -8.215 -11.539  1.00  0.00     0.031 C 
ATOM     49  C   UNL     1      -3.024 -13.305 -11.918  1.00  0.00     0.029 A 
ATOM     50  C   UNL     1      -3.639 -12.162 -11.433  1.00  0.00     0.049 A 
ATOM     51  H   UNL     1      -3.550 -11.323  -9.498  1.00  0.00     0.167 HD
ATOM     52  C   UNL     1      -5.074 -10.144 -11.586  1.00  0.00     0.074 A 
ATOM     53  C   UNL     1      -5.923  -9.221 -12.310  1.00  0.00     0.031 C 
ATOM     54  C   UNL     1      -4.499 -11.242 -12.134  1.00  0.00     0.037 A 
BRANCH  41  55
ATOM     55  C   UNL     1      -0.909 -14.435  -8.248  1.00  0.00     0.057 A 
ATOM     56  C   UNL     1      -1.242 -15.528  -7.436  1.00  0.00     0.134 A 
ATOM     57  C   UNL     1       0.331 -14.473  -8.900  1.00  0.00     0.134 A 
ATOM     58  F   UNL     1      -2.409 -15.552  -6.775  1.00  0.00    -0.206 F 
ATOM     59  C   UNL     1      -0.366 -16.600  -7.257  1.00  0.00     0.040 A 
ATOM     60  C   UNL     1       1.202 -15.554  -8.753  1.00  0.00     0.040 A 
ATOM     61  F   UNL     1       0.712 -13.464  -9.698  1.00  0.00    -0.206 F 
ATOM     62  C   UNL     1       0.857 -16.618  -7.923  1.00  0.00     0.006 A 
ENDBRANCH  41  55
BRANCH  42  63
ATOM     63  C   UNL     1      -6.866  -6.474  -9.251  1.00  0.00     0.057 A 
ATOM     64  C   UNL     1      -8.234  -6.592  -9.520  1.00  0.00     0.134 A 
ATOM     65  C   UNL     1      -6.338  -5.180  -9.156  1.00  0.00     0.134 A 
ATOM     66  F   UNL     1      -8.796  -7.804  -9.639  1.00  0.00    -0.206 F 
ATOM     67  C   UNL     1      -9.042  -5.470  -9.712  1.00  0.00     0.040 A 
ATOM     68  C   UNL     1      -7.139  -4.049  -9.318  1.00  0.00     0.040 A 
ATOM     69  F   UNL     1      -5.036  -4.997  -8.890  1.00  0.00    -0.206 F 
ATOM     70  C   UNL     1      -8.495  -4.193  -9.606  1.00  0.00     0.006 A 
ENDBRANCH  42  63
BRANCH  54  71
ATOM     71  C   UNL     1      -4.802 -11.538 -13.574  1.00  0.00     0.057 A 
ATOM     72  C   UNL     1      -4.267 -10.775 -14.619  1.00  0.00     0.134 A 
ATOM     73  C   UNL     1      -5.590 -12.644 -13.919  1.00  0.00     0.134 A 
ATOM     74  F   UNL     1      -3.515  -9.695 -14.356  1.00  0.00    -0.206 F 
ATOM     75  C   UNL     1      -4.516 -11.093 -15.955  1.00  0.00     0.040 A 
ATOM     76  C   UNL     1      -5.822 -12.990 -15.250  1.00  0.00     0.040 A 
ATOM     77  F   UNL     1      -6.126 -13.422 -12.966  1.00  0.00    -0.206 F 
ATOM     78  C   UNL     1      -5.287 -12.210 -16.273  1.00  0.00     0.006 A 
ENDBRANCH  54  71
ENDBRANCH  28  29
ENDBRANCH  20  23
ENDBRANCH  18  19
ENDBRANCH   1  18
TORSDOF 12
