REMARK SMILES O=C(NCCCNC(=O)[C@@H]1CC=CC[C@H]1C(=O)N1CC[NH+](Cc2ccc3c(c2)OCO3)CC1)c1ccc(-c2c3nc(c(-c4c(F)cccc4F)c4ccc([nH]4)c(-c4c(F)cccc4F)c4nc(c(-c5c(F)cccc5F)c5ccc2[nH]5)C=C4)C=C3)cc1
REMARK SMILES IDX 5 1 4 2 3 3 1 4 2 5 34 7 35 8 87 9 36 10 86 11 37 12 38 13
REMARK SMILES IDX 39 14 80 15 40 16 85 17 79 18 81 19 41 20 84 21 78 22 77 23
REMARK SMILES IDX 42 25 68 26 51 27 67 28 52 29 55 30 66 31 82 32 53 33 54 34
REMARK SMILES IDX 65 36 83 37 56 38 43 39 44 40 49 41 45 42 46 43 48 44 50 45
REMARK SMILES IDX 47 46 69 47 70 48 75 49 71 50 72 51 74 52 76 53 73 54 57 55
REMARK SMILES IDX 58 56 63 57 59 58 60 59 62 60 64 61 61 62 6 63 7 64 8 65
REMARK SMILES IDX 9 67 10 68 11 69 15 70 12 71 14 72 13 73 16 74 17 75 18 76
REMARK SMILES IDX 19 77 33 78 20 79 32 80 21 81 22 83 23 84 24 85 28 86 25 87
REMARK SMILES IDX 27 88 26 89 29 90 31 91 30 92
REMARK H PARENT 3 6 81 24 55 35 7 66 21 82
REMARK Flexibility Score: inf
ROOT
ATOM      1  C   UNL     1       5.267   7.201   2.208  1.00  0.00     0.042 C 
ENDROOT
BRANCH   1   2
ATOM      2  C   UNL     1       4.778   8.646   2.304  1.00  0.00     0.118 C 
BRANCH   2   3
ATOM      3  N   UNL     1       5.481   9.535   1.389  1.00  0.00    -0.352 N 
ATOM      4  O   UNL     1       6.003  10.604  -0.507  1.00  0.00    -0.269 OA
ATOM      5  C   UNL     1       5.130  10.053   0.162  1.00  0.00     0.251 C 
ATOM      6  H   UNL     1       6.370   9.817   1.706  1.00  0.00     0.163 HD
BRANCH   5   7
ATOM      7  C   UNL     1       3.748   9.988  -0.388  1.00  0.00     0.039 A 
ATOM      8  C   UNL     1       2.622  10.170   0.408  1.00  0.00     0.014 A 
ATOM      9  C   UNL     1       3.571   9.886  -1.776  1.00  0.00     0.014 A 
ATOM     10  C   UNL     1       1.341  10.139  -0.160  1.00  0.00     0.010 A 
ATOM     11  C   UNL     1       2.287   9.935  -2.352  1.00  0.00     0.010 A 
ATOM     12  C   UNL     1       1.144  10.048  -1.549  1.00  0.00    -0.014 A 
BRANCH  12  13
ATOM     13  C   UNL     1      -0.233  10.177  -2.131  1.00  0.00     0.031 A 
ATOM     14  C   UNL     1      -0.812   9.146  -3.073  1.00  0.00     0.074 A 
ATOM     15  C   UNL     1      -0.982  11.259  -1.823  1.00  0.00     0.049 A 
ATOM     16  N   UNL     1      -1.943   9.181  -3.740  1.00  0.00    -0.248 NA
ATOM     17  C   UNL     1      -0.028   7.924  -3.305  1.00  0.00     0.031 C 
ATOM     18  C   UNL     1      -0.565  12.353  -0.941  1.00  0.00     0.029 A 
ATOM     19  N   UNL     1      -2.250  11.624  -2.213  1.00  0.00    -0.354 N 
ATOM     20  C   UNL     1      -1.981   8.019  -4.504  1.00  0.00     0.074 A 
ATOM     21  C   UNL     1      -0.762   7.293  -4.213  1.00  0.00     0.031 C 
ATOM     22  C   UNL     1      -1.567  13.233  -0.819  1.00  0.00     0.029 A 
ATOM     23  C   UNL     1      -2.659  12.831  -1.694  1.00  0.00     0.049 A 
ATOM     24  H   UNL     1      -2.811  11.075  -2.807  1.00  0.00     0.167 HD
ATOM     25  C   UNL     1      -2.940   7.598  -5.367  1.00  0.00     0.037 A 
ATOM     26  C   UNL     1      -3.758  13.574  -1.925  1.00  0.00     0.037 A 
ATOM     27  C   UNL     1      -4.182   8.287  -5.622  1.00  0.00     0.049 A 
ATOM     28  C   UNL     1      -4.784  13.100  -2.909  1.00  0.00     0.074 A 
ATOM     29  C   UNL     1      -5.244   7.878  -6.415  1.00  0.00     0.029 A 
ATOM     30  N   UNL     1      -4.529   9.522  -5.103  1.00  0.00    -0.354 N 
ATOM     31  N   UNL     1      -4.810  11.987  -3.598  1.00  0.00    -0.248 NA
ATOM     32  C   UNL     1      -5.920  13.996  -3.167  1.00  0.00     0.031 C 
ATOM     33  C   UNL     1      -6.210   8.890  -6.417  1.00  0.00     0.029 A 
ATOM     34  C   UNL     1      -5.769   9.909  -5.590  1.00  0.00     0.049 A 
ATOM     35  H   UNL     1      -3.978  10.049  -4.480  1.00  0.00     0.167 HD
ATOM     36  C   UNL     1      -5.961  12.049  -4.370  1.00  0.00     0.074 A 
ATOM     37  C   UNL     1      -6.622  13.295  -4.046  1.00  0.00     0.031 C 
ATOM     38  C   UNL     1      -6.420  11.153  -5.276  1.00  0.00     0.037 A 
BRANCH  25  39
ATOM     39  C   UNL     1      -2.697   6.332  -6.139  1.00  0.00     0.057 A 
ATOM     40  C   UNL     1      -2.824   5.066  -5.555  1.00  0.00     0.134 A 
ATOM     41  C   UNL     1      -2.448   6.385  -7.518  1.00  0.00     0.134 A 
ATOM     42  F   UNL     1      -3.063   4.945  -4.241  1.00  0.00    -0.206 F 
ATOM     43  C   UNL     1      -2.704   3.898  -6.313  1.00  0.00     0.040 A 
ATOM     44  C   UNL     1      -2.345   5.226  -8.290  1.00  0.00     0.040 A 
ATOM     45  F   UNL     1      -2.332   7.566  -8.144  1.00  0.00    -0.206 F 
ATOM     46  C   UNL     1      -2.474   3.977  -7.686  1.00  0.00     0.006 A 
ENDBRANCH  25  39
BRANCH  26  47
ATOM     47  C   UNL     1      -3.906  14.892  -1.257  1.00  0.00     0.057 A 
ATOM     48  C   UNL     1      -4.886  15.109  -0.283  1.00  0.00     0.134 A 
ATOM     49  C   UNL     1      -3.064  15.966  -1.577  1.00  0.00     0.134 A 
ATOM     50  F   UNL     1      -5.738  14.127   0.047  1.00  0.00    -0.206 F 
ATOM     51  C   UNL     1      -5.029  16.347   0.344  1.00  0.00     0.040 A 
ATOM     52  C   UNL     1      -3.174  17.199  -0.936  1.00  0.00     0.040 A 
ATOM     53  F   UNL     1      -2.103  15.820  -2.501  1.00  0.00    -0.206 F 
ATOM     54  C   UNL     1      -4.165  17.394   0.024  1.00  0.00     0.006 A 
ENDBRANCH  26  47
BRANCH  38  55
ATOM     55  C   UNL     1      -7.702  11.486  -5.978  1.00  0.00     0.057 A 
ATOM     56  C   UNL     1      -7.754  12.458  -6.984  1.00  0.00     0.134 A 
ATOM     57  C   UNL     1      -8.889  10.814  -5.663  1.00  0.00     0.134 A 
ATOM     58  F   UNL     1      -6.654  13.150  -7.319  1.00  0.00    -0.206 F 
ATOM     59  C   UNL     1      -8.947  12.762  -7.643  1.00  0.00     0.040 A 
ATOM     60  C   UNL     1     -10.083  11.094  -6.329  1.00  0.00     0.040 A 
ATOM     61  F   UNL     1      -8.906   9.870  -4.710  1.00  0.00    -0.206 F 
ATOM     62  C   UNL     1     -10.115  12.074  -7.320  1.00  0.00     0.006 A 
ENDBRANCH  38  55
ENDBRANCH  12  13
ENDBRANCH   5   7
ENDBRANCH   2   3
ENDBRANCH   1   2
BRANCH   1  63
ATOM     63  C   UNL     1       6.502   6.868   3.055  1.00  0.00     0.117 C 
BRANCH  63  64
ATOM     64  N   UNL     1       6.146   6.360   4.376  1.00  0.00    -0.356 N 
ATOM     65  C   UNL     1       6.090   5.145   4.967  1.00  0.00     0.224 C 
ATOM     66  H   UNL     1       5.881   7.082   4.990  1.00  0.00     0.163 HD
ATOM     67  O   UNL     1       5.737   5.171   6.156  1.00  0.00    -0.275 OA
BRANCH  65  68
ATOM     68  C   UNL     1       6.425   3.780   4.354  1.00  0.00     0.095 C 
ATOM     69  C   UNL     1       7.687   3.221   5.049  1.00  0.00     0.041 C 
ATOM     70  C   UNL     1       6.488   3.575   2.846  1.00  0.00     0.095 C 
ATOM     71  C   UNL     1       8.067   1.853   4.552  1.00  0.00    -0.030 C 
ATOM     72  C   UNL     1       6.693   2.085   2.481  1.00  0.00     0.041 C 
ATOM     73  C   UNL     1       7.604   1.338   3.406  1.00  0.00    -0.030 C 
BRANCH  70  74
ATOM     74  C   UNL     1       5.375   4.051   1.912  1.00  0.00     0.227 C 
ATOM     75  O   UNL     1       5.734   4.469   0.801  1.00  0.00    -0.275 OA
ATOM     76  N   UNL     1       4.033   3.864   2.173  1.00  0.00    -0.331 N 
ATOM     77  C   UNL     1       3.102   3.980   1.047  1.00  0.00     0.181 C 
ATOM     78  C   UNL     1       3.350   3.930   3.463  1.00  0.00     0.181 C 
ATOM     79  C   UNL     1       1.891   3.026   1.174  1.00  0.00     0.284 C 
ATOM     80  C   UNL     1       2.232   2.885   3.582  1.00  0.00     0.284 C 
ATOM     81  N   UNL     1       1.252   2.909   2.494  1.00  0.00    -0.328 N 
ATOM     82  H   UNL     1       0.817   1.986   2.481  1.00  0.00     0.348 HD
BRANCH  81  83
ATOM     83  C   UNL     1       0.070   3.743   2.733  1.00  0.00     0.299 C 
BRANCH  83  84
ATOM     84  C   UNL     1       0.318   5.216   2.943  1.00  0.00     0.010 A 
ATOM     85  C   UNL     1       0.468   6.058   1.825  1.00  0.00     0.013 A 
ATOM     86  C   UNL     1       0.466   5.753   4.237  1.00  0.00     0.060 A 
ATOM     87  C   UNL     1       0.843   7.388   1.983  1.00  0.00     0.051 A 
ATOM     88  C   UNL     1       0.835   7.077   4.358  1.00  0.00     0.166 A 
ATOM     89  C   UNL     1       1.032   7.871   3.258  1.00  0.00     0.165 A 
ATOM     90  O   UNL     1       1.087   7.733   5.521  1.00  0.00    -0.454 OA
ATOM     91  O   UNL     1       1.445   9.124   3.585  1.00  0.00    -0.454 OA
ATOM     92  C   UNL     1       1.499   9.023   5.024  1.00  0.00     0.468 C 
ENDBRANCH  83  84
ENDBRANCH  81  83
ENDBRANCH  70  74
ENDBRANCH  65  68
ENDBRANCH  63  64
ENDBRANCH   1  63
TORSDOF 13
