REMARK SMILES O=C(Cn1nc(C(=O)NCCCNC(=O)c2ccc(-c3c4nc(c(-c5c(F)cccc5F)c5ccc([nH]5)c(-c5c(F)cccc5F)c5nc(c(-c6c(F)cccc6F)c6ccc3[nH]6)C=C5)C=C4)cc2)c2ccccc2c1=O)Nc1ccc2c(c1)C(=O)c1ccccc1C2=O
REMARK SMILES IDX 10 1 9 2 7 3 8 4 6 6 4 7 5 8 76 9 75 10 77 11 70 12 74 13
REMARK SMILES IDX 71 14 73 15 72 16 3 17 2 18 1 19 78 20 79 22 80 23 84 24
REMARK SMILES IDX 81 25 83 26 82 27 85 28 93 29 86 30 87 31 92 32 94 33 88 34
REMARK SMILES IDX 91 35 89 36 90 37 11 38 12 39 13 40 14 41 15 43 16 44 17 45
REMARK SMILES IDX 69 46 18 47 68 48 19 49 20 50 21 51 62 52 22 53 67 54 61 55
REMARK SMILES IDX 63 56 23 57 66 58 60 59 59 60 24 62 50 63 33 64 49 65 34 66
REMARK SMILES IDX 37 67 48 68 64 69 35 70 36 71 47 73 65 74 38 75 25 76 26 77
REMARK SMILES IDX 31 78 27 79 28 80 30 81 32 82 29 83 51 84 52 85 57 86 53 87
REMARK SMILES IDX 54 88 56 89 58 90 55 91 39 92 40 93 45 94 41 95 42 96 44 97
REMARK SMILES IDX 46 98 43 99
REMARK H PARENT 9 5 78 21 13 42 63 61 37 72
REMARK Flexibility Score: inf
ROOT
ATOM      1  C   UNL     1       6.117  -3.432  -2.649  1.00  0.00     0.118 C 
ENDROOT
BRANCH   1   2
ATOM      2  N   UNL     1       6.793  -2.509  -3.540  1.00  0.00    -0.351 N 
ATOM      3  C   UNL     1       6.495  -1.225  -3.927  1.00  0.00     0.272 C 
ATOM      4  O   UNL     1       7.210  -0.723  -4.788  1.00  0.00    -0.267 OA
ATOM      5  H   UNL     1       7.617  -2.869  -3.942  1.00  0.00     0.163 HD
BRANCH   3   6
ATOM      6  C   UNL     1       5.287  -0.448  -3.357  1.00  0.00     0.156 A 
ATOM      7  N   UNL     1       3.305  -0.488  -2.139  1.00  0.00    -0.219 N 
ATOM      8  N   UNL     1       4.474  -1.082  -2.558  1.00  0.00    -0.163 NA
ATOM      9  C   UNL     1       2.830   0.697  -2.700  1.00  0.00     0.275 A 
ATOM     10  C   UNL     1       3.818   1.516  -3.424  1.00  0.00     0.051 A 
ATOM     11  O   UNL     1       1.704   1.135  -2.494  1.00  0.00    -0.267 OA
ATOM     12  C   UNL     1       5.059   0.973  -3.746  1.00  0.00     0.020 A 
ATOM     13  C   UNL     1       3.522   2.861  -3.706  1.00  0.00     0.014 A 
ATOM     14  C   UNL     1       6.008   1.801  -4.365  1.00  0.00     0.011 A 
ATOM     15  C   UNL     1       4.470   3.668  -4.332  1.00  0.00     0.001 A 
ATOM     16  C   UNL     1       5.710   3.135  -4.665  1.00  0.00     0.001 A 
BRANCH   7  17
ATOM     17  C   UNL     1       2.422  -1.300  -1.264  1.00  0.00     0.248 C 
BRANCH  17  18
ATOM     18  C   UNL     1       2.100  -0.705   0.136  1.00  0.00     0.246 C 
ATOM     19  O   UNL     1       1.381  -1.282   0.947  1.00  0.00    -0.273 OA
ATOM     20  N   UNL     1       2.631   0.547   0.308  1.00  0.00    -0.324 N 
ATOM     21  H   UNL     1       3.400   0.770  -0.265  1.00  0.00     0.169 HD
BRANCH  20  22
ATOM     22  C   UNL     1       2.223   1.545   1.191  1.00  0.00     0.042 A 
ATOM     23  C   UNL     1       2.389   1.459   2.572  1.00  0.00     0.027 A 
ATOM     24  C   UNL     1       1.987   2.772   0.576  1.00  0.00     0.039 A 
ATOM     25  C   UNL     1       2.521   2.648   3.311  1.00  0.00     0.015 A 
ATOM     26  C   UNL     1       2.135   3.938   1.302  1.00  0.00     0.036 A 
ATOM     27  C   UNL     1       2.487   3.884   2.645  1.00  0.00     0.034 A 
ATOM     28  C   UNL     1       2.224   5.192   0.544  1.00  0.00     0.194 C 
ATOM     29  C   UNL     1       3.078   5.098   3.256  1.00  0.00     0.194 C 
ATOM     30  O   UNL     1       1.584   5.374  -0.482  1.00  0.00    -0.289 OA
ATOM     31  C   UNL     1       3.260   6.127   0.991  1.00  0.00     0.034 A 
ATOM     32  C   UNL     1       3.693   6.077   2.317  1.00  0.00     0.034 A 
ATOM     33  O   UNL     1       3.172   5.226   4.467  1.00  0.00    -0.289 OA
ATOM     34  C   UNL     1       3.902   6.930   0.046  1.00  0.00     0.013 A 
ATOM     35  C   UNL     1       4.789   6.846   2.708  1.00  0.00     0.013 A 
ATOM     36  C   UNL     1       5.018   7.667   0.430  1.00  0.00     0.001 A 
ATOM     37  C   UNL     1       5.459   7.625   1.757  1.00  0.00     0.001 A 
ENDBRANCH  20  22
ENDBRANCH  17  18
ENDBRANCH   7  17
ENDBRANCH   3   6
ENDBRANCH   1   2
BRANCH   1  38
ATOM     38  C   UNL     1       4.982  -4.193  -3.333  1.00  0.00     0.042 C 
BRANCH  38  39
ATOM     39  C   UNL     1       5.412  -5.035  -4.537  1.00  0.00     0.118 C 
BRANCH  39  40
ATOM     40  N   UNL     1       6.343  -6.100  -4.190  1.00  0.00    -0.352 N 
ATOM     41  C   UNL     1       6.245  -7.462  -4.336  1.00  0.00     0.251 C 
ATOM     42  H   UNL     1       7.184  -5.791  -3.781  1.00  0.00     0.163 HD
ATOM     43  O   UNL     1       7.103  -8.183  -3.833  1.00  0.00    -0.269 OA
BRANCH  41  44
ATOM     44  C   UNL     1       5.113  -8.076  -5.064  1.00  0.00     0.039 A 
ATOM     45  C   UNL     1       4.683  -7.583  -6.298  1.00  0.00     0.014 A 
ATOM     46  C   UNL     1       4.499  -9.207  -4.513  1.00  0.00     0.014 A 
ATOM     47  C   UNL     1       3.557  -8.135  -6.911  1.00  0.00     0.010 A 
ATOM     48  C   UNL     1       3.401  -9.790  -5.152  1.00  0.00     0.010 A 
ATOM     49  C   UNL     1       2.893  -9.229  -6.332  1.00  0.00    -0.014 A 
BRANCH  49  50
ATOM     50  C   UNL     1       1.643  -9.737  -6.950  1.00  0.00     0.031 A 
ATOM     51  C   UNL     1       0.315  -9.472  -6.295  1.00  0.00     0.074 A 
ATOM     52  C   UNL     1       1.690 -10.380  -8.131  1.00  0.00     0.049 A 
ATOM     53  N   UNL     1      -0.889  -9.762  -6.721  1.00  0.00    -0.248 NA
ATOM     54  C   UNL     1       0.342  -8.791  -4.991  1.00  0.00     0.031 C 
ATOM     55  C   UNL     1       2.910 -10.700  -8.872  1.00  0.00     0.029 A 
ATOM     56  N   UNL     1       0.679 -10.851  -8.929  1.00  0.00    -0.354 N 
ATOM     57  C   UNL     1      -1.758  -9.312  -5.737  1.00  0.00     0.074 A 
ATOM     58  C   UNL     1      -0.946  -8.747  -4.681  1.00  0.00     0.031 C 
ATOM     59  C   UNL     1       2.574 -11.265 -10.043  1.00  0.00     0.029 A 
ATOM     60  C   UNL     1       1.119 -11.368 -10.122  1.00  0.00     0.049 A 
ATOM     61  H   UNL     1      -0.271 -10.821  -8.671  1.00  0.00     0.167 HD
ATOM     62  C   UNL     1      -3.111  -9.352  -5.716  1.00  0.00     0.037 A 
ATOM     63  C   UNL     1       0.427 -11.855 -11.168  1.00  0.00     0.037 A 
ATOM     64  C   UNL     1      -3.933  -9.886  -6.769  1.00  0.00     0.049 A 
ATOM     65  C   UNL     1      -1.072 -11.896 -11.118  1.00  0.00     0.074 A 
ATOM     66  C   UNL     1      -5.314  -9.943  -6.843  1.00  0.00     0.029 A 
ATOM     67  N   UNL     1      -3.445 -10.450  -7.936  1.00  0.00    -0.354 N 
ATOM     68  N   UNL     1      -1.879 -11.460 -10.183  1.00  0.00    -0.248 NA
ATOM     69  C   UNL     1      -1.754 -12.508 -12.268  1.00  0.00     0.031 C 
ATOM     70  C   UNL     1      -5.662 -10.558  -8.053  1.00  0.00     0.029 A 
ATOM     71  C   UNL     1      -4.496 -10.868  -8.734  1.00  0.00     0.049 A 
ATOM     72  H   UNL     1      -2.491 -10.540  -8.164  1.00  0.00     0.167 HD
ATOM     73  C   UNL     1      -3.162 -11.742 -10.629  1.00  0.00     0.074 A 
ATOM     74  C   UNL     1      -3.029 -12.373 -11.926  1.00  0.00     0.031 C 
ATOM     75  C   UNL     1      -4.345 -11.502 -10.015  1.00  0.00     0.037 A 
BRANCH  62  76
ATOM     76  C   UNL     1      -3.788  -8.800  -4.501  1.00  0.00     0.057 A 
ATOM     77  C   UNL     1      -4.272  -9.652  -3.502  1.00  0.00     0.134 A 
ATOM     78  C   UNL     1      -3.969  -7.422  -4.330  1.00  0.00     0.134 A 
ATOM     79  F   UNL     1      -4.124 -10.981  -3.610  1.00  0.00    -0.206 F 
ATOM     80  C   UNL     1      -4.915  -9.151  -2.370  1.00  0.00     0.040 A 
ATOM     81  C   UNL     1      -4.600  -6.909  -3.196  1.00  0.00     0.040 A 
ATOM     82  F   UNL     1      -3.510  -6.557  -5.246  1.00  0.00    -0.206 F 
ATOM     83  C   UNL     1      -5.078  -7.775  -2.213  1.00  0.00     0.006 A 
ENDBRANCH  62  76
BRANCH  63  84
ATOM     84  C   UNL     1       1.149 -12.315 -12.375  1.00  0.00     0.057 A 
ATOM     85  C   UNL     1       1.800 -13.552 -12.409  1.00  0.00     0.134 A 
ATOM     86  C   UNL     1       1.205 -11.516 -13.521  1.00  0.00     0.134 A 
ATOM     87  F   UNL     1       1.775 -14.359 -11.338  1.00  0.00    -0.206 F 
ATOM     88  C   UNL     1       2.491 -13.977 -13.543  1.00  0.00     0.040 A 
ATOM     89  C   UNL     1       1.884 -11.933 -14.666  1.00  0.00     0.040 A 
ATOM     90  F   UNL     1       0.584 -10.328 -13.547  1.00  0.00    -0.206 F 
ATOM     91  C   UNL     1       2.533 -13.167 -14.677  1.00  0.00     0.006 A 
ENDBRANCH  63  84
BRANCH  75  92
ATOM     92  C   UNL     1      -5.582 -11.932 -10.739  1.00  0.00     0.057 A 
ATOM     93  C   UNL     1      -6.353 -11.011 -11.456  1.00  0.00     0.134 A 
ATOM     94  C   UNL     1      -6.016 -13.262 -10.703  1.00  0.00     0.134 A 
ATOM     95  F   UNL     1      -5.984  -9.723 -11.526  1.00  0.00    -0.206 F 
ATOM     96  C   UNL     1      -7.519 -11.400 -12.115  1.00  0.00     0.040 A 
ATOM     97  C   UNL     1      -7.175 -13.665 -11.367  1.00  0.00     0.040 A 
ATOM     98  F   UNL     1      -5.309 -14.191 -10.042  1.00  0.00    -0.206 F 
ATOM     99  C   UNL     1      -7.932 -12.731 -12.073  1.00  0.00     0.006 A 
ENDBRANCH  75  92
ENDBRANCH  49  50
ENDBRANCH  41  44
ENDBRANCH  39  40
ENDBRANCH  38  39
ENDBRANCH   1  38
TORSDOF 13
