REMARK SMILES O=C(NCCCNC(=O)C1CCN(S(=O)(=O)C2CC2)CC1)c1ccc(-c2c3nc(c(-c4c(F)cccc4F)c4ccc([nH]4)c(-c4c(F)cccc4F)c4nc(c(-c5c(F)cccc5F)c5ccc2[nH]5)C=C4)C=C3)cc1
REMARK SMILES IDX 5 1 4 2 3 3 1 4 2 5 22 7 23 8 75 9 24 10 74 11 25 12 26 13
REMARK SMILES IDX 27 14 68 15 28 16 73 17 67 18 69 19 29 20 72 21 66 22 65 23
REMARK SMILES IDX 30 25 56 26 39 27 55 28 40 29 43 30 54 31 70 32 41 33 42 34
REMARK SMILES IDX 53 36 71 37 44 38 31 39 32 40 37 41 33 42 34 43 36 44 38 45
REMARK SMILES IDX 35 46 57 47 58 48 63 49 59 50 60 51 62 52 64 53 61 54 45 55
REMARK SMILES IDX 46 56 51 57 47 58 48 59 50 60 52 61 49 62 6 63 7 64 8 65
REMARK SMILES IDX 9 67 10 68 11 69 21 70 12 71 20 72 13 73 14 74 15 75 16 76
REMARK SMILES IDX 17 77 18 78 19 79
REMARK H PARENT 3 6 69 24 43 35 7 66
REMARK Flexibility Score: inf
ROOT
ATOM      1  C   UNL     1       4.758  -1.971   1.593  1.00  0.00     0.042 C 
ENDROOT
BRANCH   1   2
ATOM      2  C   UNL     1       4.454  -1.358   0.230  1.00  0.00     0.118 C 
BRANCH   2   3
ATOM      3  N   UNL     1       3.025  -1.177   0.001  1.00  0.00    -0.352 N 
ATOM      4  O   UNL     1       1.071  -0.062  -0.136  1.00  0.00    -0.269 OA
ATOM      5  C   UNL     1       2.297  -0.022  -0.145  1.00  0.00     0.251 C 
ATOM      6  H   UNL     1       2.503  -2.009  -0.059  1.00  0.00     0.163 HD
BRANCH   5   7
ATOM      7  C   UNL     1       2.995   1.271  -0.291  1.00  0.00     0.039 A 
ATOM      8  C   UNL     1       4.111   1.379  -1.123  1.00  0.00     0.014 A 
ATOM      9  C   UNL     1       2.525   2.387   0.404  1.00  0.00     0.014 A 
ATOM     10  C   UNL     1       4.854   2.550  -1.128  1.00  0.00     0.010 A 
ATOM     11  C   UNL     1       3.213   3.600   0.310  1.00  0.00     0.010 A 
ATOM     12  C   UNL     1       4.401   3.682  -0.433  1.00  0.00    -0.014 A 
BRANCH  12  13
ATOM     13  C   UNL     1       5.148   4.957  -0.565  1.00  0.00     0.031 A 
ATOM     14  C   UNL     1       5.793   5.612   0.623  1.00  0.00     0.074 A 
ATOM     15  C   UNL     1       5.259   5.509  -1.789  1.00  0.00     0.049 A 
ATOM     16  N   UNL     1       6.482   6.724   0.674  1.00  0.00    -0.248 NA
ATOM     17  C   UNL     1       5.640   4.941   1.922  1.00  0.00     0.031 C 
ATOM     18  C   UNL     1       4.668   4.964  -3.015  1.00  0.00     0.029 A 
ATOM     19  N   UNL     1       5.914   6.636  -2.211  1.00  0.00    -0.354 N 
ATOM     20  C   UNL     1       6.832   6.896   2.007  1.00  0.00     0.074 A 
ATOM     21  C   UNL     1       6.252   5.789   2.739  1.00  0.00     0.031 C 
ATOM     22  C   UNL     1       5.024   5.730  -4.054  1.00  0.00     0.029 A 
ATOM     23  C   UNL     1       5.802   6.859  -3.561  1.00  0.00     0.049 A 
ATOM     24  H   UNL     1       6.416   7.228  -1.605  1.00  0.00     0.167 HD
ATOM     25  C   UNL     1       7.574   7.883   2.565  1.00  0.00     0.037 A 
ATOM     26  C   UNL     1       6.251   7.876  -4.319  1.00  0.00     0.037 A 
ATOM     27  C   UNL     1       8.149   8.979   1.826  1.00  0.00     0.049 A 
ATOM     28  C   UNL     1       7.028   8.980  -3.665  1.00  0.00     0.074 A 
ATOM     29  C   UNL     1       8.943  10.012   2.294  1.00  0.00     0.029 A 
ATOM     30  N   UNL     1       7.982   9.192   0.464  1.00  0.00    -0.354 N 
ATOM     31  N   UNL     1       7.383   9.109  -2.410  1.00  0.00    -0.248 NA
ATOM     32  C   UNL     1       7.465  10.081  -4.532  1.00  0.00     0.031 C 
ATOM     33  C   UNL     1       9.206  10.880   1.230  1.00  0.00     0.029 A 
ATOM     34  C   UNL     1       8.633  10.355   0.083  1.00  0.00     0.049 A 
ATOM     35  H   UNL     1       7.477   8.603  -0.141  1.00  0.00     0.167 HD
ATOM     36  C   UNL     1       8.104  10.292  -2.340  1.00  0.00     0.074 A 
ATOM     37  C   UNL     1       8.153  10.830  -3.684  1.00  0.00     0.031 C 
ATOM     38  C   UNL     1       8.674  10.880  -1.259  1.00  0.00     0.037 A 
BRANCH  25  39
ATOM     39  C   UNL     1       7.790   7.840   4.052  1.00  0.00     0.057 A 
ATOM     40  C   UNL     1       8.602   6.873   4.660  1.00  0.00     0.134 A 
ATOM     41  C   UNL     1       7.214   8.810   4.884  1.00  0.00     0.134 A 
ATOM     42  F   UNL     1       9.177   5.909   3.925  1.00  0.00    -0.206 F 
ATOM     43  C   UNL     1       8.815   6.859   6.040  1.00  0.00     0.040 A 
ATOM     44  C   UNL     1       7.442   8.823   6.261  1.00  0.00     0.040 A 
ATOM     45  F   UNL     1       6.432   9.771   4.370  1.00  0.00    -0.206 F 
ATOM     46  C   UNL     1       8.239   7.841   6.844  1.00  0.00     0.006 A 
ENDBRANCH  25  39
BRANCH  26  47
ATOM     47  C   UNL     1       5.959   7.898  -5.774  1.00  0.00     0.057 A 
ATOM     48  C   UNL     1       6.978   7.757  -6.722  1.00  0.00     0.134 A 
ATOM     49  C   UNL     1       4.651   8.058  -6.252  1.00  0.00     0.134 A 
ATOM     50  F   UNL     1       8.252   7.614  -6.327  1.00  0.00    -0.206 F 
ATOM     51  C   UNL     1       6.712   7.795  -8.091  1.00  0.00     0.040 A 
ATOM     52  C   UNL     1       4.367   8.065  -7.617  1.00  0.00     0.040 A 
ATOM     53  F   UNL     1       3.627   8.187  -5.395  1.00  0.00    -0.206 F 
ATOM     54  C   UNL     1       5.402   7.943  -8.542  1.00  0.00     0.006 A 
ENDBRANCH  26  47
BRANCH  38  55
ATOM     55  C   UNL     1       9.433  12.153  -1.497  1.00  0.00     0.057 A 
ATOM     56  C   UNL     1       8.787  13.353  -1.824  1.00  0.00     0.134 A 
ATOM     57  C   UNL     1      10.828  12.184  -1.372  1.00  0.00     0.134 A 
ATOM     58  F   UNL     1       7.455  13.389  -1.975  1.00  0.00    -0.206 F 
ATOM     59  C   UNL     1       9.505  14.530  -2.047  1.00  0.00     0.040 A 
ATOM     60  C   UNL     1      11.553  13.361  -1.561  1.00  0.00     0.040 A 
ATOM     61  F   UNL     1      11.508  11.072  -1.054  1.00  0.00    -0.206 F 
ATOM     62  C   UNL     1      10.891  14.537  -1.908  1.00  0.00     0.006 A 
ENDBRANCH  38  55
ENDBRANCH  12  13
ENDBRANCH   5   7
ENDBRANCH   2   3
ENDBRANCH   1   2
BRANCH   1  63
ATOM     63  C   UNL     1       4.164  -3.360   1.777  1.00  0.00     0.117 C 
BRANCH  63  64
ATOM     64  N   UNL     1       4.658  -4.269   0.761  1.00  0.00    -0.356 N 
ATOM     65  C   UNL     1       5.622  -5.220   0.814  1.00  0.00     0.223 C 
ATOM     66  H   UNL     1       4.218  -4.180  -0.115  1.00  0.00     0.163 HD
ATOM     67  O   UNL     1       6.008  -5.682  -0.260  1.00  0.00    -0.275 OA
BRANCH  65  68
ATOM     68  C   UNL     1       6.153  -5.712   2.152  1.00  0.00     0.081 C 
ATOM     69  C   UNL     1       7.636  -5.388   2.325  1.00  0.00     0.030 C 
ATOM     70  C   UNL     1       5.896  -7.213   2.276  1.00  0.00     0.030 C 
ATOM     71  C   UNL     1       8.551  -6.292   1.501  1.00  0.00     0.103 C 
ATOM     72  C   UNL     1       6.839  -8.045   1.411  1.00  0.00     0.103 C 
ATOM     73  N   UNL     1       8.252  -7.738   1.773  1.00  0.00    -0.202 NA
BRANCH  73  74
ATOM     74  S   UNL     1       9.424  -8.756   1.011  1.00  0.00     0.216 S 
ATOM     75  O   UNL     1       9.054  -8.877  -0.385  1.00  0.00    -0.212 OA
ATOM     76  O   UNL     1      10.726  -8.241   1.381  1.00  0.00    -0.212 OA
BRANCH  74  77
ATOM     77  C   UNL     1       9.421 -10.441   1.688  1.00  0.00     0.124 C 
ATOM     78  C   UNL     1       8.456 -10.743   2.796  1.00  0.00     0.022 C 
ATOM     79  C   UNL     1       8.190 -11.257   1.403  1.00  0.00     0.022 C 
ENDBRANCH  74  77
ENDBRANCH  73  74
ENDBRANCH  65  68
ENDBRANCH  63  64
ENDBRANCH   1  63
TORSDOF 12
