REMARK SMILES CN(CC[NH+](C)C)C(=O)N1CC(n2cc(C(=O)NCCCNC(=O)c3ccc(-c4c5nc(c(-c6c(F)cccc6F)c6ccc([nH]6)c(-c6c(F)cccc6F)c6nc(c(-c7c(F)cccc7F)c7ccc4[nH]7)C=C6)C=C5)cc3)nn2)C1
REMARK SMILES IDX 16 1 17 2 18 3 15 5 13 6 14 7 80 8 79 9 12 10 8 11 9 12
REMARK SMILES IDX 10 13 11 14 81 15 2 16 1 17 3 18 4 19 5 20 6 21 7 22 19 24
REMARK SMILES IDX 20 25 21 26 22 27 23 28 24 30 25 31 26 32 78 33 27 34 77 35
REMARK SMILES IDX 28 36 29 37 30 38 71 39 31 40 76 41 70 42 72 43 32 44 75 45
REMARK SMILES IDX 69 46 68 47 33 49 59 50 42 51 58 52 43 53 46 54 57 55 73 56
REMARK SMILES IDX 44 57 45 58 56 60 74 61 47 62 34 63 35 64 40 65 36 66 37 67
REMARK SMILES IDX 39 68 41 69 38 70 60 71 61 72 66 73 62 74 63 75 65 76 67 77
REMARK SMILES IDX 64 78 48 79 49 80 54 81 50 82 51 83 53 84 55 85 52 86
REMARK H PARENT 18 4 5 23 22 29 72 48 46 59
REMARK Flexibility Score: inf
ROOT
ATOM      1  C   UNL     1       2.606   0.859   9.127  1.00  0.00     0.273 C 
ATOM      2  O   UNL     1       3.383   0.293   9.906  1.00  0.00    -0.267 OA
ATOM      3  N   UNL     1       1.895   1.933   9.614  1.00  0.00    -0.351 N 
ATOM      4  H   UNL     1       1.961   2.065  10.587  1.00  0.00     0.163 HD
ENDROOT
BRANCH   1   5
ATOM      5  C   UNL     1       2.462   0.444   7.741  1.00  0.00     0.170 A 
ATOM      6  N   UNL     1       1.849   0.154   5.683  1.00  0.00    -0.245 N 
ATOM      7  C   UNL     1       1.373   0.545   6.899  1.00  0.00     0.145 A 
ATOM      8  N   UNL     1       3.111  -0.284   5.771  1.00  0.00    -0.066 NA
ATOM      9  N   UNL     1       3.489  -0.145   7.036  1.00  0.00    -0.125 NA
BRANCH   6  10
ATOM     10  C   UNL     1       1.133   0.398   4.474  1.00  0.00     0.148 C 
ATOM     11  C   UNL     1       0.593   1.570   1.663  1.00  0.00     0.320 C 
ATOM     12  O   UNL     1      -0.447   0.924   1.579  1.00  0.00    -0.248 OA
ATOM     13  N   UNL     1       1.520   1.319   2.657  1.00  0.00    -0.320 N 
ATOM     14  C   UNL     1       1.799  -0.038   3.179  1.00  0.00     0.150 C 
ATOM     15  C   UNL     1       1.361   1.847   4.016  1.00  0.00     0.150 C 
BRANCH  11  16
ATOM     16  N   UNL     1       1.007   2.526   0.745  1.00  0.00    -0.322 N 
ATOM     17  C   UNL     1       2.138   3.402   1.007  1.00  0.00     0.149 C 
BRANCH  16  18
ATOM     18  C   UNL     1       0.392   2.563  -0.582  1.00  0.00     0.182 C 
BRANCH  18  19
ATOM     19  C   UNL     1       1.008   1.577  -1.620  1.00  0.00     0.283 C 
BRANCH  19  20
ATOM     20  N   UNL     1       0.648   0.149  -1.602  1.00  0.00    -0.338 N 
ATOM     21  C   UNL     1       1.438  -0.647  -0.675  1.00  0.00     0.332 C 
ATOM     22  C   UNL     1      -0.784  -0.101  -1.509  1.00  0.00     0.332 C 
ATOM     23  H   UNL     1       0.911  -0.188  -2.529  1.00  0.00     0.347 HD
ENDBRANCH  19  20
ENDBRANCH  18  19
ENDBRANCH  16  18
ENDBRANCH  11  16
ENDBRANCH   6  10
ENDBRANCH   1   5
BRANCH   3  24
ATOM     24  C   UNL     1       1.060   2.904   8.921  1.00  0.00     0.118 C 
BRANCH  24  25
ATOM     25  C   UNL     1      -0.436   2.600   9.067  1.00  0.00     0.042 C 
BRANCH  25  26
ATOM     26  C   UNL     1      -0.993   3.091  10.393  1.00  0.00     0.118 C 
BRANCH  26  27
ATOM     27  N   UNL     1      -1.053   4.553  10.466  1.00  0.00    -0.352 N 
ATOM     28  C   UNL     1      -1.489   5.350  11.505  1.00  0.00     0.251 C 
ATOM     29  H   UNL     1      -0.740   5.032   9.665  1.00  0.00     0.163 HD
ATOM     30  O   UNL     1      -1.811   6.516  11.299  1.00  0.00    -0.269 OA
BRANCH  28  31
ATOM     31  C   UNL     1      -1.559   4.790  12.866  1.00  0.00     0.039 A 
ATOM     32  C   UNL     1      -2.582   5.148  13.749  1.00  0.00     0.014 A 
ATOM     33  C   UNL     1      -0.577   3.883  13.254  1.00  0.00     0.014 A 
ATOM     34  C   UNL     1      -2.644   4.524  14.993  1.00  0.00     0.010 A 
ATOM     35  C   UNL     1      -0.735   3.148  14.398  1.00  0.00     0.010 A 
ATOM     36  C   UNL     1      -1.726   3.506  15.300  1.00  0.00    -0.014 A 
BRANCH  36  37
ATOM     37  C   UNL     1      -1.885   2.674  16.488  1.00  0.00     0.031 A 
ATOM     38  C   UNL     1      -3.205   1.989  16.532  1.00  0.00     0.074 A 
ATOM     39  C   UNL     1      -0.858   2.357  17.310  1.00  0.00     0.049 A 
ATOM     40  N   UNL     1      -4.184   2.221  17.340  1.00  0.00    -0.248 NA
ATOM     41  C   UNL     1      -3.558   1.084  15.422  1.00  0.00     0.031 C 
ATOM     42  C   UNL     1       0.558   2.716  17.164  1.00  0.00     0.029 A 
ATOM     43  N   UNL     1      -0.840   1.552  18.410  1.00  0.00    -0.354 N 
ATOM     44  C   UNL     1      -5.176   1.302  17.003  1.00  0.00     0.074 A 
ATOM     45  C   UNL     1      -4.839   0.825  15.691  1.00  0.00     0.031 C 
ATOM     46  C   UNL     1       1.314   1.956  17.989  1.00  0.00     0.029 A 
ATOM     47  C   UNL     1       0.435   1.176  18.839  1.00  0.00     0.049 A 
ATOM     48  H   UNL     1      -1.662   1.258  18.866  1.00  0.00     0.167 HD
ATOM     49  C   UNL     1      -5.989   0.790  17.969  1.00  0.00     0.037 A 
ATOM     50  C   UNL     1       0.735   0.275  19.813  1.00  0.00     0.037 A 
ATOM     51  C   UNL     1      -5.933   1.620  19.154  1.00  0.00     0.049 A 
ATOM     52  C   UNL     1      -0.491   0.087  20.623  1.00  0.00     0.074 A 
ATOM     53  C   UNL     1      -6.196   2.946  19.441  1.00  0.00     0.029 A 
ATOM     54  N   UNL     1      -5.160   1.161  20.192  1.00  0.00    -0.354 N 
ATOM     55  N   UNL     1      -0.989   1.001  21.405  1.00  0.00    -0.248 NA
ATOM     56  C   UNL     1      -1.413  -0.955  20.207  1.00  0.00     0.031 C 
ATOM     57  C   UNL     1      -5.194   3.329  20.384  1.00  0.00     0.029 A 
ATOM     58  C   UNL     1      -4.432   2.203  20.694  1.00  0.00     0.049 A 
ATOM     59  H   UNL     1      -5.134   0.233  20.520  1.00  0.00     0.167 HD
ATOM     60  C   UNL     1      -2.357   0.923  21.199  1.00  0.00     0.074 A 
ATOM     61  C   UNL     1      -2.565  -0.361  20.529  1.00  0.00     0.031 C 
ATOM     62  C   UNL     1      -3.138   2.037  21.315  1.00  0.00     0.037 A 
BRANCH  49  63
ATOM     63  C   UNL     1      -6.426  -0.668  18.038  1.00  0.00     0.057 A 
ATOM     64  C   UNL     1      -7.173  -1.086  19.159  1.00  0.00     0.134 A 
ATOM     65  C   UNL     1      -5.905  -1.724  17.262  1.00  0.00     0.134 A 
ATOM     66  F   UNL     1      -7.758  -0.192  19.971  1.00  0.00    -0.206 F 
ATOM     67  C   UNL     1      -7.265  -2.426  19.554  1.00  0.00     0.040 A 
ATOM     68  C   UNL     1      -6.028  -3.070  17.623  1.00  0.00     0.040 A 
ATOM     69  F   UNL     1      -5.181  -1.534  16.155  1.00  0.00    -0.206 F 
ATOM     70  C   UNL     1      -6.671  -3.424  18.795  1.00  0.00     0.006 A 
ENDBRANCH  49  63
BRANCH  50  71
ATOM     71  C   UNL     1       1.893  -0.640  19.969  1.00  0.00     0.057 A 
ATOM     72  C   UNL     1       2.141  -1.289  21.190  1.00  0.00     0.134 A 
ATOM     73  C   UNL     1       2.586  -1.142  18.856  1.00  0.00     0.134 A 
ATOM     74  F   UNL     1       1.503  -0.908  22.307  1.00  0.00    -0.206 F 
ATOM     75  C   UNL     1       2.992  -2.399  21.291  1.00  0.00     0.040 A 
ATOM     76  C   UNL     1       3.443  -2.247  18.944  1.00  0.00     0.040 A 
ATOM     77  F   UNL     1       2.380  -0.639  17.631  1.00  0.00    -0.206 F 
ATOM     78  C   UNL     1       3.633  -2.892  20.161  1.00  0.00     0.006 A 
ENDBRANCH  50  71
BRANCH  62  79
ATOM     79  C   UNL     1      -2.532   3.251  21.969  1.00  0.00     0.057 A 
ATOM     80  C   UNL     1      -1.418   3.955  21.483  1.00  0.00     0.134 A 
ATOM     81  C   UNL     1      -3.182   3.794  23.082  1.00  0.00     0.134 A 
ATOM     82  F   UNL     1      -0.784   3.573  20.367  1.00  0.00    -0.206 F 
ATOM     83  C   UNL     1      -0.947   5.115  22.109  1.00  0.00     0.040 A 
ATOM     84  C   UNL     1      -2.746   4.971  23.693  1.00  0.00     0.040 A 
ATOM     85  F   UNL     1      -4.284   3.206  23.574  1.00  0.00    -0.206 F 
ATOM     86  C   UNL     1      -1.616   5.629  23.215  1.00  0.00     0.006 A 
ENDBRANCH  62  79
ENDBRANCH  36  37
ENDBRANCH  28  31
ENDBRANCH  26  27
ENDBRANCH  25  26
ENDBRANCH  24  25
ENDBRANCH   3  24
TORSDOF 15
