REMARK SMILES CNC(=O)CC[NH+]1CCC(CC(=O)NCCCNC(=O)c2ccc(-c3c4nc(c(-c5c(F)cccc5F)c5ccc([nH]5)c(-c5c(F)cccc5F)c5nc(c(-c6c(F)cccc6F)c6ccc3[nH]6)C=C5)C=C4)cc2)CC1
REMARK SMILES IDX 15 1 14 2 12 3 13 4 11 6 10 7 7 8 8 9 76 10 9 12 75 13 6 14
REMARK SMILES IDX 5 15 3 16 1 17 2 18 4 20 16 21 17 22 18 23 19 24 20 26 21 27
REMARK SMILES IDX 22 28 74 29 23 30 73 31 24 32 25 33 26 34 67 35 27 36 72 37
REMARK SMILES IDX 66 38 68 39 28 40 71 41 65 42 64 43 29 45 55 46 38 47 54 48
REMARK SMILES IDX 39 49 42 50 53 51 69 52 40 53 41 54 52 56 70 57 43 58 30 59
REMARK SMILES IDX 31 60 36 61 32 62 33 63 35 64 37 65 34 66 56 67 57 68 62 69
REMARK SMILES IDX 58 70 59 71 61 72 63 73 60 74 44 75 45 76 50 77 46 78 47 79
REMARK SMILES IDX 49 80 51 81 48 82
REMARK H PARENT 14 5 7 11 2 19 18 25 68 44 42 55
REMARK Flexibility Score: inf
ROOT
ATOM      1  C   UNL     1       2.900  -2.925  -1.244  1.00  0.00     0.117 C 
ENDROOT
BRANCH   1   2
ATOM      2  N   UNL     1       2.338  -2.713  -2.570  1.00  0.00    -0.356 N 
ATOM      3  C   UNL     1       2.334  -1.608  -3.369  1.00  0.00     0.220 C 
ATOM      4  O   UNL     1       1.697  -1.669  -4.423  1.00  0.00    -0.275 OA
ATOM      5  H   UNL     1       1.886  -3.499  -2.953  1.00  0.00     0.163 HD
BRANCH   3   6
ATOM      6  C   UNL     1       3.069  -0.331  -2.978  1.00  0.00     0.104 C 
BRANCH   6   7
ATOM      7  C   UNL     1       2.238   0.551  -2.037  1.00  0.00     0.009 C 
ATOM      8  N   UNL     1       1.579   2.659  -0.100  1.00  0.00    -0.334 N 
ATOM      9  C   UNL     1       1.853   1.283   0.304  1.00  0.00     0.262 C 
ATOM     10  C   UNL     1       1.225   2.812  -1.518  1.00  0.00     0.262 C 
ATOM     11  H   UNL     1       2.462   3.162  -0.010  1.00  0.00     0.348 HD
ATOM     12  C   UNL     1       2.829   0.584  -0.624  1.00  0.00     0.066 C 
ATOM     13  C   UNL     1       2.139   2.022  -2.477  1.00  0.00     0.066 C 
BRANCH   8  14
ATOM     14  C   UNL     1       0.604   3.302   0.813  1.00  0.00     0.272 C 
BRANCH  14  15
ATOM     15  C   UNL     1      -0.745   2.584   1.024  1.00  0.00     0.161 C 
BRANCH  15  16
ATOM     16  C   UNL     1      -0.698   1.575   2.159  1.00  0.00     0.225 C 
ATOM     17  C   UNL     1      -1.625  -0.338   0.762  1.00  0.00     0.142 C 
ATOM     18  N   UNL     1      -1.115   0.291   1.958  1.00  0.00    -0.359 N 
ATOM     19  H   UNL     1      -1.058  -0.295   2.747  1.00  0.00     0.163 HD
ATOM     20  O   UNL     1      -0.296   1.885   3.282  1.00  0.00    -0.275 OA
ENDBRANCH  15  16
ENDBRANCH  14  15
ENDBRANCH   8  14
ENDBRANCH   6   7
ENDBRANCH   3   6
ENDBRANCH   1   2
BRANCH   1  21
ATOM     21  C   UNL     1       1.839  -2.742  -0.152  1.00  0.00     0.042 C 
BRANCH  21  22
ATOM     22  C   UNL     1       1.036  -4.003   0.166  1.00  0.00     0.118 C 
BRANCH  22  23
ATOM     23  N   UNL     1       1.722  -4.855   1.127  1.00  0.00    -0.352 N 
ATOM     24  C   UNL     1       1.408  -5.223   2.412  1.00  0.00     0.251 C 
ATOM     25  H   UNL     1       2.567  -5.237   0.795  1.00  0.00     0.163 HD
ATOM     26  O   UNL     1       2.280  -5.783   3.082  1.00  0.00    -0.269 OA
BRANCH  24  27
ATOM     27  C   UNL     1       0.078  -4.979   3.032  1.00  0.00     0.039 A 
ATOM     28  C   UNL     1       0.024  -4.776   4.419  1.00  0.00     0.014 A 
ATOM     29  C   UNL     1      -1.121  -5.053   2.318  1.00  0.00     0.014 A 
ATOM     30  C   UNL     1      -1.205  -4.619   5.073  1.00  0.00     0.010 A 
ATOM     31  C   UNL     1      -2.346  -4.828   2.961  1.00  0.00     0.010 A 
ATOM     32  C   UNL     1      -2.406  -4.622   4.349  1.00  0.00    -0.014 A 
BRANCH  32  33
ATOM     33  C   UNL     1      -3.719  -4.434   5.032  1.00  0.00     0.031 A 
ATOM     34  C   UNL     1      -4.751  -5.534   5.036  1.00  0.00     0.074 A 
ATOM     35  C   UNL     1      -4.012  -3.255   5.617  1.00  0.00     0.049 A 
ATOM     36  N   UNL     1      -5.970  -5.525   5.519  1.00  0.00    -0.248 NA
ATOM     37  C   UNL     1      -4.373  -6.802   4.395  1.00  0.00     0.031 C 
ATOM     38  C   UNL     1      -3.127  -2.091   5.666  1.00  0.00     0.029 A 
ATOM     39  N   UNL     1      -5.145  -2.838   6.275  1.00  0.00    -0.354 N 
ATOM     40  C   UNL     1      -6.510  -6.770   5.218  1.00  0.00     0.074 A 
ATOM     41  C   UNL     1      -5.498  -7.498   4.482  1.00  0.00     0.031 C 
ATOM     42  C   UNL     1      -3.744  -1.097   6.326  1.00  0.00     0.029 A 
ATOM     43  C   UNL     1      -5.079  -1.539   6.719  1.00  0.00     0.049 A 
ATOM     44  H   UNL     1      -5.930  -3.415   6.414  1.00  0.00     0.167 HD
ATOM     45  C   UNL     1      -7.729  -7.270   5.538  1.00  0.00     0.037 A 
ATOM     46  C   UNL     1      -5.990  -0.782   7.361  1.00  0.00     0.037 A 
ATOM     47  C   UNL     1      -8.723  -6.573   6.312  1.00  0.00     0.049 A 
ATOM     48  C   UNL     1      -7.331  -1.365   7.715  1.00  0.00     0.074 A 
ATOM     49  C   UNL     1      -9.953  -7.036   6.752  1.00  0.00     0.029 A 
ATOM     50  N   UNL     1      -8.606  -5.268   6.761  1.00  0.00    -0.354 N 
ATOM     51  N   UNL     1      -7.797  -2.567   7.480  1.00  0.00    -0.248 NA
ATOM     52  C   UNL     1      -8.270  -0.487   8.428  1.00  0.00     0.031 C 
ATOM     53  C   UNL     1     -10.597  -5.997   7.432  1.00  0.00     0.029 A 
ATOM     54  C   UNL     1      -9.751  -4.901   7.452  1.00  0.00     0.049 A 
ATOM     55  H   UNL     1      -7.825  -4.687   6.613  1.00  0.00     0.167 HD
ATOM     56  C   UNL     1      -9.070  -2.596   8.038  1.00  0.00     0.074 A 
ATOM     57  C   UNL     1      -9.297  -1.298   8.635  1.00  0.00     0.031 C 
ATOM     58  C   UNL     1      -9.968  -3.611   8.052  1.00  0.00     0.037 A 
BRANCH  45  59
ATOM     59  C   UNL     1      -8.066  -8.650   5.052  1.00  0.00     0.057 A 
ATOM     60  C   UNL     1      -7.487  -9.796   5.613  1.00  0.00     0.134 A 
ATOM     61  C   UNL     1      -9.030  -8.837   4.053  1.00  0.00     0.134 A 
ATOM     62  F   UNL     1      -6.552  -9.686   6.569  1.00  0.00    -0.206 F 
ATOM     63  C   UNL     1      -7.838 -11.076   5.182  1.00  0.00     0.040 A 
ATOM     64  C   UNL     1      -9.408 -10.113   3.632  1.00  0.00     0.040 A 
ATOM     65  F   UNL     1      -9.632  -7.783   3.482  1.00  0.00    -0.206 F 
ATOM     66  C   UNL     1      -8.808 -11.238   4.194  1.00  0.00     0.006 A 
ENDBRANCH  45  59
BRANCH  46  67
ATOM     67  C   UNL     1      -5.666   0.621   7.723  1.00  0.00     0.057 A 
ATOM     68  C   UNL     1      -5.472   0.998   9.057  1.00  0.00     0.134 A 
ATOM     69  C   UNL     1      -5.566   1.621   6.748  1.00  0.00     0.134 A 
ATOM     70  F   UNL     1      -5.580   0.088  10.037  1.00  0.00    -0.206 F 
ATOM     71  C   UNL     1      -5.208   2.321   9.412  1.00  0.00     0.040 A 
ATOM     72  C   UNL     1      -5.277   2.943   7.086  1.00  0.00     0.040 A 
ATOM     73  F   UNL     1      -5.742   1.323   5.452  1.00  0.00    -0.206 F 
ATOM     74  C   UNL     1      -5.105   3.298   8.423  1.00  0.00     0.006 A 
ENDBRANCH  46  67
BRANCH  58  75
ATOM     75  C   UNL     1     -11.268  -3.371   8.761  1.00  0.00     0.057 A 
ATOM     76  C   UNL     1     -12.264  -2.548   8.221  1.00  0.00     0.134 A 
ATOM     77  C   UNL     1     -11.541  -3.999   9.983  1.00  0.00     0.134 A 
ATOM     78  F   UNL     1     -12.060  -1.907   7.060  1.00  0.00    -0.206 F 
ATOM     79  C   UNL     1     -13.477  -2.342   8.880  1.00  0.00     0.040 A 
ATOM     80  C   UNL     1     -12.759  -3.820  10.641  1.00  0.00     0.040 A 
ATOM     81  F   UNL     1     -10.633  -4.807  10.552  1.00  0.00    -0.206 F 
ATOM     82  C   UNL     1     -13.729  -2.985  10.091  1.00  0.00     0.006 A 
ENDBRANCH  58  75
ENDBRANCH  32  33
ENDBRANCH  24  27
ENDBRANCH  22  23
ENDBRANCH  21  22
ENDBRANCH   1  21
TORSDOF 14
