REMARK SMILES CC(C)[N@@H+](C)Cc1cc2c(cc1Cl)C=C(C(=O)NCCCNC(=O)c1ccc(-c3c4nc(c(-c5c(F)cccc5F)c5ccc([nH]5)c(-c5c(F)cccc5F)c5nc(c(-c6c(F)cccc6F)c6ccc3[nH]6)C=C5)C=C4)cc1)[C@@H](C(F)(F)F)O2
REMARK SMILES IDX 19 1 18 2 16 3 17 4 15 6 7 7 8 8 12 9 9 10 11 11 13 12 10 13
REMARK SMILES IDX 84 14 14 15 79 16 6 17 4 18 5 19 2 21 1 22 3 23 80 24 81 25
REMARK SMILES IDX 82 26 83 27 20 28 21 29 22 30 23 31 24 33 25 34 26 35 78 36
REMARK SMILES IDX 27 37 77 38 28 39 29 40 30 41 71 42 31 43 76 44 70 45 72 46
REMARK SMILES IDX 32 47 75 48 69 49 68 50 33 52 59 53 42 54 58 55 43 56 46 57
REMARK SMILES IDX 57 58 73 59 44 60 45 61 56 63 74 64 47 65 34 66 35 67 40 68
REMARK SMILES IDX 36 69 37 70 39 71 41 72 38 73 60 74 61 75 66 76 62 77 63 78
REMARK SMILES IDX 65 79 67 80 64 81 48 82 49 83 54 84 50 85 51 86 53 87 55 88
REMARK SMILES IDX 52 89
REMARK H PARENT 18 5 4 20 22 32 72 51 46 62
REMARK Flexibility Score: inf
ROOT
ATOM      1  C   UNL     1       2.309  -6.720  -7.177  1.00  0.00     0.118 C 
ENDROOT
BRANCH   1   2
ATOM      2  N   UNL     1       1.752  -7.637  -6.189  1.00  0.00    -0.352 N 
ATOM      3  C   UNL     1       1.033  -7.554  -5.044  1.00  0.00     0.251 C 
ATOM      4  O   UNL     1       0.771  -8.632  -4.501  1.00  0.00    -0.270 OA
ATOM      5  H   UNL     1       1.954  -8.573  -6.418  1.00  0.00     0.163 HD
BRANCH   3   6
ATOM      6  C   UNL     1       0.563  -6.282  -4.425  1.00  0.00     0.067 C 
ATOM      7  C   UNL     1      -1.213  -2.667  -1.374  1.00  0.00     0.029 A 
ATOM      8  C   UNL     1      -0.584  -2.734  -2.612  1.00  0.00     0.058 A 
ATOM      9  C   UNL     1      -1.556  -3.897  -0.778  1.00  0.00     0.050 A 
ATOM     10  C   UNL     1      -0.170  -3.934  -3.159  1.00  0.00     0.128 A 
ATOM     11  C   UNL     1      -1.207  -5.127  -1.375  1.00  0.00     0.033 A 
ATOM     12  Cl  UNL     1      -2.422  -3.961   0.719  1.00  0.00    -0.084 Cl
ATOM     13  C   UNL     1      -0.485  -5.147  -2.569  1.00  0.00     0.019 A 
ATOM     14  O   UNL     1       0.636  -3.805  -4.247  1.00  0.00    -0.475 OA
ATOM     15  C   UNL     1      -0.016  -6.372  -3.210  1.00  0.00     0.025 C 
ATOM     16  C   UNL     1       0.715  -4.954  -5.108  1.00  0.00     0.314 C 
BRANCH   7  17
ATOM     17  C   UNL     1      -1.499  -1.331  -0.714  1.00  0.00     0.300 C 
BRANCH  17  18
ATOM     18  N   UNL     1      -0.879  -0.108  -1.247  1.00  0.00    -0.332 N 
ATOM     19  C   UNL     1      -1.494   0.462  -2.434  1.00  0.00     0.333 C 
ATOM     20  H   UNL     1      -1.185   0.471  -0.465  1.00  0.00     0.348 HD
BRANCH  18  21
ATOM     21  C   UNL     1       0.546   0.189  -1.050  1.00  0.00     0.177 C 
ATOM     22  C   UNL     1       0.932   0.164   0.432  1.00  0.00     0.075 C 
ATOM     23  C   UNL     1       1.568  -0.638  -1.839  1.00  0.00     0.075 C 
ENDBRANCH  18  21
ENDBRANCH  17  18
ENDBRANCH   7  17
BRANCH  16  24
ATOM     24  C   UNL     1      -0.266  -4.735  -6.273  1.00  0.00     0.429 C 
ATOM     25  F   UNL     1       0.167  -3.716  -7.059  1.00  0.00    -0.167 F 
ATOM     26  F   UNL     1      -0.382  -5.817  -7.076  1.00  0.00    -0.167 F 
ATOM     27  F   UNL     1      -1.512  -4.420  -5.854  1.00  0.00    -0.167 F 
ENDBRANCH  16  24
ENDBRANCH   3   6
ENDBRANCH   1   2
BRANCH   1  28
ATOM     28  C   UNL     1       3.819  -6.597  -7.054  1.00  0.00     0.042 C 
BRANCH  28  29
ATOM     29  C   UNL     1       4.535  -7.761  -7.720  1.00  0.00     0.118 C 
BRANCH  29  30
ATOM     30  N   UNL     1       4.346  -7.763  -9.171  1.00  0.00    -0.352 N 
ATOM     31  C   UNL     1       5.250  -7.572 -10.187  1.00  0.00     0.251 C 
ATOM     32  H   UNL     1       3.421  -7.928  -9.466  1.00  0.00     0.163 HD
ATOM     33  O   UNL     1       4.854  -7.382 -11.333  1.00  0.00    -0.269 OA
BRANCH  31  34
ATOM     34  C   UNL     1       6.694  -7.575  -9.891  1.00  0.00     0.039 A 
ATOM     35  C   UNL     1       7.217  -8.493  -8.982  1.00  0.00     0.014 A 
ATOM     36  C   UNL     1       7.530  -6.642 -10.510  1.00  0.00     0.014 A 
ATOM     37  C   UNL     1       8.517  -8.339  -8.528  1.00  0.00     0.010 A 
ATOM     38  C   UNL     1       8.876  -6.570 -10.140  1.00  0.00     0.010 A 
ATOM     39  C   UNL     1       9.364  -7.379  -9.103  1.00  0.00    -0.014 A 
BRANCH  39  40
ATOM     40  C   UNL     1      10.749  -7.247  -8.585  1.00  0.00     0.031 A 
ATOM     41  C   UNL     1      11.210  -5.968  -7.939  1.00  0.00     0.074 A 
ATOM     42  C   UNL     1      11.564  -8.318  -8.626  1.00  0.00     0.049 A 
ATOM     43  N   UNL     1      12.373  -5.686  -7.408  1.00  0.00    -0.248 NA
ATOM     44  C   UNL     1      10.245  -4.859  -7.885  1.00  0.00     0.031 C 
ATOM     45  C   UNL     1      11.221  -9.618  -9.211  1.00  0.00     0.029 A 
ATOM     46  N   UNL     1      12.830  -8.501  -8.135  1.00  0.00    -0.354 N 
ATOM     47  C   UNL     1      12.290  -4.364  -6.988  1.00  0.00     0.074 A 
ATOM     48  C   UNL     1      10.971  -3.890  -7.346  1.00  0.00     0.031 C 
ATOM     49  C   UNL     1      12.217 -10.483  -8.977  1.00  0.00     0.029 A 
ATOM     50  C   UNL     1      13.301  -9.781  -8.301  1.00  0.00     0.049 A 
ATOM     51  H   UNL     1      13.351  -7.785  -7.705  1.00  0.00     0.167 HD
ATOM     52  C   UNL     1      13.225  -3.617  -6.353  1.00  0.00     0.037 A 
ATOM     53  C   UNL     1      14.483 -10.325  -7.962  1.00  0.00     0.037 A 
ATOM     54  C   UNL     1      14.527  -4.102  -5.974  1.00  0.00     0.049 A 
ATOM     55  C   UNL     1      15.515  -9.460  -7.303  1.00  0.00     0.074 A 
ATOM     56  C   UNL     1      15.539  -3.433  -5.308  1.00  0.00     0.029 A 
ATOM     57  N   UNL     1      14.995  -5.383  -6.227  1.00  0.00    -0.354 N 
ATOM     58  N   UNL     1      15.423  -8.211  -6.916  1.00  0.00    -0.248 NA
ATOM     59  C   UNL     1      16.824 -10.076  -7.053  1.00  0.00     0.031 C 
ATOM     60  C   UNL     1      16.634  -4.297  -5.193  1.00  0.00     0.029 A 
ATOM     61  C   UNL     1      16.290  -5.517  -5.751  1.00  0.00     0.049 A 
ATOM     62  H   UNL     1      14.483  -6.092  -6.679  1.00  0.00     0.167 HD
ATOM     63  C   UNL     1      16.657  -7.893  -6.367  1.00  0.00     0.074 A 
ATOM     64  C   UNL     1      17.471  -9.090  -6.449  1.00  0.00     0.031 C 
ATOM     65  C   UNL     1      17.083  -6.716  -5.849  1.00  0.00     0.037 A 
BRANCH  52  66
ATOM     66  C   UNL     1      12.880  -2.186  -6.055  1.00  0.00     0.057 A 
ATOM     67  C   UNL     1      13.492  -1.144  -6.764  1.00  0.00     0.134 A 
ATOM     68  C   UNL     1      11.956  -1.834  -5.063  1.00  0.00     0.134 A 
ATOM     69  F   UNL     1      14.390  -1.410  -7.725  1.00  0.00    -0.206 F 
ATOM     70  C   UNL     1      13.197   0.194  -6.498  1.00  0.00     0.040 A 
ATOM     71  C   UNL     1      11.634  -0.500  -4.804  1.00  0.00     0.040 A 
ATOM     72  F   UNL     1      11.321  -2.783  -4.358  1.00  0.00    -0.206 F 
ATOM     73  C   UNL     1      12.259   0.519  -5.521  1.00  0.00     0.006 A 
ENDBRANCH  52  66
BRANCH  53  74
ATOM     74  C   UNL     1      14.758 -11.752  -8.258  1.00  0.00     0.057 A 
ATOM     75  C   UNL     1      14.899 -12.211  -9.573  1.00  0.00     0.134 A 
ATOM     76  C   UNL     1      14.894 -12.689  -7.228  1.00  0.00     0.134 A 
ATOM     77  F   UNL     1      14.774 -11.363 -10.604  1.00  0.00    -0.206 F 
ATOM     78  C   UNL     1      15.152 -13.554  -9.855  1.00  0.00     0.040 A 
ATOM     79  C   UNL     1      15.175 -14.030  -7.495  1.00  0.00     0.040 A 
ATOM     80  F   UNL     1      14.788 -12.306  -5.947  1.00  0.00    -0.206 F 
ATOM     81  C   UNL     1      15.299 -14.466  -8.813  1.00  0.00     0.006 A 
ENDBRANCH  53  74
BRANCH  65  82
ATOM     82  C   UNL     1      18.483  -6.686  -5.316  1.00  0.00     0.057 A 
ATOM     83  C   UNL     1      18.722  -6.656  -3.937  1.00  0.00     0.134 A 
ATOM     84  C   UNL     1      19.594  -6.689  -6.169  1.00  0.00     0.134 A 
ATOM     85  F   UNL     1      17.700  -6.647  -3.068  1.00  0.00    -0.206 F 
ATOM     86  C   UNL     1      20.019  -6.635  -3.424  1.00  0.00     0.040 A 
ATOM     87  C   UNL     1      20.896  -6.694  -5.667  1.00  0.00     0.040 A 
ATOM     88  F   UNL     1      19.430  -6.737  -7.500  1.00  0.00    -0.206 F 
ATOM     89  C   UNL     1      21.111  -6.663  -4.290  1.00  0.00     0.006 A 
ENDBRANCH  65  82
ENDBRANCH  39  40
ENDBRANCH  31  34
ENDBRANCH  29  30
ENDBRANCH  28  29
ENDBRANCH   1  28
TORSDOF 14
