REMARK SMILES Cc1n[nH]c(C(=O)N[C@@H](CC(C)C)C(=O)NCCCNC(=O)c2ccc(-c3c4nc(c(-c5c(F)cccc5F)c5ccc([nH]5)c(-c5c(F)cccc5F)c5nc(c(-c6c(F)cccc6F)c6ccc3[nH]6)C=C5)C=C4)cc2)n1
REMARK SMILES IDX 18 1 17 2 16 3 14 4 15 5 9 7 8 8 6 9 7 10 5 12 1 13 2 14
REMARK SMILES IDX 3 15 77 16 4 17 10 19 11 20 12 21 13 22 19 23 20 24 21 25
REMARK SMILES IDX 22 27 23 28 24 29 76 30 25 31 75 32 26 33 27 34 28 35 69 36
REMARK SMILES IDX 29 37 74 38 68 39 70 40 30 41 73 42 67 43 66 44 31 46 57 47
REMARK SMILES IDX 40 48 56 49 41 50 44 51 55 52 71 53 42 54 43 55 54 57 72 58
REMARK SMILES IDX 45 59 32 60 33 61 38 62 34 63 35 64 37 65 39 66 36 67 58 68
REMARK SMILES IDX 59 69 64 70 60 71 61 72 63 73 65 74 62 75 46 76 47 77 52 78
REMARK SMILES IDX 48 79 49 80 51 81 53 82 50 83
REMARK H PARENT 16 6 8 11 4 18 20 26 70 45 44 56
REMARK Flexibility Score: inf
ROOT
ATOM      1  C   UNL     1       1.300   8.113  -5.176  1.00  0.00     0.042 C 
ENDROOT
BRANCH   1   2
ATOM      2  C   UNL     1       0.290   6.999  -5.421  1.00  0.00     0.117 C 
BRANCH   2   3
ATOM      3  N   UNL     1       0.848   5.721  -5.829  1.00  0.00    -0.354 N 
ATOM      4  C   UNL     1       0.342   4.459  -5.684  1.00  0.00     0.242 C 
ATOM      5  O   UNL     1       0.779   3.586  -6.442  1.00  0.00    -0.273 OA
ATOM      6  H   UNL     1       1.723   5.771  -6.278  1.00  0.00     0.163 HD
BRANCH   4   7
ATOM      7  C   UNL     1      -0.772   4.093  -4.671  1.00  0.00     0.172 C 
BRANCH   7   8
ATOM      8  N   UNL     1      -0.444   4.590  -3.334  1.00  0.00    -0.338 N 
ATOM      9  C   UNL     1       0.218   4.049  -2.257  1.00  0.00     0.289 C 
ATOM     10  O   UNL     1       0.642   4.906  -1.472  1.00  0.00    -0.266 OA
ATOM     11  H   UNL     1      -0.766   5.506  -3.172  1.00  0.00     0.164 HD
BRANCH   9  12
ATOM     12  C   UNL     1       0.360   2.625  -2.003  1.00  0.00     0.214 A 
ATOM     13  C   UNL     1       1.210  -0.090   0.124  1.00  0.00     0.092 C 
ATOM     14  C   UNL     1       0.768   0.811  -0.960  1.00  0.00     0.148 A 
ATOM     15  N   UNL     1       0.119   0.386  -2.046  1.00  0.00    -0.159 NA
ATOM     16  N   UNL     1       0.954   2.163  -0.910  1.00  0.00    -0.207 NA
ATOM     17  N   UNL     1      -0.122   1.543  -2.684  1.00  0.00    -0.255 N 
ATOM     18  H   UNL     1      -0.594   1.605  -3.546  1.00  0.00     0.192 HD
ENDBRANCH   9  12
ENDBRANCH   7   8
BRANCH   7  19
ATOM     19  C   UNL     1      -2.253   4.342  -5.048  1.00  0.00     0.038 C 
BRANCH  19  20
ATOM     20  C   UNL     1      -2.659   5.639  -5.771  1.00  0.00    -0.015 C 
ATOM     21  C   UNL     1      -2.358   5.585  -7.273  1.00  0.00     0.007 C 
ATOM     22  C   UNL     1      -4.152   5.936  -5.589  1.00  0.00     0.007 C 
ENDBRANCH  19  20
ENDBRANCH   7  19
ENDBRANCH   4   7
ENDBRANCH   2   3
ENDBRANCH   1   2
BRANCH   1  23
ATOM     23  C   UNL     1       1.778   8.760  -6.464  1.00  0.00     0.118 C 
BRANCH  23  24
ATOM     24  N   UNL     1       0.726   9.465  -7.207  1.00  0.00    -0.352 N 
ATOM     25  C   UNL     1       0.825  10.024  -8.476  1.00  0.00     0.251 C 
ATOM     26  H   UNL     1      -0.145   9.551  -6.756  1.00  0.00     0.163 HD
ATOM     27  O   UNL     1      -0.004  10.787  -8.919  1.00  0.00    -0.269 OA
BRANCH  25  28
ATOM     28  C   UNL     1       2.013   9.643  -9.261  1.00  0.00     0.039 A 
ATOM     29  C   UNL     1       2.982  10.592  -9.592  1.00  0.00     0.014 A 
ATOM     30  C   UNL     1       2.249   8.281  -9.389  1.00  0.00     0.014 A 
ATOM     31  C   UNL     1       4.261  10.149  -9.927  1.00  0.00     0.010 A 
ATOM     32  C   UNL     1       3.549   7.866  -9.547  1.00  0.00     0.010 A 
ATOM     33  C   UNL     1       4.563   8.781  -9.850  1.00  0.00    -0.014 A 
BRANCH  33  34
ATOM     34  C   UNL     1       5.946   8.306  -9.981  1.00  0.00     0.031 A 
ATOM     35  C   UNL     1       7.008   9.010  -9.191  1.00  0.00     0.074 A 
ATOM     36  C   UNL     1       6.259   7.138 -10.585  1.00  0.00     0.049 A 
ATOM     37  N   UNL     1       8.062   9.619  -9.634  1.00  0.00    -0.248 NA
ATOM     38  C   UNL     1       6.870   9.069  -7.727  1.00  0.00     0.031 C 
ATOM     39  C   UNL     1       5.361   6.128 -11.162  1.00  0.00     0.029 A 
ATOM     40  N   UNL     1       7.482   6.552 -10.706  1.00  0.00    -0.354 N 
ATOM     41  C   UNL     1       8.807  10.002  -8.516  1.00  0.00     0.074 A 
ATOM     42  C   UNL     1       7.973   9.735  -7.372  1.00  0.00     0.031 C 
ATOM     43  C   UNL     1       6.029   4.970 -11.330  1.00  0.00     0.029 A 
ATOM     44  C   UNL     1       7.434   5.223 -11.088  1.00  0.00     0.049 A 
ATOM     45  H   UNL     1       8.325   7.031 -10.537  1.00  0.00     0.167 HD
ATOM     46  C   UNL     1      10.124  10.352  -8.604  1.00  0.00     0.037 A 
ATOM     47  C   UNL     1       8.470   4.368 -11.217  1.00  0.00     0.037 A 
ATOM     48  C   UNL     1      10.508  10.623  -9.964  1.00  0.00     0.049 A 
ATOM     49  C   UNL     1       9.694   5.177 -11.395  1.00  0.00     0.074 A 
ATOM     50  C   UNL     1      10.133  11.536 -10.928  1.00  0.00     0.029 A 
ATOM     51  N   UNL     1      11.223   9.661 -10.631  1.00  0.00    -0.354 N 
ATOM     52  N   UNL     1       9.926   5.927 -12.437  1.00  0.00    -0.248 NA
ATOM     53  C   UNL     1      10.495   5.479 -10.220  1.00  0.00     0.031 C 
ATOM     54  C   UNL     1      10.200  10.818 -12.159  1.00  0.00     0.029 A 
ATOM     55  C   UNL     1      10.650   9.528 -11.868  1.00  0.00     0.049 A 
ATOM     56  H   UNL     1      12.000   9.162 -10.288  1.00  0.00     0.167 HD
ATOM     57  C   UNL     1      10.578   7.043 -11.934  1.00  0.00     0.074 A 
ATOM     58  C   UNL     1      11.008   6.653 -10.594  1.00  0.00     0.031 C 
ATOM     59  C   UNL     1      10.468   8.262 -12.541  1.00  0.00     0.037 A 
BRANCH  46  60
ATOM     60  C   UNL     1      11.166  10.157  -7.524  1.00  0.00     0.057 A 
ATOM     61  C   UNL     1      12.450  10.719  -7.683  1.00  0.00     0.134 A 
ATOM     62  C   UNL     1      11.058   9.207  -6.490  1.00  0.00     0.134 A 
ATOM     63  F   UNL     1      12.693  11.627  -8.640  1.00  0.00    -0.206 F 
ATOM     64  C   UNL     1      13.554  10.311  -6.921  1.00  0.00     0.040 A 
ATOM     65  C   UNL     1      12.144   8.830  -5.690  1.00  0.00     0.040 A 
ATOM     66  F   UNL     1       9.929   8.525  -6.266  1.00  0.00    -0.206 F 
ATOM     67  C   UNL     1      13.404   9.357  -5.925  1.00  0.00     0.006 A 
ENDBRANCH  46  60
BRANCH  47  68
ATOM     68  C   UNL     1       8.463   2.917 -10.960  1.00  0.00     0.057 A 
ATOM     69  C   UNL     1       9.409   2.064 -11.533  1.00  0.00     0.134 A 
ATOM     70  C   UNL     1       7.656   2.368  -9.945  1.00  0.00     0.134 A 
ATOM     71  F   UNL     1      10.244   2.514 -12.480  1.00  0.00    -0.206 F 
ATOM     72  C   UNL     1       9.555   0.736 -11.113  1.00  0.00     0.040 A 
ATOM     73  C   UNL     1       7.787   1.044  -9.520  1.00  0.00     0.040 A 
ATOM     74  F   UNL     1       6.769   3.125  -9.282  1.00  0.00    -0.206 F 
ATOM     75  C   UNL     1       8.750   0.226 -10.097  1.00  0.00     0.006 A 
ENDBRANCH  47  68
BRANCH  59  76
ATOM     76  C   UNL     1       9.848   8.316 -13.911  1.00  0.00     0.057 A 
ATOM     77  C   UNL     1       8.504   8.009 -14.172  1.00  0.00     0.134 A 
ATOM     78  C   UNL     1      10.584   8.858 -14.969  1.00  0.00     0.134 A 
ATOM     79  F   UNL     1       7.690   7.587 -13.200  1.00  0.00    -0.206 F 
ATOM     80  C   UNL     1       7.932   8.192 -15.434  1.00  0.00     0.040 A 
ATOM     81  C   UNL     1      10.017   9.075 -16.228  1.00  0.00     0.040 A 
ATOM     82  F   UNL     1      11.858   9.238 -14.781  1.00  0.00    -0.206 F 
ATOM     83  C   UNL     1       8.688   8.733 -16.467  1.00  0.00     0.006 A 
ENDBRANCH  59  76
ENDBRANCH  33  34
ENDBRANCH  25  28
ENDBRANCH  23  24
ENDBRANCH   1  23
TORSDOF 14
