REMARK SMILES C=CCN(CC(=O)NCCCNC(=O)c1ccc(-c2c3nc(c(-c4c(F)cccc4F)c4ccc([nH]4)c(-c4c(F)cccc4F)c4nc(c(-c5c(F)cccc5F)c5ccc2[nH]5)C=C4)C=C3)cc1)C(=O)N(C)[C@H]1CCC[N@H+](C)C1
REMARK SMILES IDX 9 1 8 2 6 3 7 4 5 6 4 7 3 8 2 9 1 10 69 11 70 12 71 13 72 14
REMARK SMILES IDX 73 15 74 16 79 17 75 18 77 19 76 20 78 21 10 23 11 24 12 25
REMARK SMILES IDX 13 26 14 28 15 29 16 30 68 31 17 32 67 33 18 34 19 35 20 36
REMARK SMILES IDX 61 37 21 38 66 39 60 40 62 41 22 42 65 43 59 44 58 45 23 47
REMARK SMILES IDX 49 48 32 49 48 50 33 51 36 52 47 53 63 54 34 55 35 56 46 58
REMARK SMILES IDX 64 59 37 60 24 61 25 62 30 63 26 64 27 65 29 66 31 67 28 68
REMARK SMILES IDX 50 69 51 70 56 71 52 72 53 73 55 74 57 75 54 76 38 77 39 78
REMARK SMILES IDX 44 79 40 80 41 81 43 82 45 83 42 84
REMARK H PARENT 8 5 77 22 12 27 62 46 36 57
REMARK Flexibility Score: inf
ROOT
ATOM      1  C   UNL     1      -1.816  -3.591  10.848  1.00  0.00     0.117 C 
ENDROOT
BRANCH   1   2
ATOM      2  N   UNL     1      -0.696  -2.896  10.256  1.00  0.00    -0.354 N 
ATOM      3  C   UNL     1      -0.639  -1.644   9.726  1.00  0.00     0.239 C 
ATOM      4  O   UNL     1       0.484  -1.165   9.537  1.00  0.00    -0.273 OA
ATOM      5  H   UNL     1       0.148  -3.402  10.233  1.00  0.00     0.163 HD
BRANCH   3   6
ATOM      6  C   UNL     1      -1.902  -0.799   9.523  1.00  0.00     0.221 C 
BRANCH   6   7
ATOM      7  N   UNL     1      -2.936  -1.318   8.613  1.00  0.00    -0.312 N 
BRANCH   7   8
ATOM      8  C   UNL     1      -4.205  -1.698   9.249  1.00  0.00     0.149 C 
BRANCH   8   9
ATOM      9  C   UNL     1      -5.350  -0.834   8.808  1.00  0.00    -0.013 C 
ATOM     10  C   UNL     1      -6.503  -1.342   8.345  1.00  0.00     0.006 C 
ENDBRANCH   8   9
ENDBRANCH   7   8
BRANCH   7  11
ATOM     11  C   UNL     1      -2.856  -1.568   7.245  1.00  0.00     0.320 C 
ATOM     12  O   UNL     1      -3.845  -2.053   6.689  1.00  0.00    -0.248 OA
BRANCH  11  13
ATOM     13  N   UNL     1      -1.704  -1.318   6.513  1.00  0.00    -0.319 N 
ATOM     14  C   UNL     1      -0.783  -0.224   6.795  1.00  0.00     0.149 C 
BRANCH  13  15
ATOM     15  C   UNL     1      -1.542  -1.885   5.126  1.00  0.00     0.141 C 
ATOM     16  C   UNL     1      -0.079  -2.304   4.836  1.00  0.00     0.037 C 
ATOM     17  C   UNL     1      -2.422  -3.091   4.672  1.00  0.00     0.287 C 
ATOM     18  C   UNL     1       0.263  -3.624   5.528  1.00  0.00     0.064 C 
ATOM     19  N   UNL     1      -2.099  -4.343   5.385  1.00  0.00    -0.336 N 
ATOM     20  C   UNL     1      -0.711  -4.737   5.131  1.00  0.00     0.262 C 
ATOM     21  C   UNL     1      -3.029  -5.396   4.979  1.00  0.00     0.332 C 
ATOM     22  H   UNL     1      -2.199  -4.193   6.389  1.00  0.00     0.347 HD
ENDBRANCH  13  15
ENDBRANCH  11  13
ENDBRANCH   7  11
ENDBRANCH   6   7
ENDBRANCH   3   6
ENDBRANCH   1   2
BRANCH   1  23
ATOM     23  C   UNL     1      -2.318  -4.741   9.988  1.00  0.00     0.042 C 
BRANCH  23  24
ATOM     24  C   UNL     1      -1.303  -5.865   9.803  1.00  0.00     0.118 C 
BRANCH  24  25
ATOM     25  N   UNL     1      -0.863  -6.443  11.071  1.00  0.00    -0.352 N 
ATOM     26  C   UNL     1      -1.007  -7.707  11.576  1.00  0.00     0.251 C 
ATOM     27  H   UNL     1      -0.383  -5.818  11.661  1.00  0.00     0.163 HD
ATOM     28  O   UNL     1      -0.733  -7.918  12.761  1.00  0.00    -0.269 OA
BRANCH  26  29
ATOM     29  C   UNL     1      -1.495  -8.816  10.734  1.00  0.00     0.039 A 
ATOM     30  C   UNL     1      -2.384  -9.743  11.286  1.00  0.00     0.014 A 
ATOM     31  C   UNL     1      -1.057  -8.969   9.416  1.00  0.00     0.014 A 
ATOM     32  C   UNL     1      -2.892 -10.775  10.495  1.00  0.00     0.010 A 
ATOM     33  C   UNL     1      -1.622  -9.951   8.607  1.00  0.00     0.010 A 
ATOM     34  C   UNL     1      -2.549 -10.860   9.136  1.00  0.00    -0.014 A 
BRANCH  34  35
ATOM     35  C   UNL     1      -3.175 -11.868   8.245  1.00  0.00     0.031 A 
ATOM     36  C   UNL     1      -2.340 -12.929   7.587  1.00  0.00     0.074 A 
ATOM     37  C   UNL     1      -4.490 -11.773   7.967  1.00  0.00     0.049 A 
ATOM     38  N   UNL     1      -2.697 -13.837   6.713  1.00  0.00    -0.248 NA
ATOM     39  C   UNL     1      -0.911 -12.958   7.934  1.00  0.00     0.031 C 
ATOM     40  C   UNL     1      -5.397 -10.756   8.504  1.00  0.00     0.029 A 
ATOM     41  N   UNL     1      -5.289 -12.532   7.150  1.00  0.00    -0.354 N 
ATOM     42  C   UNL     1      -1.538 -14.534   6.397  1.00  0.00     0.074 A 
ATOM     43  C   UNL     1      -0.458 -13.914   7.136  1.00  0.00     0.031 C 
ATOM     44  C   UNL     1      -6.630 -10.965   8.017  1.00  0.00     0.029 A 
ATOM     45  C   UNL     1      -6.593 -12.101   7.102  1.00  0.00     0.049 A 
ATOM     46  H   UNL     1      -4.960 -13.311   6.646  1.00  0.00     0.167 HD
ATOM     47  C   UNL     1      -1.391 -15.604   5.580  1.00  0.00     0.037 A 
ATOM     48  C   UNL     1      -7.639 -12.559   6.390  1.00  0.00     0.037 A 
ATOM     49  C   UNL     1      -2.472 -16.228   4.861  1.00  0.00     0.049 A 
ATOM     50  C   UNL     1      -7.447 -13.740   5.481  1.00  0.00     0.074 A 
ATOM     51  C   UNL     1      -2.436 -17.358   4.062  1.00  0.00     0.029 A 
ATOM     52  N   UNL     1      -3.781 -15.771   4.848  1.00  0.00    -0.354 N 
ATOM     53  N   UNL     1      -6.360 -14.435   5.247  1.00  0.00    -0.248 NA
ATOM     54  C   UNL     1      -8.628 -14.203   4.739  1.00  0.00     0.031 C 
ATOM     55  C   UNL     1      -3.713 -17.556   3.526  1.00  0.00     0.029 A 
ATOM     56  C   UNL     1      -4.556 -16.579   4.032  1.00  0.00     0.049 A 
ATOM     57  H   UNL     1      -4.111 -14.988   5.346  1.00  0.00     0.167 HD
ATOM     58  C   UNL     1      -6.729 -15.428   4.350  1.00  0.00     0.074 A 
ATOM     59  C   UNL     1      -8.145 -15.257   4.096  1.00  0.00     0.031 C 
ATOM     60  C   UNL     1      -5.964 -16.394   3.785  1.00  0.00     0.037 A 
BRANCH  47  61
ATOM     61  C   UNL     1      -0.009 -16.168   5.418  1.00  0.00     0.057 A 
ATOM     62  C   UNL     1       0.638 -16.852   6.456  1.00  0.00     0.134 A 
ATOM     63  C   UNL     1       0.670 -16.059   4.197  1.00  0.00     0.134 A 
ATOM     64  F   UNL     1       0.048 -16.984   7.654  1.00  0.00    -0.206 F 
ATOM     65  C   UNL     1       1.919 -17.383   6.295  1.00  0.00     0.040 A 
ATOM     66  C   UNL     1       1.940 -16.609   4.016  1.00  0.00     0.040 A 
ATOM     67  F   UNL     1       0.107 -15.423   3.159  1.00  0.00    -0.206 F 
ATOM     68  C   UNL     1       2.571 -17.268   5.069  1.00  0.00     0.006 A 
ENDBRANCH  47  61
BRANCH  48  69
ATOM     69  C   UNL     1      -8.965 -11.905   6.518  1.00  0.00     0.057 A 
ATOM     70  C   UNL     1     -10.029 -12.552   7.157  1.00  0.00     0.134 A 
ATOM     71  C   UNL     1      -9.200 -10.622   6.012  1.00  0.00     0.134 A 
ATOM     72  F   UNL     1      -9.870 -13.791   7.646  1.00  0.00    -0.206 F 
ATOM     73  C   UNL     1     -11.285 -11.954   7.273  1.00  0.00     0.040 A 
ATOM     74  C   UNL     1     -10.443 -10.001   6.143  1.00  0.00     0.040 A 
ATOM     75  F   UNL     1      -8.219  -9.946   5.396  1.00  0.00    -0.206 F 
ATOM     76  C   UNL     1     -11.492 -10.671   6.770  1.00  0.00     0.006 A 
ENDBRANCH  48  69
BRANCH  60  77
ATOM     77  C   UNL     1      -6.649 -17.353   2.856  1.00  0.00     0.057 A 
ATOM     78  C   UNL     1      -7.077 -16.966   1.580  1.00  0.00     0.134 A 
ATOM     79  C   UNL     1      -6.853 -18.687   3.230  1.00  0.00     0.134 A 
ATOM     80  F   UNL     1      -6.923 -15.699   1.166  1.00  0.00    -0.206 F 
ATOM     81  C   UNL     1      -7.706 -17.866   0.718  1.00  0.00     0.040 A 
ATOM     82  C   UNL     1      -7.456 -19.603   2.367  1.00  0.00     0.040 A 
ATOM     83  F   UNL     1      -6.460 -19.125   4.436  1.00  0.00    -0.206 F 
ATOM     84  C   UNL     1      -7.890 -19.191   1.109  1.00  0.00     0.006 A 
ENDBRANCH  60  77
ENDBRANCH  34  35
ENDBRANCH  26  29
ENDBRANCH  24  25
ENDBRANCH  23  24
ENDBRANCH   1  23
TORSDOF 16
