REMARK SMILES O=C(NCCCNC(=O)c1nn(Cc2ccc(F)cc2)c2c1CN(C(=O)[C@H]1CC1(F)F)CC2)c1ccc(-c2c3nc(c(-c4c(F)cccc4F)c4ccc([nH]4)c(-c4c(F)cccc4F)c4nc(c(-c5c(F)cccc5F)c5ccc2[nH]5)C=C4)C=C3)cc1
REMARK SMILES IDX 5 1 4 2 3 3 1 4 2 5 34 7 35 8 87 9 36 10 86 11 37 12 38 13
REMARK SMILES IDX 39 14 80 15 40 16 85 17 79 18 81 19 41 20 84 21 78 22 77 23
REMARK SMILES IDX 42 25 68 26 51 27 67 28 52 29 55 30 66 31 82 32 53 33 54 34
REMARK SMILES IDX 65 36 83 37 56 38 43 39 44 40 49 41 45 42 46 43 48 44 50 45
REMARK SMILES IDX 47 46 69 47 70 48 75 49 71 50 72 51 74 52 76 53 73 54 57 55
REMARK SMILES IDX 58 56 63 57 59 58 60 59 62 60 64 61 61 62 6 63 7 64 8 65
REMARK SMILES IDX 9 67 10 68 11 69 22 70 12 71 21 72 23 73 33 74 24 75 32 76
REMARK SMILES IDX 13 77 14 78 15 79 20 80 16 81 19 82 17 83 18 84 25 85 26 86
REMARK SMILES IDX 27 87 28 88 29 89 30 90 31 91
REMARK H PARENT 3 6 81 24 55 35 7 66
REMARK Flexibility Score: inf
ROOT
ATOM      1  C   UNL     1      15.624 -13.796   7.893  1.00  0.00     0.042 C 
ENDROOT
BRANCH   1   2
ATOM      2  C   UNL     1      17.078 -14.059   7.505  1.00  0.00     0.118 C 
BRANCH   2   3
ATOM      3  N   UNL     1      17.821 -14.921   8.402  1.00  0.00    -0.352 N 
ATOM      4  O   UNL     1      18.979 -16.625   9.199  1.00  0.00    -0.269 OA
ATOM      5  C   UNL     1      18.043 -16.268   8.477  1.00  0.00     0.251 C 
ATOM      6  H   UNL     1      18.269 -14.421   9.123  1.00  0.00     0.163 HD
BRANCH   5   7
ATOM      7  C   UNL     1      17.188 -17.316   7.860  1.00  0.00     0.039 A 
ATOM      8  C   UNL     1      16.319 -17.153   6.780  1.00  0.00     0.014 A 
ATOM      9  C   UNL     1      17.263 -18.580   8.479  1.00  0.00     0.014 A 
ATOM     10  C   UNL     1      15.473 -18.199   6.399  1.00  0.00     0.010 A 
ATOM     11  C   UNL     1      16.424 -19.620   8.106  1.00  0.00     0.010 A 
ATOM     12  C   UNL     1      15.495 -19.416   7.092  1.00  0.00    -0.014 A 
BRANCH  12  13
ATOM     13  C   UNL     1      14.667 -20.531   6.631  1.00  0.00     0.031 A 
ATOM     14  C   UNL     1      15.099 -21.106   5.322  1.00  0.00     0.074 A 
ATOM     15  C   UNL     1      13.721 -21.124   7.394  1.00  0.00     0.049 A 
ATOM     16  N   UNL     1      14.427 -21.177   4.219  1.00  0.00    -0.248 NA
ATOM     17  C   UNL     1      16.497 -21.559   5.194  1.00  0.00     0.031 C 
ATOM     18  C   UNL     1      13.398 -20.860   8.799  1.00  0.00     0.029 A 
ATOM     19  N   UNL     1      12.893 -22.168   7.094  1.00  0.00    -0.354 N 
ATOM     20  C   UNL     1      15.247 -21.843   3.308  1.00  0.00     0.074 A 
ATOM     21  C   UNL     1      16.551 -21.921   3.911  1.00  0.00     0.031 C 
ATOM     22  C   UNL     1      12.619 -21.857   9.281  1.00  0.00     0.029 A 
ATOM     23  C   UNL     1      12.273 -22.757   8.195  1.00  0.00     0.049 A 
ATOM     24  H   UNL     1      12.746 -22.480   6.172  1.00  0.00     0.167 HD
ATOM     25  C   UNL     1      14.740 -22.468   2.210  1.00  0.00     0.037 A 
ATOM     26  C   UNL     1      11.570 -23.923   8.210  1.00  0.00     0.037 A 
ATOM     27  C   UNL     1      13.405 -22.024   1.921  1.00  0.00     0.049 A 
ATOM     28  C   UNL     1      11.179 -24.220   6.811  1.00  0.00     0.074 A 
ATOM     29  C   UNL     1      12.836 -20.818   1.564  1.00  0.00     0.029 A 
ATOM     30  N   UNL     1      12.370 -22.817   2.344  1.00  0.00    -0.354 N 
ATOM     31  N   UNL     1      10.322 -23.515   6.129  1.00  0.00    -0.248 NA
ATOM     32  C   UNL     1      12.089 -25.040   6.027  1.00  0.00     0.031 C 
ATOM     33  C   UNL     1      11.589 -20.785   2.251  1.00  0.00     0.029 A 
ATOM     34  C   UNL     1      11.437 -21.998   2.923  1.00  0.00     0.049 A 
ATOM     35  H   UNL     1      12.308 -23.796   2.249  1.00  0.00     0.167 HD
ATOM     36  C   UNL     1      10.865 -23.450   4.856  1.00  0.00     0.074 A 
ATOM     37  C   UNL     1      11.917 -24.465   4.835  1.00  0.00     0.031 C 
ATOM     38  C   UNL     1      10.608 -22.389   4.038  1.00  0.00     0.037 A 
BRANCH  25  39
ATOM     39  C   UNL     1      15.309 -23.726   1.607  1.00  0.00     0.057 A 
ATOM     40  C   UNL     1      16.079 -24.658   2.331  1.00  0.00     0.134 A 
ATOM     41  C   UNL     1      14.840 -24.177   0.360  1.00  0.00     0.134 A 
ATOM     42  F   UNL     1      16.502 -24.417   3.578  1.00  0.00    -0.206 F 
ATOM     43  C   UNL     1      16.368 -25.938   1.851  1.00  0.00     0.040 A 
ATOM     44  C   UNL     1      15.081 -25.475  -0.108  1.00  0.00     0.040 A 
ATOM     45  F   UNL     1      14.067 -23.395  -0.409  1.00  0.00    -0.206 F 
ATOM     46  C   UNL     1      15.846 -26.362   0.640  1.00  0.00     0.006 A 
ENDBRANCH  25  39
BRANCH  26  47
ATOM     47  C   UNL     1      11.518 -24.983   9.252  1.00  0.00     0.057 A 
ATOM     48  C   UNL     1      12.586 -25.190  10.141  1.00  0.00     0.134 A 
ATOM     49  C   UNL     1      10.570 -26.020   9.185  1.00  0.00     0.134 A 
ATOM     50  F   UNL     1      13.583 -24.300  10.242  1.00  0.00    -0.206 F 
ATOM     51  C   UNL     1      12.726 -26.367  10.887  1.00  0.00     0.040 A 
ATOM     52  C   UNL     1      10.701 -27.206   9.924  1.00  0.00     0.040 A 
ATOM     53  F   UNL     1       9.532 -25.941   8.340  1.00  0.00    -0.206 F 
ATOM     54  C   UNL     1      11.792 -27.389  10.767  1.00  0.00     0.006 A 
ENDBRANCH  26  47
BRANCH  38  55
ATOM     55  C   UNL     1       9.535 -21.417   4.448  1.00  0.00     0.057 A 
ATOM     56  C   UNL     1       8.487 -21.174   3.554  1.00  0.00     0.134 A 
ATOM     57  C   UNL     1       9.602 -20.597   5.585  1.00  0.00     0.134 A 
ATOM     58  F   UNL     1       8.388 -21.887   2.420  1.00  0.00    -0.206 F 
ATOM     59  C   UNL     1       7.557 -20.155   3.766  1.00  0.00     0.040 A 
ATOM     60  C   UNL     1       8.655 -19.595   5.828  1.00  0.00     0.040 A 
ATOM     61  F   UNL     1      10.614 -20.696   6.456  1.00  0.00    -0.206 F 
ATOM     62  C   UNL     1       7.636 -19.364   4.909  1.00  0.00     0.006 A 
ENDBRANCH  38  55
ENDBRANCH  12  13
ENDBRANCH   5   7
ENDBRANCH   2   3
ENDBRANCH   1   2
BRANCH   1  63
ATOM     63  C   UNL     1      15.422 -13.068   9.228  1.00  0.00     0.118 C 
BRANCH  63  64
ATOM     64  N   UNL     1      15.972 -11.719   9.221  1.00  0.00    -0.351 N 
ATOM     65  C   UNL     1      15.361 -10.489   9.348  1.00  0.00     0.272 C 
ATOM     66  H   UNL     1      16.949 -11.679   9.106  1.00  0.00     0.163 HD
ATOM     67  O   UNL     1      16.055  -9.494   9.123  1.00  0.00    -0.267 OA
BRANCH  65  68
ATOM     68  C   UNL     1      13.938 -10.361   9.710  1.00  0.00     0.155 A 
ATOM     69  N   UNL     1      13.281 -11.260  10.472  1.00  0.00    -0.167 NA
ATOM     70  C   UNL     1      13.081  -9.261   9.405  1.00  0.00     0.026 A 
ATOM     71  N   UNL     1      12.018 -10.791  10.573  1.00  0.00    -0.264 N 
ATOM     72  C   UNL     1      11.849  -9.609   9.921  1.00  0.00     0.046 A 
ATOM     73  C   UNL     1      13.346  -7.986   8.668  1.00  0.00     0.159 C 
ATOM     74  C   UNL     1      10.618  -8.785   9.808  1.00  0.00     0.078 C 
ATOM     75  N   UNL     1      12.162  -7.102   8.796  1.00  0.00    -0.337 N 
ATOM     76  C   UNL     1      10.836  -7.743   8.691  1.00  0.00     0.126 C 
BRANCH  71  77
ATOM     77  C   UNL     1      11.056 -11.490  11.417  1.00  0.00     0.180 C 
BRANCH  77  78
ATOM     78  C   UNL     1      10.606 -12.796  10.807  1.00  0.00    -0.026 A 
ATOM     79  C   UNL     1      11.438 -13.927  10.875  1.00  0.00     0.008 A 
ATOM     80  C   UNL     1       9.362 -12.902  10.165  1.00  0.00     0.008 A 
ATOM     81  C   UNL     1      11.036 -15.139  10.316  1.00  0.00     0.039 A 
ATOM     82  C   UNL     1       8.960 -14.119   9.610  1.00  0.00     0.039 A 
ATOM     83  C   UNL     1       9.800 -15.225   9.691  1.00  0.00     0.123 A 
ATOM     84  F   UNL     1       9.409 -16.389   9.156  1.00  0.00    -0.207 F 
ENDBRANCH  77  78
ENDBRANCH  71  77
BRANCH  75  85
ATOM     85  C   UNL     1      12.377  -5.735   8.942  1.00  0.00     0.232 C 
ATOM     86  O   UNL     1      13.482  -5.222   8.922  1.00  0.00    -0.274 OA
BRANCH  85  87
ATOM     87  C   UNL     1      11.179  -4.878   9.093  1.00  0.00     0.154 C 
ATOM     88  C   UNL     1      10.499  -4.738  10.446  1.00  0.00     0.097 C 
ATOM     89  C   UNL     1      11.255  -3.608   9.855  1.00  0.00     0.260 C 
ATOM     90  F   UNL     1      12.386  -3.163  10.494  1.00  0.00    -0.206 F 
ATOM     91  F   UNL     1      10.561  -2.496   9.432  1.00  0.00    -0.206 F 
ENDBRANCH  85  87
ENDBRANCH  75  85
ENDBRANCH  65  68
ENDBRANCH  63  64
ENDBRANCH   1  63
TORSDOF 14
