REMARK SMILES NS(=O)(=O)c1ccc(-n2nc(NC(=O)NCCCC(=O)NCCCNC(=O)c3ccc(-c4c5nc(c(-c6c(F)cccc6F)c6ccc([nH]6)c(-c6c(F)cccc6F)c6nc(c(-c7c(F)cccc7F)c7ccc4[nH]7)C=C6)C=C5)cc3)cc2-c2ccccc2)cc1
REMARK SMILES IDX 19 1 20 2 21 3 18 5 17 6 16 7 15 8 12 9 13 10 14 12 11 14
REMARK SMILES IDX 9 15 10 16 83 17 82 18 8 19 5 20 6 21 91 22 7 23 90 24 2 25
REMARK SMILES IDX 3 26 4 27 1 28 84 31 85 32 89 33 86 34 88 35 87 36 22 37
REMARK SMILES IDX 23 38 24 39 25 40 26 41 27 43 28 44 29 45 81 46 30 47 80 48
REMARK SMILES IDX 31 49 32 50 33 51 74 52 34 53 79 54 73 55 75 56 35 57 78 58
REMARK SMILES IDX 72 59 71 60 36 62 62 63 45 64 61 65 46 66 49 67 60 68 76 69
REMARK SMILES IDX 47 70 48 71 59 73 77 74 50 75 37 76 38 77 43 78 39 79 40 80
REMARK SMILES IDX 42 81 44 82 41 83 63 84 64 85 69 86 65 87 66 88 68 89 70 90
REMARK SMILES IDX 67 91 51 92 52 93 57 94 53 95 54 96 56 97 58 98 55 99
REMARK H PARENT 21 4 12 11 15 13 1 29 1 30 25 42 75 61 49 72
REMARK Flexibility Score: inf
ROOT
ATOM      1  C   UNL     1       4.242   4.711  -1.651  1.00  0.00     0.220 C 
ATOM      2  O   UNL     1       4.111   3.705  -0.949  1.00  0.00    -0.275 OA
ATOM      3  N   UNL     1       3.248   5.643  -1.628  1.00  0.00    -0.356 N 
ATOM      4  H   UNL     1       2.544   5.474  -0.961  1.00  0.00     0.163 HD
ENDROOT
BRANCH   1   5
ATOM      5  C   UNL     1       5.491   4.913  -2.490  1.00  0.00     0.102 C 
BRANCH   5   6
ATOM      6  C   UNL     1       5.525   4.090  -3.779  1.00  0.00     0.031 C 
BRANCH   6   7
ATOM      7  C   UNL     1       4.496   4.494  -4.825  1.00  0.00     0.118 C 
BRANCH   7   8
ATOM      8  N   UNL     1       4.594   5.867  -5.293  1.00  0.00    -0.338 N 
ATOM      9  N   UNL     1       3.129   5.910  -7.175  1.00  0.00    -0.291 N 
ATOM     10  C   UNL     1       3.997   6.504  -6.327  1.00  0.00     0.320 C 
ATOM     11  H   UNL     1       3.040   6.356  -8.049  1.00  0.00     0.173 HD
ATOM     12  O   UNL     1       4.360   7.660  -6.562  1.00  0.00    -0.248 OA
ATOM     13  H   UNL     1       5.201   6.433  -4.765  1.00  0.00     0.165 HD
BRANCH   9  14
ATOM     14  C   UNL     1       2.352   4.791  -7.022  1.00  0.00     0.157 A 
ATOM     15  N   UNL     1       1.472   3.107  -6.086  1.00  0.00    -0.231 N 
ATOM     16  N   UNL     1       1.830   4.385  -5.870  1.00  0.00    -0.149 NA
ATOM     17  C   UNL     1       1.367   2.843  -7.445  1.00  0.00     0.076 A 
ATOM     18  C   UNL     1       1.928   3.947  -8.068  1.00  0.00     0.078 A 
BRANCH  15  19
ATOM     19  C   UNL     1       1.342   2.226  -4.980  1.00  0.00     0.065 A 
ATOM     20  C   UNL     1       0.965   0.473  -2.852  1.00  0.00     0.082 A 
ATOM     21  C   UNL     1       1.654   0.040  -3.989  1.00  0.00     0.024 A 
ATOM     22  C   UNL     1       0.514   1.793  -2.747  1.00  0.00     0.024 A 
ATOM     23  C   UNL     1       1.832   0.916  -5.061  1.00  0.00     0.030 A 
ATOM     24  C   UNL     1       0.728   2.681  -3.804  1.00  0.00     0.030 A 
BRANCH  20  25
ATOM     25  S   UNL     1       0.602  -0.682  -1.562  1.00  0.00     0.238 S 
ATOM     26  O   UNL     1       1.373  -1.881  -1.762  1.00  0.00    -0.207 OA
ATOM     27  O   UNL     1      -0.835  -0.706  -1.373  1.00  0.00    -0.207 OA
BRANCH  25  28
ATOM     28  N   UNL     1       1.246   0.050  -0.201  1.00  0.00    -0.225 NA
ATOM     29  H   UNL     1       1.087  -0.545   0.612  1.00  0.00     0.137 HD
ATOM     30  H   UNL     1       0.795   0.953  -0.055  1.00  0.00     0.137 HD
ENDBRANCH  25  28
ENDBRANCH  20  25
ENDBRANCH  15  19
BRANCH  17  31
ATOM     31  C   UNL     1       0.758   1.643  -8.007  1.00  0.00     0.000 A 
ATOM     32  C   UNL     1      -0.459   1.166  -7.495  1.00  0.00     0.010 A 
ATOM     33  C   UNL     1       1.389   0.937  -9.035  1.00  0.00     0.010 A 
ATOM     34  C   UNL     1      -1.013  -0.019  -7.972  1.00  0.00     0.001 A 
ATOM     35  C   UNL     1       0.827  -0.245  -9.519  1.00  0.00     0.001 A 
ATOM     36  C   UNL     1      -0.367  -0.726  -8.983  1.00  0.00     0.000 A 
ENDBRANCH  17  31
ENDBRANCH   9  14
ENDBRANCH   7   8
ENDBRANCH   6   7
ENDBRANCH   5   6
ENDBRANCH   1   5
BRANCH   3  37
ATOM     37  C   UNL     1       3.052   6.851  -2.426  1.00  0.00     0.117 C 
BRANCH  37  38
ATOM     38  C   UNL     1       1.976   6.661  -3.496  1.00  0.00     0.042 C 
BRANCH  38  39
ATOM     39  C   UNL     1       0.551   6.698  -2.990  1.00  0.00     0.118 C 
BRANCH  39  40
ATOM     40  N   UNL     1       0.057   8.049  -2.757  1.00  0.00    -0.352 N 
ATOM     41  C   UNL     1      -1.214   8.415  -2.357  1.00  0.00     0.251 C 
ATOM     42  H   UNL     1       0.699   8.782  -2.900  1.00  0.00     0.163 HD
ATOM     43  O   UNL     1      -1.647   9.535  -2.598  1.00  0.00    -0.269 OA
BRANCH  41  44
ATOM     44  C   UNL     1      -2.051   7.431  -1.643  1.00  0.00     0.039 A 
ATOM     45  C   UNL     1      -3.432   7.383  -1.841  1.00  0.00     0.014 A 
ATOM     46  C   UNL     1      -1.433   6.533  -0.774  1.00  0.00     0.014 A 
ATOM     47  C   UNL     1      -4.163   6.378  -1.213  1.00  0.00     0.010 A 
ATOM     48  C   UNL     1      -2.119   5.441  -0.305  1.00  0.00     0.010 A 
ATOM     49  C   UNL     1      -3.495   5.388  -0.468  1.00  0.00    -0.014 A 
BRANCH  49  50
ATOM     50  C   UNL     1      -4.207   4.196  -0.014  1.00  0.00     0.031 A 
ATOM     51  C   UNL     1      -4.957   3.545  -1.119  1.00  0.00     0.074 A 
ATOM     52  C   UNL     1      -4.049   3.629   1.206  1.00  0.00     0.049 A 
ATOM     53  N   UNL     1      -6.233   3.578  -1.309  1.00  0.00    -0.248 NA
ATOM     54  C   UNL     1      -4.206   2.991  -2.262  1.00  0.00     0.031 C 
ATOM     55  C   UNL     1      -3.095   4.024   2.249  1.00  0.00     0.029 A 
ATOM     56  N   UNL     1      -4.627   2.512   1.746  1.00  0.00    -0.354 N 
ATOM     57  C   UNL     1      -6.457   2.769  -2.419  1.00  0.00     0.074 A 
ATOM     58  C   UNL     1      -5.197   2.670  -3.100  1.00  0.00     0.031 C 
ATOM     59  C   UNL     1      -2.977   3.037   3.163  1.00  0.00     0.029 A 
ATOM     60  C   UNL     1      -3.970   2.019   2.877  1.00  0.00     0.049 A 
ATOM     61  H   UNL     1      -5.434   2.092   1.371  1.00  0.00     0.167 HD
ATOM     62  C   UNL     1      -7.538   1.941  -2.424  1.00  0.00     0.037 A 
ATOM     63  C   UNL     1      -4.220   0.856   3.532  1.00  0.00     0.037 A 
ATOM     64  C   UNL     1      -8.459   2.329  -1.379  1.00  0.00     0.049 A 
ATOM     65  C   UNL     1      -5.602   0.452   3.197  1.00  0.00     0.074 A 
ATOM     66  C   UNL     1      -9.326   3.368  -1.121  1.00  0.00     0.029 A 
ATOM     67  N   UNL     1      -8.174   1.732  -0.183  1.00  0.00    -0.354 N 
ATOM     68  N   UNL     1      -6.656   1.097   3.609  1.00  0.00    -0.248 NA
ATOM     69  C   UNL     1      -5.824  -0.476   2.095  1.00  0.00     0.031 C 
ATOM     70  C   UNL     1      -9.465   3.429   0.300  1.00  0.00     0.029 A 
ATOM     71  C   UNL     1      -8.733   2.391   0.872  1.00  0.00     0.049 A 
ATOM     72  H   UNL     1      -7.627   0.918  -0.093  1.00  0.00     0.167 HD
ATOM     73  C   UNL     1      -7.531   1.018   2.545  1.00  0.00     0.074 A 
ATOM     74  C   UNL     1      -7.058  -0.105   1.742  1.00  0.00     0.031 C 
ATOM     75  C   UNL     1      -8.321   2.082   2.222  1.00  0.00     0.037 A 
BRANCH  62  76
ATOM     76  C   UNL     1      -7.507   0.490  -2.890  1.00  0.00     0.057 A 
ATOM     77  C   UNL     1      -8.702  -0.257  -2.826  1.00  0.00     0.134 A 
ATOM     78  C   UNL     1      -6.340  -0.285  -3.057  1.00  0.00     0.134 A 
ATOM     79  F   UNL     1      -9.885   0.354  -2.658  1.00  0.00    -0.206 F 
ATOM     80  C   UNL     1      -8.720  -1.658  -2.836  1.00  0.00     0.040 A 
ATOM     81  C   UNL     1      -6.352  -1.683  -3.110  1.00  0.00     0.040 A 
ATOM     82  F   UNL     1      -5.113   0.243  -3.082  1.00  0.00    -0.206 F 
ATOM     83  C   UNL     1      -7.540  -2.377  -2.967  1.00  0.00     0.006 A 
ENDBRANCH  62  76
BRANCH  63  84
ATOM     84  C   UNL     1      -3.312  -0.049   4.277  1.00  0.00     0.057 A 
ATOM     85  C   UNL     1      -3.819  -1.062   5.111  1.00  0.00     0.134 A 
ATOM     86  C   UNL     1      -1.948  -0.147   3.955  1.00  0.00     0.134 A 
ATOM     87  F   UNL     1      -5.114  -1.075   5.458  1.00  0.00    -0.206 F 
ATOM     88  C   UNL     1      -3.032  -2.135   5.551  1.00  0.00     0.040 A 
ATOM     89  C   UNL     1      -1.149  -1.210   4.396  1.00  0.00     0.040 A 
ATOM     90  F   UNL     1      -1.367   0.731   3.124  1.00  0.00    -0.206 F 
ATOM     91  C   UNL     1      -1.695  -2.220   5.178  1.00  0.00     0.006 A 
ENDBRANCH  63  84
BRANCH  75  92
ATOM     92  C   UNL     1      -8.665   3.047   3.313  1.00  0.00     0.057 A 
ATOM     93  C   UNL     1      -7.748   3.857   3.997  1.00  0.00     0.134 A 
ATOM     94  C   UNL     1     -10.017   3.192   3.648  1.00  0.00     0.134 A 
ATOM     95  F   UNL     1      -6.444   3.846   3.690  1.00  0.00    -0.206 F 
ATOM     96  C   UNL     1      -8.161   4.735   5.005  1.00  0.00     0.040 A 
ATOM     97  C   UNL     1     -10.444   4.090   4.624  1.00  0.00     0.040 A 
ATOM     98  F   UNL     1     -10.953   2.474   3.007  1.00  0.00    -0.206 F 
ATOM     99  C   UNL     1      -9.512   4.856   5.317  1.00  0.00     0.006 A 
ENDBRANCH  75  92
ENDBRANCH  49  50
ENDBRANCH  41  44
ENDBRANCH  39  40
ENDBRANCH  38  39
ENDBRANCH  37  38
ENDBRANCH   3  37
TORSDOF 18
