REMARK SMILES Cc1cc(C(=O)NCCCNC(=O)c2ccc(-c3c4nc(c(-c5c(F)cccc5F)c5ccc([nH]5)c(-c5c(F)cccc5F)c5nc(c(-c6c(F)cccc6F)c6ccc3[nH]6)C=C5)C=C4)cc2)c(C#Cc2ccccc2)s1
REMARK SMILES IDX 9 1 8 2 7 3 5 4 6 5 4 7 1 8 2 9 3 10 77 11 68 12 69 13 70 14
REMARK SMILES IDX 71 15 72 16 76 17 73 18 75 19 74 20 10 21 11 22 12 23 13 25
REMARK SMILES IDX 14 26 15 27 67 28 16 29 66 30 17 31 18 32 19 33 60 34 20 35
REMARK SMILES IDX 65 36 59 37 61 38 21 39 64 40 58 41 57 42 22 44 48 45 31 46
REMARK SMILES IDX 47 47 32 48 35 49 46 50 62 51 33 52 34 53 45 55 63 56 36 57
REMARK SMILES IDX 23 58 24 59 29 60 25 61 26 62 28 63 30 64 27 65 49 66 50 67
REMARK SMILES IDX 55 68 51 69 52 70 54 71 56 72 53 73 37 74 38 75 43 76 39 77
REMARK SMILES IDX 40 78 42 79 44 80 41 81
REMARK H PARENT 7 6 11 24 61 43 35 54
REMARK Flexibility Score: inf
ROOT
ATOM      1  C   UNL     1       3.118  -5.280  -0.570  1.00  0.00     0.042 C 
ENDROOT
BRANCH   1   2
ATOM      2  C   UNL     1       1.589  -5.159  -0.546  1.00  0.00     0.118 C 
BRANCH   2   3
ATOM      3  N   UNL     1       1.042  -5.408   0.776  1.00  0.00    -0.352 N 
ATOM      4  C   UNL     1       0.475  -4.644   1.766  1.00  0.00     0.253 C 
ATOM      5  O   UNL     1       0.071  -5.295   2.733  1.00  0.00    -0.269 OA
ATOM      6  H   UNL     1       1.090  -6.359   1.024  1.00  0.00     0.163 HD
BRANCH   4   7
ATOM      7  C   UNL     1       0.335  -3.178   1.694  1.00  0.00     0.066 A 
ATOM      8  C   UNL     1       0.870   0.233   0.074  1.00  0.00     0.056 C 
ATOM      9  C   UNL     1       0.514  -0.944   0.916  1.00  0.00     0.004 A 
ATOM     10  C   UNL     1       0.901  -2.256   0.741  1.00  0.00     0.030 A 
ATOM     11  S   UNL     1      -0.464  -0.772   2.290  1.00  0.00    -0.131 S 
ATOM     12  C   UNL     1      -0.383  -2.448   2.645  1.00  0.00     0.090 A 
BRANCH  12  13
ATOM     13  C   UNL     1      -1.026  -2.934   3.834  1.00  0.00    -0.050 C 
ATOM     14  C   UNL     1      -1.557  -3.278   4.850  1.00  0.00    -0.061 C 
BRANCH  14  15
ATOM     15  C   UNL     1      -2.204  -3.667   6.071  1.00  0.00     0.025 A 
ATOM     16  C   UNL     1      -2.180  -5.002   6.481  1.00  0.00     0.017 A 
ATOM     17  C   UNL     1      -2.870  -2.715   6.847  1.00  0.00     0.017 A 
ATOM     18  C   UNL     1      -2.832  -5.385   7.656  1.00  0.00     0.001 A 
ATOM     19  C   UNL     1      -3.521  -3.099   8.021  1.00  0.00     0.001 A 
ATOM     20  C   UNL     1      -3.505  -4.434   8.423  1.00  0.00     0.000 A 
ENDBRANCH  14  15
ENDBRANCH  12  13
ENDBRANCH   4   7
ENDBRANCH   2   3
ENDBRANCH   1   2
BRANCH   1  21
ATOM     21  C   UNL     1       3.614  -6.725  -0.451  1.00  0.00     0.118 C 
BRANCH  21  22
ATOM     22  N   UNL     1       3.071  -7.611  -1.463  1.00  0.00    -0.352 N 
ATOM     23  C   UNL     1       3.442  -8.043  -2.701  1.00  0.00     0.251 C 
ATOM     24  H   UNL     1       2.212  -8.002  -1.183  1.00  0.00     0.163 HD
ATOM     25  O   UNL     1       2.705  -8.898  -3.202  1.00  0.00    -0.269 OA
BRANCH  23  26
ATOM     26  C   UNL     1       4.571  -7.523  -3.516  1.00  0.00     0.039 A 
ATOM     27  C   UNL     1       5.488  -6.545  -3.135  1.00  0.00     0.014 A 
ATOM     28  C   UNL     1       4.635  -8.032  -4.830  1.00  0.00     0.014 A 
ATOM     29  C   UNL     1       6.317  -5.966  -4.097  1.00  0.00     0.010 A 
ATOM     30  C   UNL     1       5.482  -7.485  -5.779  1.00  0.00     0.010 A 
ATOM     31  C   UNL     1       6.250  -6.386  -5.435  1.00  0.00    -0.014 A 
BRANCH  31  32
ATOM     32  C   UNL     1       7.116  -5.769  -6.438  1.00  0.00     0.031 A 
ATOM     33  C   UNL     1       8.557  -5.905  -6.098  1.00  0.00     0.074 A 
ATOM     34  C   UNL     1       6.674  -5.218  -7.593  1.00  0.00     0.049 A 
ATOM     35  N   UNL     1       9.353  -4.959  -5.726  1.00  0.00    -0.248 NA
ATOM     36  C   UNL     1       9.128  -7.254  -5.945  1.00  0.00     0.031 C 
ATOM     37  C   UNL     1       5.314  -5.176  -8.139  1.00  0.00     0.029 A 
ATOM     38  N   UNL     1       7.400  -4.598  -8.575  1.00  0.00    -0.354 N 
ATOM     39  C   UNL     1      10.590  -5.558  -5.506  1.00  0.00     0.074 A 
ATOM     40  C   UNL     1      10.349  -6.976  -5.482  1.00  0.00     0.031 C 
ATOM     41  C   UNL     1       5.349  -4.781  -9.436  1.00  0.00     0.029 A 
ATOM     42  C   UNL     1       6.707  -4.400  -9.778  1.00  0.00     0.049 A 
ATOM     43  H   UNL     1       8.334  -4.314  -8.447  1.00  0.00     0.167 HD
ATOM     44  C   UNL     1      11.734  -4.828  -5.616  1.00  0.00     0.037 A 
ATOM     45  C   UNL     1       7.240  -3.965 -10.956  1.00  0.00     0.037 A 
ATOM     46  C   UNL     1      11.443  -3.416  -5.542  1.00  0.00     0.049 A 
ATOM     47  C   UNL     1       8.497  -3.245 -10.621  1.00  0.00     0.074 A 
ATOM     48  C   UNL     1      10.901  -2.582  -4.584  1.00  0.00     0.029 A 
ATOM     49  N   UNL     1      11.347  -2.734  -6.730  1.00  0.00    -0.354 N 
ATOM     50  N   UNL     1       8.507  -2.110  -9.979  1.00  0.00    -0.248 NA
ATOM     51  C   UNL     1       9.707  -4.048 -10.510  1.00  0.00     0.031 C 
ATOM     52  C   UNL     1      10.065  -1.683  -5.311  1.00  0.00     0.029 A 
ATOM     53  C   UNL     1      10.224  -1.950  -6.671  1.00  0.00     0.049 A 
ATOM     54  H   UNL     1      11.972  -2.796  -7.489  1.00  0.00     0.167 HD
ATOM     55  C   UNL     1       9.502  -2.263  -9.026  1.00  0.00     0.074 A 
ATOM     56  C   UNL     1      10.232  -3.470  -9.425  1.00  0.00     0.031 C 
ATOM     57  C   UNL     1       9.453  -1.595  -7.836  1.00  0.00     0.037 A 
BRANCH  44  58
ATOM     58  C   UNL     1      13.009  -5.339  -6.248  1.00  0.00     0.057 A 
ATOM     59  C   UNL     1      13.083  -6.469  -7.086  1.00  0.00     0.134 A 
ATOM     60  C   UNL     1      14.118  -4.474  -6.313  1.00  0.00     0.134 A 
ATOM     61  F   UNL     1      12.109  -7.382  -7.159  1.00  0.00    -0.206 F 
ATOM     62  C   UNL     1      14.131  -6.673  -7.987  1.00  0.00     0.040 A 
ATOM     63  C   UNL     1      15.150  -4.646  -7.242  1.00  0.00     0.040 A 
ATOM     64  F   UNL     1      14.180  -3.374  -5.546  1.00  0.00    -0.206 F 
ATOM     65  C   UNL     1      15.146  -5.738  -8.100  1.00  0.00     0.006 A 
ENDBRANCH  44  58
BRANCH  45  66
ATOM     66  C   UNL     1       6.932  -4.383 -12.351  1.00  0.00     0.057 A 
ATOM     67  C   UNL     1       6.439  -5.670 -12.622  1.00  0.00     0.134 A 
ATOM     68  C   UNL     1       7.385  -3.659 -13.469  1.00  0.00     0.134 A 
ATOM     69  F   UNL     1       6.056  -6.482 -11.627  1.00  0.00    -0.206 F 
ATOM     70  C   UNL     1       6.409  -6.212 -13.915  1.00  0.00     0.040 A 
ATOM     71  C   UNL     1       7.358  -4.190 -14.771  1.00  0.00     0.040 A 
ATOM     72  F   UNL     1       7.928  -2.442 -13.320  1.00  0.00    -0.206 F 
ATOM     73  C   UNL     1       6.878  -5.476 -14.995  1.00  0.00     0.006 A 
ENDBRANCH  45  66
BRANCH  57  74
ATOM     74  C   UNL     1       8.394  -0.542  -7.663  1.00  0.00     0.057 A 
ATOM     75  C   UNL     1       8.795   0.759  -7.348  1.00  0.00     0.134 A 
ATOM     76  C   UNL     1       7.013  -0.795  -7.664  1.00  0.00     0.134 A 
ATOM     77  F   UNL     1      10.100   1.060  -7.260  1.00  0.00    -0.206 F 
ATOM     78  C   UNL     1       7.872   1.770  -7.071  1.00  0.00     0.040 A 
ATOM     79  C   UNL     1       6.076   0.215  -7.420  1.00  0.00     0.040 A 
ATOM     80  F   UNL     1       6.535  -2.033  -7.843  1.00  0.00    -0.206 F 
ATOM     81  C   UNL     1       6.507   1.504  -7.121  1.00  0.00     0.006 A 
ENDBRANCH  57  74
ENDBRANCH  31  32
ENDBRANCH  23  26
ENDBRANCH  21  22
ENDBRANCH   1  21
TORSDOF 12
