REMARK SMILES CCC1(C(=O)NCCCNC(=O)c2ccc(-c3c4nc(c(-c5c(F)cccc5F)c5ccc([nH]5)c(-c5c(F)cccc5F)c5nc(c(-c6c(F)cccc6F)c6ccc3[nH]6)C=C5)C=C4)cc2)CCN(C(=O)C[C@H]2CSCC[NH2+]2)CC1
REMARK SMILES IDX 8 1 7 2 6 3 4 4 5 5 3 7 67 8 80 9 68 10 79 11 69 12 70 13
REMARK SMILES IDX 71 14 2 15 1 16 72 17 73 18 74 19 78 20 75 21 77 22 76 25
REMARK SMILES IDX 9 26 10 27 11 28 12 30 13 31 14 32 66 33 15 34 65 35 16 36
REMARK SMILES IDX 17 37 18 38 59 39 19 40 64 41 58 42 60 43 20 44 63 45 57 46
REMARK SMILES IDX 56 47 21 49 47 50 30 51 46 52 31 53 34 54 45 55 61 56 32 57
REMARK SMILES IDX 33 58 44 60 62 61 35 62 22 63 23 64 28 65 24 66 25 67 27 68
REMARK SMILES IDX 29 69 26 70 48 71 49 72 54 73 50 74 51 75 53 76 55 77 52 78
REMARK SMILES IDX 36 79 37 80 42 81 38 82 39 83 41 84 43 85 40 86
REMARK H PARENT 6 6 78 23 78 24 10 29 60 48 34 59
REMARK Flexibility Score: inf
ROOT
ATOM      1  C   UNL     1       6.591  -7.006  -4.521  1.00  0.00     0.042 C 
ENDROOT
BRANCH   1   2
ATOM      2  C   UNL     1       5.391  -7.673  -3.857  1.00  0.00     0.117 C 
BRANCH   2   3
ATOM      3  N   UNL     1       5.710  -8.950  -3.225  1.00  0.00    -0.356 N 
ATOM      4  C   UNL     1       5.655  -9.385  -1.930  1.00  0.00     0.226 C 
ATOM      5  O   UNL     1       5.890 -10.585  -1.758  1.00  0.00    -0.274 OA
ATOM      6  H   UNL     1       6.027  -9.635  -3.857  1.00  0.00     0.163 HD
BRANCH   4   7
ATOM      7  C   UNL     1       5.292  -8.454  -0.743  1.00  0.00     0.052 C 
ATOM      8  C   UNL     1       6.286  -7.248  -0.736  1.00  0.00     0.038 C 
ATOM      9  C   UNL     1       3.815  -8.024  -0.904  1.00  0.00     0.038 C 
ATOM     10  C   UNL     1       5.751  -5.970  -0.085  1.00  0.00     0.120 C 
ATOM     11  C   UNL     1       3.468  -6.802  -0.066  1.00  0.00     0.120 C 
ATOM     12  N   UNL     1       4.359  -5.719  -0.442  1.00  0.00    -0.342 N 
ATOM     13  C   UNL     1       4.019  -4.635  -1.244  1.00  0.00     0.228 C 
ATOM     14  O   UNL     1       4.876  -3.910  -1.758  1.00  0.00    -0.275 OA
BRANCH   7  15
ATOM     15  C   UNL     1       5.492  -9.215   0.619  1.00  0.00     0.013 C 
ATOM     16  C   UNL     1       4.305 -10.024   1.141  1.00  0.00     0.005 C 
ENDBRANCH   7  15
BRANCH  13  17
ATOM     17  C   UNL     1       2.539  -4.294  -1.438  1.00  0.00     0.166 C 
BRANCH  17  18
ATOM     18  C   UNL     1       1.895  -4.771  -2.761  1.00  0.00     0.201 C 
ATOM     19  C   UNL     1       2.387  -3.902  -3.938  1.00  0.00     0.135 C 
ATOM     20  N   UNL     1       2.067  -6.224  -2.925  1.00  0.00    -0.342 N 
ATOM     21  S   UNL     1       1.631  -4.385  -5.523  1.00  0.00    -0.150 SA
ATOM     22  C   UNL     1       1.574  -6.787  -4.185  1.00  0.00     0.271 C 
ATOM     23  H   UNL     1       1.572  -6.686  -2.162  1.00  0.00     0.346 HD
ATOM     24  H   UNL     1       3.074  -6.386  -2.925  1.00  0.00     0.346 HD
ATOM     25  C   UNL     1       2.108  -6.132  -5.458  1.00  0.00     0.131 C 
ENDBRANCH  17  18
ENDBRANCH  13  17
ENDBRANCH   4   7
ENDBRANCH   2   3
ENDBRANCH   1   2
BRANCH   1  26
ATOM     26  C   UNL     1       7.150  -7.753  -5.723  1.00  0.00     0.118 C 
BRANCH  26  27
ATOM     27  N   UNL     1       6.229  -7.786  -6.852  1.00  0.00    -0.352 N 
ATOM     28  C   UNL     1       6.338  -7.242  -8.108  1.00  0.00     0.251 C 
ATOM     29  H   UNL     1       5.393  -8.278  -6.687  1.00  0.00     0.163 HD
ATOM     30  O   UNL     1       5.356  -7.246  -8.851  1.00  0.00    -0.269 OA
BRANCH  28  31
ATOM     31  C   UNL     1       7.607  -6.639  -8.574  1.00  0.00     0.039 A 
ATOM     32  C   UNL     1       7.559  -5.464  -9.332  1.00  0.00     0.014 A 
ATOM     33  C   UNL     1       8.840  -7.233  -8.298  1.00  0.00     0.014 A 
ATOM     34  C   UNL     1       8.746  -4.850  -9.744  1.00  0.00     0.010 A 
ATOM     35  C   UNL     1      10.022  -6.573  -8.629  1.00  0.00     0.010 A 
ATOM     36  C   UNL     1       9.990  -5.376  -9.359  1.00  0.00    -0.014 A 
BRANCH  36  37
ATOM     37  C   UNL     1      11.263  -4.688  -9.703  1.00  0.00     0.031 A 
ATOM     38  C   UNL     1      12.295  -5.376 -10.557  1.00  0.00     0.074 A 
ATOM     39  C   UNL     1      11.525  -3.471  -9.184  1.00  0.00     0.049 A 
ATOM     40  N   UNL     1      13.494  -4.971 -10.893  1.00  0.00    -0.248 NA
ATOM     41  C   UNL     1      11.946  -6.707 -11.078  1.00  0.00     0.031 C 
ATOM     42  C   UNL     1      10.635  -2.719  -8.297  1.00  0.00     0.029 A 
ATOM     43  N   UNL     1      12.625  -2.659  -9.312  1.00  0.00    -0.354 N 
ATOM     44  C   UNL     1      14.046  -6.002 -11.644  1.00  0.00     0.074 A 
ATOM     45  C   UNL     1      13.072  -7.071 -11.674  1.00  0.00     0.031 C 
ATOM     46  C   UNL     1      11.215  -1.552  -7.976  1.00  0.00     0.029 A 
ATOM     47  C   UNL     1      12.534  -1.489  -8.596  1.00  0.00     0.049 A 
ATOM     48  H   UNL     1      13.405  -2.893  -9.866  1.00  0.00     0.167 HD
ATOM     49  C   UNL     1      15.247  -6.046 -12.268  1.00  0.00     0.037 A 
ATOM     50  C   UNL     1      13.420  -0.486  -8.441  1.00  0.00     0.037 A 
ATOM     51  C   UNL     1      16.202  -4.969 -12.262  1.00  0.00     0.049 A 
ATOM     52  C   UNL     1      14.746  -0.560  -9.148  1.00  0.00     0.074 A 
ATOM     53  C   UNL     1      17.412  -4.888 -12.931  1.00  0.00     0.029 A 
ATOM     54  N   UNL     1      16.060  -3.789 -11.549  1.00  0.00    -0.354 N 
ATOM     55  N   UNL     1      15.218  -1.505  -9.924  1.00  0.00    -0.248 NA
ATOM     56  C   UNL     1      15.660   0.577  -8.964  1.00  0.00     0.031 C 
ATOM     57  C   UNL     1      18.028  -3.685 -12.576  1.00  0.00     0.029 A 
ATOM     58  C   UNL     1      17.175  -2.988 -11.736  1.00  0.00     0.049 A 
ATOM     59  H   UNL     1      15.283  -3.555 -10.992  1.00  0.00     0.167 HD
ATOM     60  C   UNL     1      16.468  -1.066 -10.342  1.00  0.00     0.074 A 
ATOM     61  C   UNL     1      16.673   0.239  -9.749  1.00  0.00     0.031 C 
ATOM     62  C   UNL     1      17.364  -1.687 -11.147  1.00  0.00     0.037 A 
BRANCH  49  63
ATOM     63  C   UNL     1      15.605  -7.301 -13.011  1.00  0.00     0.057 A 
ATOM     64  C   UNL     1      14.962  -7.669 -14.200  1.00  0.00     0.134 A 
ATOM     65  C   UNL     1      16.648  -8.123 -12.563  1.00  0.00     0.134 A 
ATOM     66  F   UNL     1      13.949  -6.933 -14.682  1.00  0.00    -0.206 F 
ATOM     67  C   UNL     1      15.327  -8.819 -14.904  1.00  0.00     0.040 A 
ATOM     68  C   UNL     1      17.042  -9.258 -13.273  1.00  0.00     0.040 A 
ATOM     69  F   UNL     1      17.313  -7.826 -11.436  1.00  0.00    -0.206 F 
ATOM     70  C   UNL     1      16.377  -9.612 -14.445  1.00  0.00     0.006 A 
ENDBRANCH  49  63
BRANCH  50  71
ATOM     71  C   UNL     1      13.085   0.680  -7.582  1.00  0.00     0.057 A 
ATOM     72  C   UNL     1      12.889   1.953  -8.129  1.00  0.00     0.134 A 
ATOM     73  C   UNL     1      12.976   0.554  -6.191  1.00  0.00     0.134 A 
ATOM     74  F   UNL     1      12.999   2.143  -9.453  1.00  0.00    -0.206 F 
ATOM     75  C   UNL     1      12.624   3.064  -7.325  1.00  0.00     0.040 A 
ATOM     76  C   UNL     1      12.681   1.650  -5.378  1.00  0.00     0.040 A 
ATOM     77  F   UNL     1      13.146  -0.639  -5.604  1.00  0.00    -0.206 F 
ATOM     78  C   UNL     1      12.515   2.912  -5.945  1.00  0.00     0.006 A 
ENDBRANCH  50  71
BRANCH  62  79
ATOM     79  C   UNL     1      18.633  -0.949 -11.466  1.00  0.00     0.057 A 
ATOM     80  C   UNL     1      19.635  -0.745 -10.509  1.00  0.00     0.134 A 
ATOM     81  C   UNL     1      18.870  -0.472 -12.762  1.00  0.00     0.134 A 
ATOM     82  F   UNL     1      19.466  -1.166  -9.246  1.00  0.00    -0.206 F 
ATOM     83  C   UNL     1      20.817  -0.072 -10.823  1.00  0.00     0.040 A 
ATOM     84  C   UNL     1      20.060   0.175 -13.096  1.00  0.00     0.040 A 
ATOM     85  F   UNL     1      17.957  -0.643 -13.729  1.00  0.00    -0.206 F 
ATOM     86  C   UNL     1      21.035   0.383 -12.123  1.00  0.00     0.006 A 
ENDBRANCH  62  79
ENDBRANCH  36  37
ENDBRANCH  28  31
ENDBRANCH  26  27
ENDBRANCH   1  26
TORSDOF 13
