REMARK SMILES COc1ccc(C(=O)NCCCNC(=O)c2ccc(-c3c4nc(c(-c5c(F)cccc5F)c5ccc([nH]5)c(-c5c(F)cccc5F)c5nc(c(-c6c(F)cccc6F)c6ccc3[nH]6)C=C5)C=C4)cc2)cc1NC(=S)NC(=O)c1cccc(C)c1OC
REMARK SMILES IDX 7 1 8 2 9 3 6 5 3 6 4 7 71 8 5 9 70 10 2 11 1 12 72 13 73 15
REMARK SMILES IDX 74 16 75 17 76 18 77 20 78 21 79 22 84 23 80 24 82 25 81 26
REMARK SMILES IDX 83 27 85 28 86 29 10 30 11 31 12 32 13 33 14 34 15 36 16 37
REMARK SMILES IDX 17 38 69 39 18 40 68 41 19 42 20 43 21 44 62 45 22 46 67 47
REMARK SMILES IDX 61 48 63 49 23 50 66 51 60 52 59 53 24 55 50 56 33 57 49 58
REMARK SMILES IDX 34 59 37 60 48 61 64 62 35 63 36 64 47 66 65 67 38 68 25 69
REMARK SMILES IDX 26 70 31 71 27 72 28 73 30 74 32 75 29 76 51 77 52 78 57 79
REMARK SMILES IDX 53 80 54 81 56 82 58 83 55 84 39 85 40 86 45 87 41 88 42 89
REMARK SMILES IDX 44 90 46 91 43 92
REMARK H PARENT 9 4 72 14 75 19 13 35 63 54 37 65
REMARK Flexibility Score: inf
ROOT
ATOM      1  C   UNL     1       1.358  -3.665  -4.414  1.00  0.00     0.251 C 
ATOM      2  O   UNL     1       0.569  -4.219  -5.272  1.00  0.00    -0.269 OA
ATOM      3  N   UNL     1       2.445  -3.772  -5.440  1.00  0.00    -0.352 N 
ATOM      4  H   UNL     1       2.044  -4.253  -6.200  1.00  0.00     0.163 HD
ENDROOT
BRANCH   1   5
ATOM      5  C   UNL     1       1.135  -2.965  -2.399  1.00  0.00     0.042 A 
ATOM      6  C   UNL     1       1.089  -1.934   0.503  1.00  0.00     0.142 A 
ATOM      7  C   UNL     1       0.005  -2.611  -0.014  1.00  0.00     0.049 A 
ATOM      8  C   UNL     1       2.220  -1.916  -0.249  1.00  0.00     0.084 A 
ATOM      9  C   UNL     1       0.063  -3.157  -1.341  1.00  0.00     0.018 A 
ATOM     10  C   UNL     1       2.045  -2.112  -1.596  1.00  0.00     0.044 A 
BRANCH   6  11
ATOM     11  O   UNL     1       0.961  -1.170   1.626  1.00  0.00    -0.495 OA
ATOM     12  C   UNL     1       0.956   0.214   1.218  1.00  0.00     0.278 C 
ENDBRANCH   6  11
BRANCH   8  13
ATOM     13  N   UNL     1       3.506  -1.551   0.165  1.00  0.00    -0.329 N 
ATOM     14  H   UNL     1       3.560  -1.145   1.060  1.00  0.00     0.169 HD
BRANCH  13  15
ATOM     15  C   UNL     1       4.695  -1.677  -0.490  1.00  0.00     0.177 C 
ATOM     16  S   UNL     1       6.030  -0.902   0.166  1.00  0.00    -0.040 S 
BRANCH  15  17
ATOM     17  N   UNL     1       4.930  -2.469  -1.616  1.00  0.00    -0.299 N 
ATOM     18  C   UNL     1       4.372  -3.468  -2.459  1.00  0.00     0.261 C 
ATOM     19  H   UNL     1       5.827  -2.251  -1.958  1.00  0.00     0.172 HD
ATOM     20  O   UNL     1       4.980  -4.541  -2.518  1.00  0.00    -0.269 OA
BRANCH  18  21
ATOM     21  C   UNL     1       3.066  -3.373  -3.218  1.00  0.00     0.082 A 
ATOM     22  C   UNL     1       2.058  -4.853  -2.872  1.00  0.00     0.018 A 
ATOM     23  C   UNL     1       2.231  -1.869  -3.926  1.00  0.00     0.134 A 
ATOM     24  C   UNL     1       0.267  -4.845  -3.124  1.00  0.00     0.001 A 
ATOM     25  C   UNL     1       0.417  -1.848  -4.093  1.00  0.00    -0.008 A 
ATOM     26  C   UNL     1      -0.570  -3.316  -3.704  1.00  0.00     0.007 A 
ATOM     27  C   UNL     1      -0.314  -0.535  -4.131  1.00  0.00     0.048 C 
BRANCH  23  28
ATOM     28  O   UNL     1       2.734  -0.596  -4.079  1.00  0.00    -0.496 OA
ATOM     29  C   UNL     1       4.123  -0.368  -4.191  1.00  0.00     0.278 C 
ENDBRANCH  23  28
ENDBRANCH  18  21
ENDBRANCH  15  17
ENDBRANCH  13  15
ENDBRANCH   8  13
ENDBRANCH   1   5
BRANCH   3  30
ATOM     30  C   UNL     1       3.843  -3.490  -5.839  1.00  0.00     0.118 C 
BRANCH  30  31
ATOM     31  C   UNL     1       4.846  -4.558  -5.418  1.00  0.00     0.042 C 
BRANCH  31  32
ATOM     32  C   UNL     1       5.593  -5.251  -6.543  1.00  0.00     0.118 C 
BRANCH  32  33
ATOM     33  N   UNL     1       6.445  -4.345  -7.299  1.00  0.00    -0.352 N 
ATOM     34  C   UNL     1       7.805  -4.296  -7.474  1.00  0.00     0.251 C 
ATOM     35  H   UNL     1       5.954  -3.636  -7.774  1.00  0.00     0.163 HD
ATOM     36  O   UNL     1       8.281  -3.311  -8.037  1.00  0.00    -0.269 OA
BRANCH  34  37
ATOM     37  C   UNL     1       8.719  -5.369  -7.000  1.00  0.00     0.039 A 
ATOM     38  C   UNL     1      10.027  -5.012  -6.648  1.00  0.00     0.014 A 
ATOM     39  C   UNL     1       8.356  -6.716  -6.960  1.00  0.00     0.014 A 
ATOM     40  C   UNL     1      10.937  -5.984  -6.217  1.00  0.00     0.010 A 
ATOM     41  C   UNL     1       9.229  -7.671  -6.435  1.00  0.00     0.010 A 
ATOM     42  C   UNL     1      10.537  -7.321  -6.073  1.00  0.00    -0.014 A 
BRANCH  42  43
ATOM     43  C   UNL     1      11.477  -8.353  -5.560  1.00  0.00     0.031 A 
ATOM     44  C   UNL     1      11.875  -9.525  -6.420  1.00  0.00     0.074 A 
ATOM     45  C   UNL     1      11.946  -8.258  -4.299  1.00  0.00     0.049 A 
ATOM     46  N   UNL     1      12.663 -10.533  -6.134  1.00  0.00    -0.248 NA
ATOM     47  C   UNL     1      11.295  -9.588  -7.771  1.00  0.00     0.031 C 
ATOM     48  C   UNL     1      11.601  -7.201  -3.346  1.00  0.00     0.029 A 
ATOM     49  N   UNL     1      12.812  -9.062  -3.600  1.00  0.00    -0.354 N 
ATOM     50  C   UNL     1      12.657 -11.352  -7.257  1.00  0.00     0.074 A 
ATOM     51  C   UNL     1      11.751 -10.752  -8.211  1.00  0.00     0.031 C 
ATOM     52  C   UNL     1      12.274  -7.400  -2.203  1.00  0.00     0.029 A 
ATOM     53  C   UNL     1      13.065  -8.620  -2.323  1.00  0.00     0.049 A 
ATOM     54  H   UNL     1      13.213  -9.878  -3.977  1.00  0.00     0.167 HD
ATOM     55  C   UNL     1      13.359 -12.489  -7.482  1.00  0.00     0.037 A 
ATOM     56  C   UNL     1      13.842  -9.143  -1.355  1.00  0.00     0.037 A 
ATOM     57  C   UNL     1      14.284 -13.068  -6.542  1.00  0.00     0.049 A 
ATOM     58  C   UNL     1      14.604 -10.410  -1.631  1.00  0.00     0.074 A 
ATOM     59  C   UNL     1      15.098 -14.176  -6.706  1.00  0.00     0.029 A 
ATOM     60  N   UNL     1      14.513 -12.590  -5.261  1.00  0.00    -0.354 N 
ATOM     61  N   UNL     1      14.652 -11.126  -2.728  1.00  0.00    -0.248 NA
ATOM     62  C   UNL     1      15.425 -10.939  -0.532  1.00  0.00     0.031 C 
ATOM     63  C   UNL     1      15.778 -14.400  -5.505  1.00  0.00     0.029 A 
ATOM     64  C   UNL     1      15.432 -13.399  -4.612  1.00  0.00     0.049 A 
ATOM     65  H   UNL     1      14.086 -11.794  -4.870  1.00  0.00     0.167 HD
ATOM     66  C   UNL     1      15.528 -12.171  -2.462  1.00  0.00     0.074 A 
ATOM     67  C   UNL     1      16.004 -11.982  -1.108  1.00  0.00     0.031 C 
ATOM     68  C   UNL     1      15.902 -13.196  -3.266  1.00  0.00     0.037 A 
BRANCH  55  69
ATOM     69  C   UNL     1      13.159 -13.188  -8.797  1.00  0.00     0.057 A 
ATOM     70  C   UNL     1      13.630 -12.650 -10.003  1.00  0.00     0.134 A 
ATOM     71  C   UNL     1      12.539 -14.443  -8.851  1.00  0.00     0.134 A 
ATOM     72  F   UNL     1      14.225 -11.448 -10.025  1.00  0.00    -0.206 F 
ATOM     73  C   UNL     1      13.470 -13.323 -11.216  1.00  0.00     0.040 A 
ATOM     74  C   UNL     1      12.399 -15.139 -10.054  1.00  0.00     0.040 A 
ATOM     75  F   UNL     1      12.072 -15.022  -7.735  1.00  0.00    -0.206 F 
ATOM     76  C   UNL     1      12.861 -14.576 -11.242  1.00  0.00     0.006 A 
ENDBRANCH  55  69
BRANCH  56  77
ATOM     77  C   UNL     1      13.960  -8.464  -0.038  1.00  0.00     0.057 A 
ATOM     78  C   UNL     1      15.166  -7.879   0.368  1.00  0.00     0.134 A 
ATOM     79  C   UNL     1      12.886  -8.408   0.858  1.00  0.00     0.134 A 
ATOM     80  F   UNL     1      16.239  -7.917  -0.437  1.00  0.00    -0.206 F 
ATOM     81  C   UNL     1      15.308  -7.288   1.624  1.00  0.00     0.040 A 
ATOM     82  C   UNL     1      13.004  -7.794   2.106  1.00  0.00     0.040 A 
ATOM     83  F   UNL     1      11.701  -8.944   0.529  1.00  0.00    -0.206 F 
ATOM     84  C   UNL     1      14.222  -7.241   2.496  1.00  0.00     0.006 A 
ENDBRANCH  56  77
BRANCH  68  85
ATOM     85  C   UNL     1      16.901 -14.171  -2.712  1.00  0.00     0.057 A 
ATOM     86  C   UNL     1      16.569 -15.075  -1.694  1.00  0.00     0.134 A 
ATOM     87  C   UNL     1      18.206 -14.220  -3.218  1.00  0.00     0.134 A 
ATOM     88  F   UNL     1      15.340 -15.071  -1.155  1.00  0.00    -0.206 F 
ATOM     89  C   UNL     1      17.508 -15.970  -1.179  1.00  0.00     0.040 A 
ATOM     90  C   UNL     1      19.144 -15.131  -2.733  1.00  0.00     0.040 A 
ATOM     91  F   UNL     1      18.588 -13.390  -4.201  1.00  0.00    -0.206 F 
ATOM     92  C   UNL     1      18.798 -16.004  -1.703  1.00  0.00     0.006 A 
ENDBRANCH  68  85
ENDBRANCH  42  43
ENDBRANCH  34  37
ENDBRANCH  32  33
ENDBRANCH  31  32
ENDBRANCH  30  31
ENDBRANCH   3  30
TORSDOF 16
