REMARK SMILES CCc1cc(N2CCC(O)(C(=O)NCCCNC(=O)c3ccc(-c4c5nc(c(-c6c(F)cccc6F)c6ccc([nH]6)c(-c6c(F)cccc6F)c6nc(c(-c7c(F)cccc7F)c7ccc4[nH]7)C=C6)C=C5)cc3)CC2)nc(N2CCOCC2)n1
REMARK SMILES IDX 15 1 14 2 13 3 11 4 12 5 9 7 6 8 7 9 75 10 8 11 74 12 5 13
REMARK SMILES IDX 3 14 4 15 84 16 77 17 76 18 2 19 1 20 78 21 79 22 83 23
REMARK SMILES IDX 80 24 82 25 81 26 10 27 16 29 17 30 18 31 19 33 20 34 21 35
REMARK SMILES IDX 73 36 22 37 72 38 23 39 24 40 25 41 66 42 26 43 71 44 65 45
REMARK SMILES IDX 67 46 27 47 70 48 64 49 63 50 28 52 54 53 37 54 53 55 38 56
REMARK SMILES IDX 41 57 52 58 68 59 39 60 40 61 51 63 69 64 42 65 29 66 30 67
REMARK SMILES IDX 35 68 31 69 32 70 34 71 36 72 33 73 55 74 56 75 61 76 57 77
REMARK SMILES IDX 58 78 60 79 62 80 59 81 43 82 44 83 49 84 45 85 46 86 48 87
REMARK SMILES IDX 50 88 47 89
REMARK H PARENT 13 6 10 28 17 32 67 51 41 62
REMARK Flexibility Score: inf
ROOT
ATOM      1  C   UNL     1       9.334  -4.691  -2.823  1.00  0.00     0.042 C 
ENDROOT
BRANCH   1   2
ATOM      2  C   UNL     1       8.825  -4.943  -4.240  1.00  0.00     0.117 C 
BRANCH   2   3
ATOM      3  N   UNL     1       7.901  -6.060  -4.293  1.00  0.00    -0.354 N 
ATOM      4  C   UNL     1       6.550  -6.090  -4.471  1.00  0.00     0.252 C 
ATOM      5  O   UNL     1       6.031  -7.210  -4.503  1.00  0.00    -0.272 OA
ATOM      6  H   UNL     1       8.320  -6.944  -4.182  1.00  0.00     0.163 HD
BRANCH   4   7
ATOM      7  C   UNL     1       5.713  -4.785  -4.629  1.00  0.00     0.146 C 
ATOM      8  N   UNL     1       3.493  -3.135  -3.878  1.00  0.00    -0.356 N 
ATOM      9  C   UNL     1       4.825  -2.727  -3.479  1.00  0.00     0.121 C 
ATOM     10  C   UNL     1       3.327  -3.995  -5.035  1.00  0.00     0.121 C 
ATOM     11  C   UNL     1       5.716  -3.959  -3.336  1.00  0.00     0.067 C 
ATOM     12  C   UNL     1       4.261  -5.191  -4.963  1.00  0.00     0.067 C 
BRANCH   8  13
ATOM     13  C   UNL     1       2.440  -2.988  -3.001  1.00  0.00     0.134 A 
ATOM     14  C   UNL     1       0.915  -1.627  -1.846  1.00  0.00     0.048 A 
ATOM     15  C   UNL     1       2.058  -1.724  -2.605  1.00  0.00     0.071 A 
ATOM     16  N   UNL     1       0.207  -2.710  -1.478  1.00  0.00    -0.218 NA
ATOM     17  C   UNL     1       0.686  -3.910  -1.838  1.00  0.00     0.227 A 
ATOM     18  N   UNL     1       1.778  -4.079  -2.596  1.00  0.00    -0.196 NA
BRANCH  14  19
ATOM     19  C   UNL     1       0.426  -0.284  -1.378  1.00  0.00     0.053 C 
ATOM     20  C   UNL     1       1.007   0.073  -0.019  1.00  0.00     0.011 C 
ENDBRANCH  14  19
BRANCH  17  21
ATOM     21  N   UNL     1       0.015  -5.024  -1.440  1.00  0.00    -0.336 N 
ATOM     22  C   UNL     1       0.702  -6.113  -0.769  1.00  0.00     0.148 C 
ATOM     23  C   UNL     1      -1.420  -5.133  -1.605  1.00  0.00     0.148 C 
ATOM     24  C   UNL     1       0.276  -7.451  -1.388  1.00  0.00     0.181 C 
ATOM     25  C   UNL     1      -1.721  -6.506  -2.234  1.00  0.00     0.181 C 
ATOM     26  O   UNL     1      -1.158  -7.579  -1.455  1.00  0.00    -0.378 OA
ENDBRANCH  17  21
ENDBRANCH   8  13
BRANCH   7  27
ATOM     27  O   UNL     1       6.235  -3.959  -5.679  1.00  0.00    -0.380 OA
ATOM     28  H   UNL     1       7.147  -3.705  -5.467  1.00  0.00     0.212 HD
ENDBRANCH   7  27
ENDBRANCH   4   7
ENDBRANCH   2   3
ENDBRANCH   1   2
BRANCH   1  29
ATOM     29  C   UNL     1      10.169  -5.827  -2.241  1.00  0.00     0.118 C 
BRANCH  29  30
ATOM     30  N   UNL     1      11.430  -6.016  -2.942  1.00  0.00    -0.352 N 
ATOM     31  C   UNL     1      12.717  -5.964  -2.476  1.00  0.00     0.251 C 
ATOM     32  H   UNL     1      11.344  -6.211  -3.904  1.00  0.00     0.163 HD
ATOM     33  O   UNL     1      13.652  -5.975  -3.281  1.00  0.00    -0.269 OA
BRANCH  31  34
ATOM     34  C   UNL     1      13.005  -5.876  -1.028  1.00  0.00     0.039 A 
ATOM     35  C   UNL     1      14.039  -5.038  -0.600  1.00  0.00     0.014 A 
ATOM     36  C   UNL     1      12.298  -6.639  -0.095  1.00  0.00     0.014 A 
ATOM     37  C   UNL     1      14.326  -4.922   0.762  1.00  0.00     0.010 A 
ATOM     38  C   UNL     1      12.536  -6.470   1.268  1.00  0.00     0.010 A 
ATOM     39  C   UNL     1      13.556  -5.614   1.710  1.00  0.00    -0.014 A 
BRANCH  39  40
ATOM     40  C   UNL     1      13.808  -5.458   3.165  1.00  0.00     0.031 A 
ATOM     41  C   UNL     1      14.280  -6.628   3.985  1.00  0.00     0.074 A 
ATOM     42  C   UNL     1      13.554  -4.278   3.762  1.00  0.00     0.049 A 
ATOM     43  N   UNL     1      14.486  -6.704   5.275  1.00  0.00    -0.248 NA
ATOM     44  C   UNL     1      14.527  -7.886   3.262  1.00  0.00     0.031 C 
ATOM     45  C   UNL     1      13.049  -3.080   3.089  1.00  0.00     0.029 A 
ATOM     46  N   UNL     1      13.673  -3.895   5.075  1.00  0.00    -0.354 N 
ATOM     47  C   UNL     1      14.867  -8.017   5.521  1.00  0.00     0.074 A 
ATOM     48  C   UNL     1      14.822  -8.714   4.254  1.00  0.00     0.031 C 
ATOM     49  C   UNL     1      12.919  -2.092   3.988  1.00  0.00     0.029 A 
ATOM     50  C   UNL     1      13.298  -2.594   5.305  1.00  0.00     0.049 A 
ATOM     51  H   UNL     1      13.998  -4.496   5.784  1.00  0.00     0.167 HD
ATOM     52  C   UNL     1      15.240  -8.585   6.692  1.00  0.00     0.037 A 
ATOM     53  C   UNL     1      13.257  -1.887   6.450  1.00  0.00     0.037 A 
ATOM     54  C   UNL     1      15.317  -7.884   7.947  1.00  0.00     0.049 A 
ATOM     55  C   UNL     1      13.689  -2.537   7.734  1.00  0.00     0.074 A 
ATOM     56  C   UNL     1      15.747  -8.357   9.174  1.00  0.00     0.029 A 
ATOM     57  N   UNL     1      14.955  -6.559   8.134  1.00  0.00    -0.354 N 
ATOM     58  N   UNL     1      14.108  -3.762   7.940  1.00  0.00    -0.248 NA
ATOM     59  C   UNL     1      13.649  -1.704   8.945  1.00  0.00     0.031 C 
ATOM     60  C   UNL     1      15.612  -7.328  10.112  1.00  0.00     0.029 A 
ATOM     61  C   UNL     1      15.135  -6.203   9.460  1.00  0.00     0.049 A 
ATOM     62  H   UNL     1      14.619  -5.960   7.428  1.00  0.00     0.167 HD
ATOM     63  C   UNL     1      14.405  -3.840   9.294  1.00  0.00     0.074 A 
ATOM     64  C   UNL     1      14.130  -2.535   9.859  1.00  0.00     0.031 C 
ATOM     65  C   UNL     1      14.863  -4.898  10.006  1.00  0.00     0.037 A 
BRANCH  52  66
ATOM     66  C   UNL     1      15.600 -10.042   6.670  1.00  0.00     0.057 A 
ATOM     67  C   UNL     1      16.784 -10.501   6.079  1.00  0.00     0.134 A 
ATOM     68  C   UNL     1      14.771 -10.993   7.279  1.00  0.00     0.134 A 
ATOM     69  F   UNL     1      17.616  -9.643   5.469  1.00  0.00    -0.206 F 
ATOM     70  C   UNL     1      17.120 -11.856   6.072  1.00  0.00     0.040 A 
ATOM     71  C   UNL     1      15.108 -12.348   7.301  1.00  0.00     0.040 A 
ATOM     72  F   UNL     1      13.626 -10.621   7.869  1.00  0.00    -0.206 F 
ATOM     73  C   UNL     1      16.283 -12.783   6.691  1.00  0.00     0.006 A 
ENDBRANCH  52  66
BRANCH  53  74
ATOM     74  C   UNL     1      12.810  -0.472   6.430  1.00  0.00     0.057 A 
ATOM     75  C   UNL     1      13.720   0.573   6.623  1.00  0.00     0.134 A 
ATOM     76  C   UNL     1      11.469  -0.132   6.221  1.00  0.00     0.134 A 
ATOM     77  F   UNL     1      15.016   0.307   6.846  1.00  0.00    -0.206 F 
ATOM     78  C   UNL     1      13.311   1.907   6.625  1.00  0.00     0.040 A 
ATOM     79  C   UNL     1      11.049   1.199   6.198  1.00  0.00     0.040 A 
ATOM     80  F   UNL     1      10.550  -1.088   6.022  1.00  0.00    -0.206 F 
ATOM     81  C   UNL     1      11.971   2.223   6.407  1.00  0.00     0.006 A 
ENDBRANCH  53  74
BRANCH  65  82
ATOM     82  C   UNL     1      15.126  -4.679  11.466  1.00  0.00     0.057 A 
ATOM     83  C   UNL     1      14.084  -4.560  12.393  1.00  0.00     0.134 A 
ATOM     84  C   UNL     1      16.438  -4.622  11.953  1.00  0.00     0.134 A 
ATOM     85  F   UNL     1      12.805  -4.593  11.988  1.00  0.00    -0.206 F 
ATOM     86  C   UNL     1      14.337  -4.372  13.753  1.00  0.00     0.040 A 
ATOM     87  C   UNL     1      16.704  -4.458  13.313  1.00  0.00     0.040 A 
ATOM     88  F   UNL     1      17.481  -4.736  11.117  1.00  0.00    -0.206 F 
ATOM     89  C   UNL     1      15.651  -4.326  14.216  1.00  0.00     0.006 A 
ENDBRANCH  65  82
ENDBRANCH  39  40
ENDBRANCH  31  34
ENDBRANCH  29  30
ENDBRANCH   1  29
TORSDOF 14
