REMARK SMILES O=C(NCCCNC(=O)[C@H]1CC=CC[C@@H]1C(=O)N[C@@H]1CCCN(c2ccccc2F)C1=O)c1ccc(-c2c3nc(c(-c4c(F)cccc4F)c4ccc([nH]4)c(-c4c(F)cccc4F)c4nc(c(-c5c(F)cccc5F)c5ccc2[nH]5)C=C4)C=C3)cc1
REMARK SMILES IDX 5 1 4 2 3 3 1 4 2 5 33 7 34 8 86 9 35 10 85 11 36 12 37 13
REMARK SMILES IDX 38 14 79 15 39 16 84 17 78 18 80 19 40 20 83 21 77 22 76 23
REMARK SMILES IDX 41 25 67 26 50 27 66 28 51 29 54 30 65 31 81 32 52 33 53 34
REMARK SMILES IDX 64 36 82 37 55 38 42 39 43 40 48 41 44 42 45 43 47 44 49 45
REMARK SMILES IDX 46 46 68 47 69 48 74 49 70 50 71 51 73 52 75 53 72 54 56 55
REMARK SMILES IDX 57 56 62 57 58 58 59 59 61 60 63 61 60 62 6 63 7 64 8 65
REMARK SMILES IDX 9 67 10 68 11 69 15 70 12 71 14 72 13 73 16 74 17 75 18 76
REMARK SMILES IDX 19 78 20 79 31 80 21 81 23 82 32 83 22 84 24 85 25 86 29 87
REMARK SMILES IDX 26 88 28 89 30 90 27 91
REMARK H PARENT 3 6 80 24 54 35 7 66 18 77
REMARK Flexibility Score: inf
ROOT
ATOM      1  C   UNL     1       5.019   3.859  -3.754  1.00  0.00     0.042 C 
ENDROOT
BRANCH   1   2
ATOM      2  C   UNL     1       4.852   4.389  -5.197  1.00  0.00     0.118 C 
BRANCH   2   3
ATOM      3  N   UNL     1       6.115   4.752  -5.860  1.00  0.00    -0.352 N 
ATOM      4  O   UNL     1       8.013   4.821  -7.008  1.00  0.00    -0.269 OA
ATOM      5  C   UNL     1       6.980   4.173  -6.763  1.00  0.00     0.251 C 
ATOM      6  H   UNL     1       6.424   5.645  -5.585  1.00  0.00     0.163 HD
BRANCH   5   7
ATOM      7  C   UNL     1       6.817   2.857  -7.459  1.00  0.00     0.039 A 
ATOM      8  C   UNL     1       5.600   2.216  -7.663  1.00  0.00     0.014 A 
ATOM      9  C   UNL     1       7.964   2.254  -8.027  1.00  0.00     0.014 A 
ATOM     10  C   UNL     1       5.541   0.968  -8.310  1.00  0.00     0.010 A 
ATOM     11  C   UNL     1       7.901   1.033  -8.734  1.00  0.00     0.010 A 
ATOM     12  C   UNL     1       6.681   0.367  -8.880  1.00  0.00    -0.014 A 
BRANCH  12  13
ATOM     13  C   UNL     1       6.519  -0.832  -9.760  1.00  0.00     0.031 A 
ATOM     14  C   UNL     1       7.090  -2.191  -9.434  1.00  0.00     0.074 A 
ATOM     15  C   UNL     1       5.788  -0.686 -10.886  1.00  0.00     0.049 A 
ATOM     16  N   UNL     1       6.951  -3.319 -10.091  1.00  0.00    -0.248 NA
ATOM     17  C   UNL     1       7.920  -2.309  -8.228  1.00  0.00     0.031 C 
ATOM     18  C   UNL     1       5.200   0.577 -11.338  1.00  0.00     0.029 A 
ATOM     19  N   UNL     1       5.386  -1.593 -11.835  1.00  0.00    -0.354 N 
ATOM     20  C   UNL     1       7.665  -4.278  -9.380  1.00  0.00     0.074 A 
ATOM     21  C   UNL     1       8.256  -3.595  -8.248  1.00  0.00     0.031 C 
ATOM     22  C   UNL     1       4.458   0.353 -12.429  1.00  0.00     0.029 A 
ATOM     23  C   UNL     1       4.579  -1.049 -12.807  1.00  0.00     0.049 A 
ATOM     24  H   UNL     1       5.650  -2.542 -11.821  1.00  0.00     0.167 HD
ATOM     25  C   UNL     1       7.810  -5.601  -9.647  1.00  0.00     0.037 A 
ATOM     26  C   UNL     1       4.010  -1.599 -13.897  1.00  0.00     0.037 A 
ATOM     27  C   UNL     1       7.223  -6.283 -10.777  1.00  0.00     0.049 A 
ATOM     28  C   UNL     1       4.225  -3.054 -14.186  1.00  0.00     0.074 A 
ATOM     29  C   UNL     1       7.295  -7.630 -11.100  1.00  0.00     0.029 A 
ATOM     30  N   UNL     1       6.466  -5.681 -11.770  1.00  0.00    -0.354 N 
ATOM     31  N   UNL     1       4.874  -3.946 -13.480  1.00  0.00    -0.248 NA
ATOM     32  C   UNL     1       3.639  -3.578 -15.427  1.00  0.00     0.031 C 
ATOM     33  C   UNL     1       6.633  -7.832 -12.313  1.00  0.00     0.029 A 
ATOM     34  C   UNL     1       6.093  -6.623 -12.718  1.00  0.00     0.049 A 
ATOM     35  H   UNL     1       6.228  -4.726 -11.798  1.00  0.00     0.167 HD
ATOM     36  C   UNL     1       4.768  -5.137 -14.185  1.00  0.00     0.074 A 
ATOM     37  C   UNL     1       3.965  -4.861 -15.358  1.00  0.00     0.031 C 
ATOM     38  C   UNL     1       5.300  -6.347 -13.889  1.00  0.00     0.037 A 
BRANCH  25  39
ATOM     39  C   UNL     1       8.635  -6.441  -8.708  1.00  0.00     0.057 A 
ATOM     40  C   UNL     1       9.853  -6.997  -9.127  1.00  0.00     0.134 A 
ATOM     41  C   UNL     1       8.151  -6.828  -7.452  1.00  0.00     0.134 A 
ATOM     42  F   UNL     1      10.366  -6.686 -10.326  1.00  0.00    -0.206 F 
ATOM     43  C   UNL     1      10.543  -7.926  -8.344  1.00  0.00     0.040 A 
ATOM     44  C   UNL     1       8.844  -7.739  -6.650  1.00  0.00     0.040 A 
ATOM     45  F   UNL     1       6.991  -6.337  -6.991  1.00  0.00    -0.206 F 
ATOM     46  C   UNL     1      10.036  -8.302  -7.102  1.00  0.00     0.006 A 
ENDBRANCH  25  39
BRANCH  26  47
ATOM     47  C   UNL     1       3.191  -0.753 -14.803  1.00  0.00     0.057 A 
ATOM     48  C   UNL     1       3.765   0.288 -15.545  1.00  0.00     0.134 A 
ATOM     49  C   UNL     1       1.812  -0.951 -14.934  1.00  0.00     0.134 A 
ATOM     50  F   UNL     1       5.081   0.534 -15.460  1.00  0.00    -0.206 F 
ATOM     51  C   UNL     1       2.996   1.117 -16.361  1.00  0.00     0.040 A 
ATOM     52  C   UNL     1       1.036  -0.151 -15.773  1.00  0.00     0.040 A 
ATOM     53  F   UNL     1       1.206  -1.944 -14.266  1.00  0.00    -0.206 F 
ATOM     54  C   UNL     1       1.627   0.894 -16.481  1.00  0.00     0.006 A 
ENDBRANCH  26  47
BRANCH  38  55
ATOM     55  C   UNL     1       5.024  -7.474 -14.842  1.00  0.00     0.057 A 
ATOM     56  C   UNL     1       4.196  -8.542 -14.472  1.00  0.00     0.134 A 
ATOM     57  C   UNL     1       5.610  -7.523 -16.114  1.00  0.00     0.134 A 
ATOM     58  F   UNL     1       3.609  -8.563 -13.265  1.00  0.00    -0.206 F 
ATOM     59  C   UNL     1       3.968  -9.621 -15.327  1.00  0.00     0.040 A 
ATOM     60  C   UNL     1       5.365  -8.582 -16.990  1.00  0.00     0.040 A 
ATOM     61  F   UNL     1       6.401  -6.526 -16.537  1.00  0.00    -0.206 F 
ATOM     62  C   UNL     1       4.549  -9.639 -16.593  1.00  0.00     0.006 A 
ENDBRANCH  38  55
ENDBRANCH  12  13
ENDBRANCH   5   7
ENDBRANCH   2   3
ENDBRANCH   1   2
BRANCH   1  63
ATOM     63  C   UNL     1       4.702   4.836  -2.582  1.00  0.00     0.117 C 
BRANCH  63  64
ATOM     64  N   UNL     1       3.446   4.533  -1.849  1.00  0.00    -0.356 N 
ATOM     65  C   UNL     1       2.987   4.175  -0.615  1.00  0.00     0.224 C 
ATOM     66  H   UNL     1       2.683   4.621  -2.464  1.00  0.00     0.163 HD
ATOM     67  O   UNL     1       1.749   4.295  -0.534  1.00  0.00    -0.275 OA
BRANCH  65  68
ATOM     68  C   UNL     1       3.704   3.559   0.645  1.00  0.00     0.095 C 
ATOM     69  C   UNL     1       3.190   2.068   0.769  1.00  0.00     0.041 C 
ATOM     70  C   UNL     1       5.239   3.690   0.745  1.00  0.00     0.095 C 
ATOM     71  C   UNL     1       4.227   0.999   0.608  1.00  0.00    -0.030 C 
ATOM     72  C   UNL     1       5.683   2.730  -0.290  1.00  0.00     0.041 C 
ATOM     73  C   UNL     1       5.438   1.318   0.159  1.00  0.00    -0.030 C 
BRANCH  70  74
ATOM     74  C   UNL     1       5.995   3.258   2.033  1.00  0.00     0.224 C 
ATOM     75  O   UNL     1       5.435   3.283   3.132  1.00  0.00    -0.275 OA
ATOM     76  N   UNL     1       7.319   2.826   1.995  1.00  0.00    -0.344 N 
ATOM     77  H   UNL     1       7.586   2.404   2.843  1.00  0.00     0.164 HD
BRANCH  76  78
ATOM     78  C   UNL     1       8.461   2.835   0.989  1.00  0.00     0.172 C 
ATOM     79  C   UNL     1       8.884   4.275   0.698  1.00  0.00     0.037 C 
ATOM     80  C   UNL     1       8.521   1.826  -0.278  1.00  0.00     0.249 C 
ATOM     81  C   UNL     1       9.618   4.416  -0.624  1.00  0.00     0.025 C 
ATOM     82  N   UNL     1       8.522   2.392  -1.577  1.00  0.00    -0.308 N 
ATOM     83  O   UNL     1       8.535   0.606  -0.095  1.00  0.00    -0.272 OA
ATOM     84  C   UNL     1       8.804   3.819  -1.766  1.00  0.00     0.126 C 
BRANCH  82  85
ATOM     85  C   UNL     1       8.107   1.629  -2.753  1.00  0.00     0.080 A 
ATOM     86  C   UNL     1       8.947   1.556  -3.861  1.00  0.00     0.029 A 
ATOM     87  C   UNL     1       6.850   1.009  -2.931  1.00  0.00     0.146 A 
ATOM     88  C   UNL     1       8.565   0.842  -5.016  1.00  0.00     0.002 A 
ATOM     89  C   UNL     1       6.446   0.330  -4.074  1.00  0.00     0.041 A 
ATOM     90  F   UNL     1       5.832   1.187  -2.115  1.00  0.00    -0.205 F 
ATOM     91  C   UNL     1       7.319   0.226  -5.121  1.00  0.00     0.003 A 
ENDBRANCH  82  85
ENDBRANCH  76  78
ENDBRANCH  70  74
ENDBRANCH  65  68
ENDBRANCH  63  64
ENDBRANCH   1  63
TORSDOF 13
