REMARK SMILES O=C(NCCCNC(=O)C1(Cc2cccc(Cl)c2)CCCC1)c1ccc(-c2c3nc(c(-c4c(F)cccc4F)c4ccc([nH]4)c(-c4c(F)cccc4F)c4nc(c(-c5c(F)cccc5F)c5ccc2[nH]5)C=C4)C=C3)cc1
REMARK SMILES IDX 5 1 4 2 3 3 1 4 2 5 23 7 24 8 76 9 25 10 75 11 26 12 27 13
REMARK SMILES IDX 28 14 69 15 29 16 74 17 68 18 70 19 30 20 73 21 67 22 66 23
REMARK SMILES IDX 31 25 57 26 40 27 56 28 41 29 44 30 55 31 71 32 42 33 43 34
REMARK SMILES IDX 54 36 72 37 45 38 32 39 33 40 38 41 34 42 35 43 37 44 39 45
REMARK SMILES IDX 36 46 58 47 59 48 64 49 60 50 61 51 63 52 65 53 62 54 46 55
REMARK SMILES IDX 47 56 52 57 48 58 49 59 51 60 53 61 50 62 6 63 7 64 8 65
REMARK SMILES IDX 9 67 10 68 19 69 22 70 20 71 21 72 11 73 12 74 13 75 18 76
REMARK SMILES IDX 14 77 16 78 15 79 17 80
REMARK H PARENT 3 6 70 24 44 35 7 66
REMARK Flexibility Score: inf
ROOT
ATOM      1  C   UNL     1       4.578  -2.002  -1.391  1.00  0.00     0.042 C 
ENDROOT
BRANCH   1   2
ATOM      2  C   UNL     1       4.291  -0.509  -1.355  1.00  0.00     0.118 C 
BRANCH   2   3
ATOM      3  N   UNL     1       2.882  -0.212  -1.138  1.00  0.00    -0.352 N 
ATOM      4  O   UNL     1       0.989   0.207   0.001  1.00  0.00    -0.269 OA
ATOM      5  C   UNL     1       2.219   0.219  -0.015  1.00  0.00     0.251 C 
ATOM      6  H   UNL     1       2.309  -0.341  -1.928  1.00  0.00     0.163 HD
BRANCH   5   7
ATOM      7  C   UNL     1       2.963   0.674   1.179  1.00  0.00     0.039 A 
ATOM      8  C   UNL     1       4.122   1.439   1.055  1.00  0.00     0.014 A 
ATOM      9  C   UNL     1       2.474   0.362   2.452  1.00  0.00     0.014 A 
ATOM     10  C   UNL     1       4.888   1.725   2.177  1.00  0.00     0.010 A 
ATOM     11  C   UNL     1       3.184   0.758   3.591  1.00  0.00     0.010 A 
ATOM     12  C   UNL     1       4.420   1.409   3.462  1.00  0.00    -0.014 A 
BRANCH  12  13
ATOM     13  C   UNL     1       5.218   1.830   4.642  1.00  0.00     0.031 A 
ATOM     14  C   UNL     1       5.788   0.822   5.601  1.00  0.00     0.074 A 
ATOM     15  C   UNL     1       5.464   3.144   4.819  1.00  0.00     0.049 A 
ATOM     16  N   UNL     1       6.550   1.021   6.649  1.00  0.00    -0.248 NA
ATOM     17  C   UNL     1       5.457  -0.590   5.364  1.00  0.00     0.031 C 
ATOM     18  C   UNL     1       4.955   4.219   3.962  1.00  0.00     0.029 A 
ATOM     19  N   UNL     1       6.223   3.799   5.754  1.00  0.00    -0.354 N 
ATOM     20  C   UNL     1       6.769  -0.232   7.206  1.00  0.00     0.074 A 
ATOM     21  C   UNL     1       6.035  -1.183   6.399  1.00  0.00     0.031 C 
ATOM     22  C   UNL     1       5.469   5.388   4.369  1.00  0.00     0.029 A 
ATOM     23  C   UNL     1       6.281   5.158   5.557  1.00  0.00     0.049 A 
ATOM     24  H   UNL     1       6.682   3.341   6.495  1.00  0.00     0.167 HD
ATOM     25  C   UNL     1       7.518  -0.559   8.288  1.00  0.00     0.037 A 
ATOM     26  C   UNL     1       6.907   6.118   6.261  1.00  0.00     0.037 A 
ATOM     27  C   UNL     1       8.256   0.393   9.080  1.00  0.00     0.049 A 
ATOM     28  C   UNL     1       7.702   5.729   7.473  1.00  0.00     0.074 A 
ATOM     29  C   UNL     1       9.081   0.156  10.167  1.00  0.00     0.029 A 
ATOM     30  N   UNL     1       8.252   1.766   8.877  1.00  0.00    -0.354 N 
ATOM     31  N   UNL     1       7.936   4.535   7.960  1.00  0.00    -0.248 NA
ATOM     32  C   UNL     1       8.315   6.824   8.235  1.00  0.00     0.031 C 
ATOM     33  C   UNL     1       9.526   1.389  10.657  1.00  0.00     0.029 A 
ATOM     34  C   UNL     1       9.032   2.390   9.838  1.00  0.00     0.049 A 
ATOM     35  H   UNL     1       7.766   2.229   8.156  1.00  0.00     0.167 HD
ATOM     36  C   UNL     1       8.747   4.731   9.069  1.00  0.00     0.074 A 
ATOM     37  C   UNL     1       8.977   6.159   9.170  1.00  0.00     0.031 C 
ATOM     38  C   UNL     1       9.255   3.812   9.926  1.00  0.00     0.037 A 
BRANCH  25  39
ATOM     39  C   UNL     1       7.555  -2.005   8.698  1.00  0.00     0.057 A 
ATOM     40  C   UNL     1       8.206  -2.983   7.935  1.00  0.00     0.134 A 
ATOM     41  C   UNL     1       6.955  -2.419   9.896  1.00  0.00     0.134 A 
ATOM     42  F   UNL     1       8.793  -2.660   6.773  1.00  0.00    -0.206 F 
ATOM     43  C   UNL     1       8.235  -4.322   8.332  1.00  0.00     0.040 A 
ATOM     44  C   UNL     1       7.002  -3.749  10.318  1.00  0.00     0.040 A 
ATOM     45  F   UNL     1       6.322  -1.535  10.682  1.00  0.00    -0.206 F 
ATOM     46  C   UNL     1       7.637  -4.707   9.531  1.00  0.00     0.006 A 
ENDBRANCH  25  39
BRANCH  26  47
ATOM     47  C   UNL     1       6.809   7.536   5.833  1.00  0.00     0.057 A 
ATOM     48  C   UNL     1       7.927   8.224   5.348  1.00  0.00     0.134 A 
ATOM     49  C   UNL     1       5.598   8.236   5.895  1.00  0.00     0.134 A 
ATOM     50  F   UNL     1       9.118   7.612   5.279  1.00  0.00    -0.206 F 
ATOM     51  C   UNL     1       7.849   9.561   4.958  1.00  0.00     0.040 A 
ATOM     52  C   UNL     1       5.499   9.565   5.479  1.00  0.00     0.040 A 
ATOM     53  F   UNL     1       4.487   7.631   6.340  1.00  0.00    -0.206 F 
ATOM     54  C   UNL     1       6.630  10.233   5.017  1.00  0.00     0.006 A 
ENDBRANCH  26  47
BRANCH  38  55
ATOM     55  C   UNL     1      10.146   4.323  11.021  1.00  0.00     0.057 A 
ATOM     56  C   UNL     1       9.651   5.074  12.095  1.00  0.00     0.134 A 
ATOM     57  C   UNL     1      11.520   4.050  11.005  1.00  0.00     0.134 A 
ATOM     58  F   UNL     1       8.347   5.385  12.164  1.00  0.00    -0.206 F 
ATOM     59  C   UNL     1      10.494   5.561  13.096  1.00  0.00     0.040 A 
ATOM     60  C   UNL     1      12.368   4.504  12.015  1.00  0.00     0.040 A 
ATOM     61  F   UNL     1      12.060   3.330  10.009  1.00  0.00    -0.206 F 
ATOM     62  C   UNL     1      11.857   5.271  13.060  1.00  0.00     0.006 A 
ENDBRANCH  38  55
ENDBRANCH  12  13
ENDBRANCH   5   7
ENDBRANCH   2   3
ENDBRANCH   1   2
BRANCH   1  63
ATOM     63  C   UNL     1       3.956  -2.723  -2.579  1.00  0.00     0.117 C 
BRANCH  63  64
ATOM     64  N   UNL     1       4.418  -2.214  -3.857  1.00  0.00    -0.356 N 
ATOM     65  C   UNL     1       5.312  -2.674  -4.772  1.00  0.00     0.226 C 
ATOM     66  H   UNL     1       3.999  -1.361  -4.114  1.00  0.00     0.163 HD
ATOM     67  O   UNL     1       5.468  -1.958  -5.766  1.00  0.00    -0.274 OA
BRANCH  65  68
ATOM     68  C   UNL     1       6.108  -3.976  -4.582  1.00  0.00     0.053 C 
ATOM     69  C   UNL     1       5.145  -5.181  -4.498  1.00  0.00     0.017 C 
ATOM     70  C   UNL     1       6.865  -4.332  -5.887  1.00  0.00     0.017 C 
ATOM     71  C   UNL     1       5.933  -6.391  -4.981  1.00  0.00     0.001 C 
ATOM     72  C   UNL     1       7.027  -5.849  -5.887  1.00  0.00     0.001 C 
BRANCH  68  73
ATOM     73  C   UNL     1       7.073  -3.929  -3.366  1.00  0.00     0.052 C 
BRANCH  73  74
ATOM     74  C   UNL     1       8.229  -2.943  -3.405  1.00  0.00    -0.045 A 
ATOM     75  C   UNL     1       8.042  -1.563  -3.574  1.00  0.00     0.004 A 
ATOM     76  C   UNL     1       9.540  -3.412  -3.215  1.00  0.00     0.024 A 
ATOM     77  C   UNL     1       9.130  -0.685  -3.598  1.00  0.00     0.002 A 
ATOM     78  C   UNL     1      10.623  -2.530  -3.227  1.00  0.00     0.041 A 
ATOM     79  C   UNL     1      10.425  -1.168  -3.426  1.00  0.00     0.020 A 
ATOM     80  Cl  UNL     1      12.218  -3.133  -2.989  1.00  0.00    -0.084 Cl
ENDBRANCH  73  74
ENDBRANCH  68  73
ENDBRANCH  65  68
ENDBRANCH  63  64
ENDBRANCH   1  63
TORSDOF 12
