REMARK SMILES CCC[C@@]1(C(=O)NCCCNC(=O)c2ccc(-c3c4nc(c(-c5c(F)cccc5F)c5ccc([nH]5)c(-c5c(F)cccc5F)c5nc(c(-c6c(F)cccc6F)c6ccc3[nH]6)C=C5)C=C4)cc2)CCN(C(=O)NC[C@]2(C)CCCO2)C1
REMARK SMILES IDX 8 1 7 2 5 3 6 4 4 6 68 7 81 8 69 9 70 10 3 11 2 12 1 13
REMARK SMILES IDX 71 14 72 15 73 16 74 18 75 19 77 20 80 21 76 22 78 23 79 24
REMARK SMILES IDX 9 25 10 26 11 27 12 28 13 30 14 31 15 32 67 33 16 34 66 35
REMARK SMILES IDX 17 36 18 37 19 38 60 39 20 40 65 41 59 42 61 43 21 44 64 45
REMARK SMILES IDX 58 46 57 47 22 49 48 50 31 51 47 52 32 53 35 54 46 55 62 56
REMARK SMILES IDX 33 57 34 58 45 60 63 61 36 62 23 63 24 64 29 65 25 66 26 67
REMARK SMILES IDX 28 68 30 69 27 70 49 71 50 72 55 73 51 74 52 75 54 76 56 77
REMARK SMILES IDX 53 78 37 79 38 80 43 81 39 82 40 83 42 84 44 85 41 86
REMARK H PARENT 7 5 73 17 11 29 61 48 35 59
REMARK Flexibility Score: inf
ROOT
ATOM      1  C   UNL     1      -5.838  -9.683  -5.192  1.00  0.00     0.117 C 
ENDROOT
BRANCH   1   2
ATOM      2  N   UNL     1      -6.129 -10.064  -3.825  1.00  0.00    -0.355 N 
ATOM      3  C   UNL     1      -5.375 -10.398  -2.752  1.00  0.00     0.228 C 
ATOM      4  O   UNL     1      -5.985 -10.379  -1.673  1.00  0.00    -0.274 OA
ATOM      5  H   UNL     1      -7.095 -10.084  -3.633  1.00  0.00     0.163 HD
BRANCH   3   6
ATOM      6  C   UNL     1      -3.911 -10.872  -2.800  1.00  0.00     0.068 C 
ATOM      7  C   UNL     1      -3.330 -10.790  -1.362  1.00  0.00     0.040 C 
ATOM      8  C   UNL     1      -2.968  -9.852  -3.465  1.00  0.00     0.138 C 
ATOM      9  C   UNL     1      -3.125  -9.284  -1.169  1.00  0.00     0.122 C 
ATOM     10  N   UNL     1      -2.733  -8.805  -2.481  1.00  0.00    -0.324 N 
BRANCH   6  11
ATOM     11  C   UNL     1      -3.699 -12.273  -3.420  1.00  0.00     0.018 C 
BRANCH  11  12
ATOM     12  C   UNL     1      -4.672 -13.457  -3.252  1.00  0.00    -0.002 C 
ATOM     13  C   UNL     1      -6.148 -13.241  -2.985  1.00  0.00     0.004 C 
ENDBRANCH  11  12
ENDBRANCH   6  11
BRANCH  10  14
ATOM     14  C   UNL     1      -2.216  -7.624  -2.897  1.00  0.00     0.317 C 
ATOM     15  O   UNL     1      -1.920  -7.439  -4.082  1.00  0.00    -0.249 OA
ATOM     16  N   UNL     1      -1.995  -6.589  -2.076  1.00  0.00    -0.335 N 
ATOM     17  H   UNL     1      -1.560  -5.840  -2.545  1.00  0.00     0.165 HD
BRANCH  16  18
ATOM     18  C   UNL     1      -2.229  -6.280  -0.676  1.00  0.00     0.152 C 
BRANCH  18  19
ATOM     19  C   UNL     1      -0.949  -6.215   0.213  1.00  0.00     0.083 C 
ATOM     20  C   UNL     1      -0.651  -7.487   1.002  1.00  0.00     0.039 C 
ATOM     21  O   UNL     1      -1.212  -5.232   1.250  1.00  0.00    -0.373 OA
ATOM     22  C   UNL     1       0.284  -5.759  -0.568  1.00  0.00     0.044 C 
ATOM     23  C   UNL     1      -1.642  -7.401   2.137  1.00  0.00     0.031 C 
ATOM     24  C   UNL     1      -1.624  -5.917   2.446  1.00  0.00     0.161 C 
ENDBRANCH  18  19
ENDBRANCH  16  18
ENDBRANCH  10  14
ENDBRANCH   3   6
ENDBRANCH   1   2
BRANCH   1  25
ATOM     25  C   UNL     1      -5.584 -10.817  -6.175  1.00  0.00     0.042 C 
BRANCH  25  26
ATOM     26  C   UNL     1      -6.741 -11.774  -6.455  1.00  0.00     0.118 C 
BRANCH  26  27
ATOM     27  N   UNL     1      -8.048 -11.142  -6.450  1.00  0.00    -0.352 N 
ATOM     28  C   UNL     1      -8.998 -11.095  -7.435  1.00  0.00     0.251 C 
ATOM     29  H   UNL     1      -8.287 -10.679  -5.615  1.00  0.00     0.163 HD
ATOM     30  O   UNL     1      -9.971 -10.353  -7.323  1.00  0.00    -0.269 OA
BRANCH  28  31
ATOM     31  C   UNL     1      -8.844 -11.934  -8.638  1.00  0.00     0.039 A 
ATOM     32  C   UNL     1      -9.031 -11.355  -9.894  1.00  0.00     0.014 A 
ATOM     33  C   UNL     1      -8.527 -13.291  -8.522  1.00  0.00     0.014 A 
ATOM     34  C   UNL     1      -8.848 -12.128 -11.040  1.00  0.00     0.010 A 
ATOM     35  C   UNL     1      -8.277 -14.042  -9.666  1.00  0.00     0.010 A 
ATOM     36  C   UNL     1      -8.443 -13.470 -10.936  1.00  0.00    -0.014 A 
BRANCH  36  37
ATOM     37  C   UNL     1      -8.193 -14.283 -12.153  1.00  0.00     0.031 A 
ATOM     38  C   UNL     1      -9.063 -15.471 -12.459  1.00  0.00     0.074 A 
ATOM     39  C   UNL     1      -7.158 -13.971 -12.957  1.00  0.00     0.049 A 
ATOM     40  N   UNL     1      -8.988 -16.312 -13.459  1.00  0.00    -0.248 NA
ATOM     41  C   UNL     1     -10.148 -15.767 -11.509  1.00  0.00     0.031 C 
ATOM     42  C   UNL     1      -6.219 -12.868 -12.740  1.00  0.00     0.029 A 
ATOM     43  N   UNL     1      -6.718 -14.554 -14.119  1.00  0.00    -0.354 N 
ATOM     44  C   UNL     1      -9.999 -17.241 -13.250  1.00  0.00     0.074 A 
ATOM     45  C   UNL     1     -10.648 -16.889 -12.007  1.00  0.00     0.031 C 
ATOM     46  C   UNL     1      -5.334 -12.837 -13.749  1.00  0.00     0.029 A 
ATOM     47  C   UNL     1      -5.615 -13.940 -14.662  1.00  0.00     0.049 A 
ATOM     48  H   UNL     1      -7.153 -15.338 -14.526  1.00  0.00     0.167 HD
ATOM     49  C   UNL     1     -10.364 -18.281 -14.035  1.00  0.00     0.037 A 
ATOM     50  C   UNL     1      -4.906 -14.239 -15.767  1.00  0.00     0.037 A 
ATOM     51  C   UNL     1      -9.735 -18.606 -15.288  1.00  0.00     0.049 A 
ATOM     52  C   UNL     1      -5.333 -15.411 -16.611  1.00  0.00     0.074 A 
ATOM     53  C   UNL     1     -10.084 -19.592 -16.194  1.00  0.00     0.029 A 
ATOM     54  N   UNL     1      -8.626 -17.958 -15.807  1.00  0.00    -0.354 N 
ATOM     55  N   UNL     1      -6.349 -16.223 -16.448  1.00  0.00    -0.248 NA
ATOM     56  C   UNL     1      -4.516 -15.704 -17.798  1.00  0.00     0.031 C 
ATOM     57  C   UNL     1      -9.148 -19.581 -17.232  1.00  0.00     0.029 A 
ATOM     58  C   UNL     1      -8.255 -18.547 -17.004  1.00  0.00     0.049 A 
ATOM     59  H   UNL     1      -8.169 -17.193 -15.387  1.00  0.00     0.167 HD
ATOM     60  C   UNL     1      -6.316 -17.096 -17.529  1.00  0.00     0.074 A 
ATOM     61  C   UNL     1      -5.189 -16.703 -18.349  1.00  0.00     0.031 C 
ATOM     62  C   UNL     1      -7.142 -18.131 -17.818  1.00  0.00     0.037 A 
BRANCH  49  63
ATOM     63  C   UNL     1     -11.495 -19.153 -13.571  1.00  0.00     0.057 A 
ATOM     64  C   UNL     1     -12.823 -18.709 -13.569  1.00  0.00     0.134 A 
ATOM     65  C   UNL     1     -11.258 -20.482 -13.195  1.00  0.00     0.134 A 
ATOM     66  F   UNL     1     -13.118 -17.445 -13.907  1.00  0.00    -0.206 F 
ATOM     67  C   UNL     1     -13.874 -19.551 -13.198  1.00  0.00     0.040 A 
ATOM     68  C   UNL     1     -12.302 -21.341 -12.849  1.00  0.00     0.040 A 
ATOM     69  F   UNL     1     -10.010 -20.974 -13.180  1.00  0.00    -0.206 F 
ATOM     70  C   UNL     1     -13.615 -20.875 -12.847  1.00  0.00     0.006 A 
ENDBRANCH  49  63
BRANCH  50  71
ATOM     71  C   UNL     1      -3.724 -13.425 -16.155  1.00  0.00     0.057 A 
ATOM     72  C   UNL     1      -3.721 -12.666 -17.332  1.00  0.00     0.134 A 
ATOM     73  C   UNL     1      -2.551 -13.428 -15.391  1.00  0.00     0.134 A 
ATOM     74  F   UNL     1      -4.808 -12.635 -18.117  1.00  0.00    -0.206 F 
ATOM     75  C   UNL     1      -2.585 -11.974 -17.756  1.00  0.00     0.040 A 
ATOM     76  C   UNL     1      -1.418 -12.715 -15.786  1.00  0.00     0.040 A 
ATOM     77  F   UNL     1      -2.488 -14.127 -14.248  1.00  0.00    -0.206 F 
ATOM     78  C   UNL     1      -1.429 -11.997 -16.980  1.00  0.00     0.006 A 
ENDBRANCH  50  71
BRANCH  62  79
ATOM     79  C   UNL     1      -6.891 -18.877 -19.096  1.00  0.00     0.057 A 
ATOM     80  C   UNL     1      -5.780 -19.714 -19.262  1.00  0.00     0.134 A 
ATOM     81  C   UNL     1      -7.797 -18.786 -20.160  1.00  0.00     0.134 A 
ATOM     82  F   UNL     1      -4.868 -19.837 -18.286  1.00  0.00    -0.206 F 
ATOM     83  C   UNL     1      -5.565 -20.411 -20.452  1.00  0.00     0.040 A 
ATOM     84  C   UNL     1      -7.610 -19.503 -21.342  1.00  0.00     0.040 A 
ATOM     85  F   UNL     1      -8.888 -18.011 -20.063  1.00  0.00    -0.206 F 
ATOM     86  C   UNL     1      -6.487 -20.313 -21.493  1.00  0.00     0.006 A 
ENDBRANCH  62  79
ENDBRANCH  36  37
ENDBRANCH  28  31
ENDBRANCH  26  27
ENDBRANCH  25  26
ENDBRANCH   1  25
TORSDOF 15
