REMARK SMILES O=C(NCCCNC(=O)c1ccc(-c2c3nc(c(-c4c(F)cccc4F)c4ccc([nH]4)c(-c4c(F)cccc4F)c4nc(c(-c5c(F)cccc5F)c5ccc2[nH]5)C=C4)C=C3)cc1)c1ccc(C[C@H]2SC(=O)N(c3ccccc3)C2=O)cc1
REMARK SMILES IDX 4 1 3 2 1 3 2 4 64 6 65 7 83 8 66 9 82 10 67 11 68 12 69 13
REMARK SMILES IDX 70 14 80 15 71 16 73 17 81 18 72 19 74 20 75 21 79 22 76 23
REMARK SMILES IDX 78 24 77 25 5 26 6 27 7 28 8 29 9 31 10 32 11 33 63 34 12 35
REMARK SMILES IDX 62 36 13 37 14 38 15 39 56 40 16 41 61 42 55 43 57 44 17 45
REMARK SMILES IDX 60 46 54 47 53 48 18 50 44 51 27 52 43 53 28 54 31 55 42 56
REMARK SMILES IDX 58 57 29 58 30 59 41 61 59 62 32 63 19 64 20 65 25 66 21 67
REMARK SMILES IDX 22 68 24 69 26 70 23 71 45 72 46 73 51 74 47 75 48 76 50 77
REMARK SMILES IDX 52 78 49 79 33 80 34 81 39 82 35 83 36 84 38 85 40 86 37 87
REMARK H PARENT 3 5 7 30 57 49 31 60
REMARK Flexibility Score: inf
ROOT
ATOM      1  C   UNL     1       8.303   7.318   0.217  1.00  0.00     0.118 C 
ENDROOT
BRANCH   1   2
ATOM      2  N   UNL     1       8.312   8.438   1.148  1.00  0.00    -0.352 N 
ATOM      3  O   UNL     1       7.999   9.511   3.110  1.00  0.00    -0.269 OA
ATOM      4  C   UNL     1       8.114   8.449   2.508  1.00  0.00     0.251 C 
ATOM      5  H   UNL     1       8.487   9.319   0.743  1.00  0.00     0.163 HD
BRANCH   4   6
ATOM      6  C   UNL     1       8.002   7.171   3.239  1.00  0.00     0.039 A 
ATOM      7  C   UNL     1       9.001   6.201   3.135  1.00  0.00     0.014 A 
ATOM      8  C   UNL     1       6.870   6.937   4.022  1.00  0.00     0.014 A 
ATOM      9  C   UNL     1       8.806   4.948   3.710  1.00  0.00     0.004 A 
ATOM     10  C   UNL     1       6.676   5.679   4.597  1.00  0.00     0.004 A 
ATOM     11  C   UNL     1       7.620   4.660   4.405  1.00  0.00    -0.046 A 
BRANCH  11  12
ATOM     12  C   UNL     1       7.338   3.248   4.869  1.00  0.00     0.060 C 
BRANCH  12  13
ATOM     13  C   UNL     1       6.579   2.406   3.825  1.00  0.00     0.151 C 
ATOM     14  S   UNL     1       7.543   2.106   2.318  1.00  0.00    -0.050 SA
ATOM     15  C   UNL     1       6.313   1.024   4.389  1.00  0.00     0.248 C 
ATOM     16  C   UNL     1       7.981   0.487   2.818  1.00  0.00     0.293 C 
ATOM     17  N   UNL     1       7.171   0.074   3.855  1.00  0.00    -0.240 N 
ATOM     18  O   UNL     1       5.485   0.856   5.282  1.00  0.00    -0.273 OA
ATOM     19  O   UNL     1       8.856  -0.119   2.233  1.00  0.00    -0.261 OA
BRANCH  17  20
ATOM     20  C   UNL     1       7.213  -1.269   4.334  1.00  0.00     0.053 A 
ATOM     21  C   UNL     1       6.037  -1.941   4.696  1.00  0.00     0.027 A 
ATOM     22  C   UNL     1       8.431  -1.959   4.438  1.00  0.00     0.027 A 
ATOM     23  C   UNL     1       6.075  -3.270   5.128  1.00  0.00     0.002 A 
ATOM     24  C   UNL     1       8.472  -3.277   4.901  1.00  0.00     0.002 A 
ATOM     25  C   UNL     1       7.294  -3.935   5.237  1.00  0.00     0.000 A 
ENDBRANCH  17  20
ENDBRANCH  12  13
ENDBRANCH  11  12
ENDBRANCH   4   6
ENDBRANCH   1   2
BRANCH   1  26
ATOM     26  C   UNL     1       7.079   7.315  -0.692  1.00  0.00     0.042 C 
BRANCH  26  27
ATOM     27  C   UNL     1       6.989   8.500  -1.646  1.00  0.00     0.118 C 
BRANCH  27  28
ATOM     28  N   UNL     1       8.122   8.589  -2.555  1.00  0.00    -0.352 N 
ATOM     29  C   UNL     1       8.189   8.581  -3.925  1.00  0.00     0.251 C 
ATOM     30  H   UNL     1       8.996   8.669  -2.107  1.00  0.00     0.163 HD
ATOM     31  O   UNL     1       9.290   8.511  -4.466  1.00  0.00    -0.269 OA
BRANCH  29  32
ATOM     32  C   UNL     1       6.969   8.634  -4.764  1.00  0.00     0.039 A 
ATOM     33  C   UNL     1       6.955   7.904  -5.958  1.00  0.00     0.014 A 
ATOM     34  C   UNL     1       5.865   9.421  -4.427  1.00  0.00     0.014 A 
ATOM     35  C   UNL     1       5.819   7.916  -6.773  1.00  0.00     0.010 A 
ATOM     36  C   UNL     1       4.701   9.362  -5.194  1.00  0.00     0.010 A 
ATOM     37  C   UNL     1       4.666   8.614  -6.379  1.00  0.00    -0.014 A 
BRANCH  37  38
ATOM     38  C   UNL     1       3.425   8.550  -7.194  1.00  0.00     0.031 A 
ATOM     39  C   UNL     1       2.853   9.789  -7.829  1.00  0.00     0.074 A 
ATOM     40  C   UNL     1       2.784   7.371  -7.329  1.00  0.00     0.049 A 
ATOM     41  N   UNL     1       1.779   9.917  -8.568  1.00  0.00    -0.248 NA
ATOM     42  C   UNL     1       3.562  11.054  -7.582  1.00  0.00     0.031 C 
ATOM     43  C   UNL     1       3.196   6.109  -6.710  1.00  0.00     0.029 A 
ATOM     44  N   UNL     1       1.650   7.041  -8.028  1.00  0.00    -0.354 N 
ATOM     45  C   UNL     1       1.679  11.271  -8.862  1.00  0.00     0.074 A 
ATOM     46  C   UNL     1       2.769  11.932  -8.179  1.00  0.00     0.031 C 
ATOM     47  C   UNL     1       2.347   5.138  -7.082  1.00  0.00     0.029 A 
ATOM     48  C   UNL     1       1.314   5.712  -7.937  1.00  0.00     0.049 A 
ATOM     49  H   UNL     1       1.127   7.695  -8.546  1.00  0.00     0.167 HD
ATOM     50  C   UNL     1       0.775  11.904  -9.649  1.00  0.00     0.037 A 
ATOM     51  C   UNL     1       0.289   5.030  -8.482  1.00  0.00     0.037 A 
ATOM     52  C   UNL     1      -0.293  11.242 -10.352  1.00  0.00     0.049 A 
ATOM     53  C   UNL     1      -0.686   5.753  -9.368  1.00  0.00     0.074 A 
ATOM     54  C   UNL     1      -1.213  11.786 -11.232  1.00  0.00     0.029 A 
ATOM     55  N   UNL     1      -0.588   9.891 -10.252  1.00  0.00    -0.354 N 
ATOM     56  N   UNL     1      -0.715   7.019  -9.707  1.00  0.00    -0.248 NA
ATOM     57  C   UNL     1      -1.766   4.948  -9.957  1.00  0.00     0.031 C 
ATOM     58  C   UNL     1      -2.093  10.774 -11.628  1.00  0.00     0.029 A 
ATOM     59  C   UNL     1      -1.691   9.588 -11.035  1.00  0.00     0.049 A 
ATOM     60  H   UNL     1      -0.088   9.242  -9.706  1.00  0.00     0.167 HD
ATOM     61  C   UNL     1      -1.799   7.158 -10.564  1.00  0.00     0.074 A 
ATOM     62  C   UNL     1      -2.386   5.843 -10.713  1.00  0.00     0.031 C 
ATOM     63  C   UNL     1      -2.268   8.275 -11.172  1.00  0.00     0.037 A 
BRANCH  50  64
ATOM     64  C   UNL     1       0.905  13.392  -9.802  1.00  0.00     0.057 A 
ATOM     65  C   UNL     1       1.953  13.972 -10.529  1.00  0.00     0.134 A 
ATOM     66  C   UNL     1      -0.058  14.254  -9.261  1.00  0.00     0.134 A 
ATOM     67  F   UNL     1       2.914  13.205 -11.065  1.00  0.00    -0.206 F 
ATOM     68  C   UNL     1       2.051  15.355 -10.694  1.00  0.00     0.040 A 
ATOM     69  C   UNL     1       0.014  15.636  -9.442  1.00  0.00     0.040 A 
ATOM     70  F   UNL     1      -1.092  13.766  -8.559  1.00  0.00    -0.206 F 
ATOM     71  C   UNL     1       1.074  16.191 -10.156  1.00  0.00     0.006 A 
ENDBRANCH  50  64
BRANCH  51  72
ATOM     72  C   UNL     1       0.144   3.574  -8.226  1.00  0.00     0.057 A 
ATOM     73  C   UNL     1       0.353   2.635  -9.242  1.00  0.00     0.134 A 
ATOM     74  C   UNL     1      -0.222   3.088  -6.965  1.00  0.00     0.134 A 
ATOM     75  F   UNL     1       0.687   3.040 -10.477  1.00  0.00    -0.206 F 
ATOM     76  C   UNL     1       0.181   1.268  -9.023  1.00  0.00     0.040 A 
ATOM     77  C   UNL     1      -0.371   1.722  -6.723  1.00  0.00     0.040 A 
ATOM     78  F   UNL     1      -0.428   3.935  -5.946  1.00  0.00    -0.206 F 
ATOM     79  C   UNL     1      -0.178   0.807  -7.757  1.00  0.00     0.006 A 
ENDBRANCH  51  72
BRANCH  63  80
ATOM     80  C   UNL     1      -3.460   8.115 -12.069  1.00  0.00     0.057 A 
ATOM     81  C   UNL     1      -4.737   7.845 -11.561  1.00  0.00     0.134 A 
ATOM     82  C   UNL     1      -3.332   8.247 -13.458  1.00  0.00     0.134 A 
ATOM     83  F   UNL     1      -4.926   7.694 -10.241  1.00  0.00    -0.206 F 
ATOM     84  C   UNL     1      -5.838   7.681 -12.403  1.00  0.00     0.040 A 
ATOM     85  C   UNL     1      -4.430   8.113 -14.308  1.00  0.00     0.040 A 
ATOM     86  F   UNL     1      -2.139   8.514 -14.010  1.00  0.00    -0.206 F 
ATOM     87  C   UNL     1      -5.686   7.820 -13.782  1.00  0.00     0.006 A 
ENDBRANCH  63  80
ENDBRANCH  37  38
ENDBRANCH  29  32
ENDBRANCH  27  28
ENDBRANCH  26  27
ENDBRANCH   1  26
TORSDOF 13
