REMARK SMILES O=C(C[N@@H+](CC(F)(F)F)[C@H]1CCCC[C@H]1O)NCCCNC(=O)c1ccc(-c2c3nc(c(-c4c(F)cccc4F)c4ccc([nH]4)c(-c4c(F)cccc4F)c4nc(c(-c5c(F)cccc5F)c5ccc2[nH]5)C=C4)C=C3)cc1
REMARK SMILES IDX 18 1 17 2 1 3 2 4 3 6 4 7 5 9 6 10 7 11 8 12 9 13 10 14
REMARK SMILES IDX 11 15 15 16 12 17 14 18 13 19 16 20 19 22 20 23 21 24 22 25
REMARK SMILES IDX 23 27 24 28 25 29 77 30 26 31 76 32 27 33 28 34 29 35 70 36
REMARK SMILES IDX 30 37 75 38 69 39 71 40 31 41 74 42 68 43 67 44 32 46 58 47
REMARK SMILES IDX 41 48 57 49 42 50 45 51 56 52 72 53 43 54 44 55 55 57 73 58
REMARK SMILES IDX 46 59 33 60 34 61 39 62 35 63 36 64 38 65 40 66 37 67 59 68
REMARK SMILES IDX 60 69 65 70 61 71 62 72 64 73 66 74 63 75 47 76 48 77 53 78
REMARK SMILES IDX 49 79 50 80 52 81 54 82 51 83
REMARK H PARENT 17 5 4 8 16 21 21 26 71 45 45 56
REMARK Flexibility Score: inf
ROOT
ATOM      1  C   UNL     1       2.169   1.934   1.519  1.00  0.00     0.118 C 
ENDROOT
BRANCH   1   2
ATOM      2  N   UNL     1       2.710   0.882   0.681  1.00  0.00    -0.351 N 
ATOM      3  O   UNL     1       0.685  -0.067   0.153  1.00  0.00    -0.269 OA
ATOM      4  C   UNL     1       1.903  -0.013   0.009  1.00  0.00     0.275 C 
ATOM      5  H   UNL     1       3.687   0.803   0.589  1.00  0.00     0.163 HD
BRANCH   4   6
ATOM      6  C   UNL     1       2.655  -0.982  -0.914  1.00  0.00     0.364 C 
BRANCH   6   7
ATOM      7  N   UNL     1       3.630  -0.284  -1.796  1.00  0.00    -0.315 N 
ATOM      8  H   UNL     1       4.214   0.344  -1.244  1.00  0.00     0.349 HD
BRANCH   7   9
ATOM      9  C   UNL     1       4.586  -1.270  -2.383  1.00  0.00     0.380 C 
BRANCH   9  10
ATOM     10  C   UNL     1       4.122  -2.612  -3.010  1.00  0.00     0.438 C 
ATOM     11  F   UNL     1       3.229  -2.470  -4.006  1.00  0.00    -0.165 F 
ATOM     12  F   UNL     1       5.182  -3.296  -3.502  1.00  0.00    -0.165 F 
ATOM     13  F   UNL     1       3.548  -3.403  -2.069  1.00  0.00    -0.165 F 
ENDBRANCH   9  10
ENDBRANCH   7   9
BRANCH   7  14
ATOM     14  C   UNL     1       2.970   0.667  -2.738  1.00  0.00     0.213 C 
ATOM     15  C   UNL     1       3.608   2.054  -2.486  1.00  0.00     0.068 C 
ATOM     16  C   UNL     1       2.925   0.383  -4.274  1.00  0.00     0.172 C 
ATOM     17  C   UNL     1       2.876   3.161  -3.244  1.00  0.00     0.006 C 
ATOM     18  C   UNL     1       2.228   1.516  -5.041  1.00  0.00     0.038 C 
ATOM     19  C   UNL     1       2.824   2.890  -4.741  1.00  0.00     0.003 C 
BRANCH  16  20
ATOM     20  O   UNL     1       4.223   0.189  -4.838  1.00  0.00    -0.387 OA
ATOM     21  H   UNL     1       4.739   1.006  -4.751  1.00  0.00     0.211 HD
ENDBRANCH  16  20
ENDBRANCH   7  14
ENDBRANCH   6   7
ENDBRANCH   4   6
ENDBRANCH   1   2
BRANCH   1  22
ATOM     22  C   UNL     1       2.445   1.722   3.003  1.00  0.00     0.042 C 
BRANCH  22  23
ATOM     23  C   UNL     1       3.914   1.831   3.404  1.00  0.00     0.118 C 
BRANCH  23  24
ATOM     24  N   UNL     1       4.478   3.152   3.168  1.00  0.00    -0.352 N 
ATOM     25  C   UNL     1       5.166   4.002   3.998  1.00  0.00     0.251 C 
ATOM     26  H   UNL     1       4.341   3.496   2.256  1.00  0.00     0.163 HD
ATOM     27  O   UNL     1       5.431   5.134   3.600  1.00  0.00    -0.269 OA
BRANCH  25  28
ATOM     28  C   UNL     1       5.579   3.598   5.364  1.00  0.00     0.039 A 
ATOM     29  C   UNL     1       5.536   4.561   6.379  1.00  0.00     0.014 A 
ATOM     30  C   UNL     1       6.061   2.319   5.651  1.00  0.00     0.014 A 
ATOM     31  C   UNL     1       5.918   4.227   7.681  1.00  0.00     0.010 A 
ATOM     32  C   UNL     1       6.373   1.965   6.965  1.00  0.00     0.010 A 
ATOM     33  C   UNL     1       6.311   2.916   7.995  1.00  0.00    -0.014 A 
BRANCH  33  34
ATOM     34  C   UNL     1       6.649   2.537   9.392  1.00  0.00     0.031 A 
ATOM     35  C   UNL     1       8.043   2.102   9.757  1.00  0.00     0.074 A 
ATOM     36  C   UNL     1       5.685   2.547  10.335  1.00  0.00     0.049 A 
ATOM     37  N   UNL     1       8.514   1.724  10.919  1.00  0.00    -0.248 NA
ATOM     38  C   UNL     1       9.032   2.063   8.669  1.00  0.00     0.031 C 
ATOM     39  C   UNL     1       4.282   2.896  10.105  1.00  0.00     0.029 A 
ATOM     40  N   UNL     1       5.739   2.253  11.674  1.00  0.00    -0.354 N 
ATOM     41  C   UNL     1       9.845   1.394  10.701  1.00  0.00     0.074 A 
ATOM     42  C   UNL     1      10.094   1.565   9.286  1.00  0.00     0.031 C 
ATOM     43  C   UNL     1       3.615   2.825  11.268  1.00  0.00     0.029 A 
ATOM     44  C   UNL     1       4.534   2.396  12.318  1.00  0.00     0.049 A 
ATOM     45  H   UNL     1       6.563   1.966  12.130  1.00  0.00     0.167 HD
ATOM     46  C   UNL     1      10.783   1.006  11.600  1.00  0.00     0.037 A 
ATOM     47  C   UNL     1       4.204   2.206  13.610  1.00  0.00     0.037 A 
ATOM     48  C   UNL     1      10.544   0.858  13.012  1.00  0.00     0.049 A 
ATOM     49  C   UNL     1       5.264   1.785  14.588  1.00  0.00     0.074 A 
ATOM     50  C   UNL     1      11.445   0.526  14.010  1.00  0.00     0.029 A 
ATOM     51  N   UNL     1       9.314   1.029  13.628  1.00  0.00    -0.354 N 
ATOM     52  N   UNL     1       6.536   1.547  14.379  1.00  0.00    -0.248 NA
ATOM     53  C   UNL     1       4.844   1.617  15.987  1.00  0.00     0.031 C 
ATOM     54  C   UNL     1      10.752   0.459  15.223  1.00  0.00     0.029 A 
ATOM     55  C   UNL     1       9.429   0.793  14.989  1.00  0.00     0.049 A 
ATOM     56  H   UNL     1       8.481   1.281  13.167  1.00  0.00     0.167 HD
ATOM     57  C   UNL     1       7.073   1.229  15.620  1.00  0.00     0.074 A 
ATOM     58  C   UNL     1       5.992   1.321  16.579  1.00  0.00     0.031 C 
ATOM     59  C   UNL     1       8.347   0.891  15.935  1.00  0.00     0.037 A 
BRANCH  46  60
ATOM     60  C   UNL     1      12.163   0.721  11.081  1.00  0.00     0.057 A 
ATOM     61  C   UNL     1      13.007   1.744  10.628  1.00  0.00     0.134 A 
ATOM     62  C   UNL     1      12.669  -0.585  11.068  1.00  0.00     0.134 A 
ATOM     63  F   UNL     1      12.580   3.016  10.604  1.00  0.00    -0.206 F 
ATOM     64  C   UNL     1      14.293   1.476  10.157  1.00  0.00     0.040 A 
ATOM     65  C   UNL     1      13.964  -0.862  10.625  1.00  0.00     0.040 A 
ATOM     66  F   UNL     1      11.918  -1.611  11.495  1.00  0.00    -0.206 F 
ATOM     67  C   UNL     1      14.777   0.170  10.161  1.00  0.00     0.006 A 
ENDBRANCH  46  60
BRANCH  47  68
ATOM     68  C   UNL     1       2.811   2.445  14.063  1.00  0.00     0.057 A 
ATOM     69  C   UNL     1       2.495   3.540  14.876  1.00  0.00     0.134 A 
ATOM     70  C   UNL     1       1.767   1.584  13.704  1.00  0.00     0.134 A 
ATOM     71  F   UNL     1       3.457   4.388  15.268  1.00  0.00    -0.206 F 
ATOM     72  C   UNL     1       1.195   3.760  15.333  1.00  0.00     0.040 A 
ATOM     73  C   UNL     1       0.458   1.806  14.134  1.00  0.00     0.040 A 
ATOM     74  F   UNL     1       2.004   0.521  12.921  1.00  0.00    -0.206 F 
ATOM     75  C   UNL     1       0.171   2.893  14.957  1.00  0.00     0.006 A 
ENDBRANCH  47  68
BRANCH  59  76
ATOM     76  C   UNL     1       8.646   0.629  17.382  1.00  0.00     0.057 A 
ATOM     77  C   UNL     1       8.192  -0.524  18.035  1.00  0.00     0.134 A 
ATOM     78  C   UNL     1       9.417   1.532  18.126  1.00  0.00     0.134 A 
ATOM     79  F   UNL     1       7.438  -1.422  17.384  1.00  0.00    -0.206 F 
ATOM     80  C   UNL     1       8.470  -0.755  19.384  1.00  0.00     0.040 A 
ATOM     81  C   UNL     1       9.724   1.299  19.467  1.00  0.00     0.040 A 
ATOM     82  F   UNL     1       9.891   2.652  17.558  1.00  0.00    -0.206 F 
ATOM     83  C   UNL     1       9.243   0.156  20.102  1.00  0.00     0.006 A 
ENDBRANCH  59  76
ENDBRANCH  33  34
ENDBRANCH  25  28
ENDBRANCH  23  24
ENDBRANCH  22  23
ENDBRANCH   1  22
TORSDOF 15
