REMARK SMILES CC[C@](C)(NC(=O)c1cccc2ncccc12)C(=O)NCCCNC(=O)c1ccc(-c2c3nc(c(-c4c(F)cccc4F)c4ccc([nH]4)c(-c4c(F)cccc4F)c4nc(c(-c5c(F)cccc5F)c5ccc2[nH]5)C=C4)C=C3)cc1
REMARK SMILES IDX 22 1 21 2 20 3 18 4 19 5 3 7 4 8 2 9 1 10 5 11 6 12 7 14
REMARK SMILES IDX 8 15 9 16 17 17 10 18 12 19 16 20 11 21 13 22 15 23 14 24
REMARK SMILES IDX 23 25 24 26 25 27 26 29 27 30 28 31 80 32 29 33 79 34 30 35
REMARK SMILES IDX 31 36 32 37 73 38 33 39 78 40 72 41 74 42 34 43 77 44 71 45
REMARK SMILES IDX 70 46 35 48 61 49 44 50 60 51 45 52 48 53 59 54 75 55 46 56
REMARK SMILES IDX 47 57 58 59 76 60 49 61 36 62 37 63 42 64 38 65 39 66 41 67
REMARK SMILES IDX 43 68 40 69 62 70 63 71 68 72 64 73 65 74 67 75 69 76 66 77
REMARK SMILES IDX 50 78 51 79 56 80 52 81 53 82 55 83 57 84 54 85
REMARK H PARENT 20 6 5 13 24 28 74 47 48 58
REMARK Flexibility Score: inf
ROOT
ATOM      1  C   UNL     1       2.580   3.463  -5.093  1.00  0.00     0.042 C 
ENDROOT
BRANCH   1   2
ATOM      2  C   UNL     1       2.210   1.983  -4.957  1.00  0.00     0.117 C 
BRANCH   2   3
ATOM      3  N   UNL     1       2.736   1.216  -3.832  1.00  0.00    -0.354 N 
ATOM      4  C   UNL     1       2.309   1.006  -2.541  1.00  0.00     0.245 C 
ATOM      5  O   UNL     1       2.889   0.109  -1.919  1.00  0.00    -0.272 OA
ATOM      6  H   UNL     1       3.576   0.749  -4.042  1.00  0.00     0.163 HD
BRANCH   4   7
ATOM      7  C   UNL     1       1.126   1.796  -1.900  1.00  0.00     0.116 C 
ATOM      8  C   UNL     1       1.048   1.576  -0.375  1.00  0.00     0.045 C 
BRANCH   7   9
ATOM      9  C   UNL     1      -0.152   1.188  -2.597  1.00  0.00     0.035 C 
ATOM     10  C   UNL     1      -0.796  -0.021  -1.918  1.00  0.00     0.007 C 
ENDBRANCH   7   9
BRANCH   7  11
ATOM     11  N   UNL     1       1.159   3.283  -2.120  1.00  0.00    -0.338 N 
ATOM     12  C   UNL     1       1.921   4.349  -1.647  1.00  0.00     0.252 C 
ATOM     13  H   UNL     1       0.470   3.577  -2.758  1.00  0.00     0.164 HD
ATOM     14  O   UNL     1       1.325   5.429  -1.646  1.00  0.00    -0.269 OA
BRANCH  12  15
ATOM     15  C   UNL     1       3.388   4.322  -1.268  1.00  0.00     0.049 A 
ATOM     16  C   UNL     1       4.192   3.308  -1.773  1.00  0.00     0.014 A 
ATOM     17  C   UNL     1       4.064   5.399  -0.599  1.00  0.00     0.013 A 
ATOM     18  C   UNL     1       5.567   3.247  -1.608  1.00  0.00     0.003 A 
ATOM     19  C   UNL     1       5.484   5.348  -0.462  1.00  0.00     0.071 A 
ATOM     20  C   UNL     1       3.472   6.572  -0.072  1.00  0.00     0.013 A 
ATOM     21  C   UNL     1       6.199   4.273  -0.945  1.00  0.00     0.029 A 
ATOM     22  N   UNL     1       6.231   6.312   0.087  1.00  0.00    -0.256 NA
ATOM     23  C   UNL     1       4.249   7.589   0.487  1.00  0.00     0.021 A 
ATOM     24  C   UNL     1       5.613   7.415   0.537  1.00  0.00     0.112 A 
ENDBRANCH  12  15
ENDBRANCH   7  11
ENDBRANCH   4   7
ENDBRANCH   2   3
ENDBRANCH   1   2
BRANCH   1  25
ATOM     25  C   UNL     1       4.048   3.858  -5.221  1.00  0.00     0.118 C 
BRANCH  25  26
ATOM     26  N   UNL     1       4.747   3.239  -6.325  1.00  0.00    -0.352 N 
ATOM     27  C   UNL     1       5.556   3.802  -7.283  1.00  0.00     0.251 C 
ATOM     28  H   UNL     1       4.624   2.265  -6.403  1.00  0.00     0.163 HD
ATOM     29  O   UNL     1       6.031   3.087  -8.158  1.00  0.00    -0.269 OA
BRANCH  27  30
ATOM     30  C   UNL     1       5.833   5.259  -7.307  1.00  0.00     0.039 A 
ATOM     31  C   UNL     1       5.713   5.922  -8.533  1.00  0.00     0.014 A 
ATOM     32  C   UNL     1       6.265   5.966  -6.180  1.00  0.00     0.014 A 
ATOM     33  C   UNL     1       5.982   7.290  -8.623  1.00  0.00     0.010 A 
ATOM     34  C   UNL     1       6.489   7.347  -6.262  1.00  0.00     0.010 A 
ATOM     35  C   UNL     1       6.353   8.024  -7.485  1.00  0.00    -0.014 A 
BRANCH  35  36
ATOM     36  C   UNL     1       6.585   9.493  -7.581  1.00  0.00     0.031 A 
ATOM     37  C   UNL     1       7.959  10.074  -7.384  1.00  0.00     0.074 A 
ATOM     38  C   UNL     1       5.549  10.316  -7.840  1.00  0.00     0.049 A 
ATOM     39  N   UNL     1       8.344  11.326  -7.433  1.00  0.00    -0.248 NA
ATOM     40  C   UNL     1       9.041   9.126  -7.081  1.00  0.00     0.031 C 
ATOM     41  C   UNL     1       4.162   9.892  -8.030  1.00  0.00     0.029 A 
ATOM     42  N   UNL     1       5.501  11.682  -7.986  1.00  0.00    -0.354 N 
ATOM     43  C   UNL     1       9.707  11.317  -7.165  1.00  0.00     0.074 A 
ATOM     44  C   UNL     1      10.074   9.940  -6.907  1.00  0.00     0.031 C 
ATOM     45  C   UNL     1       3.404  10.970  -8.287  1.00  0.00     0.029 A 
ATOM     46  C   UNL     1       4.240  12.166  -8.242  1.00  0.00     0.049 A 
ATOM     47  H   UNL     1       6.295  12.259  -7.913  1.00  0.00     0.167 HD
ATOM     48  C   UNL     1      10.579  12.356  -7.151  1.00  0.00     0.037 A 
ATOM     49  C   UNL     1       3.802  13.428  -8.410  1.00  0.00     0.037 A 
ATOM     50  C   UNL     1      10.218  13.727  -7.410  1.00  0.00     0.049 A 
ATOM     51  C   UNL     1       4.782  14.568  -8.349  1.00  0.00     0.074 A 
ATOM     52  C   UNL     1      11.042  14.840  -7.463  1.00  0.00     0.029 A 
ATOM     53  N   UNL     1       8.928  14.177  -7.649  1.00  0.00    -0.354 N 
ATOM     54  N   UNL     1       6.079  14.536  -8.160  1.00  0.00    -0.248 NA
ATOM     55  C   UNL     1       4.237  15.922  -8.529  1.00  0.00     0.031 C 
ATOM     56  C   UNL     1      10.244  15.969  -7.675  1.00  0.00     0.029 A 
ATOM     57  C   UNL     1       8.930  15.554  -7.817  1.00  0.00     0.049 A 
ATOM     58  H   UNL     1       8.129  13.604  -7.692  1.00  0.00     0.167 HD
ATOM     59  C   UNL     1       6.507  15.856  -8.228  1.00  0.00     0.074 A 
ATOM     60  C   UNL     1       5.335  16.663  -8.492  1.00  0.00     0.031 C 
ATOM     61  C   UNL     1       7.760  16.352  -8.084  1.00  0.00     0.037 A 
BRANCH  48  62
ATOM     62  C   UNL     1      12.017  12.053  -6.834  1.00  0.00     0.057 A 
ATOM     63  C   UNL     1      12.839  11.350  -7.725  1.00  0.00     0.134 A 
ATOM     64  C   UNL     1      12.599  12.508  -5.644  1.00  0.00     0.134 A 
ATOM     65  F   UNL     1      12.345  10.881  -8.881  1.00  0.00    -0.206 F 
ATOM     66  C   UNL     1      14.179  11.086  -7.431  1.00  0.00     0.040 A 
ATOM     67  C   UNL     1      13.945  12.276  -5.352  1.00  0.00     0.040 A 
ATOM     68  F   UNL     1      11.874  13.198  -4.750  1.00  0.00    -0.206 F 
ATOM     69  C   UNL     1      14.737  11.556  -6.244  1.00  0.00     0.006 A 
ENDBRANCH  48  62
BRANCH  49  70
ATOM     70  C   UNL     1       2.360  13.688  -8.660  1.00  0.00     0.057 A 
ATOM     71  C   UNL     1       1.913  14.174  -9.895  1.00  0.00     0.134 A 
ATOM     72  C   UNL     1       1.398  13.479  -7.665  1.00  0.00     0.134 A 
ATOM     73  F   UNL     1       2.789  14.417 -10.882  1.00  0.00    -0.206 F 
ATOM     74  C   UNL     1       0.567  14.461 -10.125  1.00  0.00     0.040 A 
ATOM     75  C   UNL     1       0.044  13.734  -7.890  1.00  0.00     0.040 A 
ATOM     76  F   UNL     1       1.759  13.012  -6.461  1.00  0.00    -0.206 F 
ATOM     77  C   UNL     1      -0.373  14.236  -9.121  1.00  0.00     0.006 A 
ENDBRANCH  49  70
BRANCH  61  78
ATOM     78  C   UNL     1       7.939  17.836  -8.245  1.00  0.00     0.057 A 
ATOM     79  C   UNL     1       7.464  18.750  -7.295  1.00  0.00     0.134 A 
ATOM     80  C   UNL     1       8.626  18.356  -9.351  1.00  0.00     0.134 A 
ATOM     81  F   UNL     1       6.786  18.322  -6.219  1.00  0.00    -0.206 F 
ATOM     82  C   UNL     1       7.643  20.126  -7.452  1.00  0.00     0.040 A 
ATOM     83  C   UNL     1       8.837  19.727  -9.503  1.00  0.00     0.040 A 
ATOM     84  F   UNL     1       9.115  17.538 -10.295  1.00  0.00    -0.206 F 
ATOM     85  C   UNL     1       8.338  20.617  -8.555  1.00  0.00     0.006 A 
ENDBRANCH  61  78
ENDBRANCH  35  36
ENDBRANCH  27  30
ENDBRANCH  25  26
ENDBRANCH   1  25
TORSDOF 13
