REMARK SMILES O=C(C[N@@H+]1CC[N@H+](Cc2cc(F)ccc2Cl)[C@H]2CS(=O)(=O)C[C@H]21)NCCCNC(=O)c1ccc(-c2c3nc(c(-c4c(F)cccc4F)c4ccc([nH]4)c(-c4c(F)cccc4F)c4nc(c(-c5c(F)cccc5F)c5ccc2[nH]5)C=C4)C=C3)cc1
REMARK SMILES IDX 25 1 24 2 1 3 2 4 3 6 4 7 5 8 23 9 6 11 17 12 22 13 7 14
REMARK SMILES IDX 18 15 19 16 20 18 21 19 8 20 9 21 10 22 15 23 11 24 14 25
REMARK SMILES IDX 16 26 12 27 13 28 26 29 27 30 28 31 29 32 30 34 31 35 32 36
REMARK SMILES IDX 84 37 33 38 83 39 34 40 35 41 36 42 77 43 37 44 82 45 76 46
REMARK SMILES IDX 78 47 38 48 81 49 75 50 74 51 39 53 65 54 48 55 64 56 49 57
REMARK SMILES IDX 52 58 63 59 79 60 50 61 51 62 62 64 80 65 53 66 40 67 41 68
REMARK SMILES IDX 46 69 42 70 43 71 45 72 47 73 44 74 66 75 67 76 72 77 68 78
REMARK SMILES IDX 69 79 71 80 73 81 70 82 54 83 55 84 60 85 56 86 57 87 59 88
REMARK SMILES IDX 61 89 58 90
REMARK H PARENT 24 5 4 10 7 17 28 33 78 52 52 63
REMARK Flexibility Score: inf
ROOT
ATOM      1  C   UNL     1       1.313  -1.576  -2.974  1.00  0.00     0.118 C 
ENDROOT
BRANCH   1   2
ATOM      2  N   UNL     1       1.881  -0.738  -1.919  1.00  0.00    -0.351 N 
ATOM      3  O   UNL     1       0.738  -1.728  -0.183  1.00  0.00    -0.269 OA
ATOM      4  C   UNL     1       1.595  -0.933  -0.561  1.00  0.00     0.275 C 
ATOM      5  H   UNL     1       2.489  -0.006  -2.172  1.00  0.00     0.163 HD
BRANCH   4   6
ATOM      6  C   UNL     1       2.455  -0.101   0.444  1.00  0.00     0.364 C 
BRANCH   6   7
ATOM      7  N   UNL     1       3.325  -0.926   1.358  1.00  0.00    -0.314 N 
ATOM      8  C   UNL     1       4.265  -0.058   2.099  1.00  0.00     0.325 C 
ATOM      9  C   UNL     1       4.113  -1.945   0.641  1.00  0.00     0.259 C 
ATOM     10  H   UNL     1       2.687  -1.403   1.994  1.00  0.00     0.349 HD
ATOM     11  C   UNL     1       5.435   0.530   1.266  1.00  0.00     0.325 C 
ATOM     12  C   UNL     1       5.060  -1.308  -0.403  1.00  0.00     0.259 C 
ATOM     13  C   UNL     1       5.010  -2.865   1.478  1.00  0.00     0.208 C 
ATOM     14  N   UNL     1       5.909  -0.190   0.067  1.00  0.00    -0.318 N 
ATOM     15  C   UNL     1       5.809  -2.488  -1.041  1.00  0.00     0.208 C 
ATOM     16  S   UNL     1       5.940  -3.736   0.229  1.00  0.00     0.162 S 
ATOM     17  H   UNL     1       6.727  -0.715   0.376  1.00  0.00     0.349 HD
ATOM     18  O   UNL     1       5.158  -4.892  -0.188  1.00  0.00    -0.228 OA
ATOM     19  O   UNL     1       7.313  -3.857   0.646  1.00  0.00    -0.228 OA
BRANCH  14  20
ATOM     20  C   UNL     1       6.410   0.741  -0.983  1.00  0.00     0.301 C 
BRANCH  20  21
ATOM     21  C   UNL     1       5.396   1.746  -1.539  1.00  0.00     0.028 A 
ATOM     22  C   UNL     1       5.251   3.022  -0.971  1.00  0.00     0.050 A 
ATOM     23  C   UNL     1       4.513   1.419  -2.571  1.00  0.00     0.050 A 
ATOM     24  C   UNL     1       4.185   3.850  -1.333  1.00  0.00     0.123 A 
ATOM     25  C   UNL     1       3.447   2.251  -2.943  1.00  0.00     0.024 A 
ATOM     26  Cl  UNL     1       4.653  -0.087  -3.349  1.00  0.00    -0.084 Cl
ATOM     27  F   UNL     1       4.024   5.023  -0.710  1.00  0.00    -0.207 F 
ATOM     28  C   UNL     1       3.264   3.463  -2.295  1.00  0.00     0.041 A 
ENDBRANCH  20  21
ENDBRANCH  14  20
ENDBRANCH   6   7
ENDBRANCH   4   6
ENDBRANCH   1   2
BRANCH   1  29
ATOM     29  C   UNL     1       1.166  -0.972  -4.394  1.00  0.00     0.042 C 
BRANCH  29  30
ATOM     30  C   UNL     1       2.335  -0.817  -5.406  1.00  0.00     0.118 C 
BRANCH  30  31
ATOM     31  N   UNL     1       3.328  -1.880  -5.471  1.00  0.00    -0.352 N 
ATOM     32  C   UNL     1       4.571  -1.879  -6.091  1.00  0.00     0.251 C 
ATOM     33  H   UNL     1       3.084  -2.716  -5.012  1.00  0.00     0.163 HD
ATOM     34  O   UNL     1       5.305  -2.859  -5.994  1.00  0.00    -0.269 OA
BRANCH  32  35
ATOM     35  C   UNL     1       5.047  -0.717  -6.890  1.00  0.00     0.039 A 
ATOM     36  C   UNL     1       4.895  -0.725  -8.275  1.00  0.00     0.014 A 
ATOM     37  C   UNL     1       5.775   0.325  -6.309  1.00  0.00     0.014 A 
ATOM     38  C   UNL     1       5.351   0.364  -9.036  1.00  0.00     0.010 A 
ATOM     39  C   UNL     1       6.136   1.457  -7.043  1.00  0.00     0.010 A 
ATOM     40  C   UNL     1       5.907   1.501  -8.418  1.00  0.00    -0.014 A 
BRANCH  40  41
ATOM     41  C   UNL     1       6.137   2.768  -9.169  1.00  0.00     0.031 A 
ATOM     42  C   UNL     1       7.503   3.386  -9.308  1.00  0.00     0.074 A 
ATOM     43  C   UNL     1       5.061   3.425  -9.648  1.00  0.00     0.049 A 
ATOM     44  N   UNL     1       7.842   4.513  -9.888  1.00  0.00    -0.248 NA
ATOM     45  C   UNL     1       8.632   2.663  -8.704  1.00  0.00     0.031 C 
ATOM     46  C   UNL     1       3.673   2.977  -9.512  1.00  0.00     0.029 A 
ATOM     47  N   UNL     1       4.958   4.611 -10.332  1.00  0.00    -0.354 N 
ATOM     48  C   UNL     1       9.217   4.636  -9.719  1.00  0.00     0.074 A 
ATOM     49  C   UNL     1       9.643   3.489  -8.943  1.00  0.00     0.031 C 
ATOM     50  C   UNL     1       2.863   3.855 -10.120  1.00  0.00     0.029 A 
ATOM     51  C   UNL     1       3.665   4.951 -10.651  1.00  0.00     0.049 A 
ATOM     52  H   UNL     1       5.736   5.165 -10.571  1.00  0.00     0.167 HD
ATOM     53  C   UNL     1      10.048   5.603 -10.182  1.00  0.00     0.037 A 
ATOM     54  C   UNL     1       3.171   6.026 -11.293  1.00  0.00     0.037 A 
ATOM     55  C   UNL     1       9.625   6.739 -10.963  1.00  0.00     0.049 A 
ATOM     56  C   UNL     1       4.112   7.079 -11.800  1.00  0.00     0.074 A 
ATOM     57  C   UNL     1      10.402   7.741 -11.521  1.00  0.00     0.029 A 
ATOM     58  N   UNL     1       8.309   7.028 -11.293  1.00  0.00    -0.354 N 
ATOM     59  N   UNL     1       5.417   7.136 -11.698  1.00  0.00    -0.248 NA
ATOM     60  C   UNL     1       3.515   8.215 -12.516  1.00  0.00     0.031 C 
ATOM     61  C   UNL     1       9.554   8.657 -12.153  1.00  0.00     0.029 A 
ATOM     62  C   UNL     1       8.252   8.201 -12.030  1.00  0.00     0.049 A 
ATOM     63  H   UNL     1       7.531   6.481 -11.040  1.00  0.00     0.167 HD
ATOM     64  C   UNL     1       5.800   8.291 -12.366  1.00  0.00     0.074 A 
ATOM     65  C   UNL     1       4.590   8.904 -12.872  1.00  0.00     0.031 C 
ATOM     66  C   UNL     1       7.045   8.794 -12.545  1.00  0.00     0.037 A 
BRANCH  53  67
ATOM     67  C   UNL     1      11.512   5.477  -9.865  1.00  0.00     0.057 A 
ATOM     68  C   UNL     1      12.316   4.502 -10.471  1.00  0.00     0.134 A 
ATOM     69  C   UNL     1      12.139   6.374  -8.990  1.00  0.00     0.134 A 
ATOM     70  F   UNL     1      11.779   3.611 -11.319  1.00  0.00    -0.206 F 
ATOM     71  C   UNL     1      13.682   4.406 -10.198  1.00  0.00     0.040 A 
ATOM     72  C   UNL     1      13.509   6.304  -8.728  1.00  0.00     0.040 A 
ATOM     73  F   UNL     1      11.434   7.343  -8.387  1.00  0.00    -0.206 F 
ATOM     74  C   UNL     1      14.284   5.313  -9.328  1.00  0.00     0.006 A 
ENDBRANCH  53  67
BRANCH  54  75
ATOM     75  C   UNL     1       1.709   6.140 -11.520  1.00  0.00     0.057 A 
ATOM     76  C   UNL     1       1.165   5.989 -12.800  1.00  0.00     0.134 A 
ATOM     77  C   UNL     1       0.822   6.391 -10.466  1.00  0.00     0.134 A 
ATOM     78  F   UNL     1       1.966   5.759 -13.851  1.00  0.00    -0.206 F 
ATOM     79  C   UNL     1      -0.207   6.102 -13.029  1.00  0.00     0.040 A 
ATOM     80  C   UNL     1      -0.554   6.482 -10.676  1.00  0.00     0.040 A 
ATOM     81  F   UNL     1       1.281   6.529  -9.213  1.00  0.00    -0.206 F 
ATOM     82  C   UNL     1      -1.071   6.345 -11.963  1.00  0.00     0.006 A 
ENDBRANCH  54  75
BRANCH  66  83
ATOM     83  C   UNL     1       7.173  10.044 -13.363  1.00  0.00     0.057 A 
ATOM     84  C   UNL     1       6.805  11.299 -12.862  1.00  0.00     0.134 A 
ATOM     85  C   UNL     1       7.721   9.996 -14.651  1.00  0.00     0.134 A 
ATOM     86  F   UNL     1       6.259  11.410 -11.642  1.00  0.00    -0.206 F 
ATOM     87  C   UNL     1       6.967  12.461 -13.618  1.00  0.00     0.040 A 
ATOM     88  C   UNL     1       7.910  11.153 -15.408  1.00  0.00     0.040 A 
ATOM     89  F   UNL     1       8.098   8.825 -15.188  1.00  0.00    -0.206 F 
ATOM     90  C   UNL     1       7.529  12.390 -14.892  1.00  0.00     0.006 A 
ENDBRANCH  66  83
ENDBRANCH  40  41
ENDBRANCH  32  35
ENDBRANCH  30  31
ENDBRANCH  29  30
ENDBRANCH   1  29
TORSDOF 13
