REMARK SMILES CC1=C(CC(=O)NCCCNC(=O)c2ccc(-c3c4nc(c(-c5c(F)cccc5F)c5ccc([nH]5)c(-c5c(F)cccc5F)c5nc(c(-c6c(F)cccc6F)c6ccc3[nH]6)C=C5)C=C4)cc2)c2cc(F)ccc2/C1=C\c1ccc([S@@+](C)[O-])cc1
REMARK SMILES IDX 8 1 7 2 5 3 6 4 4 6 3 7 1 8 2 9 75 10 68 11 74 12 76 13
REMARK SMILES IDX 69 14 73 15 70 16 72 17 71 18 77 19 78 20 85 21 79 22 84 23
REMARK SMILES IDX 80 24 81 25 82 26 83 27 9 28 10 29 11 30 12 31 13 33 14 34
REMARK SMILES IDX 15 35 67 36 16 37 66 38 17 39 18 40 19 41 60 42 20 43 65 44
REMARK SMILES IDX 59 45 61 46 21 47 64 48 58 49 57 50 22 52 48 53 31 54 47 55
REMARK SMILES IDX 32 56 35 57 46 58 62 59 33 60 34 61 45 63 63 64 36 65 23 66
REMARK SMILES IDX 24 67 29 68 25 69 26 70 28 71 30 72 27 73 49 74 50 75 55 76
REMARK SMILES IDX 51 77 52 78 54 79 56 80 53 81 37 82 38 83 43 84 39 85 40 86
REMARK SMILES IDX 42 87 44 88 41 89
REMARK H PARENT 7 5 11 32 61 51 35 62
REMARK Flexibility Score: inf
ROOT
ATOM      1  C   UNL     1       3.695  -1.653   1.099  1.00  0.00     0.117 C 
ENDROOT
BRANCH   1   2
ATOM      2  N   UNL     1       3.299  -2.934   1.649  1.00  0.00    -0.356 N 
ATOM      3  C   UNL     1       2.058  -3.496   1.714  1.00  0.00     0.224 C 
ATOM      4  O   UNL     1       1.948  -4.595   2.262  1.00  0.00    -0.275 OA
ATOM      5  H   UNL     1       4.029  -3.475   2.028  1.00  0.00     0.163 HD
BRANCH   3   6
ATOM      6  C   UNL     1       0.855  -2.792   1.092  1.00  0.00     0.136 C 
BRANCH   6   7
ATOM      7  C   UNL     1       0.398  -1.594   1.862  1.00  0.00    -0.027 C 
ATOM      8  C   UNL     1       0.589   0.260   0.110  1.00  0.00     0.045 C 
ATOM      9  C   UNL     1       0.299  -0.303   1.463  1.00  0.00    -0.039 C 
ATOM     10  C   UNL     1      -0.182   0.529   2.581  1.00  0.00    -0.014 C 
ATOM     11  C   UNL     1      -0.095  -1.671   3.249  1.00  0.00    -0.011 A 
ATOM     12  C   UNL     1      -0.502  -0.395   3.685  1.00  0.00    -0.010 A 
ATOM     13  C   UNL     1      -0.243   1.876   2.551  1.00  0.00     0.017 C 
ATOM     14  C   UNL     1      -0.220  -2.777   4.081  1.00  0.00     0.048 A 
ATOM     15  C   UNL     1      -1.093  -0.233   4.931  1.00  0.00     0.012 A 
ATOM     16  C   UNL     1      -0.762  -2.591   5.349  1.00  0.00     0.123 A 
ATOM     17  C   UNL     1      -1.206  -1.340   5.775  1.00  0.00     0.040 A 
ATOM     18  F   UNL     1      -0.875  -3.639   6.176  1.00  0.00    -0.207 F 
BRANCH  13  19
ATOM     19  C   UNL     1      -0.705   2.754   3.631  1.00  0.00    -0.025 A 
ATOM     20  C   UNL     1       0.000   2.876   4.834  1.00  0.00     0.013 A 
ATOM     21  C   UNL     1      -1.916   3.432   3.477  1.00  0.00     0.013 A 
ATOM     22  C   UNL     1      -0.565   3.562   5.917  1.00  0.00     0.061 A 
ATOM     23  C   UNL     1      -2.467   4.137   4.550  1.00  0.00     0.061 A 
ATOM     24  C   UNL     1      -1.818   4.174   5.791  1.00  0.00     0.152 A 
BRANCH  24  25
ATOM     25  S   UNL     1      -2.701   4.838   7.228  1.00  0.00    -0.018 S 
ATOM     26  C   UNL     1      -1.421   5.883   7.941  1.00  0.00     0.346 C 
ATOM     27  O   UNL     1      -3.830   5.780   6.671  1.00  0.00    -0.612 OA
ENDBRANCH  24  25
ENDBRANCH  13  19
ENDBRANCH   6   7
ENDBRANCH   3   6
ENDBRANCH   1   2
BRANCH   1  28
ATOM     28  C   UNL     1       3.824  -0.579   2.174  1.00  0.00     0.042 C 
BRANCH  28  29
ATOM     29  C   UNL     1       4.987  -0.799   3.133  1.00  0.00     0.118 C 
BRANCH  29  30
ATOM     30  N   UNL     1       6.289  -0.629   2.500  1.00  0.00    -0.352 N 
ATOM     31  C   UNL     1       7.339   0.192   2.836  1.00  0.00     0.251 C 
ATOM     32  H   UNL     1       6.441  -1.192   1.706  1.00  0.00     0.163 HD
ATOM     33  O   UNL     1       8.298   0.295   2.076  1.00  0.00    -0.269 OA
BRANCH  31  34
ATOM     34  C   UNL     1       7.307   0.979   4.090  1.00  0.00     0.039 A 
ATOM     35  C   UNL     1       6.829   0.421   5.275  1.00  0.00     0.014 A 
ATOM     36  C   UNL     1       7.761   2.302   4.079  1.00  0.00     0.014 A 
ATOM     37  C   UNL     1       6.624   1.232   6.385  1.00  0.00     0.010 A 
ATOM     38  C   UNL     1       7.646   3.091   5.229  1.00  0.00     0.010 A 
ATOM     39  C   UNL     1       7.019   2.580   6.375  1.00  0.00    -0.014 A 
BRANCH  39  40
ATOM     40  C   UNL     1       6.737   3.418   7.572  1.00  0.00     0.031 A 
ATOM     41  C   UNL     1       5.777   4.577   7.497  1.00  0.00     0.074 A 
ATOM     42  C   UNL     1       7.272   3.068   8.758  1.00  0.00     0.049 A 
ATOM     43  N   UNL     1       5.313   5.330   8.465  1.00  0.00    -0.248 NA
ATOM     44  C   UNL     1       5.272   4.944   6.165  1.00  0.00     0.031 C 
ATOM     45  C   UNL     1       8.221   1.971   8.963  1.00  0.00     0.029 A 
ATOM     46  N   UNL     1       7.061   3.564  10.019  1.00  0.00    -0.354 N 
ATOM     47  C   UNL     1       4.473   6.258   7.860  1.00  0.00     0.074 A 
ATOM     48  C   UNL     1       4.524   6.003   6.437  1.00  0.00     0.031 C 
ATOM     49  C   UNL     1       8.451   1.829  10.277  1.00  0.00     0.029 A 
ATOM     50  C   UNL     1       7.709   2.855  11.001  1.00  0.00     0.049 A 
ATOM     51  H   UNL     1       6.499   4.351  10.202  1.00  0.00     0.167 HD
ATOM     52  C   UNL     1       3.709   7.219   8.436  1.00  0.00     0.037 A 
ATOM     53  C   UNL     1       7.701   3.009  12.338  1.00  0.00     0.037 A 
ATOM     54  C   UNL     1       3.652   7.473   9.854  1.00  0.00     0.049 A 
ATOM     55  C   UNL     1       6.874   4.106  12.944  1.00  0.00     0.074 A 
ATOM     56  C   UNL     1       2.909   8.424  10.535  1.00  0.00     0.029 A 
ATOM     57  N   UNL     1       4.370   6.772  10.811  1.00  0.00    -0.354 N 
ATOM     58  N   UNL     1       6.060   4.952  12.360  1.00  0.00    -0.248 NA
ATOM     59  C   UNL     1       6.969   4.268  14.401  1.00  0.00     0.031 C 
ATOM     60  C   UNL     1       3.204   8.318  11.900  1.00  0.00     0.029 A 
ATOM     61  C   UNL     1       4.097   7.274  12.074  1.00  0.00     0.049 A 
ATOM     62  H   UNL     1       4.985   6.026  10.621  1.00  0.00     0.167 HD
ATOM     63  C   UNL     1       5.531   5.731  13.379  1.00  0.00     0.074 A 
ATOM     64  C   UNL     1       6.092   5.237  14.619  1.00  0.00     0.031 C 
ATOM     65  C   UNL     1       4.663   6.770  13.298  1.00  0.00     0.037 A 
BRANCH  52  66
ATOM     66  C   UNL     1       2.868   8.066   7.523  1.00  0.00     0.057 A 
ATOM     67  C   UNL     1       3.154   9.422   7.325  1.00  0.00     0.134 A 
ATOM     68  C   UNL     1       1.753   7.541   6.857  1.00  0.00     0.134 A 
ATOM     69  F   UNL     1       4.208   9.991   7.928  1.00  0.00    -0.206 F 
ATOM     70  C   UNL     1       2.358  10.225   6.505  1.00  0.00     0.040 A 
ATOM     71  C   UNL     1       0.964   8.327   6.014  1.00  0.00     0.040 A 
ATOM     72  F   UNL     1       1.433   6.244   6.992  1.00  0.00    -0.206 F 
ATOM     73  C   UNL     1       1.260   9.677   5.845  1.00  0.00     0.006 A 
ENDBRANCH  52  66
BRANCH  53  74
ATOM     74  C   UNL     1       8.494   2.101  13.205  1.00  0.00     0.057 A 
ATOM     75  C   UNL     1       9.893   2.134  13.208  1.00  0.00     0.134 A 
ATOM     76  C   UNL     1       7.866   1.213  14.087  1.00  0.00     0.134 A 
ATOM     77  F   UNL     1      10.553   2.959  12.383  1.00  0.00    -0.206 F 
ATOM     78  C   UNL     1      10.640   1.318  14.057  1.00  0.00     0.040 A 
ATOM     79  C   UNL     1       8.601   0.412  14.963  1.00  0.00     0.040 A 
ATOM     80  F   UNL     1       6.527   1.151  14.144  1.00  0.00    -0.206 F 
ATOM     81  C   UNL     1       9.993   0.463  14.947  1.00  0.00     0.006 A 
ENDBRANCH  53  74
BRANCH  65  82
ATOM     82  C   UNL     1       4.253   7.403  14.595  1.00  0.00     0.057 A 
ATOM     83  C   UNL     1       2.965   7.207  15.109  1.00  0.00     0.134 A 
ATOM     84  C   UNL     1       5.141   8.180  15.353  1.00  0.00     0.134 A 
ATOM     85  F   UNL     1       2.064   6.481  14.430  1.00  0.00    -0.206 F 
ATOM     86  C   UNL     1       2.580   7.748  16.336  1.00  0.00     0.040 A 
ATOM     87  C   UNL     1       4.776   8.701  16.595  1.00  0.00     0.040 A 
ATOM     88  F   UNL     1       6.395   8.389  14.925  1.00  0.00    -0.206 F 
ATOM     89  C   UNL     1       3.491   8.486  17.089  1.00  0.00     0.006 A 
ENDBRANCH  65  82
ENDBRANCH  39  40
ENDBRANCH  31  34
ENDBRANCH  29  30
ENDBRANCH  28  29
ENDBRANCH   1  28
TORSDOF 13
