REMARK SMILES C[C@@H]1CC(C)(C)C[C@@](CC(=O)Nc2cccc(C(F)(F)F)c2)(C(=O)NCCCNC(=O)c2ccc(-c3c4nc(c(-c5c(F)cccc5F)c5ccc([nH]5)c(-c5c(F)cccc5F)c5nc(c(-c6c(F)cccc6F)c6ccc3[nH]6)C=C5)C=C4)cc2)C1
REMARK SMILES IDX 26 1 25 2 23 3 24 4 8 6 1 7 2 8 3 9 86 10 4 11 5 12 6 13
REMARK SMILES IDX 7 14 9 15 10 16 11 17 12 18 13 20 14 21 22 22 15 23 17 24
REMARK SMILES IDX 16 25 18 26 19 27 20 28 21 29 27 30 28 31 29 32 30 33 31 35
REMARK SMILES IDX 32 36 33 37 85 38 34 39 84 40 35 41 36 42 37 43 78 44 38 45
REMARK SMILES IDX 83 46 77 47 79 48 39 49 82 50 76 51 75 52 40 54 66 55 49 56
REMARK SMILES IDX 65 57 50 58 53 59 64 60 80 61 51 62 52 63 63 65 81 66 54 67
REMARK SMILES IDX 41 68 42 69 47 70 43 71 44 72 46 73 48 74 45 75 67 76 68 77
REMARK SMILES IDX 73 78 69 79 70 80 72 81 74 82 71 83 55 84 56 85 61 86 57 87
REMARK SMILES IDX 58 88 60 89 62 90 59 91
REMARK H PARENT 25 5 12 19 29 34 79 53 53 64
REMARK Flexibility Score: inf
ROOT
ATOM      1  C   UNL     1       0.239  -3.578   2.727  1.00  0.00     0.117 C 
ENDROOT
BRANCH   1   2
ATOM      2  N   UNL     1       0.640  -3.611   1.319  1.00  0.00    -0.356 N 
ATOM      3  C   UNL     1       0.769  -2.637   0.357  1.00  0.00     0.226 C 
ATOM      4  O   UNL     1       1.206  -3.025  -0.729  1.00  0.00    -0.274 OA
ATOM      5  H   UNL     1       0.862  -4.514   0.995  1.00  0.00     0.163 HD
BRANCH   3   6
ATOM      6  C   UNL     1       0.387  -1.125   0.604  1.00  0.00     0.059 C 
ATOM      7  C   UNL     1       0.573   2.223   0.039  1.00  0.00     0.008 C 
ATOM      8  C   UNL     1       0.102   1.082  -0.853  1.00  0.00    -0.013 C 
ATOM      9  C   UNL     1      -1.406   0.928  -0.858  1.00  0.00     0.009 C 
ATOM     10  C   UNL     1       0.757  -0.286  -0.647  1.00  0.00     0.020 C 
ATOM     11  C   UNL     1      -2.001   0.124   0.316  1.00  0.00    -0.034 C 
ATOM     12  C   UNL     1      -2.195   0.994   1.569  1.00  0.00     0.011 C 
ATOM     13  C   UNL     1      -3.416  -0.304  -0.156  1.00  0.00     0.011 C 
ATOM     14  C   UNL     1      -1.181  -1.147   0.692  1.00  0.00     0.024 C 
BRANCH   6  15
ATOM     15  C   UNL     1       1.185  -0.782   1.890  1.00  0.00     0.117 C 
BRANCH  15  16
ATOM     16  C   UNL     1       1.884   0.498   2.264  1.00  0.00     0.225 C 
ATOM     17  O   UNL     1       1.369   1.199   3.150  1.00  0.00    -0.275 OA
ATOM     18  N   UNL     1       3.086   0.932   1.819  1.00  0.00    -0.326 N 
ATOM     19  H   UNL     1       3.418   1.671   2.378  1.00  0.00     0.169 HD
BRANCH  18  20
ATOM     20  C   UNL     1       3.999   0.636   0.792  1.00  0.00     0.041 A 
ATOM     21  C   UNL     1       4.926   1.660   0.531  1.00  0.00     0.026 A 
ATOM     22  C   UNL     1       3.988  -0.472  -0.051  1.00  0.00     0.039 A 
ATOM     23  C   UNL     1       5.719   1.652  -0.614  1.00  0.00     0.003 A 
ATOM     24  C   UNL     1       4.713  -0.448  -1.266  1.00  0.00     0.058 A 
ATOM     25  C   UNL     1       5.587   0.618  -1.529  1.00  0.00     0.013 A 
BRANCH  24  26
ATOM     26  C   UNL     1       4.510  -1.510  -2.326  1.00  0.00     0.416 C 
ATOM     27  F   UNL     1       4.792  -1.058  -3.583  1.00  0.00    -0.166 F 
ATOM     28  F   UNL     1       5.301  -2.599  -2.137  1.00  0.00    -0.166 F 
ATOM     29  F   UNL     1       3.232  -1.964  -2.389  1.00  0.00    -0.166 F 
ENDBRANCH  24  26
ENDBRANCH  18  20
ENDBRANCH  15  16
ENDBRANCH   6  15
ENDBRANCH   3   6
ENDBRANCH   1   2
BRANCH   1  30
ATOM     30  C   UNL     1       0.306  -4.935   3.428  1.00  0.00     0.042 C 
BRANCH  30  31
ATOM     31  C   UNL     1       1.722  -5.472   3.659  1.00  0.00     0.118 C 
BRANCH  31  32
ATOM     32  N   UNL     1       2.475  -4.749   4.678  1.00  0.00    -0.352 N 
ATOM     33  C   UNL     1       3.011  -5.154   5.883  1.00  0.00     0.251 C 
ATOM     34  H   UNL     1       2.630  -3.800   4.466  1.00  0.00     0.163 HD
ATOM     35  O   UNL     1       3.540  -4.323   6.609  1.00  0.00    -0.269 OA
BRANCH  33  36
ATOM     36  C   UNL     1       2.929  -6.564   6.339  1.00  0.00     0.039 A 
ATOM     37  C   UNL     1       2.645  -6.817   7.688  1.00  0.00     0.014 A 
ATOM     38  C   UNL     1       3.160  -7.637   5.478  1.00  0.00     0.014 A 
ATOM     39  C   UNL     1       2.495  -8.132   8.143  1.00  0.00     0.010 A 
ATOM     40  C   UNL     1       2.933  -8.944   5.912  1.00  0.00     0.010 A 
ATOM     41  C   UNL     1       2.584  -9.207   7.246  1.00  0.00    -0.014 A 
BRANCH  41  42
ATOM     42  C   UNL     1       2.291 -10.605   7.668  1.00  0.00     0.031 A 
ATOM     43  C   UNL     1       3.348 -11.672   7.573  1.00  0.00     0.074 A 
ATOM     44  C   UNL     1       1.041 -10.941   8.046  1.00  0.00     0.049 A 
ATOM     45  N   UNL     1       3.243 -12.963   7.772  1.00  0.00    -0.248 NA
ATOM     46  C   UNL     1       4.693 -11.234   7.173  1.00  0.00     0.031 C 
ATOM     47  C   UNL     1      -0.092 -10.019   8.142  1.00  0.00     0.029 A 
ATOM     48  N   UNL     1       0.509 -12.156   8.404  1.00  0.00    -0.354 N 
ATOM     49  C   UNL     1       4.496 -13.493   7.489  1.00  0.00     0.074 A 
ATOM     50  C   UNL     1       5.333 -12.389   7.069  1.00  0.00     0.031 C 
ATOM     51  C   UNL     1      -1.176 -10.695   8.554  1.00  0.00     0.029 A 
ATOM     52  C   UNL     1      -0.829 -12.104   8.710  1.00  0.00     0.049 A 
ATOM     53  H   UNL     1       1.038 -12.986   8.439  1.00  0.00     0.167 HD
ATOM     54  C   UNL     1       4.917 -14.777   7.587  1.00  0.00     0.037 A 
ATOM     55  C   UNL     1      -1.686 -13.080   9.067  1.00  0.00     0.037 A 
ATOM     56  C   UNL     1       4.099 -15.871   8.043  1.00  0.00     0.049 A 
ATOM     57  C   UNL     1      -1.195 -14.496   9.174  1.00  0.00     0.074 A 
ATOM     58  C   UNL     1       4.460 -17.192   8.248  1.00  0.00     0.029 A 
ATOM     59  N   UNL     1       2.754 -15.771   8.365  1.00  0.00    -0.354 N 
ATOM     60  N   UNL     1       0.007 -14.972   8.960  1.00  0.00    -0.248 NA
ATOM     61  C   UNL     1      -2.180 -15.511   9.574  1.00  0.00     0.031 C 
ATOM     62  C   UNL     1       3.324 -17.898   8.659  1.00  0.00     0.029 A 
ATOM     63  C   UNL     1       2.266 -17.009   8.749  1.00  0.00     0.049 A 
ATOM     64  H   UNL     1       2.224 -14.942   8.327  1.00  0.00     0.167 HD
ATOM     65  C   UNL     1      -0.069 -16.332   9.227  1.00  0.00     0.074 A 
ATOM     66  C   UNL     1      -1.434 -16.606   9.626  1.00  0.00     0.031 C 
ATOM     67  C   UNL     1       0.907 -17.269   9.152  1.00  0.00     0.037 A 
BRANCH  54  68
ATOM     68  C   UNL     1       6.335 -15.069   7.186  1.00  0.00     0.057 A 
ATOM     69  C   UNL     1       7.425 -14.640   7.954  1.00  0.00     0.134 A 
ATOM     70  C   UNL     1       6.612 -15.804   6.026  1.00  0.00     0.134 A 
ATOM     71  F   UNL     1       7.230 -13.924   9.071  1.00  0.00    -0.206 F 
ATOM     72  C   UNL     1       8.741 -14.900   7.565  1.00  0.00     0.040 A 
ATOM     73  C   UNL     1       7.922 -16.095   5.641  1.00  0.00     0.040 A 
ATOM     74  F   UNL     1       5.615 -16.254   5.249  1.00  0.00    -0.206 F 
ATOM     75  C   UNL     1       8.992 -15.634   6.407  1.00  0.00     0.006 A 
ENDBRANCH  54  68
BRANCH  55  76
ATOM     76  C   UNL     1      -3.097 -12.746   9.381  1.00  0.00     0.057 A 
ATOM     77  C   UNL     1      -3.562 -12.778  10.701  1.00  0.00     0.134 A 
ATOM     78  C   UNL     1      -4.010 -12.385   8.383  1.00  0.00     0.134 A 
ATOM     79  F   UNL     1      -2.739 -13.136  11.697  1.00  0.00    -0.206 F 
ATOM     80  C   UNL     1      -4.886 -12.473  11.018  1.00  0.00     0.040 A 
ATOM     81  C   UNL     1      -5.332 -12.057   8.688  1.00  0.00     0.040 A 
ATOM     82  F   UNL     1      -3.623 -12.331   7.100  1.00  0.00    -0.206 F 
ATOM     83  C   UNL     1      -5.774 -12.106  10.009  1.00  0.00     0.006 A 
ENDBRANCH  55  76
BRANCH  67  84
ATOM     84  C   UNL     1       0.546 -18.672   9.543  1.00  0.00     0.057 A 
ATOM     85  C   UNL     1      -0.237 -19.491   8.721  1.00  0.00     0.134 A 
ATOM     86  C   UNL     1       1.021 -19.221  10.741  1.00  0.00     0.134 A 
ATOM     87  F   UNL     1      -0.735 -19.020   7.567  1.00  0.00    -0.206 F 
ATOM     88  C   UNL     1      -0.549 -20.803   9.085  1.00  0.00     0.040 A 
ATOM     89  C   UNL     1       0.735 -20.537  11.104  1.00  0.00     0.040 A 
ATOM     90  F   UNL     1       1.781 -18.490  11.571  1.00  0.00    -0.206 F 
ATOM     91  C   UNL     1      -0.056 -21.331  10.277  1.00  0.00     0.006 A 
ENDBRANCH  67  84
ENDBRANCH  41  42
ENDBRANCH  33  36
ENDBRANCH  31  32
ENDBRANCH  30  31
ENDBRANCH   1  30
TORSDOF 14
