REMARK SMILES CCC[N@@H+]1CC2(CCN(c3nccnc3C)CC2)C[C@H]1C(=O)NCCCNC(=O)c1ccc(-c2c3nc(c(-c4c(F)cccc4F)c4ccc([nH]4)c(-c4c(F)cccc4F)c4nc(c(-c5c(F)cccc5F)c5ccc2[nH]5)C=C4)C=C3)cc1
REMARK SMILES IDX 25 1 24 2 23 3 21 4 22 5 20 7 4 8 5 9 6 11 19 12 7 13 18 14
REMARK SMILES IDX 8 15 17 16 9 17 3 18 2 19 1 20 10 21 11 22 15 23 12 24 14 25
REMARK SMILES IDX 16 26 13 27 26 28 27 29 28 30 29 32 30 33 31 34 83 35 32 36
REMARK SMILES IDX 82 37 33 38 34 39 35 40 76 41 36 42 81 43 75 44 77 45 37 46
REMARK SMILES IDX 80 47 74 48 73 49 38 51 64 52 47 53 63 54 48 55 51 56 62 57
REMARK SMILES IDX 78 58 49 59 50 60 61 62 79 63 52 64 39 65 40 66 45 67 41 68
REMARK SMILES IDX 42 69 44 70 46 71 43 72 65 73 66 74 71 75 67 76 68 77 70 78
REMARK SMILES IDX 72 79 69 80 53 81 54 82 59 83 55 84 56 85 58 86 60 87 57 88
REMARK H PARENT 23 6 4 10 27 31 77 50 51 61
REMARK Flexibility Score: inf
ROOT
ATOM      1  C   UNL     1      -1.443  -2.748   4.032  1.00  0.00     0.042 C 
ENDROOT
BRANCH   1   2
ATOM      2  C   UNL     1      -0.105  -3.462   4.145  1.00  0.00     0.118 C 
BRANCH   2   3
ATOM      3  N   UNL     1       0.063  -4.563   3.241  1.00  0.00    -0.351 N 
ATOM      4  C   UNL     1       0.794  -4.659   2.095  1.00  0.00     0.278 C 
ATOM      5  O   UNL     1       0.869  -5.802   1.620  1.00  0.00    -0.268 OA
ATOM      6  H   UNL     1      -0.428  -5.380   3.488  1.00  0.00     0.163 HD
BRANCH   4   7
ATOM      7  C   UNL     1       1.517  -3.482   1.368  1.00  0.00     0.274 C 
ATOM      8  N   UNL     1       0.562  -2.511   0.760  1.00  0.00    -0.324 N 
ATOM      9  C   UNL     1       0.644  -1.297   1.580  1.00  0.00     0.270 C 
ATOM     10  H   UNL     1      -0.413  -2.811   0.759  1.00  0.00     0.348 HD
ATOM     11  C   UNL     1       2.056  -1.200   2.183  1.00  0.00     0.029 C 
ATOM     12  C   UNL     1       2.579  -2.654   2.096  1.00  0.00     0.088 C 
ATOM     13  C   UNL     1       2.128  -0.719   3.661  1.00  0.00     0.034 C 
ATOM     14  C   UNL     1       2.900  -0.178   1.356  1.00  0.00     0.034 C 
ATOM     15  C   UNL     1       1.601   0.694   3.828  1.00  0.00     0.119 C 
ATOM     16  C   UNL     1       2.480   1.293   1.614  1.00  0.00     0.119 C 
ATOM     17  N   UNL     1       2.496   1.521   3.051  1.00  0.00    -0.355 N 
BRANCH   8  18
ATOM     18  C   UNL     1       0.912  -2.349  -0.668  1.00  0.00     0.262 C 
BRANCH  18  19
ATOM     19  C   UNL     1       0.065  -1.385  -1.512  1.00  0.00     0.058 C 
ATOM     20  C   UNL     1       0.641   0.018  -1.646  1.00  0.00     0.010 C 
ENDBRANCH  18  19
ENDBRANCH   8  18
BRANCH  17  21
ATOM     21  C   UNL     1       2.859   2.749   3.557  1.00  0.00     0.150 A 
ATOM     22  N   UNL     1       2.455   3.849   2.879  1.00  0.00    -0.236 NA
ATOM     23  C   UNL     1       3.661   2.881   4.716  1.00  0.00     0.080 A 
ATOM     24  C   UNL     1       2.848   5.044   3.373  1.00  0.00     0.133 A 
ATOM     25  N   UNL     1       4.056   4.093   5.197  1.00  0.00    -0.256 NA
ATOM     26  C   UNL     1       4.276   1.701   5.414  1.00  0.00     0.071 C 
ATOM     27  C   UNL     1       3.633   5.164   4.502  1.00  0.00     0.131 A 
ENDBRANCH  17  21
ENDBRANCH   4   7
ENDBRANCH   2   3
ENDBRANCH   1   2
BRANCH   1  28
ATOM     28  C   UNL     1      -2.356  -3.018   5.212  1.00  0.00     0.118 C 
BRANCH  28  29
ATOM     29  N   UNL     1      -1.885  -2.373   6.436  1.00  0.00    -0.352 N 
ATOM     30  C   UNL     1      -2.543  -1.536   7.311  1.00  0.00     0.251 C 
ATOM     31  H   UNL     1      -0.949  -2.567   6.674  1.00  0.00     0.163 HD
ATOM     32  O   UNL     1      -1.917  -0.969   8.194  1.00  0.00    -0.269 OA
BRANCH  30  33
ATOM     33  C   UNL     1      -3.998  -1.300   7.162  1.00  0.00     0.039 A 
ATOM     34  C   UNL     1      -4.514  -0.026   7.421  1.00  0.00     0.014 A 
ATOM     35  C   UNL     1      -4.853  -2.327   6.761  1.00  0.00     0.014 A 
ATOM     36  C   UNL     1      -5.870   0.229   7.202  1.00  0.00     0.010 A 
ATOM     37  C   UNL     1      -6.167  -2.041   6.423  1.00  0.00     0.010 A 
ATOM     38  C   UNL     1      -6.697  -0.766   6.659  1.00  0.00    -0.014 A 
BRANCH  38  39
ATOM     39  C   UNL     1      -8.127  -0.517   6.351  1.00  0.00     0.031 A 
ATOM     40  C   UNL     1      -9.191  -1.347   7.016  1.00  0.00     0.074 A 
ATOM     41  C   UNL     1      -8.461   0.382   5.406  1.00  0.00     0.049 A 
ATOM     42  N   UNL     1     -10.483  -1.359   6.811  1.00  0.00    -0.248 NA
ATOM     43  C   UNL     1      -8.735  -2.331   8.012  1.00  0.00     0.031 C 
ATOM     44  C   UNL     1      -7.515   1.190   4.635  1.00  0.00     0.029 A 
ATOM     45  N   UNL     1      -9.688   0.750   4.919  1.00  0.00    -0.354 N 
ATOM     46  C   UNL     1     -10.984  -2.364   7.628  1.00  0.00     0.074 A 
ATOM     47  C   UNL     1      -9.852  -2.989   8.274  1.00  0.00     0.031 C 
ATOM     48  C   UNL     1      -8.198   1.975   3.787  1.00  0.00     0.029 A 
ATOM     49  C   UNL     1      -9.624   1.697   3.927  1.00  0.00     0.049 A 
ATOM     50  H   UNL     1     -10.535   0.372   5.249  1.00  0.00     0.167 HD
ATOM     51  C   UNL     1     -12.274  -2.716   7.847  1.00  0.00     0.037 A 
ATOM     52  C   UNL     1     -10.604   2.271   3.204  1.00  0.00     0.037 A 
ATOM     53  C   UNL     1     -13.395  -2.068   7.221  1.00  0.00     0.049 A 
ATOM     54  C   UNL     1     -12.031   1.890   3.478  1.00  0.00     0.074 A 
ATOM     55  C   UNL     1     -14.745  -2.285   7.430  1.00  0.00     0.029 A 
ATOM     56  N   UNL     1     -13.293  -1.076   6.256  1.00  0.00    -0.354 N 
ATOM     57  N   UNL     1     -12.500   1.001   4.320  1.00  0.00    -0.248 NA
ATOM     58  C   UNL     1     -13.064   2.599   2.712  1.00  0.00     0.031 C 
ATOM     59  C   UNL     1     -15.459  -1.461   6.553  1.00  0.00     0.029 A 
ATOM     60  C   UNL     1     -14.555  -0.690   5.837  1.00  0.00     0.049 A 
ATOM     61  H   UNL     1     -12.447  -0.702   5.918  1.00  0.00     0.167 HD
ATOM     62  C   UNL     1     -13.883   1.054   4.200  1.00  0.00     0.074 A 
ATOM     63  C   UNL     1     -14.175   2.077   3.215  1.00  0.00     0.031 C 
ATOM     64  C   UNL     1     -14.825   0.324   4.848  1.00  0.00     0.037 A 
BRANCH  51  65
ATOM     65  C   UNL     1     -12.522  -3.853   8.798  1.00  0.00     0.057 A 
ATOM     66  C   UNL     1     -12.229  -3.757  10.167  1.00  0.00     0.134 A 
ATOM     67  C   UNL     1     -13.044  -5.069   8.339  1.00  0.00     0.134 A 
ATOM     68  F   UNL     1     -11.714  -2.626  10.674  1.00  0.00    -0.206 F 
ATOM     69  C   UNL     1     -12.396  -4.841  11.030  1.00  0.00     0.040 A 
ATOM     70  C   UNL     1     -13.249  -6.149   9.199  1.00  0.00     0.040 A 
ATOM     71  F   UNL     1     -13.356  -5.231   7.044  1.00  0.00    -0.206 F 
ATOM     72  C   UNL     1     -12.910  -6.042  10.547  1.00  0.00     0.006 A 
ENDBRANCH  51  65
BRANCH  52  73
ATOM     73  C   UNL     1     -10.255   3.285   2.178  1.00  0.00     0.057 A 
ATOM     74  C   UNL     1     -10.518   4.643   2.384  1.00  0.00     0.134 A 
ATOM     75  C   UNL     1      -9.607   2.926   0.989  1.00  0.00     0.134 A 
ATOM     76  F   UNL     1     -11.148   5.048   3.496  1.00  0.00    -0.206 F 
ATOM     77  C   UNL     1     -10.154   5.609   1.444  1.00  0.00     0.040 A 
ATOM     78  C   UNL     1      -9.216   3.883   0.051  1.00  0.00     0.040 A 
ATOM     79  F   UNL     1      -9.316   1.641   0.739  1.00  0.00    -0.206 F 
ATOM     80  C   UNL     1      -9.493   5.230   0.277  1.00  0.00     0.006 A 
ENDBRANCH  52  73
BRANCH  64  81
ATOM     81  C   UNL     1     -16.261   0.618   4.524  1.00  0.00     0.057 A 
ATOM     82  C   UNL     1     -16.833   0.251   3.300  1.00  0.00     0.134 A 
ATOM     83  C   UNL     1     -17.091   1.236   5.468  1.00  0.00     0.134 A 
ATOM     84  F   UNL     1     -16.089  -0.334   2.349  1.00  0.00    -0.206 F 
ATOM     85  C   UNL     1     -18.176   0.508   3.018  1.00  0.00     0.040 A 
ATOM     86  C   UNL     1     -18.441   1.472   5.209  1.00  0.00     0.040 A 
ATOM     87  F   UNL     1     -16.607   1.605   6.664  1.00  0.00    -0.206 F 
ATOM     88  C   UNL     1     -18.986   1.113   3.978  1.00  0.00     0.006 A 
ENDBRANCH  64  81
ENDBRANCH  38  39
ENDBRANCH  30  33
ENDBRANCH  28  29
ENDBRANCH   1  28
TORSDOF 13
