REMARK SMILES CN(Cc1csc(Br)c1)c1cccc(F)c1C(=O)NCCCNC(=O)c1ccc(-c2c3nc(c(-c4c(F)cccc4F)c4ccc([nH]4)c(-c4c(F)cccc4F)c4nc(c(-c5c(F)cccc5F)c5ccc2[nH]5)C=C4)C=C3)cc1
REMARK SMILES IDX 20 1 19 2 17 3 18 4 16 6 10 7 11 8 12 9 14 10 13 11 15 12
REMARK SMILES IDX 2 13 1 14 3 15 4 16 5 17 9 18 6 19 7 20 8 21 21 22 22 23
REMARK SMILES IDX 23 24 24 25 25 27 26 28 27 29 79 30 28 31 78 32 29 33 30 34
REMARK SMILES IDX 31 35 72 36 32 37 77 38 71 39 73 40 33 41 76 42 70 43 69 44
REMARK SMILES IDX 34 46 60 47 43 48 59 49 44 50 47 51 58 52 74 53 45 54 46 55
REMARK SMILES IDX 57 57 75 58 48 59 35 60 36 61 41 62 37 63 38 64 40 65 42 66
REMARK SMILES IDX 39 67 61 68 62 69 67 70 63 71 64 72 66 73 68 74 65 75 49 76
REMARK SMILES IDX 50 77 55 78 51 79 52 80 54 81 56 82 53 83
REMARK H PARENT 19 5 23 26 73 45 47 56
REMARK Flexibility Score: inf
ROOT
ATOM      1  C   UNL     1      -1.756   5.971  -0.362  1.00  0.00     0.118 C 
ENDROOT
BRANCH   1   2
ATOM      2  N   UNL     1      -2.101   4.584  -0.086  1.00  0.00    -0.352 N 
ATOM      3  C   UNL     1      -1.329   3.534   0.383  1.00  0.00     0.256 C 
ATOM      4  O   UNL     1      -1.907   2.561   0.864  1.00  0.00    -0.269 OA
ATOM      5  H   UNL     1      -3.042   4.353  -0.263  1.00  0.00     0.163 HD
BRANCH   3   6
ATOM      6  C   UNL     1       0.152   3.552   0.294  1.00  0.00     0.098 A 
ATOM      7  C   UNL     1       0.881   2.478  -0.276  1.00  0.00     0.053 A 
ATOM      8  C   UNL     1       2.286   2.604  -0.354  1.00  0.00     0.027 A 
ATOM      9  C   UNL     1       2.958   3.717   0.151  1.00  0.00     0.005 A 
ATOM     10  C   UNL     1       0.852   4.611   0.883  1.00  0.00     0.138 A 
ATOM     11  C   UNL     1       2.238   4.715   0.790  1.00  0.00     0.040 A 
ATOM     12  F   UNL     1       0.210   5.560   1.583  1.00  0.00    -0.206 F 
BRANCH   7  13
ATOM     13  N   UNL     1       0.305   1.283  -0.704  1.00  0.00    -0.370 N 
ATOM     14  C   UNL     1       0.697   0.071   0.004  1.00  0.00     0.144 C 
BRANCH  13  15
ATOM     15  C   UNL     1      -0.198   1.163  -2.070  1.00  0.00     0.152 C 
BRANCH  15  16
ATOM     16  C   UNL     1      -1.645   1.511  -2.283  1.00  0.00    -0.017 A 
ATOM     17  C   UNL     1      -2.099   2.586  -3.030  1.00  0.00     0.071 A 
ATOM     18  C   UNL     1      -2.751   0.781  -1.721  1.00  0.00     0.033 A 
ATOM     19  S   UNL     1      -3.807   2.687  -3.069  1.00  0.00    -0.136 S 
ATOM     20  C   UNL     1      -3.957   1.340  -2.056  1.00  0.00     0.070 A 
ATOM     21  Br  UNL     1      -5.607   0.688  -1.459  1.00  0.00    -0.039 Br
ENDBRANCH  15  16
ENDBRANCH  13  15
ENDBRANCH   7  13
ENDBRANCH   3   6
ENDBRANCH   1   2
BRANCH   1  22
ATOM     22  C   UNL     1      -2.281   6.535  -1.675  1.00  0.00     0.042 C 
BRANCH  22  23
ATOM     23  C   UNL     1      -3.787   6.482  -1.890  1.00  0.00     0.118 C 
BRANCH  23  24
ATOM     24  N   UNL     1      -4.565   7.196  -0.889  1.00  0.00    -0.352 N 
ATOM     25  C   UNL     1      -5.300   8.355  -0.939  1.00  0.00     0.251 C 
ATOM     26  H   UNL     1      -4.564   6.764  -0.004  1.00  0.00     0.163 HD
ATOM     27  O   UNL     1      -5.811   8.777   0.099  1.00  0.00    -0.269 OA
BRANCH  25  28
ATOM     28  C   UNL     1      -5.460   9.139  -2.186  1.00  0.00     0.039 A 
ATOM     29  C   UNL     1      -5.445  10.537  -2.094  1.00  0.00     0.014 A 
ATOM     30  C   UNL     1      -5.667   8.543  -3.429  1.00  0.00     0.014 A 
ATOM     31  C   UNL     1      -5.547  11.322  -3.246  1.00  0.00     0.010 A 
ATOM     32  C   UNL     1      -5.674   9.320  -4.588  1.00  0.00     0.010 A 
ATOM     33  C   UNL     1      -5.609  10.719  -4.512  1.00  0.00    -0.014 A 
BRANCH  33  34
ATOM     34  C   UNL     1      -5.593  11.532  -5.759  1.00  0.00     0.031 A 
ATOM     35  C   UNL     1      -6.750  11.483  -6.721  1.00  0.00     0.074 A 
ATOM     36  C   UNL     1      -4.507  12.273  -6.058  1.00  0.00     0.049 A 
ATOM     37  N   UNL     1      -6.875  12.056  -7.891  1.00  0.00    -0.248 NA
ATOM     38  C   UNL     1      -7.908  10.664  -6.328  1.00  0.00     0.031 C 
ATOM     39  C   UNL     1      -3.304  12.380  -5.231  1.00  0.00     0.029 A 
ATOM     40  N   UNL     1      -4.232  13.070  -7.143  1.00  0.00    -0.354 N 
ATOM     41  C   UNL     1      -8.114  11.657  -8.378  1.00  0.00     0.074 A 
ATOM     42  C   UNL     1      -8.680  10.752  -7.402  1.00  0.00     0.031 C 
ATOM     43  C   UNL     1      -2.436  13.217  -5.821  1.00  0.00     0.029 A 
ATOM     44  C   UNL     1      -2.996  13.668  -7.091  1.00  0.00     0.049 A 
ATOM     45  H   UNL     1      -4.862  13.200  -7.888  1.00  0.00     0.167 HD
ATOM     46  C   UNL     1      -8.734  12.031  -9.522  1.00  0.00     0.037 A 
ATOM     47  C   UNL     1      -2.375  14.481  -7.968  1.00  0.00     0.037 A 
ATOM     48  C   UNL     1      -8.183  12.955 -10.479  1.00  0.00     0.049 A 
ATOM     49  C   UNL     1      -3.076  14.866  -9.241  1.00  0.00     0.074 A 
ATOM     50  C   UNL     1      -8.763  13.436 -11.640  1.00  0.00     0.029 A 
ATOM     51  N   UNL     1      -6.928  13.537 -10.386  1.00  0.00    -0.354 N 
ATOM     52  N   UNL     1      -4.267  14.519  -9.662  1.00  0.00    -0.248 NA
ATOM     53  C   UNL     1      -2.349  15.754 -10.160  1.00  0.00     0.031 C 
ATOM     54  C   UNL     1      -7.839  14.268 -12.277  1.00  0.00     0.029 A 
ATOM     55  C   UNL     1      -6.707  14.354 -11.483  1.00  0.00     0.049 A 
ATOM     56  H   UNL     1      -6.290  13.393  -9.651  1.00  0.00     0.167 HD
ATOM     57  C   UNL     1      -4.444  15.164 -10.879  1.00  0.00     0.074 A 
ATOM     58  C   UNL     1      -3.242  15.933 -11.124  1.00  0.00     0.031 C 
ATOM     59  C   UNL     1      -5.510  15.122 -11.715  1.00  0.00     0.037 A 
BRANCH  46  60
ATOM     60  C   UNL     1     -10.092  11.456  -9.806  1.00  0.00     0.057 A 
ATOM     61  C   UNL     1     -10.288  10.576 -10.879  1.00  0.00     0.134 A 
ATOM     62  C   UNL     1     -11.222  11.837  -9.070  1.00  0.00     0.134 A 
ATOM     63  F   UNL     1      -9.251  10.177 -11.631  1.00  0.00    -0.206 F 
ATOM     64  C   UNL     1     -11.559  10.107 -11.217  1.00  0.00     0.040 A 
ATOM     65  C   UNL     1     -12.494  11.353  -9.382  1.00  0.00     0.040 A 
ATOM     66  F   UNL     1     -11.104  12.671  -8.026  1.00  0.00    -0.206 F 
ATOM     67  C   UNL     1     -12.666  10.494 -10.465  1.00  0.00     0.006 A 
ENDBRANCH  46  60
BRANCH  47  68
ATOM     68  C   UNL     1      -1.022  15.006  -7.652  1.00  0.00     0.057 A 
ATOM     69  C   UNL     1       0.103  14.172  -7.624  1.00  0.00     0.134 A 
ATOM     70  C   UNL     1      -0.828  16.357  -7.342  1.00  0.00     0.134 A 
ATOM     71  F   UNL     1      -0.016  12.866  -7.905  1.00  0.00    -0.206 F 
ATOM     72  C   UNL     1       1.366  14.656  -7.279  1.00  0.00     0.040 A 
ATOM     73  C   UNL     1       0.434  16.861  -7.021  1.00  0.00     0.040 A 
ATOM     74  F   UNL     1      -1.861  17.211  -7.370  1.00  0.00    -0.206 F 
ATOM     75  C   UNL     1       1.534  16.006  -6.980  1.00  0.00     0.006 A 
ENDBRANCH  47  68
BRANCH  59  76
ATOM     76  C   UNL     1      -5.451  15.946 -12.968  1.00  0.00     0.057 A 
ATOM     77  C   UNL     1      -6.284  17.062 -13.126  1.00  0.00     0.134 A 
ATOM     78  C   UNL     1      -4.644  15.584 -14.052  1.00  0.00     0.134 A 
ATOM     79  F   UNL     1      -7.091  17.456 -12.129  1.00  0.00    -0.206 F 
ATOM     80  C   UNL     1      -6.331  17.775 -14.324  1.00  0.00     0.040 A 
ATOM     81  C   UNL     1      -4.661  16.306 -15.247  1.00  0.00     0.040 A 
ATOM     82  F   UNL     1      -3.816  14.531 -13.963  1.00  0.00    -0.206 F 
ATOM     83  C   UNL     1      -5.516  17.398 -15.389  1.00  0.00     0.006 A 
ENDBRANCH  59  76
ENDBRANCH  33  34
ENDBRANCH  25  28
ENDBRANCH  23  24
ENDBRANCH  22  23
ENDBRANCH   1  22
TORSDOF 13
