REMARK SMILES C[C@@H](NC(=O)NCCC(=O)NC1CC1)C(=O)NCCCNC(=O)c1ccc(-c2c3nc(c(-c4c(F)cccc4F)c4ccc([nH]4)c(-c4c(F)cccc4F)c4nc(c(-c5c(F)cccc5F)c5ccc2[nH]5)C=C4)C=C3)cc1
REMARK SMILES IDX 15 1 16 2 17 3 2 5 1 6 3 7 4 8 5 10 6 11 7 13 8 14 9 15
REMARK SMILES IDX 10 16 11 17 12 19 13 20 14 21 18 22 19 23 20 24 21 25 22 26
REMARK SMILES IDX 23 28 24 29 25 30 77 31 26 32 76 33 27 34 28 35 29 36 70 37
REMARK SMILES IDX 30 38 75 39 69 40 71 41 31 42 74 43 68 44 67 45 32 47 58 48
REMARK SMILES IDX 41 49 57 50 42 51 45 52 56 53 72 54 43 55 44 56 55 58 73 59
REMARK SMILES IDX 46 60 33 61 34 62 39 63 35 64 36 65 38 66 40 67 37 68 59 69
REMARK SMILES IDX 60 70 65 71 61 72 62 73 64 74 66 75 63 76 47 77 48 78 53 79
REMARK SMILES IDX 49 80 50 81 52 82 54 83 51 84
REMARK H PARENT 17 4 3 9 6 12 11 18 21 27 71 46 45 57
REMARK Flexibility Score: inf
ROOT
ATOM      1  C   UNL     1      -0.433   0.134   0.568  1.00  0.00     0.242 C 
ATOM      2  O   UNL     1      -0.894  -0.211   1.661  1.00  0.00    -0.273 OA
ATOM      3  N   UNL     1      -0.971  -0.443  -0.540  1.00  0.00    -0.354 N 
ATOM      4  H   UNL     1      -1.678  -1.106  -0.369  1.00  0.00     0.163 HD
ENDROOT
BRANCH   1   5
ATOM      5  C   UNL     1       0.807   1.041   0.498  1.00  0.00     0.170 C 
ATOM      6  C   UNL     1       2.018   0.102   0.569  1.00  0.00     0.041 C 
BRANCH   5   7
ATOM      7  N   UNL     1       0.951   1.900  -0.672  1.00  0.00    -0.327 N 
ATOM      8  C   UNL     1       0.192   2.832  -1.244  1.00  0.00     0.315 C 
ATOM      9  H   UNL     1       1.802   1.757  -1.146  1.00  0.00     0.166 HD
ATOM     10  O   UNL     1       0.652   3.418  -2.225  1.00  0.00    -0.249 OA
ATOM     11  N   UNL     1      -1.064   3.102  -0.897  1.00  0.00    -0.338 N 
ATOM     12  H   UNL     1      -1.514   3.667  -1.566  1.00  0.00     0.165 HD
BRANCH  11  13
ATOM     13  C   UNL     1      -1.944   2.779   0.213  1.00  0.00     0.127 C 
BRANCH  13  14
ATOM     14  C   UNL     1      -2.835   3.955   0.601  1.00  0.00     0.121 C 
BRANCH  14  15
ATOM     15  C   UNL     1      -3.955   4.203  -0.388  1.00  0.00     0.221 C 
ATOM     16  O   UNL     1      -5.046   3.644  -0.262  1.00  0.00    -0.275 OA
ATOM     17  N   UNL     1      -3.760   5.051  -1.446  1.00  0.00    -0.353 N 
ATOM     18  H   UNL     1      -4.561   5.241  -1.985  1.00  0.00     0.163 HD
BRANCH  17  19
ATOM     19  C   UNL     1      -2.565   5.700  -1.879  1.00  0.00     0.082 C 
ATOM     20  C   UNL     1      -2.110   5.463  -3.300  1.00  0.00     0.027 C 
ATOM     21  C   UNL     1      -2.578   6.822  -2.877  1.00  0.00     0.027 C 
ENDBRANCH  17  19
ENDBRANCH  14  15
ENDBRANCH  13  14
ENDBRANCH  11  13
ENDBRANCH   5   7
ENDBRANCH   1   5
BRANCH   3  22
ATOM     22  C   UNL     1      -0.653  -0.221  -1.940  1.00  0.00     0.117 C 
BRANCH  22  23
ATOM     23  C   UNL     1      -1.155  -1.355  -2.813  1.00  0.00     0.042 C 
BRANCH  23  24
ATOM     24  C   UNL     1      -2.674  -1.394  -2.892  1.00  0.00     0.118 C 
BRANCH  24  25
ATOM     25  N   UNL     1      -3.217  -0.504  -3.910  1.00  0.00    -0.352 N 
ATOM     26  C   UNL     1      -3.972  -0.826  -5.015  1.00  0.00     0.251 C 
ATOM     27  H   UNL     1      -3.018   0.453  -3.792  1.00  0.00     0.163 HD
ATOM     28  O   UNL     1      -4.247   0.020  -5.859  1.00  0.00    -0.269 OA
BRANCH  26  29
ATOM     29  C   UNL     1      -4.408  -2.227  -5.194  1.00  0.00     0.039 A 
ATOM     30  C   UNL     1      -4.130  -2.876  -6.398  1.00  0.00     0.014 A 
ATOM     31  C   UNL     1      -5.005  -2.918  -4.137  1.00  0.00     0.014 A 
ATOM     32  C   UNL     1      -4.368  -4.247  -6.509  1.00  0.00     0.010 A 
ATOM     33  C   UNL     1      -5.145  -4.299  -4.215  1.00  0.00     0.010 A 
ATOM     34  C   UNL     1      -4.829  -4.979  -5.401  1.00  0.00    -0.014 A 
BRANCH  34  35
ATOM     35  C   UNL     1      -4.994  -6.454  -5.462  1.00  0.00     0.031 A 
ATOM     36  C   UNL     1      -6.352  -7.065  -5.251  1.00  0.00     0.074 A 
ATOM     37  C   UNL     1      -3.917  -7.246  -5.634  1.00  0.00     0.049 A 
ATOM     38  N   UNL     1      -6.691  -8.328  -5.190  1.00  0.00    -0.248 NA
ATOM     39  C   UNL     1      -7.473  -6.134  -5.045  1.00  0.00     0.031 C 
ATOM     40  C   UNL     1      -2.536  -6.783  -5.788  1.00  0.00     0.029 A 
ATOM     41  N   UNL     1      -3.815  -8.614  -5.699  1.00  0.00    -0.354 N 
ATOM     42  C   UNL     1      -8.053  -8.339  -4.920  1.00  0.00     0.074 A 
ATOM     43  C   UNL     1      -8.467  -6.963  -4.766  1.00  0.00     0.031 C 
ATOM     44  C   UNL     1      -1.732  -7.844  -5.960  1.00  0.00     0.029 A 
ATOM     45  C   UNL     1      -2.531  -9.064  -5.892  1.00  0.00     0.049 A 
ATOM     46  H   UNL     1      -4.589  -9.216  -5.614  1.00  0.00     0.167 HD
ATOM     47  C   UNL     1      -8.892  -9.399  -4.836  1.00  0.00     0.037 A 
ATOM     48  C   UNL     1      -2.053 -10.318  -6.001  1.00  0.00     0.037 A 
ATOM     49  C   UNL     1      -8.488 -10.765  -5.028  1.00  0.00     0.049 A 
ATOM     50  C   UNL     1      -3.006 -11.478  -5.917  1.00  0.00     0.074 A 
ATOM     51  C   UNL     1      -9.275 -11.903  -5.037  1.00  0.00     0.029 A 
ATOM     52  N   UNL     1      -7.183 -11.177  -5.247  1.00  0.00    -0.354 N 
ATOM     53  N   UNL     1      -4.304 -11.469  -5.735  1.00  0.00    -0.248 NA
ATOM     54  C   UNL     1      -2.428 -12.822  -6.058  1.00  0.00     0.031 C 
ATOM     55  C   UNL     1      -8.439 -13.009  -5.224  1.00  0.00     0.029 A 
ATOM     56  C   UNL     1      -7.138 -12.556  -5.373  1.00  0.00     0.049 A 
ATOM     57  H   UNL     1      -6.403 -10.579  -5.305  1.00  0.00     0.167 HD
ATOM     58  C   UNL     1      -4.702 -12.799  -5.764  1.00  0.00     0.074 A 
ATOM     59  C   UNL     1      -3.509 -13.587  -5.997  1.00  0.00     0.031 C 
ATOM     60  C   UNL     1      -5.942 -13.322  -5.610  1.00  0.00     0.037 A 
BRANCH  47  61
ATOM     61  C   UNL     1     -10.334  -9.113  -4.536  1.00  0.00     0.057 A 
ATOM     62  C   UNL     1     -11.174  -8.495  -5.472  1.00  0.00     0.134 A 
ATOM     63  C   UNL     1     -10.895  -9.476  -3.305  1.00  0.00     0.134 A 
ATOM     64  F   UNL     1     -10.694  -8.108  -6.664  1.00  0.00    -0.206 F 
ATOM     65  C   UNL     1     -12.512  -8.222  -5.185  1.00  0.00     0.040 A 
ATOM     66  C   UNL     1     -12.239  -9.234  -3.017  1.00  0.00     0.040 A 
ATOM     67  F   UNL     1     -10.148 -10.075  -2.366  1.00  0.00    -0.206 F 
ATOM     68  C   UNL     1     -13.050  -8.598  -3.956  1.00  0.00     0.006 A 
ENDBRANCH  47  61
BRANCH  48  69
ATOM     69  C   UNL     1      -0.604 -10.546  -6.229  1.00  0.00     0.057 A 
ATOM     70  C   UNL     1      -0.134 -11.016  -7.462  1.00  0.00     0.134 A 
ATOM     71  C   UNL     1       0.344 -10.315  -5.225  1.00  0.00     0.134 A 
ATOM     72  F   UNL     1      -0.996 -11.274  -8.457  1.00  0.00    -0.206 F 
ATOM     73  C   UNL     1       1.221 -11.266  -7.683  1.00  0.00     0.040 A 
ATOM     74  C   UNL     1       1.705 -10.539  -5.439  1.00  0.00     0.040 A 
ATOM     75  F   UNL     1      -0.041  -9.859  -4.024  1.00  0.00    -0.206 F 
ATOM     76  C   UNL     1       2.146 -11.023  -6.669  1.00  0.00     0.006 A 
ENDBRANCH  48  69
BRANCH  60  77
ATOM     77  C   UNL     1      -6.076 -14.812  -5.714  1.00  0.00     0.057 A 
ATOM     78  C   UNL     1      -5.629 -15.666  -4.698  1.00  0.00     0.134 A 
ATOM     79  C   UNL     1      -6.698 -15.396  -6.825  1.00  0.00     0.134 A 
ATOM     80  F   UNL     1      -5.013 -15.169  -3.615  1.00  0.00    -0.206 F 
ATOM     81  C   UNL     1      -5.777 -17.050  -4.793  1.00  0.00     0.040 A 
ATOM     82  C   UNL     1      -6.875 -16.777  -6.919  1.00  0.00     0.040 A 
ATOM     83  F   UNL     1      -7.157 -14.633  -7.829  1.00  0.00    -0.206 F 
ATOM     84  C   UNL     1      -6.409 -17.608  -5.903  1.00  0.00     0.006 A 
ENDBRANCH  60  77
ENDBRANCH  34  35
ENDBRANCH  26  29
ENDBRANCH  24  25
ENDBRANCH  23  24
ENDBRANCH  22  23
ENDBRANCH   3  22
TORSDOF 15
