REMARK SMILES C=CCCCn1cc(C(=O)NCCCNC(=O)c2ccc(-c3c4nc(c(-c5c(F)cccc5F)c5ccc([nH]5)c(-c5c(F)cccc5F)c5nc(c(-c6c(F)cccc6F)c6ccc3[nH]6)C=C5)C=C4)cc2)cc1Br
REMARK SMILES IDX 12 1 11 2 9 3 10 4 8 6 6 7 7 8 73 9 72 10 74 11 5 12 4 13
REMARK SMILES IDX 3 14 2 15 1 16 13 17 14 18 15 19 16 20 17 22 18 23 19 24
REMARK SMILES IDX 71 25 20 26 70 27 21 28 22 29 23 30 64 31 24 32 69 33 63 34
REMARK SMILES IDX 65 35 25 36 68 37 62 38 61 39 26 41 52 42 35 43 51 44 36 45
REMARK SMILES IDX 39 46 50 47 66 48 37 49 38 50 49 52 67 53 40 54 27 55 28 56
REMARK SMILES IDX 33 57 29 58 30 59 32 60 34 61 31 62 53 63 54 64 59 65 55 66
REMARK SMILES IDX 56 67 58 68 60 69 57 70 41 71 42 72 47 73 43 74 44 75 46 76
REMARK SMILES IDX 48 77 45 78
REMARK H PARENT 11 5 15 21 65 40 39 51
REMARK Flexibility Score: inf
ROOT
ATOM      1  C   UNL     1      -3.994   3.339  -0.865  1.00  0.00     0.118 C 
ENDROOT
BRANCH   1   2
ATOM      2  N   UNL     1      -4.053   4.760  -0.559  1.00  0.00    -0.352 N 
ATOM      3  C   UNL     1      -3.428   5.494   0.423  1.00  0.00     0.252 C 
ATOM      4  O   UNL     1      -3.516   6.719   0.365  1.00  0.00    -0.269 OA
ATOM      5  H   UNL     1      -4.637   5.284  -1.154  1.00  0.00     0.163 HD
BRANCH   3   6
ATOM      6  C   UNL     1      -2.633   4.836   1.457  1.00  0.00     0.058 A 
ATOM      7  N   UNL     1      -1.654   3.288   2.752  1.00  0.00    -0.342 N 
ATOM      8  C   UNL     1      -2.749   3.554   1.967  1.00  0.00     0.100 A 
ATOM      9  C   UNL     1      -1.016   4.471   3.005  1.00  0.00     0.085 A 
ATOM     10  C   UNL     1      -1.579   5.442   2.210  1.00  0.00     0.049 A 
ATOM     11  Br  UNL     1       0.400   4.764   4.188  1.00  0.00    -0.031 Br
BRANCH   7  12
ATOM     12  C   UNL     1      -1.248   1.970   3.215  1.00  0.00     0.123 C 
BRANCH  12  13
ATOM     13  C   UNL     1      -1.617   0.784   2.306  1.00  0.00     0.026 C 
BRANCH  13  14
ATOM     14  C   UNL     1      -1.084   0.847   0.868  1.00  0.00     0.028 C 
BRANCH  14  15
ATOM     15  C   UNL     1       0.410   0.822   0.755  1.00  0.00    -0.035 C 
ATOM     16  C   UNL     1       1.089  -0.128   0.099  1.00  0.00     0.004 C 
ENDBRANCH  14  15
ENDBRANCH  13  14
ENDBRANCH  12  13
ENDBRANCH   7  12
ENDBRANCH   3   6
ENDBRANCH   1   2
BRANCH   1  17
ATOM     17  C   UNL     1      -5.196   2.564  -0.309  1.00  0.00     0.042 C 
BRANCH  17  18
ATOM     18  C   UNL     1      -6.394   2.656  -1.235  1.00  0.00     0.118 C 
BRANCH  18  19
ATOM     19  N   UNL     1      -6.207   1.907  -2.489  1.00  0.00    -0.352 N 
ATOM     20  C   UNL     1      -7.067   1.778  -3.575  1.00  0.00     0.251 C 
ATOM     21  H   UNL     1      -5.350   1.429  -2.571  1.00  0.00     0.163 HD
ATOM     22  O   UNL     1      -6.925   0.889  -4.392  1.00  0.00    -0.269 OA
BRANCH  20  23
ATOM     23  C   UNL     1      -8.149   2.768  -3.720  1.00  0.00     0.039 A 
ATOM     24  C   UNL     1      -9.429   2.463  -4.197  1.00  0.00     0.014 A 
ATOM     25  C   UNL     1      -7.844   4.049  -3.298  1.00  0.00     0.014 A 
ATOM     26  C   UNL     1     -10.392   3.473  -4.198  1.00  0.00     0.010 A 
ATOM     27  C   UNL     1      -8.853   4.890  -2.968  1.00  0.00     0.010 A 
ATOM     28  C   UNL     1     -10.076   4.689  -3.581  1.00  0.00    -0.014 A 
BRANCH  28  29
ATOM     29  C   UNL     1     -10.962   5.836  -3.500  1.00  0.00     0.031 A 
ATOM     30  C   UNL     1     -12.111   5.642  -2.587  1.00  0.00     0.074 A 
ATOM     31  C   UNL     1     -10.534   7.051  -3.919  1.00  0.00     0.049 A 
ATOM     32  N   UNL     1     -13.358   5.528  -2.900  1.00  0.00    -0.248 NA
ATOM     33  C   UNL     1     -11.823   5.352  -1.171  1.00  0.00     0.031 C 
ATOM     34  C   UNL     1      -9.227   7.412  -4.497  1.00  0.00     0.029 A 
ATOM     35  N   UNL     1     -11.141   8.261  -3.802  1.00  0.00    -0.354 N 
ATOM     36  C   UNL     1     -14.032   5.398  -1.688  1.00  0.00     0.074 A 
ATOM     37  C   UNL     1     -13.037   5.028  -0.722  1.00  0.00     0.031 C 
ATOM     38  C   UNL     1      -9.068   8.754  -4.478  1.00  0.00     0.029 A 
ATOM     39  C   UNL     1     -10.314   9.356  -4.048  1.00  0.00     0.049 A 
ATOM     40  H   UNL     1     -12.091   8.358  -3.562  1.00  0.00     0.167 HD
ATOM     41  C   UNL     1     -15.285   5.911  -1.528  1.00  0.00     0.037 A 
ATOM     42  C   UNL     1     -10.639  10.663  -3.886  1.00  0.00     0.037 A 
ATOM     43  C   UNL     1     -15.840   6.280  -2.810  1.00  0.00     0.049 A 
ATOM     44  C   UNL     1     -12.119  10.734  -3.815  1.00  0.00     0.074 A 
ATOM     45  C   UNL     1     -16.170   5.608  -3.970  1.00  0.00     0.029 A 
ATOM     46  N   UNL     1     -15.760   7.609  -3.150  1.00  0.00    -0.354 N 
ATOM     47  N   UNL     1     -12.903  10.460  -4.821  1.00  0.00    -0.248 NA
ATOM     48  C   UNL     1     -12.737  10.634  -2.502  1.00  0.00     0.031 C 
ATOM     49  C   UNL     1     -15.835   6.506  -5.028  1.00  0.00     0.029 A 
ATOM     50  C   UNL     1     -15.389   7.703  -4.465  1.00  0.00     0.049 A 
ATOM     51  H   UNL     1     -15.939   8.368  -2.549  1.00  0.00     0.167 HD
ATOM     52  C   UNL     1     -13.956   9.743  -4.269  1.00  0.00     0.074 A 
ATOM     53  C   UNL     1     -13.849   9.969  -2.828  1.00  0.00     0.031 C 
ATOM     54  C   UNL     1     -14.616   8.800  -5.005  1.00  0.00     0.037 A 
BRANCH  41  55
ATOM     55  C   UNL     1     -15.838   6.492  -0.239  1.00  0.00     0.057 A 
ATOM     56  C   UNL     1     -17.162   6.973  -0.242  1.00  0.00     0.134 A 
ATOM     57  C   UNL     1     -15.078   6.873   0.886  1.00  0.00     0.134 A 
ATOM     58  F   UNL     1     -18.007   6.662  -1.237  1.00  0.00    -0.206 F 
ATOM     59  C   UNL     1     -17.646   7.863   0.725  1.00  0.00     0.040 A 
ATOM     60  C   UNL     1     -15.569   7.723   1.883  1.00  0.00     0.040 A 
ATOM     61  F   UNL     1     -13.798   6.531   1.056  1.00  0.00    -0.206 F 
ATOM     62  C   UNL     1     -16.841   8.256   1.783  1.00  0.00     0.006 A 
ENDBRANCH  41  55
BRANCH  42  63
ATOM     63  C   UNL     1      -9.771  11.801  -3.511  1.00  0.00     0.057 A 
ATOM     64  C   UNL     1     -10.126  13.127  -3.792  1.00  0.00     0.134 A 
ATOM     65  C   UNL     1      -8.697  11.625  -2.621  1.00  0.00     0.134 A 
ATOM     66  F   UNL     1     -11.166  13.396  -4.595  1.00  0.00    -0.206 F 
ATOM     67  C   UNL     1      -9.460  14.217  -3.212  1.00  0.00     0.040 A 
ATOM     68  C   UNL     1      -8.023  12.702  -2.035  1.00  0.00     0.040 A 
ATOM     69  F   UNL     1      -8.328  10.397  -2.225  1.00  0.00    -0.206 F 
ATOM     70  C   UNL     1      -8.411  14.005  -2.321  1.00  0.00     0.006 A 
ENDBRANCH  42  63
BRANCH  54  71
ATOM     71  C   UNL     1     -14.342   8.766  -6.486  1.00  0.00     0.057 A 
ATOM     72  C   UNL     1     -13.112   8.399  -7.054  1.00  0.00     0.134 A 
ATOM     73  C   UNL     1     -15.404   8.974  -7.369  1.00  0.00     0.134 A 
ATOM     74  F   UNL     1     -12.062   8.085  -6.290  1.00  0.00    -0.206 F 
ATOM     75  C   UNL     1     -12.936   8.288  -8.437  1.00  0.00     0.040 A 
ATOM     76  C   UNL     1     -15.252   8.834  -8.751  1.00  0.00     0.040 A 
ATOM     77  F   UNL     1     -16.625   9.269  -6.897  1.00  0.00    -0.206 F 
ATOM     78  C   UNL     1     -14.012   8.500  -9.290  1.00  0.00     0.006 A 
ENDBRANCH  54  71
ENDBRANCH  28  29
ENDBRANCH  20  23
ENDBRANCH  18  19
ENDBRANCH  17  18
ENDBRANCH   1  17
TORSDOF 14
