REMARK SMILES CC(C)(C)OC(=O)N1CCC2(CC1)CNc1ccc(C(=O)NCCCNC(=O)c3ccc(-c4c5nc(c(-c6c(F)cccc6F)c6ccc([nH]6)c(-c6c(F)cccc6F)c6nc(c(-c7c(F)cccc7F)c7ccc4[nH]7)C=C6)C=C5)cc3)cc12
REMARK SMILES IDX 24 1 23 2 22 3 20 4 21 5 19 7 6 8 7 9 8 10 9 11 13 12 10 13
REMARK SMILES IDX 12 14 11 15 14 16 84 17 15 18 16 19 83 20 17 22 18 23 5 24
REMARK SMILES IDX 2 25 1 26 3 27 4 28 25 29 26 30 27 31 28 33 29 34 30 35
REMARK SMILES IDX 82 36 31 37 81 38 32 39 33 40 34 41 75 42 35 43 80 44 74 45
REMARK SMILES IDX 76 46 36 47 79 48 73 49 72 50 37 52 63 53 46 54 62 55 47 56
REMARK SMILES IDX 50 57 61 58 77 59 48 60 49 61 60 63 78 64 51 65 38 66 39 67
REMARK SMILES IDX 44 68 40 69 41 70 43 71 45 72 42 73 64 74 65 75 70 76 66 77
REMARK SMILES IDX 67 78 69 79 71 80 68 81 52 82 53 83 58 84 54 85 55 86 57 87
REMARK SMILES IDX 59 88 56 89
REMARK H PARENT 22 6 15 21 26 32 76 51 50 62
REMARK Flexibility Score: inf
ROOT
ATOM      1  C   UNL     1       0.669 -12.422  -2.827  1.00  0.00     0.042 C 
ENDROOT
BRANCH   1   2
ATOM      2  C   UNL     1       1.530 -11.183  -3.062  1.00  0.00     0.118 C 
BRANCH   2   3
ATOM      3  N   UNL     1       0.723  -9.977  -3.046  1.00  0.00    -0.352 N 
ATOM      4  C   UNL     1       0.452  -9.037  -2.086  1.00  0.00     0.251 C 
ATOM      5  O   UNL     1      -0.271  -8.097  -2.426  1.00  0.00    -0.269 OA
ATOM      6  H   UNL     1       0.276  -9.797  -3.905  1.00  0.00     0.163 HD
BRANCH   4   7
ATOM      7  C   UNL     1       1.001  -9.058  -0.698  1.00  0.00     0.040 A 
ATOM      8  C   UNL     1       0.439  -2.590   2.783  1.00  0.00     0.410 C 
ATOM      9  O   UNL     1      -0.533  -2.237   3.432  1.00  0.00    -0.224 OA
ATOM     10  N   UNL     1       1.022  -3.838   2.908  1.00  0.00    -0.308 N 
ATOM     11  C   UNL     1       0.280  -4.901   3.564  1.00  0.00     0.124 C 
ATOM     12  C   UNL     1       2.372  -4.160   2.460  1.00  0.00     0.124 C 
ATOM     13  C   UNL     1       0.208  -6.120   2.646  1.00  0.00     0.035 C 
ATOM     14  C   UNL     1       2.388  -5.406   1.579  1.00  0.00     0.035 C 
ATOM     15  C   UNL     1       1.617  -6.582   2.214  1.00  0.00     0.018 C 
ATOM     16  C   UNL     1       2.381  -7.218   3.430  1.00  0.00     0.124 C 
ATOM     17  C   UNL     1       1.533  -7.764   1.276  1.00  0.00    -0.016 A 
ATOM     18  N   UNL     1       2.624  -8.622   3.122  1.00  0.00    -0.384 N 
ATOM     19  C   UNL     1       2.044  -8.897   1.897  1.00  0.00     0.038 A 
ATOM     20  C   UNL     1       1.019  -7.827  -0.015  1.00  0.00     0.020 A 
ATOM     21  H   UNL     1       3.115  -9.262   3.687  1.00  0.00     0.160 HD
ATOM     22  C   UNL     1       2.018 -10.118   1.257  1.00  0.00     0.027 A 
ATOM     23  C   UNL     1       1.460 -10.203  -0.026  1.00  0.00     0.016 A 
BRANCH   8  24
ATOM     24  O   UNL     1       1.034  -1.845   1.817  1.00  0.00    -0.444 OA
BRANCH  24  25
ATOM     25  C   UNL     1       0.516  -0.538   1.452  1.00  0.00     0.106 C 
ATOM     26  C   UNL     1       1.182  -0.218   0.106  1.00  0.00     0.056 C 
ATOM     27  C   UNL     1       0.958   0.489   2.496  1.00  0.00     0.056 C 
ATOM     28  C   UNL     1      -1.006  -0.514   1.241  1.00  0.00     0.056 C 
ENDBRANCH  24  25
ENDBRANCH   8  24
ENDBRANCH   4   7
ENDBRANCH   2   3
ENDBRANCH   1   2
BRANCH   1  29
ATOM     29  C   UNL     1      -0.164 -12.816  -4.046  1.00  0.00     0.118 C 
BRANCH  29  30
ATOM     30  N   UNL     1       0.648 -13.383  -5.116  1.00  0.00    -0.352 N 
ATOM     31  C   UNL     1       0.563 -14.604  -5.744  1.00  0.00     0.251 C 
ATOM     32  H   UNL     1       1.372 -12.800  -5.441  1.00  0.00     0.163 HD
ATOM     33  O   UNL     1       1.463 -14.965  -6.496  1.00  0.00    -0.269 OA
BRANCH  31  34
ATOM     34  C   UNL     1      -0.591 -15.496  -5.497  1.00  0.00     0.039 A 
ATOM     35  C   UNL     1      -1.890 -14.991  -5.434  1.00  0.00     0.014 A 
ATOM     36  C   UNL     1      -0.367 -16.867  -5.329  1.00  0.00     0.014 A 
ATOM     37  C   UNL     1      -2.933 -15.817  -5.027  1.00  0.00     0.010 A 
ATOM     38  C   UNL     1      -1.432 -17.713  -5.005  1.00  0.00     0.010 A 
ATOM     39  C   UNL     1      -2.715 -17.184  -4.793  1.00  0.00    -0.014 A 
BRANCH  39  40
ATOM     40  C   UNL     1      -3.831 -18.026  -4.287  1.00  0.00     0.031 A 
ATOM     41  C   UNL     1      -3.763 -18.641  -2.914  1.00  0.00     0.074 A 
ATOM     42  C   UNL     1      -4.939 -18.182  -5.037  1.00  0.00     0.049 A 
ATOM     43  N   UNL     1      -4.652 -19.373  -2.288  1.00  0.00    -0.248 NA
ATOM     44  C   UNL     1      -2.533 -18.409  -2.141  1.00  0.00     0.031 C 
ATOM     45  C   UNL     1      -5.137 -17.628  -6.377  1.00  0.00     0.029 A 
ATOM     46  N   UNL     1      -6.119 -18.829  -4.767  1.00  0.00    -0.354 N 
ATOM     47  C   UNL     1      -4.085 -19.698  -1.062  1.00  0.00     0.074 A 
ATOM     48  C   UNL     1      -2.760 -19.118  -1.045  1.00  0.00     0.031 C 
ATOM     49  C   UNL     1      -6.381 -17.913  -6.791  1.00  0.00     0.029 A 
ATOM     50  C   UNL     1      -7.048 -18.717  -5.773  1.00  0.00     0.049 A 
ATOM     51  H   UNL     1      -6.283 -19.326  -3.934  1.00  0.00     0.167 HD
ATOM     52  C   UNL     1      -4.622 -20.402  -0.035  1.00  0.00     0.037 A 
ATOM     53  C   UNL     1      -8.294 -19.215  -5.869  1.00  0.00     0.037 A 
ATOM     54  C   UNL     1      -5.946 -20.969  -0.044  1.00  0.00     0.049 A 
ATOM     55  C   UNL     1      -8.845 -20.036  -4.738  1.00  0.00     0.074 A 
ATOM     56  C   UNL     1      -6.586 -21.687   0.951  1.00  0.00     0.029 A 
ATOM     57  N   UNL     1      -6.834 -20.882  -1.106  1.00  0.00    -0.354 N 
ATOM     58  N   UNL     1      -8.301 -20.325  -3.582  1.00  0.00    -0.248 NA
ATOM     59  C   UNL     1     -10.185 -20.607  -4.933  1.00  0.00     0.031 C 
ATOM     60  C   UNL     1      -7.845 -22.071   0.475  1.00  0.00     0.029 A 
ATOM     61  C   UNL     1      -8.008 -21.551  -0.798  1.00  0.00     0.049 A 
ATOM     62  H   UNL     1      -6.656 -20.415  -1.954  1.00  0.00     0.167 HD
ATOM     63  C   UNL     1      -9.237 -21.093  -2.903  1.00  0.00     0.074 A 
ATOM     64  C   UNL     1     -10.392 -21.207  -3.770  1.00  0.00     0.031 C 
ATOM     65  C   UNL     1      -9.148 -21.656  -1.673  1.00  0.00     0.037 A 
BRANCH  52  66
ATOM     66  C   UNL     1      -3.761 -20.614   1.178  1.00  0.00     0.057 A 
ATOM     67  C   UNL     1      -3.249 -21.883   1.478  1.00  0.00     0.134 A 
ATOM     68  C   UNL     1      -3.446 -19.568   2.056  1.00  0.00     0.134 A 
ATOM     69  F   UNL     1      -3.517 -22.931   0.684  1.00  0.00    -0.206 F 
ATOM     70  C   UNL     1      -2.452 -22.102   2.603  1.00  0.00     0.040 A 
ATOM     71  C   UNL     1      -2.628 -19.770   3.170  1.00  0.00     0.040 A 
ATOM     72  F   UNL     1      -3.891 -18.325   1.820  1.00  0.00    -0.206 F 
ATOM     73  C   UNL     1      -2.132 -21.042   3.448  1.00  0.00     0.006 A 
ENDBRANCH  52  66
BRANCH  53  74
ATOM     74  C   UNL     1      -9.108 -18.956  -7.083  1.00  0.00     0.057 A 
ATOM     75  C   UNL     1      -8.776 -19.524  -8.318  1.00  0.00     0.134 A 
ATOM     76  C   UNL     1     -10.249 -18.146  -7.030  1.00  0.00     0.134 A 
ATOM     77  F   UNL     1      -7.693 -20.306  -8.435  1.00  0.00    -0.206 F 
ATOM     78  C   UNL     1      -9.543 -19.291  -9.460  1.00  0.00     0.040 A 
ATOM     79  C   UNL     1     -11.041 -17.926  -8.158  1.00  0.00     0.040 A 
ATOM     80  F   UNL     1     -10.630 -17.591  -5.870  1.00  0.00    -0.206 F 
ATOM     81  C   UNL     1     -10.685 -18.496  -9.379  1.00  0.00     0.006 A 
ENDBRANCH  53  74
BRANCH  65  82
ATOM     82  C   UNL     1     -10.348 -22.417  -1.188  1.00  0.00     0.057 A 
ATOM     83  C   UNL     1     -11.156 -21.899  -0.168  1.00  0.00     0.134 A 
ATOM     84  C   UNL     1     -10.701 -23.662  -1.726  1.00  0.00     0.134 A 
ATOM     85  F   UNL     1     -10.869 -20.716   0.394  1.00  0.00    -0.206 F 
ATOM     86  C   UNL     1     -12.276 -22.590   0.296  1.00  0.00     0.040 A 
ATOM     87  C   UNL     1     -11.835 -24.349  -1.288  1.00  0.00     0.040 A 
ATOM     88  F   UNL     1      -9.978 -24.205  -2.716  1.00  0.00    -0.206 F 
ATOM     89  C   UNL     1     -12.623 -23.814  -0.271  1.00  0.00     0.006 A 
ENDBRANCH  65  82
ENDBRANCH  39  40
ENDBRANCH  31  34
ENDBRANCH  29  30
ENDBRANCH   1  29
TORSDOF 12
