REMARK SMILES O=C(NCCCNC(=O)c1ccc(S(=O)(=O)Cc2cccs2)c(F)c1)c1ccc(-c2c3nc(c(-c4c(F)cccc4F)c4ccc([nH]4)c(-c4c(F)cccc4F)c4nc(c(-c5c(F)cccc5F)c5ccc2[nH]5)C=C4)C=C3)cc1
REMARK SMILES IDX 5 1 4 2 3 3 1 4 2 5 26 7 27 8 79 9 28 10 78 11 29 12 30 13
REMARK SMILES IDX 31 14 72 15 32 16 77 17 71 18 73 19 33 20 76 21 70 22 69 23
REMARK SMILES IDX 34 25 60 26 43 27 59 28 44 29 47 30 58 31 74 32 45 33 46 34
REMARK SMILES IDX 57 36 75 37 48 38 35 39 36 40 41 41 37 42 38 43 40 44 42 45
REMARK SMILES IDX 39 46 61 47 62 48 67 49 63 50 64 51 66 52 68 53 65 54 49 55
REMARK SMILES IDX 50 56 55 57 51 58 52 59 54 60 56 61 53 62 6 63 7 64 8 65
REMARK SMILES IDX 9 67 10 68 11 69 25 70 12 71 23 72 13 73 24 74 14 75 15 76
REMARK SMILES IDX 16 77 17 78 18 79 19 80 22 81 20 82 21 83
REMARK H PARENT 3 6 73 24 47 35 7 66
REMARK Flexibility Score: inf
ROOT
ATOM      1  C   UNL     1       4.599   0.151  -2.591  1.00  0.00     0.042 C 
ENDROOT
BRANCH   1   2
ATOM      2  C   UNL     1       4.364   0.799  -1.233  1.00  0.00     0.118 C 
BRANCH   2   3
ATOM      3  N   UNL     1       2.959   0.781  -0.841  1.00  0.00    -0.352 N 
ATOM      4  O   UNL     1       1.086   0.053   0.169  1.00  0.00    -0.269 OA
ATOM      5  C   UNL     1       2.313   0.077   0.146  1.00  0.00     0.251 C 
ATOM      6  H   UNL     1       2.377   1.372  -1.373  1.00  0.00     0.163 HD
BRANCH   5   7
ATOM      7  C   UNL     1       3.084  -0.658   1.171  1.00  0.00     0.039 A 
ATOM      8  C   UNL     1       4.244  -0.110   1.715  1.00  0.00     0.014 A 
ATOM      9  C   UNL     1       2.621  -1.898   1.626  1.00  0.00     0.014 A 
ATOM     10  C   UNL     1       5.029  -0.867   2.572  1.00  0.00     0.010 A 
ATOM     11  C   UNL     1       3.355  -2.611   2.581  1.00  0.00     0.010 A 
ATOM     12  C   UNL     1       4.583  -2.115   3.039  1.00  0.00    -0.014 A 
BRANCH  12  13
ATOM     13  C   UNL     1       5.400  -2.817   4.062  1.00  0.00     0.031 A 
ATOM     14  C   UNL     1       6.048  -4.143   3.779  1.00  0.00     0.074 A 
ATOM     15  C   UNL     1       5.625  -2.188   5.234  1.00  0.00     0.049 A 
ATOM     16  N   UNL     1       6.874  -4.826   4.531  1.00  0.00    -0.248 NA
ATOM     17  C   UNL     1       5.732  -4.792   2.497  1.00  0.00     0.031 C 
ATOM     18  C   UNL     1       5.035  -0.903   5.623  1.00  0.00     0.029 A 
ATOM     19  N   UNL     1       6.441  -2.508   6.287  1.00  0.00    -0.354 N 
ATOM     20  C   UNL     1       7.165  -5.986   3.825  1.00  0.00     0.074 A 
ATOM     21  C   UNL     1       6.410  -5.929   2.592  1.00  0.00     0.031 C 
ATOM     22  C   UNL     1       5.579  -0.501   6.779  1.00  0.00     0.029 A 
ATOM     23  C   UNL     1       6.497  -1.530   7.252  1.00  0.00     0.049 A 
ATOM     24  H   UNL     1       6.939  -3.355   6.348  1.00  0.00     0.167 HD
ATOM     25  C   UNL     1       7.995  -6.997   4.173  1.00  0.00     0.037 A 
ATOM     26  C   UNL     1       7.208  -1.463   8.392  1.00  0.00     0.037 A 
ATOM     27  C   UNL     1       8.763  -7.036   5.391  1.00  0.00     0.049 A 
ATOM     28  C   UNL     1       8.111  -2.604   8.751  1.00  0.00     0.074 A 
ATOM     29  C   UNL     1       9.646  -8.013   5.819  1.00  0.00     0.029 A 
ATOM     30  N   UNL     1       8.745  -6.057   6.372  1.00  0.00    -0.354 N 
ATOM     31  N   UNL     1       8.381  -3.688   8.066  1.00  0.00    -0.248 NA
ATOM     32  C   UNL     1       8.798  -2.522  10.047  1.00  0.00     0.031 C 
ATOM     33  C   UNL     1      10.134  -7.643   7.076  1.00  0.00     0.029 A 
ATOM     34  C   UNL     1       9.588  -6.414   7.411  1.00  0.00     0.049 A 
ATOM     35  H   UNL     1       8.212  -5.230   6.335  1.00  0.00     0.167 HD
ATOM     36  C   UNL     1       9.269  -4.416   8.844  1.00  0.00     0.074 A 
ATOM     37  C   UNL     1       9.517  -3.635  10.039  1.00  0.00     0.031 C 
ATOM     38  C   UNL     1       9.820  -5.628   8.595  1.00  0.00     0.037 A 
BRANCH  25  39
ATOM     39  C   UNL     1       8.132  -8.157   3.231  1.00  0.00     0.057 A 
ATOM     40  C   UNL     1       7.595  -9.409   3.559  1.00  0.00     0.134 A 
ATOM     41  C   UNL     1       8.884  -8.064   2.054  1.00  0.00     0.134 A 
ATOM     42  F   UNL     1       6.870  -9.567   4.677  1.00  0.00    -0.206 F 
ATOM     43  C   UNL     1       7.821 -10.532   2.761  1.00  0.00     0.040 A 
ATOM     44  C   UNL     1       9.101  -9.176   1.238  1.00  0.00     0.040 A 
ATOM     45  F   UNL     1       9.418  -6.892   1.679  1.00  0.00    -0.206 F 
ATOM     46  C   UNL     1       8.579 -10.418   1.598  1.00  0.00     0.006 A 
ENDBRANCH  25  39
BRANCH  26  47
ATOM     47  C   UNL     1       7.091  -0.270   9.267  1.00  0.00     0.057 A 
ATOM     48  C   UNL     1       5.904   0.020   9.951  1.00  0.00     0.134 A 
ATOM     49  C   UNL     1       8.160   0.619   9.423  1.00  0.00     0.134 A 
ATOM     50  F   UNL     1       4.841  -0.789   9.836  1.00  0.00    -0.206 F 
ATOM     51  C   UNL     1       5.776   1.163  10.741  1.00  0.00     0.040 A 
ATOM     52  C   UNL     1       8.056   1.751  10.233  1.00  0.00     0.040 A 
ATOM     53  F   UNL     1       9.328   0.386   8.807  1.00  0.00    -0.206 F 
ATOM     54  C   UNL     1       6.857   2.029  10.888  1.00  0.00     0.006 A 
ENDBRANCH  26  47
BRANCH  38  55
ATOM     55  C   UNL     1      10.748  -6.181   9.633  1.00  0.00     0.057 A 
ATOM     56  C   UNL     1      12.127  -6.249   9.399  1.00  0.00     0.134 A 
ATOM     57  C   UNL     1      10.269  -6.685  10.849  1.00  0.00     0.134 A 
ATOM     58  F   UNL     1      12.646  -5.790   8.250  1.00  0.00    -0.206 F 
ATOM     59  C   UNL     1      12.997  -6.804  10.336  1.00  0.00     0.040 A 
ATOM     60  C   UNL     1      11.133  -7.222  11.804  1.00  0.00     0.040 A 
ATOM     61  F   UNL     1       8.960  -6.637  11.136  1.00  0.00    -0.206 F 
ATOM     62  C   UNL     1      12.501  -7.288  11.545  1.00  0.00     0.006 A 
ENDBRANCH  38  55
ENDBRANCH  12  13
ENDBRANCH   5   7
ENDBRANCH   2   3
ENDBRANCH   1   2
BRANCH   1  63
ATOM     63  C   UNL     1       3.937   0.906  -3.735  1.00  0.00     0.118 C 
BRANCH  63  64
ATOM     64  N   UNL     1       4.511   2.233  -3.905  1.00  0.00    -0.352 N 
ATOM     65  C   UNL     1       5.574   2.604  -4.685  1.00  0.00     0.251 C 
ATOM     66  H   UNL     1       4.080   2.956  -3.393  1.00  0.00     0.163 HD
ATOM     67  O   UNL     1       6.106   3.702  -4.563  1.00  0.00    -0.269 OA
BRANCH  65  68
ATOM     68  C   UNL     1       6.088   1.652  -5.680  1.00  0.00     0.042 A 
ATOM     69  C   UNL     1       5.260   1.227  -6.725  1.00  0.00     0.015 A 
ATOM     70  C   UNL     1       7.402   1.196  -5.572  1.00  0.00     0.054 A 
ATOM     71  C   UNL     1       5.739   0.302  -7.648  1.00  0.00     0.024 A 
ATOM     72  C   UNL     1       7.870   0.266  -6.494  1.00  0.00     0.142 A 
ATOM     73  C   UNL     1       7.051  -0.174  -7.528  1.00  0.00     0.103 A 
ATOM     74  F   UNL     1       9.125  -0.178  -6.363  1.00  0.00    -0.206 F 
BRANCH  73  75
ATOM     75  S   UNL     1       7.652  -1.304  -8.744  1.00  0.00     0.186 S 
ATOM     76  O   UNL     1       7.577  -2.609  -8.110  1.00  0.00    -0.223 OA
ATOM     77  O   UNL     1       6.886  -1.051  -9.953  1.00  0.00    -0.223 OA
BRANCH  75  78
ATOM     78  C   UNL     1       9.357  -0.957  -9.091  1.00  0.00     0.188 C 
BRANCH  78  79
ATOM     79  C   UNL     1       9.639   0.408  -9.658  1.00  0.00     0.020 A 
ATOM     80  C   UNL     1       9.056   1.647  -9.460  1.00  0.00     0.016 A 
ATOM     81  S   UNL     1      10.997   0.548 -10.716  1.00  0.00    -0.148 S 
ATOM     82  C   UNL     1       9.732   2.698 -10.148  1.00  0.00     0.012 A 
ATOM     83  C   UNL     1      10.804   2.234 -10.871  1.00  0.00     0.065 A 
ENDBRANCH  78  79
ENDBRANCH  75  78
ENDBRANCH  73  75
ENDBRANCH  65  68
ENDBRANCH  63  64
ENDBRANCH   1  63
TORSDOF 13
