REMARK SMILES Cc1cccc(NC(=O)C[C@H]([NH2+]C(C)C)C(=O)NCCCNC(=O)c2ccc(-c3c4nc(c(-c5c(F)cccc5F)c5ccc([nH]5)c(-c5c(F)cccc5F)c5nc(c(-c6c(F)cccc6F)c6ccc3[nH]6)C=C5)C=C4)cc2)c1
REMARK SMILES IDX 19 1 18 2 16 3 17 4 11 6 10 7 8 8 7 9 9 11 6 12 1 13 2 14
REMARK SMILES IDX 3 15 79 16 4 17 5 18 12 19 13 22 14 23 15 24 20 25 21 26
REMARK SMILES IDX 22 27 23 28 24 30 25 31 26 32 78 33 27 34 77 35 28 36 29 37
REMARK SMILES IDX 30 38 71 39 31 40 76 41 70 42 72 43 32 44 75 45 69 46 68 47
REMARK SMILES IDX 33 49 59 50 42 51 58 52 43 53 46 54 57 55 73 56 44 57 45 58
REMARK SMILES IDX 56 60 74 61 47 62 34 63 35 64 40 65 36 66 37 67 39 68 41 69
REMARK SMILES IDX 38 70 60 71 61 72 66 73 62 74 63 75 65 76 67 77 64 78 48 79
REMARK SMILES IDX 49 80 54 81 50 82 51 83 53 84 55 85 52 86
REMARK H PARENT 18 5 7 10 12 20 12 21 22 29 72 48 46 59
REMARK Flexibility Score: inf
ROOT
ATOM      1  C   UNL     1      -2.852  -2.248   1.721  1.00  0.00     0.118 C 
ENDROOT
BRANCH   1   2
ATOM      2  N   UNL     1      -3.982  -1.690   0.064  1.00  0.00    -0.351 N 
ATOM      3  C   UNL     1      -4.345  -0.945  -1.055  1.00  0.00     0.278 C 
ATOM      4  O   UNL     1      -5.219  -1.520  -1.736  1.00  0.00    -0.268 OA
ATOM      5  H   UNL     1      -4.697  -2.366   0.084  1.00  0.00     0.163 HD
BRANCH   3   6
ATOM      6  C   UNL     1      -3.901   0.442  -1.535  1.00  0.00     0.282 C 
BRANCH   6   7
ATOM      7  C   UNL     1      -2.413   0.582  -1.945  1.00  0.00     0.175 C 
BRANCH   7   8
ATOM      8  C   UNL     1      -1.656  -0.687  -2.366  1.00  0.00     0.230 C 
ATOM      9  N   UNL     1      -1.408  -1.728  -1.510  1.00  0.00    -0.326 N 
ATOM     10  H   UNL     1      -0.756  -2.407  -1.799  1.00  0.00     0.169 HD
ATOM     11  O   UNL     1      -1.233  -0.792  -3.523  1.00  0.00    -0.274 OA
BRANCH   9  12
ATOM     12  C   UNL     1      -2.008  -1.905  -0.257  1.00  0.00     0.041 A 
ATOM     13  C   UNL     1      -5.267  -4.705   0.948  1.00  0.00     0.044 C 
ATOM     14  C   UNL     1      -4.424  -3.494   0.967  1.00  0.00    -0.049 A 
ATOM     15  C   UNL     1      -4.984  -1.982   1.792  1.00  0.00     0.003 A 
ATOM     16  C   UNL     1      -2.942  -3.445  -0.089  1.00  0.00     0.029 A 
ATOM     17  C   UNL     1      -3.996  -0.465   1.673  1.00  0.00     0.002 A 
ATOM     18  C   UNL     1      -2.485  -0.437   0.697  1.00  0.00     0.026 A 
ENDBRANCH   9  12
ENDBRANCH   7   8
ENDBRANCH   6   7
BRANCH   6  19
ATOM     19  N   UNL     1      -4.470   1.558  -0.688  1.00  0.00    -0.334 N 
ATOM     20  H   UNL     1      -4.578   2.379  -1.283  1.00  0.00     0.347 HD
ATOM     21  H   UNL     1      -3.812   1.688   0.080  1.00  0.00     0.347 HD
BRANCH  19  22
ATOM     22  C   UNL     1      -5.784   1.276  -0.056  1.00  0.00     0.176 C 
ATOM     23  C   UNL     1      -5.997   2.217   1.141  1.00  0.00     0.075 C 
ATOM     24  C   UNL     1      -7.013   1.267  -0.955  1.00  0.00     0.075 C 
ENDBRANCH  19  22
ENDBRANCH   6  19
ENDBRANCH   3   6
ENDBRANCH   1   2
BRANCH   1  25
ATOM     25  C   UNL     1      -3.015  -1.895   3.425  1.00  0.00     0.042 C 
BRANCH  25  26
ATOM     26  C   UNL     1      -3.768  -2.943   4.239  1.00  0.00     0.118 C 
BRANCH  26  27
ATOM     27  N   UNL     1      -2.990  -4.111   4.586  1.00  0.00    -0.352 N 
ATOM     28  C   UNL     1      -3.355  -5.269   5.239  1.00  0.00     0.251 C 
ATOM     29  H   UNL     1      -2.046  -4.074   4.311  1.00  0.00     0.163 HD
ATOM     30  O   UNL     1      -2.456  -6.027   5.604  1.00  0.00    -0.269 OA
BRANCH  28  31
ATOM     31  C   UNL     1      -4.775  -5.731   5.315  1.00  0.00     0.039 A 
ATOM     32  C   UNL     1      -4.931  -7.125   5.295  1.00  0.00     0.014 A 
ATOM     33  C   UNL     1      -5.804  -4.938   4.841  1.00  0.00     0.014 A 
ATOM     34  C   UNL     1      -5.845  -7.691   4.421  1.00  0.00     0.010 A 
ATOM     35  C   UNL     1      -6.582  -5.464   3.845  1.00  0.00     0.010 A 
ATOM     36  C   UNL     1      -6.539  -6.835   3.583  1.00  0.00    -0.014 A 
BRANCH  36  37
ATOM     37  C   UNL     1      -7.447  -7.267   2.546  1.00  0.00     0.031 A 
ATOM     38  C   UNL     1      -8.852  -7.292   2.981  1.00  0.00     0.074 A 
ATOM     39  C   UNL     1      -7.022  -7.536   1.290  1.00  0.00     0.049 A 
ATOM     40  N   UNL     1      -9.755  -7.986   2.407  1.00  0.00    -0.248 NA
ATOM     41  C   UNL     1      -9.351  -6.602   4.175  1.00  0.00     0.031 C 
ATOM     42  C   UNL     1      -7.807  -7.733   0.075  1.00  0.00     0.029 A 
ATOM     43  N   UNL     1      -5.727  -7.878   0.898  1.00  0.00    -0.354 N 
ATOM     44  C   UNL     1     -10.970  -7.621   2.939  1.00  0.00     0.074 A 
ATOM     45  C   UNL     1     -10.661  -6.837   4.100  1.00  0.00     0.031 C 
ATOM     46  C   UNL     1      -7.076  -8.428  -0.817  1.00  0.00     0.029 A 
ATOM     47  C   UNL     1      -5.831  -8.791  -0.167  1.00  0.00     0.049 A 
ATOM     48  H   UNL     1      -4.892  -7.540   1.294  1.00  0.00     0.167 HD
ATOM     49  C   UNL     1     -12.074  -7.943   2.218  1.00  0.00     0.037 A 
ATOM     50  C   UNL     1      -5.332 -10.051  -0.015  1.00  0.00     0.037 A 
ATOM     51  C   UNL     1     -11.661  -8.747   1.070  1.00  0.00     0.049 A 
ATOM     52  C   UNL     1      -6.455 -11.060   0.003  1.00  0.00     0.074 A 
ATOM     53  C   UNL     1     -11.343  -8.424  -0.238  1.00  0.00     0.029 A 
ATOM     54  N   UNL     1     -11.087  -9.985   1.321  1.00  0.00    -0.354 N 
ATOM     55  N   UNL     1      -7.690 -10.772   0.325  1.00  0.00    -0.248 NA
ATOM     56  C   UNL     1      -6.304 -12.434  -0.456  1.00  0.00     0.031 C 
ATOM     57  C   UNL     1     -10.572  -9.494  -0.773  1.00  0.00     0.029 A 
ATOM     58  C   UNL     1     -10.435 -10.465   0.206  1.00  0.00     0.049 A 
ATOM     59  H   UNL     1     -11.138 -10.459   2.182  1.00  0.00     0.167 HD
ATOM     60  C   UNL     1      -8.501 -11.851   0.062  1.00  0.00     0.074 A 
ATOM     61  C   UNL     1      -7.578 -12.863  -0.419  1.00  0.00     0.031 C 
ATOM     62  C   UNL     1      -9.861 -11.804   0.230  1.00  0.00     0.037 A 
BRANCH  49  63
ATOM     63  C   UNL     1     -13.458  -7.379   2.388  1.00  0.00     0.057 A 
ATOM     64  C   UNL     1     -14.369  -7.450   1.313  1.00  0.00     0.134 A 
ATOM     65  C   UNL     1     -13.965  -6.739   3.532  1.00  0.00     0.134 A 
ATOM     66  F   UNL     1     -14.053  -8.056   0.160  1.00  0.00    -0.206 F 
ATOM     67  C   UNL     1     -15.653  -6.898   1.358  1.00  0.00     0.040 A 
ATOM     68  C   UNL     1     -15.242  -6.160   3.583  1.00  0.00     0.040 A 
ATOM     69  F   UNL     1     -13.279  -6.668   4.676  1.00  0.00    -0.206 F 
ATOM     70  C   UNL     1     -16.092  -6.238   2.492  1.00  0.00     0.006 A 
ENDBRANCH  49  63
BRANCH  50  71
ATOM     71  C   UNL     1      -4.069 -10.021   0.797  1.00  0.00     0.057 A 
ATOM     72  C   UNL     1      -2.992  -9.307   0.221  1.00  0.00     0.134 A 
ATOM     73  C   UNL     1      -4.115 -10.058   2.194  1.00  0.00     0.134 A 
ATOM     74  F   UNL     1      -2.852  -9.271  -1.114  1.00  0.00    -0.206 F 
ATOM     75  C   UNL     1      -2.180  -8.455   0.978  1.00  0.00     0.040 A 
ATOM     76  C   UNL     1      -3.271  -9.241   2.961  1.00  0.00     0.040 A 
ATOM     77  F   UNL     1      -5.088 -10.729   2.827  1.00  0.00    -0.206 F 
ATOM     78  C   UNL     1      -2.364  -8.374   2.352  1.00  0.00     0.006 A 
ENDBRANCH  50  71
BRANCH  62  79
ATOM     79  C   UNL     1     -10.829 -12.976   0.381  1.00  0.00     0.057 A 
ATOM     80  C   UNL     1     -10.458 -14.320   0.495  1.00  0.00     0.134 A 
ATOM     81  C   UNL     1     -12.222 -12.752   0.573  1.00  0.00     0.134 A 
ATOM     82  F   UNL     1      -9.185 -14.720   0.442  1.00  0.00    -0.206 F 
ATOM     83  C   UNL     1     -11.384 -15.348   0.732  1.00  0.00     0.040 A 
ATOM     84  C   UNL     1     -13.136 -13.757   0.900  1.00  0.00     0.040 A 
ATOM     85  F   UNL     1     -12.787 -11.541   0.482  1.00  0.00    -0.206 F 
ATOM     86  C   UNL     1     -12.722 -15.069   0.960  1.00  0.00     0.006 A 
ENDBRANCH  62  79
ENDBRANCH  36  37
ENDBRANCH  28  31
ENDBRANCH  26  27
ENDBRANCH  25  26
ENDBRANCH   1  25
TORSDOF 15
