REMARK SMILES CCCCCCNC(=O)Oc1cccc(-c2ccc([C@@H](C)C(=O)NCCCNC(=O)c3ccc(-c4c5nc(c(-c6c(F)cccc6F)c6ccc([nH]6)c(-c6c(F)cccc6F)c6nc(c(-c7c(F)cccc7F)c7ccc4[nH]7)C=C6)C=C5)cc3)cc2[N+](=O)[O-])c1
REMARK SMILES IDX 16 1 17 2 18 3 19 4 85 5 86 6 15 7 11 8 12 9 90 10 13 11
REMARK SMILES IDX 14 12 10 13 8 14 7 15 9 17 6 18 5 19 4 20 3 21 2 22 1 23
REMARK SMILES IDX 87 24 88 25 89 26 20 27 21 28 22 29 23 30 24 31 25 33 26 34
REMARK SMILES IDX 27 35 28 36 29 37 30 39 31 40 32 41 84 42 33 43 83 44 34 45
REMARK SMILES IDX 35 46 36 47 77 48 37 49 82 50 76 51 78 52 38 53 81 54 75 55
REMARK SMILES IDX 74 56 39 58 65 59 48 60 64 61 49 62 52 63 63 64 79 65 50 66
REMARK SMILES IDX 51 67 62 69 80 70 53 71 40 72 41 73 46 74 42 75 43 76 45 77
REMARK SMILES IDX 47 78 44 79 66 80 67 81 72 82 68 83 69 84 71 85 73 86 70 87
REMARK SMILES IDX 54 88 55 89 60 90 56 91 57 92 59 93 61 94 58 95
REMARK H PARENT 7 16 24 32 28 38 78 57 52 68
REMARK Flexibility Score: inf
ROOT
ATOM      1  C   UNL     1      -5.089  -5.787  -7.927  1.00  0.00     0.060 A 
ATOM      2  C   UNL     1      -5.396  -6.129  -9.257  1.00  0.00     0.016 A 
ATOM      3  C   UNL     1      -5.264  -7.436  -9.740  1.00  0.00     0.005 A 
ATOM      4  C   UNL     1      -4.728  -8.451  -8.948  1.00  0.00    -0.029 A 
ATOM      5  C   UNL     1      -4.465  -8.151  -7.603  1.00  0.00     0.090 A 
ATOM      6  C   UNL     1      -4.684  -6.851  -7.097  1.00  0.00     0.277 A 
ENDROOT
BRANCH   1   7
ATOM      7  C   UNL     1      -5.163  -4.363  -7.531  1.00  0.00    -0.008 A 
ATOM      8  C   UNL     1      -4.197  -2.381  -6.506  1.00  0.00     0.133 A 
ATOM      9  C   UNL     1      -5.303  -1.616  -6.862  1.00  0.00     0.047 A 
ATOM     10  C   UNL     1      -4.113  -3.736  -6.838  1.00  0.00     0.056 A 
ATOM     11  C   UNL     1      -6.343  -2.214  -7.565  1.00  0.00     0.004 A 
ATOM     12  C   UNL     1      -6.277  -3.574  -7.884  1.00  0.00     0.009 A 
BRANCH   8  13
ATOM     13  O   UNL     1      -3.247  -1.766  -5.674  1.00  0.00    -0.410 OA
BRANCH  13  14
ATOM     14  C   UNL     1      -1.900  -1.880  -5.978  1.00  0.00     0.412 C 
ATOM     15  N   UNL     1      -1.091  -1.371  -5.000  1.00  0.00    -0.321 N 
ATOM     16  H   UNL     1      -0.122  -1.379  -5.178  1.00  0.00     0.167 HD
ATOM     17  O   UNL     1      -1.433  -2.369  -7.000  1.00  0.00    -0.224 OA
BRANCH  15  18
ATOM     18  C   UNL     1      -1.513  -0.822  -3.726  1.00  0.00     0.119 C 
BRANCH  18  19
ATOM     19  C   UNL     1      -0.927  -1.597  -2.545  1.00  0.00     0.021 C 
BRANCH  19  20
ATOM     20  C   UNL     1       0.602  -1.542  -2.434  1.00  0.00     0.002 C 
BRANCH  20  21
ATOM     21  C   UNL     1       1.205  -0.138  -2.318  1.00  0.00    -0.000 C 
BRANCH  21  22
ATOM     22  C   UNL     1       0.717   0.690  -1.127  1.00  0.00    -0.003 C 
ATOM     23  C   UNL     1       1.079   0.081   0.219  1.00  0.00     0.004 C 
ENDBRANCH  21  22
ENDBRANCH  20  21
ENDBRANCH  19  20
ENDBRANCH  18  19
ENDBRANCH  15  18
ENDBRANCH  13  14
ENDBRANCH   8  13
ENDBRANCH   1   7
BRANCH   6  24
ATOM     24  N   UNL     1      -4.544  -6.676  -5.653  1.00  0.00     0.063 N 
ATOM     25  O   UNL     1      -3.575  -7.223  -5.107  1.00  0.00    -0.258 OA
ATOM     26  O   UNL     1      -5.428  -6.044  -5.059  1.00  0.00    -0.258 OA
ENDBRANCH   6  24
BRANCH   4  27
ATOM     27  C   UNL     1      -4.405  -9.833  -9.496  1.00  0.00     0.105 C 
ATOM     28  C   UNL     1      -5.544 -10.519 -10.248  1.00  0.00     0.023 C 
BRANCH  27  29
ATOM     29  C   UNL     1      -3.033  -9.918 -10.186  1.00  0.00     0.227 C 
ATOM     30  O   UNL     1      -2.072 -10.403  -9.576  1.00  0.00    -0.274 OA
ATOM     31  N   UNL     1      -2.779  -9.489 -11.451  1.00  0.00    -0.356 N 
ATOM     32  H   UNL     1      -1.866  -9.688 -11.761  1.00  0.00     0.163 HD
BRANCH  31  33
ATOM     33  C   UNL     1      -3.591  -8.796 -12.432  1.00  0.00     0.117 C 
BRANCH  33  34
ATOM     34  C   UNL     1      -3.327  -7.291 -12.435  1.00  0.00     0.042 C 
BRANCH  34  35
ATOM     35  C   UNL     1      -2.099  -6.878 -13.236  1.00  0.00     0.118 C 
BRANCH  35  36
ATOM     36  N   UNL     1      -2.308  -7.018 -14.670  1.00  0.00    -0.352 N 
ATOM     37  C   UNL     1      -2.332  -6.076 -15.668  1.00  0.00     0.251 C 
ATOM     38  H   UNL     1      -2.455  -7.943 -14.975  1.00  0.00     0.163 HD
ATOM     39  O   UNL     1      -2.745  -6.399 -16.779  1.00  0.00    -0.269 OA
BRANCH  37  40
ATOM     40  C   UNL     1      -1.882  -4.684 -15.433  1.00  0.00     0.039 A 
ATOM     41  C   UNL     1      -2.535  -3.645 -16.108  1.00  0.00     0.014 A 
ATOM     42  C   UNL     1      -0.784  -4.391 -14.620  1.00  0.00     0.014 A 
ATOM     43  C   UNL     1      -2.118  -2.322 -15.934  1.00  0.00     0.010 A 
ATOM     44  C   UNL     1      -0.422  -3.067 -14.380  1.00  0.00     0.010 A 
ATOM     45  C   UNL     1      -1.071  -2.019 -15.050  1.00  0.00    -0.014 A 
BRANCH  45  46
ATOM     46  C   UNL     1      -0.613  -0.621 -14.844  1.00  0.00     0.031 A 
ATOM     47  C   UNL     1       0.784  -0.222 -15.239  1.00  0.00     0.074 A 
ATOM     48  C   UNL     1      -1.426   0.273 -14.251  1.00  0.00     0.049 A 
ATOM     49  N   UNL     1       1.401   0.920 -15.065  1.00  0.00    -0.248 NA
ATOM     50  C   UNL     1       1.608  -1.252 -15.892  1.00  0.00     0.031 C 
ATOM     51  C   UNL     1      -2.787   0.001 -13.784  1.00  0.00     0.029 A 
ATOM     52  N   UNL     1      -1.222   1.591 -13.929  1.00  0.00    -0.354 N 
ATOM     53  C   UNL     1       2.685   0.737 -15.563  1.00  0.00     0.074 A 
ATOM     54  C   UNL     1       2.776  -0.638 -16.002  1.00  0.00     0.031 C 
ATOM     55  C   UNL     1      -3.301   1.123 -13.253  1.00  0.00     0.029 A 
ATOM     56  C   UNL     1      -2.297   2.180 -13.309  1.00  0.00     0.049 A 
ATOM     57  H   UNL     1      -0.384   2.070 -14.124  1.00  0.00     0.167 HD
ATOM     58  C   UNL     1       3.691   1.638 -15.667  1.00  0.00     0.037 A 
ATOM     59  C   UNL     1      -2.452   3.430 -12.833  1.00  0.00     0.037 A 
ATOM     60  C   UNL     1       3.588   3.015 -15.262  1.00  0.00     0.049 A 
ATOM     61  C   UNL     1      -1.323   4.414 -12.966  1.00  0.00     0.074 A 
ATOM     62  C   UNL     1       4.530   4.022 -15.381  1.00  0.00     0.029 A 
ATOM     63  N   UNL     1       2.472   3.579 -14.664  1.00  0.00    -0.354 N 
ATOM     64  N   UNL     1      -0.135   4.242 -13.492  1.00  0.00    -0.248 NA
ATOM     65  C   UNL     1      -1.560   5.768 -12.445  1.00  0.00     0.031 C 
ATOM     66  C   UNL     1       3.996   5.188 -14.821  1.00  0.00     0.029 A 
ATOM     67  C   UNL     1       2.707   4.917 -14.393  1.00  0.00     0.049 A 
ATOM     68  H   UNL     1       1.636   3.100 -14.461  1.00  0.00     0.167 HD
ATOM     69  C   UNL     1       0.507   5.470 -13.391  1.00  0.00     0.074 A 
ATOM     70  C   UNL     1      -0.429   6.381 -12.765  1.00  0.00     0.031 C 
ATOM     71  C   UNL     1       1.759   5.812 -13.781  1.00  0.00     0.037 A 
BRANCH  58  72
ATOM     72  C   UNL     1       4.990   1.161 -16.249  1.00  0.00     0.057 A 
ATOM     73  C   UNL     1       5.118   0.848 -17.609  1.00  0.00     0.134 A 
ATOM     74  C   UNL     1       6.133   1.040 -15.449  1.00  0.00     0.134 A 
ATOM     75  F   UNL     1       4.059   0.930 -18.429  1.00  0.00    -0.206 F 
ATOM     76  C   UNL     1       6.329   0.406 -18.146  1.00  0.00     0.040 A 
ATOM     77  C   UNL     1       7.355   0.625 -15.979  1.00  0.00     0.040 A 
ATOM     78  F   UNL     1       6.082   1.331 -14.140  1.00  0.00    -0.206 F 
ATOM     79  C   UNL     1       7.454   0.299 -17.331  1.00  0.00     0.006 A 
ENDBRANCH  58  72
BRANCH  59  80
ATOM     80  C   UNL     1      -3.737   3.833 -12.208  1.00  0.00     0.057 A 
ATOM     81  C   UNL     1      -4.602   4.724 -12.853  1.00  0.00     0.134 A 
ATOM     82  C   UNL     1      -4.127   3.347 -10.954  1.00  0.00     0.134 A 
ATOM     83  F   UNL     1      -4.273   5.238 -14.047  1.00  0.00    -0.206 F 
ATOM     84  C   UNL     1      -5.801   5.134 -12.266  1.00  0.00     0.040 A 
ATOM     85  C   UNL     1      -5.334   3.729 -10.367  1.00  0.00     0.040 A 
ATOM     86  F   UNL     1      -3.345   2.486 -10.288  1.00  0.00    -0.206 F 
ATOM     87  C   UNL     1      -6.172   4.631 -11.021  1.00  0.00     0.006 A 
ENDBRANCH  59  80
BRANCH  71  88
ATOM     88  C   UNL     1       2.175   7.239 -13.579  1.00  0.00     0.057 A 
ATOM     89  C   UNL     1       2.475   7.748 -12.309  1.00  0.00     0.134 A 
ATOM     90  C   UNL     1       2.314   8.101 -14.674  1.00  0.00     0.134 A 
ATOM     91  F   UNL     1       2.348   6.976 -11.219  1.00  0.00    -0.206 F 
ATOM     92  C   UNL     1       2.880   9.072 -12.134  1.00  0.00     0.040 A 
ATOM     93  C   UNL     1       2.741   9.419 -14.513  1.00  0.00     0.040 A 
ATOM     94  F   UNL     1       2.049   7.672 -15.917  1.00  0.00    -0.206 F 
ATOM     95  C   UNL     1       3.020   9.910 -13.239  1.00  0.00     0.006 A 
ENDBRANCH  71  88
ENDBRANCH  45  46
ENDBRANCH  37  40
ENDBRANCH  35  36
ENDBRANCH  34  35
ENDBRANCH  33  34
ENDBRANCH  31  33
ENDBRANCH  27  29
ENDBRANCH   4  27
TORSDOF 20
