REMARK SMILES Cc1cc(C(=O)NCCCNC(=O)c2ccc(-c3c4nc(c(-c5c(F)cccc5F)c5ccc([nH]5)c(-c5c(F)cccc5F)c5nc(c(-c6c(F)cccc6F)c6ccc3[nH]6)C=C5)C=C4)cc2)nc(N2CCN(c3ccccc3Cl)CC2)n1
REMARK SMILES IDX 9 1 8 2 7 3 5 4 6 5 4 7 1 8 2 9 3 10 83 11 69 12 68 13 70 14
REMARK SMILES IDX 71 15 82 16 72 17 81 18 73 19 74 20 75 21 79 22 76 23 78 24
REMARK SMILES IDX 80 25 77 26 10 27 11 28 12 29 13 31 14 32 15 33 67 34 16 35
REMARK SMILES IDX 66 36 17 37 18 38 19 39 60 40 20 41 65 42 59 43 61 44 21 45
REMARK SMILES IDX 64 46 58 47 57 48 22 50 48 51 31 52 47 53 32 54 35 55 46 56
REMARK SMILES IDX 62 57 33 58 34 59 45 61 63 62 36 63 23 64 24 65 29 66 25 67
REMARK SMILES IDX 26 68 28 69 30 70 27 71 49 72 50 73 55 74 51 75 52 76 54 77
REMARK SMILES IDX 56 78 53 79 37 80 38 81 43 82 39 83 40 84 42 85 44 86 41 87
REMARK H PARENT 7 6 11 30 61 49 35 60
REMARK Flexibility Score: inf
ROOT
ATOM      1  C   UNL     1      -0.596  -4.615  -0.707  1.00  0.00     0.042 C 
ENDROOT
BRANCH   1   2
ATOM      2  C   UNL     1       0.053  -4.009   0.534  1.00  0.00     0.118 C 
BRANCH   2   3
ATOM      3  N   UNL     1       1.360  -3.490   0.201  1.00  0.00    -0.351 N 
ATOM      4  C   UNL     1       1.801  -2.244  -0.167  1.00  0.00     0.270 C 
ATOM      5  O   UNL     1       2.994  -2.167  -0.472  1.00  0.00    -0.268 OA
ATOM      6  H   UNL     1       2.076  -4.165   0.247  1.00  0.00     0.163 HD
BRANCH   4   7
ATOM      7  C   UNL     1       0.946  -1.011  -0.153  1.00  0.00     0.133 A 
ATOM      8  C   UNL     1      -2.501   0.406  -0.045  1.00  0.00     0.067 C 
ATOM      9  C   UNL     1      -1.008   0.263  -0.045  1.00  0.00     0.044 A 
ATOM     10  C   UNL     1      -0.423  -0.972  -0.242  1.00  0.00     0.058 A 
ATOM     11  N   UNL     1      -0.285   1.389   0.123  1.00  0.00    -0.218 NA
ATOM     12  C   UNL     1       1.047   1.279   0.055  1.00  0.00     0.226 A 
ATOM     13  N   UNL     1       1.674   0.110  -0.045  1.00  0.00    -0.208 NA
BRANCH  12  14
ATOM     14  N   UNL     1       1.852   2.383   0.033  1.00  0.00    -0.337 N 
ATOM     15  C   UNL     1       1.428   3.643   0.631  1.00  0.00     0.141 C 
ATOM     16  C   UNL     1       2.684   2.485  -1.176  1.00  0.00     0.141 C 
ATOM     17  C   UNL     1       2.680   4.513   0.928  1.00  0.00     0.138 C 
ATOM     18  C   UNL     1       3.913   3.372  -0.916  1.00  0.00     0.138 C 
ATOM     19  N   UNL     1       3.501   4.633  -0.284  1.00  0.00    -0.367 N 
BRANCH  19  20
ATOM     20  C   UNL     1       4.023   5.838  -0.699  1.00  0.00     0.056 A 
ATOM     21  C   UNL     1       4.834   6.581   0.171  1.00  0.00     0.027 A 
ATOM     22  C   UNL     1       3.769   6.383  -1.976  1.00  0.00     0.064 A 
ATOM     23  C   UNL     1       5.375   7.813  -0.210  1.00  0.00     0.002 A 
ATOM     24  C   UNL     1       4.303   7.619  -2.356  1.00  0.00     0.023 A 
ATOM     25  Cl  UNL     1       2.721   5.602  -3.116  1.00  0.00    -0.082 Cl
ATOM     26  C   UNL     1       5.106   8.333  -1.472  1.00  0.00     0.002 A 
ENDBRANCH  19  20
ENDBRANCH  12  14
ENDBRANCH   4   7
ENDBRANCH   2   3
ENDBRANCH   1   2
BRANCH   1  27
ATOM     27  C   UNL     1       0.007  -5.971  -1.065  1.00  0.00     0.118 C 
BRANCH  27  28
ATOM     28  N   UNL     1      -0.326  -6.982  -0.069  1.00  0.00    -0.352 N 
ATOM     29  C   UNL     1      -1.056  -8.136  -0.203  1.00  0.00     0.251 C 
ATOM     30  H   UNL     1       0.025  -6.811   0.835  1.00  0.00     0.163 HD
ATOM     31  O   UNL     1      -1.463  -8.725   0.791  1.00  0.00    -0.269 OA
BRANCH  29  32
ATOM     32  C   UNL     1      -1.354  -8.659  -1.550  1.00  0.00     0.039 A 
ATOM     33  C   UNL     1      -2.635  -9.142  -1.826  1.00  0.00     0.014 A 
ATOM     34  C   UNL     1      -0.363  -8.681  -2.534  1.00  0.00     0.014 A 
ATOM     35  C   UNL     1      -2.942  -9.585  -3.113  1.00  0.00     0.010 A 
ATOM     36  C   UNL     1      -0.690  -9.047  -3.833  1.00  0.00     0.010 A 
ATOM     37  C   UNL     1      -1.982  -9.503  -4.135  1.00  0.00    -0.014 A 
BRANCH  37  38
ATOM     38  C   UNL     1      -2.298  -9.881  -5.534  1.00  0.00     0.031 A 
ATOM     39  C   UNL     1      -1.556 -11.010  -6.191  1.00  0.00     0.074 A 
ATOM     40  C   UNL     1      -3.179  -9.144  -6.239  1.00  0.00     0.049 A 
ATOM     41  N   UNL     1      -1.583 -11.403  -7.438  1.00  0.00    -0.248 NA
ATOM     42  C   UNL     1      -0.637 -11.781  -5.337  1.00  0.00     0.031 C 
ATOM     43  C   UNL     1      -3.933  -8.001  -5.721  1.00  0.00     0.029 A 
ATOM     44  N   UNL     1      -3.571  -9.234  -7.551  1.00  0.00    -0.354 N 
ATOM     45  C   UNL     1      -0.674 -12.450  -7.522  1.00  0.00     0.074 A 
ATOM     46  C   UNL     1      -0.074 -12.598  -6.214  1.00  0.00     0.031 C 
ATOM     47  C   UNL     1      -4.706  -7.505  -6.700  1.00  0.00     0.029 A 
ATOM     48  C   UNL     1      -4.465  -8.259  -7.925  1.00  0.00     0.049 A 
ATOM     49  H   UNL     1      -3.244  -9.930  -8.165  1.00  0.00     0.167 HD
ATOM     50  C   UNL     1      -0.380 -13.229  -8.590  1.00  0.00     0.037 A 
ATOM     51  C   UNL     1      -5.010  -7.991  -9.127  1.00  0.00     0.037 A 
ATOM     52  C   UNL     1      -0.996 -13.087  -9.883  1.00  0.00     0.049 A 
ATOM     53  C   UNL     1      -4.647  -8.854 -10.304  1.00  0.00     0.074 A 
ATOM     54  C   UNL     1      -0.811 -13.861 -11.015  1.00  0.00     0.029 A 
ATOM     55  N   UNL     1      -1.911 -12.100 -10.217  1.00  0.00    -0.354 N 
ATOM     56  N   UNL     1      -3.834  -9.881 -10.356  1.00  0.00    -0.248 NA
ATOM     57  C   UNL     1      -5.278  -8.523 -11.589  1.00  0.00     0.031 C 
ATOM     58  C   UNL     1      -1.573 -13.310 -12.049  1.00  0.00     0.029 A 
ATOM     59  C   UNL     1      -2.280 -12.229 -11.546  1.00  0.00     0.049 A 
ATOM     60  H   UNL     1      -2.249 -11.410  -9.602  1.00  0.00     0.167 HD
ATOM     61  C   UNL     1      -3.882 -10.339 -11.666  1.00  0.00     0.074 A 
ATOM     62  C   UNL     1      -4.810  -9.482 -12.374  1.00  0.00     0.031 C 
ATOM     63  C   UNL     1      -3.218 -11.377 -12.232  1.00  0.00     0.037 A 
BRANCH  50  64
ATOM     64  C   UNL     1       0.655 -14.302  -8.405  1.00  0.00     0.057 A 
ATOM     65  C   UNL     1       0.421 -15.428  -7.605  1.00  0.00     0.134 A 
ATOM     66  C   UNL     1       1.888 -14.226  -9.065  1.00  0.00     0.134 A 
ATOM     67  F   UNL     1      -0.736 -15.559  -6.936  1.00  0.00    -0.206 F 
ATOM     68  C   UNL     1       1.385 -16.424  -7.444  1.00  0.00     0.040 A 
ATOM     69  C   UNL     1       2.849 -15.230  -8.936  1.00  0.00     0.040 A 
ATOM     70  F   UNL     1       2.177 -13.179  -9.853  1.00  0.00    -0.206 F 
ATOM     71  C   UNL     1       2.602 -16.330  -8.117  1.00  0.00     0.006 A 
ENDBRANCH  50  64
BRANCH  51  72
ATOM     72  C   UNL     1      -5.963  -6.862  -9.277  1.00  0.00     0.057 A 
ATOM     73  C   UNL     1      -7.318  -7.091  -9.541  1.00  0.00     0.134 A 
ATOM     74  C   UNL     1      -5.546  -5.529  -9.168  1.00  0.00     0.134 A 
ATOM     75  F   UNL     1      -7.776  -8.345  -9.672  1.00  0.00    -0.206 F 
ATOM     76  C   UNL     1      -8.219  -6.040  -9.714  1.00  0.00     0.040 A 
ATOM     77  C   UNL     1      -6.441  -4.468  -9.311  1.00  0.00     0.040 A 
ATOM     78  F   UNL     1      -4.263  -5.240  -8.904  1.00  0.00    -0.206 F 
ATOM     79  C   UNL     1      -7.781  -4.722  -9.594  1.00  0.00     0.006 A 
ENDBRANCH  51  72
BRANCH  63  80
ATOM     80  C   UNL     1      -3.505 -11.680 -13.673  1.00  0.00     0.057 A 
ATOM     81  C   UNL     1      -3.044 -10.862 -14.711  1.00  0.00     0.134 A 
ATOM     82  C   UNL     1      -4.198 -12.846 -14.027  1.00  0.00     0.134 A 
ATOM     83  F   UNL     1      -2.386  -9.725 -14.439  1.00  0.00    -0.206 F 
ATOM     84  C   UNL     1      -3.274 -11.184 -16.049  1.00  0.00     0.040 A 
ATOM     85  C   UNL     1      -4.409 -13.194 -15.361  1.00  0.00     0.040 A 
ATOM     86  F   UNL     1      -4.659 -13.678 -13.081  1.00  0.00    -0.206 F 
ATOM     87  C   UNL     1      -3.949 -12.359 -16.377  1.00  0.00     0.006 A 
ENDBRANCH  63  80
ENDBRANCH  37  38
ENDBRANCH  29  32
ENDBRANCH  27  28
ENDBRANCH   1  27
TORSDOF 12
