REMARK SMILES CC[NH+]1CC[NH+]([C@@H]2CC(=O)N(c3ccc(C(=O)NCCCNC(=O)c4ccc(-c5c6nc(c(-c7c(F)cccc7F)c7ccc([nH]7)c(-c7c(F)cccc7F)c7nc(c(-c8c(F)cccc8F)c8ccc5[nH]8)C=C7)C=C6)cc4)cc3)C2=O)CC1
REMARK SMILES IDX 19 1 18 2 16 3 17 4 15 6 12 7 13 8 80 9 14 10 79 11 11 12
REMARK SMILES IDX 7 13 8 14 81 15 9 16 82 17 10 18 6 19 3 20 4 21 84 22 5 24
REMARK SMILES IDX 83 25 2 27 1 28 20 29 21 30 22 31 23 32 24 34 25 35 26 36
REMARK SMILES IDX 78 37 27 38 77 39 28 40 29 41 30 42 71 43 31 44 76 45 70 46
REMARK SMILES IDX 72 47 32 48 75 49 69 50 68 51 33 53 59 54 42 55 58 56 43 57
REMARK SMILES IDX 46 58 57 59 73 60 44 61 45 62 56 64 74 65 47 66 34 67 35 68
REMARK SMILES IDX 40 69 36 70 37 71 39 72 41 73 38 74 60 75 61 76 66 77 62 78
REMARK SMILES IDX 63 79 65 80 67 81 64 82 48 83 49 84 54 85 50 86 51 87 53 88
REMARK SMILES IDX 55 89 52 90
REMARK H PARENT 18 5 3 23 6 26 22 33 72 52 46 63
REMARK Flexibility Score: inf
ROOT
ATOM      1  C   UNL     1      10.642   4.633  -4.365  1.00  0.00     0.118 C 
ENDROOT
BRANCH   1   2
ATOM      2  N   UNL     1      11.095   4.109  -3.090  1.00  0.00    -0.352 N 
ATOM      3  C   UNL     1      10.446   3.897  -1.901  1.00  0.00     0.251 C 
ATOM      4  O   UNL     1      11.093   3.392  -0.983  1.00  0.00    -0.269 OA
ATOM      5  H   UNL     1      12.047   3.859  -3.077  1.00  0.00     0.163 HD
BRANCH   3   6
ATOM      6  C   UNL     1       9.004   4.205  -1.691  1.00  0.00     0.039 A 
ATOM      7  C   UNL     1       6.256   4.623  -1.240  1.00  0.00     0.052 A 
ATOM      8  C   UNL     1       6.976   3.750  -0.419  1.00  0.00     0.027 A 
ATOM      9  C   UNL     1       6.919   5.312  -2.253  1.00  0.00     0.027 A 
ATOM     10  C   UNL     1       8.335   3.519  -0.667  1.00  0.00     0.016 A 
ATOM     11  C   UNL     1       8.288   5.148  -2.430  1.00  0.00     0.016 A 
BRANCH   7  12
ATOM     12  N   UNL     1       4.883   4.844  -1.053  1.00  0.00    -0.245 N 
ATOM     13  C   UNL     1       2.810   5.190  -0.015  1.00  0.00     0.285 C 
ATOM     14  C   UNL     1       2.636   5.245  -1.529  1.00  0.00     0.176 C 
ATOM     15  C   UNL     1       4.321   5.115   0.171  1.00  0.00     0.292 C 
ATOM     16  C   UNL     1       3.980   4.901  -2.081  1.00  0.00     0.240 C 
ATOM     17  O   UNL     1       4.904   5.282   1.234  1.00  0.00    -0.267 OA
ATOM     18  O   UNL     1       4.178   4.711  -3.276  1.00  0.00    -0.274 OA
BRANCH  13  19
ATOM     19  N   UNL     1       2.137   4.144   0.777  1.00  0.00    -0.315 N 
ATOM     20  N   UNL     1       0.634   1.908  -0.576  1.00  0.00    -0.326 N 
ATOM     21  C   UNL     1       0.041   3.253  -0.403  1.00  0.00     0.324 C 
ATOM     22  C   UNL     1       2.105   1.986  -0.535  1.00  0.00     0.324 C 
ATOM     23  H   UNL     1       0.384   1.547  -1.496  1.00  0.00     0.348 HD
ATOM     24  C   UNL     1       0.670   4.149   0.696  1.00  0.00     0.325 C 
ATOM     25  C   UNL     1       2.660   2.776   0.663  1.00  0.00     0.325 C 
ATOM     26  H   UNL     1       2.398   4.451   1.714  1.00  0.00     0.349 HD
BRANCH  20  27
ATOM     27  C   UNL     1       0.080   0.963   0.404  1.00  0.00     0.259 C 
ATOM     28  C   UNL     1       0.499  -0.480   0.138  1.00  0.00     0.071 C 
ENDBRANCH  20  27
ENDBRANCH  13  19
ENDBRANCH   7  12
ENDBRANCH   3   6
ENDBRANCH   1   2
BRANCH   1  29
ATOM     29  C   UNL     1      10.937   6.130  -4.476  1.00  0.00     0.042 C 
BRANCH  29  30
ATOM     30  C   UNL     1      12.401   6.419  -4.772  1.00  0.00     0.118 C 
BRANCH  30  31
ATOM     31  N   UNL     1      12.770   5.977  -6.108  1.00  0.00    -0.352 N 
ATOM     32  C   UNL     1      13.278   6.693  -7.159  1.00  0.00     0.251 C 
ATOM     33  H   UNL     1      12.633   5.018  -6.283  1.00  0.00     0.163 HD
ATOM     34  O   UNL     1      13.278   6.201  -8.284  1.00  0.00    -0.269 OA
BRANCH  32  35
ATOM     35  C   UNL     1      13.824   8.048  -6.946  1.00  0.00     0.039 A 
ATOM     36  C   UNL     1      13.608   9.021  -7.925  1.00  0.00     0.014 A 
ATOM     37  C   UNL     1      14.588   8.348  -5.814  1.00  0.00     0.014 A 
ATOM     38  C   UNL     1      14.130  10.303  -7.753  1.00  0.00     0.010 A 
ATOM     39  C   UNL     1      15.036   9.648  -5.604  1.00  0.00     0.010 A 
ATOM     40  C   UNL     1      14.828  10.632  -6.580  1.00  0.00    -0.014 A 
BRANCH  40  41
ATOM     41  C   UNL     1      15.373  11.995  -6.368  1.00  0.00     0.031 A 
ATOM     42  C   UNL     1      16.858  12.202  -6.256  1.00  0.00     0.074 A 
ATOM     43  C   UNL     1      14.528  13.033  -6.223  1.00  0.00     0.049 A 
ATOM     44  N   UNL     1      17.523  13.301  -6.006  1.00  0.00    -0.248 NA
ATOM     45  C   UNL     1      17.708  11.011  -6.418  1.00  0.00     0.031 C 
ATOM     46  C   UNL     1      13.067  12.948  -6.270  1.00  0.00     0.029 A 
ATOM     47  N   UNL     1      14.776  14.362  -5.995  1.00  0.00    -0.354 N 
ATOM     48  C   UNL     1      18.862  12.931  -5.966  1.00  0.00     0.074 A 
ATOM     49  C   UNL     1      18.912  11.499  -6.160  1.00  0.00     0.031 C 
ATOM     50  C   UNL     1      12.550  14.175  -6.101  1.00  0.00     0.029 A 
ATOM     51  C   UNL     1      13.638  15.124  -5.891  1.00  0.00     0.049 A 
ATOM     52  H   UNL     1      15.684  14.735  -5.913  1.00  0.00     0.167 HD
ATOM     53  C   UNL     1      19.952  13.718  -5.806  1.00  0.00     0.037 A 
ATOM     54  C   UNL     1      13.491  16.439  -5.645  1.00  0.00     0.037 A 
ATOM     55  C   UNL     1      19.895  15.146  -5.635  1.00  0.00     0.049 A 
ATOM     56  C   UNL     1      14.717  17.289  -5.458  1.00  0.00     0.074 A 
ATOM     57  C   UNL     1      20.943  16.043  -5.520  1.00  0.00     0.029 A 
ATOM     58  N   UNL     1      18.724  15.884  -5.549  1.00  0.00    -0.354 N 
ATOM     59  N   UNL     1      15.980  16.938  -5.490  1.00  0.00    -0.248 NA
ATOM     60  C   UNL     1      14.498  18.720  -5.207  1.00  0.00     0.031 C 
ATOM     61  C   UNL     1      20.405  17.317  -5.313  1.00  0.00     0.029 A 
ATOM     62  C   UNL     1      19.023  17.223  -5.358  1.00  0.00     0.049 A 
ATOM     63  H   UNL     1      17.815  15.512  -5.614  1.00  0.00     0.167 HD
ATOM     64  C   UNL     1      16.706  18.107  -5.296  1.00  0.00     0.074 A 
ATOM     65  C   UNL     1      15.740  19.179  -5.162  1.00  0.00     0.031 C 
ATOM     66  C   UNL     1      18.049  18.278  -5.236  1.00  0.00     0.037 A 
BRANCH  53  67
ATOM     67  C   UNL     1      21.297  13.049  -5.809  1.00  0.00     0.057 A 
ATOM     68  C   UNL     1      21.837  12.475  -6.969  1.00  0.00     0.134 A 
ATOM     69  C   UNL     1      22.077  13.005  -4.647  1.00  0.00     0.134 A 
ATOM     70  F   UNL     1      21.139  12.471  -8.114  1.00  0.00    -0.206 F 
ATOM     71  C   UNL     1      23.088  11.855  -6.964  1.00  0.00     0.040 A 
ATOM     72  C   UNL     1      23.343  12.416  -4.637  1.00  0.00     0.040 A 
ATOM     73  F   UNL     1      21.626  13.541  -3.502  1.00  0.00    -0.206 F 
ATOM     74  C   UNL     1      23.848  11.832  -5.796  1.00  0.00     0.006 A 
ENDBRANCH  53  67
BRANCH  54  75
ATOM     75  C   UNL     1      12.133  17.037  -5.581  1.00  0.00     0.057 A 
ATOM     76  C   UNL     1      11.687  17.924  -6.567  1.00  0.00     0.134 A 
ATOM     77  C   UNL     1      11.252  16.744  -4.533  1.00  0.00     0.134 A 
ATOM     78  F   UNL     1      12.491  18.257  -7.589  1.00  0.00    -0.206 F 
ATOM     79  C   UNL     1      10.426  18.518  -6.502  1.00  0.00     0.040 A 
ATOM     80  C   UNL     1       9.977  17.308  -4.470  1.00  0.00     0.040 A 
ATOM     81  F   UNL     1      11.614  15.892  -3.562  1.00  0.00    -0.206 F 
ATOM     82  C   UNL     1       9.565  18.206  -5.452  1.00  0.00     0.006 A 
ENDBRANCH  54  75
BRANCH  66  83
ATOM     83  C   UNL     1      18.555  19.680  -5.059  1.00  0.00     0.057 A 
ATOM     84  C   UNL     1      18.418  20.373  -3.849  1.00  0.00     0.134 A 
ATOM     85  C   UNL     1      19.226  20.330  -6.104  1.00  0.00     0.134 A 
ATOM     86  F   UNL     1      17.775  19.813  -2.814  1.00  0.00    -0.206 F 
ATOM     87  C   UNL     1      18.907  21.672  -3.694  1.00  0.00     0.040 A 
ATOM     88  C   UNL     1      19.746  21.615  -5.950  1.00  0.00     0.040 A 
ATOM     89  F   UNL     1      19.401  19.719  -7.285  1.00  0.00    -0.206 F 
ATOM     90  C   UNL     1      19.581  22.293  -4.744  1.00  0.00     0.006 A 
ENDBRANCH  66  83
ENDBRANCH  40  41
ENDBRANCH  32  35
ENDBRANCH  30  31
ENDBRANCH  29  30
ENDBRANCH   1  29
TORSDOF 13
