REMARK SMILES O=C(NCCCNC(=O)c1ccc(-c2c3nc(c(-c4c(F)cccc4F)c4ccc([nH]4)c(-c4c(F)cccc4F)c4nc(c(-c5c(F)cccc5F)c5ccc2[nH]5)C=C4)C=C3)cc1)c1ccc(NC(=O)c2cc(F)cc(Br)c2)cc1
REMARK SMILES IDX 5 1 4 2 3 3 1 4 2 5 64 7 65 8 80 9 66 10 79 11 67 12 68 13
REMARK SMILES IDX 69 14 70 16 71 17 72 18 78 19 73 20 76 21 74 22 75 23 77 24
REMARK SMILES IDX 6 25 7 26 8 27 9 29 10 30 11 31 63 32 12 33 62 34 13 35
REMARK SMILES IDX 14 36 15 37 56 38 16 39 61 40 55 41 57 42 17 43 60 44 54 45
REMARK SMILES IDX 53 46 18 48 44 49 27 50 43 51 28 52 31 53 42 54 58 55 29 56
REMARK SMILES IDX 30 57 41 59 59 60 32 61 19 62 20 63 25 64 21 65 22 66 24 67
REMARK SMILES IDX 26 68 23 69 45 70 46 71 51 72 47 73 48 74 50 75 52 76 49 77
REMARK SMILES IDX 33 78 34 79 39 80 35 81 36 82 38 83 40 84 37 85
REMARK H PARENT 3 6 68 15 7 28 57 47 31 58
REMARK Flexibility Score: inf
ROOT
ATOM      1  C   UNL     1       4.755  -0.511  -2.603  1.00  0.00     0.042 C 
ENDROOT
BRANCH   1   2
ATOM      2  C   UNL     1       4.343   0.315  -1.398  1.00  0.00     0.118 C 
BRANCH   2   3
ATOM      3  N   UNL     1       2.919   0.209  -1.084  1.00  0.00    -0.352 N 
ATOM      4  O   UNL     1       1.066  -0.385   0.062  1.00  0.00    -0.269 OA
ATOM      5  C   UNL     1       2.286  -0.240   0.054  1.00  0.00     0.251 C 
ATOM      6  H   UNL     1       2.315   0.507  -1.802  1.00  0.00     0.163 HD
BRANCH   5   7
ATOM      7  C   UNL     1       3.072  -0.566   1.263  1.00  0.00     0.039 A 
ATOM      8  C   UNL     1       4.150   0.230   1.621  1.00  0.00     0.016 A 
ATOM      9  C   UNL     1       2.765  -1.687   2.036  1.00  0.00     0.016 A 
ATOM     10  C   UNL     1       5.032  -0.202   2.601  1.00  0.00     0.027 A 
ATOM     11  C   UNL     1       3.592  -2.039   3.116  1.00  0.00     0.027 A 
ATOM     12  C   UNL     1       4.750  -1.301   3.404  1.00  0.00     0.041 A 
BRANCH  12  13
ATOM     13  N   UNL     1       5.558  -1.726   4.480  1.00  0.00    -0.322 N 
ATOM     14  C   UNL     1       6.693  -1.204   5.070  1.00  0.00     0.255 C 
ATOM     15  H   UNL     1       5.250  -2.565   4.894  1.00  0.00     0.170 HD
ATOM     16  O   UNL     1       7.290  -1.840   5.936  1.00  0.00    -0.269 OA
BRANCH  14  17
ATOM     17  C   UNL     1       7.239   0.106   4.679  1.00  0.00     0.044 A 
ATOM     18  C   UNL     1       8.462   0.136   4.003  1.00  0.00     0.053 A 
ATOM     19  C   UNL     1       6.494   1.279   4.871  1.00  0.00     0.029 A 
ATOM     20  C   UNL     1       8.885   1.332   3.438  1.00  0.00     0.125 A 
ATOM     21  C   UNL     1       6.929   2.459   4.265  1.00  0.00     0.021 A 
ATOM     22  F   UNL     1      10.022   1.358   2.730  1.00  0.00    -0.207 F 
ATOM     23  C   UNL     1       8.120   2.490   3.539  1.00  0.00     0.055 A 
ATOM     24  Br  UNL     1       5.827   3.994   4.314  1.00  0.00    -0.051 Br
ENDBRANCH  14  17
ENDBRANCH  12  13
ENDBRANCH   5   7
ENDBRANCH   2   3
ENDBRANCH   1   2
BRANCH   1  25
ATOM     25  C   UNL     1       4.167  -0.013  -3.911  1.00  0.00     0.118 C 
BRANCH  25  26
ATOM     26  N   UNL     1       4.698   1.285  -4.312  1.00  0.00    -0.352 N 
ATOM     27  C   UNL     1       5.621   1.623  -5.274  1.00  0.00     0.251 C 
ATOM     28  H   UNL     1       4.335   2.049  -3.809  1.00  0.00     0.163 HD
ATOM     29  O   UNL     1       6.058   2.770  -5.319  1.00  0.00    -0.269 OA
BRANCH  27  30
ATOM     30  C   UNL     1       6.123   0.610  -6.228  1.00  0.00     0.039 A 
ATOM     31  C   UNL     1       7.486   0.589  -6.539  1.00  0.00     0.014 A 
ATOM     32  C   UNL     1       5.263  -0.320  -6.813  1.00  0.00     0.014 A 
ATOM     33  C   UNL     1       8.000  -0.435  -7.340  1.00  0.00     0.010 A 
ATOM     34  C   UNL     1       5.787  -1.393  -7.526  1.00  0.00     0.010 A 
ATOM     35  C   UNL     1       7.163  -1.471  -7.783  1.00  0.00    -0.014 A 
BRANCH  35  36
ATOM     36  C   UNL     1       7.698  -2.670  -8.476  1.00  0.00     0.031 A 
ATOM     37  C   UNL     1       7.241  -3.008  -9.867  1.00  0.00     0.074 A 
ATOM     38  C   UNL     1       8.508  -3.515  -7.807  1.00  0.00     0.049 A 
ATOM     39  N   UNL     1       7.468  -4.088 -10.572  1.00  0.00    -0.248 NA
ATOM     40  C   UNL     1       6.393  -2.015 -10.545  1.00  0.00     0.031 C 
ATOM     41  C   UNL     1       8.985  -3.326  -6.435  1.00  0.00     0.029 A 
ATOM     42  N   UNL     1       9.054  -4.716  -8.184  1.00  0.00    -0.354 N 
ATOM     43  C   UNL     1       6.774  -3.914 -11.762  1.00  0.00     0.074 A 
ATOM     44  C   UNL     1       6.085  -2.644 -11.670  1.00  0.00     0.031 C 
ATOM     45  C   UNL     1       9.763  -4.365  -6.092  1.00  0.00     0.029 A 
ATOM     46  C   UNL     1       9.801  -5.315  -7.198  1.00  0.00     0.049 A 
ATOM     47  H   UNL     1       8.924  -5.111  -9.076  1.00  0.00     0.167 HD
ATOM     48  C   UNL     1       6.732  -4.730 -12.841  1.00  0.00     0.037 A 
ATOM     49  C   UNL     1      10.427  -6.506  -7.178  1.00  0.00     0.037 A 
ATOM     50  C   UNL     1       7.446  -5.974 -12.947  1.00  0.00     0.049 A 
ATOM     51  C   UNL     1      10.349  -7.400  -8.382  1.00  0.00     0.074 A 
ATOM     52  C   UNL     1       7.532  -6.830 -14.031  1.00  0.00     0.029 A 
ATOM     53  N   UNL     1       8.197  -6.541 -11.929  1.00  0.00    -0.354 N 
ATOM     54  N   UNL     1       9.736  -7.196  -9.522  1.00  0.00    -0.248 NA
ATOM     55  C   UNL     1      11.043  -8.693  -8.293  1.00  0.00     0.031 C 
ATOM     56  C   UNL     1       8.306  -7.933 -13.657  1.00  0.00     0.029 A 
ATOM     57  C   UNL     1       8.729  -7.748 -12.351  1.00  0.00     0.049 A 
ATOM     58  H   UNL     1       8.333  -6.144 -11.038  1.00  0.00     0.167 HD
ATOM     59  C   UNL     1       9.978  -8.326 -10.290  1.00  0.00     0.074 A 
ATOM     60  C   UNL     1      10.810  -9.205  -9.493  1.00  0.00     0.031 C 
ATOM     61  C   UNL     1       9.547  -8.612 -11.542  1.00  0.00     0.037 A 
BRANCH  48  62
ATOM     62  C   UNL     1       5.892  -4.295 -14.004  1.00  0.00     0.057 A 
ATOM     63  C   UNL     1       6.289  -3.250 -14.848  1.00  0.00     0.134 A 
ATOM     64  C   UNL     1       4.696  -4.957 -14.310  1.00  0.00     0.134 A 
ATOM     65  F   UNL     1       7.418  -2.569 -14.601  1.00  0.00    -0.206 F 
ATOM     66  C   UNL     1       5.517  -2.866 -15.945  1.00  0.00     0.040 A 
ATOM     67  C   UNL     1       3.927  -4.596 -15.418  1.00  0.00     0.040 A 
ATOM     68  F   UNL     1       4.262  -5.969 -13.544  1.00  0.00    -0.206 F 
ATOM     69  C   UNL     1       4.335  -3.545 -16.236  1.00  0.00     0.006 A 
ENDBRANCH  48  62
BRANCH  49  70
ATOM     70  C   UNL     1      11.182  -6.928  -5.972  1.00  0.00     0.057 A 
ATOM     71  C   UNL     1      12.580  -6.969  -5.979  1.00  0.00     0.134 A 
ATOM     72  C   UNL     1      10.528  -7.305  -4.793  1.00  0.00     0.134 A 
ATOM     73  F   UNL     1      13.259  -6.638  -7.087  1.00  0.00    -0.206 F 
ATOM     74  C   UNL     1      13.304  -7.384  -4.860  1.00  0.00     0.040 A 
ATOM     75  C   UNL     1      11.240  -7.702  -3.660  1.00  0.00     0.040 A 
ATOM     76  F   UNL     1       9.189  -7.281  -4.723  1.00  0.00    -0.206 F 
ATOM     77  C   UNL     1      12.633  -7.748  -3.694  1.00  0.00     0.006 A 
ENDBRANCH  49  70
BRANCH  61  78
ATOM     78  C   UNL     1       9.973  -9.925 -12.126  1.00  0.00     0.057 A 
ATOM     79  C   UNL     1       9.387 -11.130 -11.720  1.00  0.00     0.134 A 
ATOM     80  C   UNL     1      10.951  -9.980 -13.126  1.00  0.00     0.134 A 
ATOM     81  F   UNL     1       8.456 -11.142 -10.754  1.00  0.00    -0.206 F 
ATOM     82  C   UNL     1       9.770 -12.349 -12.280  1.00  0.00     0.040 A 
ATOM     83  C   UNL     1      11.327 -11.191 -13.709  1.00  0.00     0.040 A 
ATOM     84  F   UNL     1      11.546  -8.859 -13.560  1.00  0.00    -0.206 F 
ATOM     85  C   UNL     1      10.738 -12.380 -13.283  1.00  0.00     0.006 A 
ENDBRANCH  61  78
ENDBRANCH  35  36
ENDBRANCH  27  30
ENDBRANCH  25  26
ENDBRANCH   1  25
TORSDOF 12
