REMARK SMILES C[C@H]1CN([C@@H](C(=O)NCCCNC(=O)c2ccc(-c3c4nc(c(-c5c(F)cccc5F)c5ccc([nH]5)c(-c5c(F)cccc5F)c5nc(c(-c6c(F)cccc6F)c6ccc3[nH]6)C=C5)C=C4)cc2)C(C)(C)C)S(=O)(=O)C1
REMARK SMILES IDX 10 1 9 2 8 3 6 4 7 5 5 7 4 8 1 9 2 10 3 11 76 12 73 13 74 14
REMARK SMILES IDX 75 15 69 16 70 17 71 18 72 19 11 20 12 21 13 22 14 24 15 25
REMARK SMILES IDX 16 26 68 27 17 28 67 29 18 30 19 31 20 32 61 33 21 34 66 35
REMARK SMILES IDX 60 36 62 37 22 38 65 39 59 40 58 41 23 43 49 44 32 45 48 46
REMARK SMILES IDX 33 47 36 48 47 49 63 50 34 51 35 52 46 54 64 55 37 56 24 57
REMARK SMILES IDX 25 58 30 59 26 60 27 61 29 62 31 63 28 64 50 65 51 66 56 67
REMARK SMILES IDX 52 68 53 69 55 70 57 71 54 72 38 73 39 74 44 75 40 76 41 77
REMARK SMILES IDX 43 78 45 79 42 80
REMARK H PARENT 8 6 12 23 62 42 36 53
REMARK Flexibility Score: inf
ROOT
ATOM      1  C   UNL     1      -0.074   2.115   2.614  1.00  0.00     0.042 C 
ENDROOT
BRANCH   1   2
ATOM      2  C   UNL     1       0.026   1.437   3.992  1.00  0.00     0.117 C 
BRANCH   2   3
ATOM      3  N   UNL     1      -0.803   0.244   4.147  1.00  0.00    -0.355 N 
ATOM      4  C   UNL     1      -0.555  -1.080   4.406  1.00  0.00     0.238 C 
ATOM      5  O   UNL     1      -1.560  -1.744   4.674  1.00  0.00    -0.273 OA
ATOM      6  H   UNL     1      -1.763   0.435   4.040  1.00  0.00     0.163 HD
BRANCH   4   7
ATOM      7  C   UNL     1       0.866  -1.695   4.360  1.00  0.00     0.167 C 
BRANCH   7   8
ATOM      8  N   UNL     1       1.294  -2.132   2.986  1.00  0.00    -0.189 NA
ATOM      9  C   UNL     1      -0.835  -1.063   0.919  1.00  0.00     0.010 C 
ATOM     10  C   UNL     1       0.651  -1.396   0.758  1.00  0.00     0.017 C 
ATOM     11  C   UNL     1       1.535  -1.083   1.978  1.00  0.00     0.107 C 
ATOM     12  C   UNL     1       0.838  -2.894   0.567  1.00  0.00     0.159 C 
ATOM     13  S   UNL     1       0.774  -3.560   2.223  1.00  0.00     0.215 S 
ATOM     14  O   UNL     1       1.815  -4.550   2.347  1.00  0.00    -0.212 OA
ATOM     15  O   UNL     1      -0.610  -3.819   2.542  1.00  0.00    -0.212 OA
ENDBRANCH   7   8
BRANCH   7  16
ATOM     16  C   UNL     1       1.147  -2.770   5.493  1.00  0.00    -0.013 C 
ATOM     17  C   UNL     1       2.656  -3.109   5.522  1.00  0.00     0.013 C 
ATOM     18  C   UNL     1       0.801  -2.171   6.881  1.00  0.00     0.013 C 
ATOM     19  C   UNL     1       0.366  -4.097   5.392  1.00  0.00     0.013 C 
ENDBRANCH   7  16
ENDBRANCH   4   7
ENDBRANCH   2   3
ENDBRANCH   1   2
BRANCH   1  20
ATOM     20  C   UNL     1      -1.486   2.383   2.093  1.00  0.00     0.118 C 
BRANCH  20  21
ATOM     21  N   UNL     1      -1.903   3.753   2.310  1.00  0.00    -0.352 N 
ATOM     22  C   UNL     1      -2.187   4.730   1.386  1.00  0.00     0.251 C 
ATOM     23  H   UNL     1      -1.996   4.022   3.253  1.00  0.00     0.163 HD
ATOM     24  O   UNL     1      -2.282   5.897   1.758  1.00  0.00    -0.269 OA
BRANCH  22  25
ATOM     25  C   UNL     1      -2.367   4.409  -0.054  1.00  0.00     0.039 A 
ATOM     26  C   UNL     1      -1.838   5.290  -1.004  1.00  0.00     0.014 A 
ATOM     27  C   UNL     1      -3.112   3.305  -0.483  1.00  0.00     0.014 A 
ATOM     28  C   UNL     1      -2.031   5.053  -2.370  1.00  0.00     0.010 A 
ATOM     29  C   UNL     1      -3.251   3.035  -1.849  1.00  0.00     0.010 A 
ATOM     30  C   UNL     1      -2.726   3.915  -2.809  1.00  0.00    -0.014 A 
BRANCH  30  31
ATOM     31  C   UNL     1      -2.927   3.656  -4.264  1.00  0.00     0.031 A 
ATOM     32  C   UNL     1      -4.310   3.675  -4.861  1.00  0.00     0.074 A 
ATOM     33  C   UNL     1      -1.868   3.382  -5.052  1.00  0.00     0.049 A 
ATOM     34  N   UNL     1      -4.683   3.444  -6.096  1.00  0.00    -0.248 NA
ATOM     35  C   UNL     1      -5.423   3.978  -3.947  1.00  0.00     0.031 C 
ATOM     36  C   UNL     1      -0.477   3.314  -4.604  1.00  0.00     0.029 A 
ATOM     37  N   UNL     1      -1.797   3.106  -6.396  1.00  0.00    -0.354 N 
ATOM     38  C   UNL     1      -6.068   3.566  -6.105  1.00  0.00     0.074 A 
ATOM     39  C   UNL     1      -6.473   3.841  -4.743  1.00  0.00     0.031 C 
ATOM     40  C   UNL     1       0.310   3.035  -5.655  1.00  0.00     0.029 A 
ATOM     41  C   UNL     1      -0.520   2.862  -6.843  1.00  0.00     0.049 A 
ATOM     42  H   UNL     1      -2.586   3.084  -6.984  1.00  0.00     0.167 HD
ATOM     43  C   UNL     1      -6.923   3.478  -7.153  1.00  0.00     0.037 A 
ATOM     44  C   UNL     1      -0.067   2.523  -8.067  1.00  0.00     0.037 A 
ATOM     45  C   UNL     1      -6.521   3.216  -8.511  1.00  0.00     0.049 A 
ATOM     46  C   UNL     1      -1.042   2.386  -9.206  1.00  0.00     0.074 A 
ATOM     47  C   UNL     1      -7.311   3.155  -9.646  1.00  0.00     0.029 A 
ATOM     48  N   UNL     1      -5.220   2.961  -8.917  1.00  0.00    -0.354 N 
ATOM     49  N   UNL     1      -2.341   2.566  -9.209  1.00  0.00    -0.248 NA
ATOM     50  C   UNL     1      -0.488   2.002 -10.513  1.00  0.00     0.031 C 
ATOM     51  C   UNL     1      -6.498   2.803 -10.728  1.00  0.00     0.029 A 
ATOM     52  C   UNL     1      -5.191   2.709 -10.280  1.00  0.00     0.049 A 
ATOM     53  H   UNL     1      -4.434   2.958  -8.325  1.00  0.00     0.167 HD
ATOM     54  C   UNL     1      -2.753   2.350 -10.518  1.00  0.00     0.074 A 
ATOM     55  C   UNL     1      -1.565   2.038 -11.285  1.00  0.00     0.031 C 
ATOM     56  C   UNL     1      -4.003   2.409 -11.038  1.00  0.00     0.037 A 
BRANCH  43  57
ATOM     57  C   UNL     1      -8.390   3.658  -6.873  1.00  0.00     0.057 A 
ATOM     58  C   UNL     1      -8.929   4.899  -6.508  1.00  0.00     0.134 A 
ATOM     59  C   UNL     1      -9.282   2.587  -7.018  1.00  0.00     0.134 A 
ATOM     60  F   UNL     1      -8.132   5.965  -6.346  1.00  0.00    -0.206 F 
ATOM     61  C   UNL     1     -10.295   5.061  -6.268  1.00  0.00     0.040 A 
ATOM     62  C   UNL     1     -10.654   2.743  -6.810  1.00  0.00     0.040 A 
ATOM     63  F   UNL     1      -8.837   1.373  -7.377  1.00  0.00    -0.206 F 
ATOM     64  C   UNL     1     -11.163   3.982  -6.426  1.00  0.00     0.006 A 
ENDBRANCH  43  57
BRANCH  44  65
ATOM     65  C   UNL     1       1.385   2.291  -8.286  1.00  0.00     0.057 A 
ATOM     66  C   UNL     1       2.146   3.155  -9.081  1.00  0.00     0.134 A 
ATOM     67  C   UNL     1       2.042   1.191  -7.720  1.00  0.00     0.134 A 
ATOM     68  F   UNL     1       1.571   4.216  -9.668  1.00  0.00    -0.206 F 
ATOM     69  C   UNL     1       3.501   2.924  -9.324  1.00  0.00     0.040 A 
ATOM     70  C   UNL     1       3.403   0.964  -7.931  1.00  0.00     0.040 A 
ATOM     71  F   UNL     1       1.372   0.329  -6.941  1.00  0.00    -0.206 F 
ATOM     72  C   UNL     1       4.135   1.827  -8.743  1.00  0.00     0.006 A 
ENDBRANCH  44  65
BRANCH  56  73
ATOM     73  C   UNL     1      -4.155   2.173 -12.514  1.00  0.00     0.057 A 
ATOM     74  C   UNL     1      -3.993   0.905 -13.086  1.00  0.00     0.134 A 
ATOM     75  C   UNL     1      -4.526   3.222 -13.367  1.00  0.00     0.134 A 
ATOM     76  F   UNL     1      -3.627  -0.141 -12.329  1.00  0.00    -0.206 F 
ATOM     77  C   UNL     1      -4.175   0.693 -14.454  1.00  0.00     0.040 A 
ATOM     78  C   UNL     1      -4.739   3.016 -14.730  1.00  0.00     0.040 A 
ATOM     79  F   UNL     1      -4.707   4.461 -12.884  1.00  0.00    -0.206 F 
ATOM     80  C   UNL     1      -4.559   1.749 -15.278  1.00  0.00     0.006 A 
ENDBRANCH  56  73
ENDBRANCH  30  31
ENDBRANCH  22  25
ENDBRANCH  20  21
ENDBRANCH   1  20
TORSDOF 12
