REMARK SMILES O=C(CCCNC(=O)N1CSC[C@@H]1C(=O)NCCCNC(=O)c1ccc(-c2c3nc(c(-c4c(F)cccc4F)c4ccc([nH]4)c(-c4c(F)cccc4F)c4nc(c(-c5c(F)cccc5F)c5ccc2[nH]5)C=C4)C=C3)cc1)NC1CC1
REMARK SMILES IDX 14 1 15 2 16 3 13 5 9 6 10 7 11 8 12 9 7 10 6 11 8 13 5 14
REMARK SMILES IDX 4 15 3 16 2 17 1 18 77 19 78 21 79 22 80 23 17 24 18 25
REMARK SMILES IDX 19 26 20 27 21 28 22 30 23 31 24 32 76 33 25 34 75 35 26 36
REMARK SMILES IDX 27 37 28 38 69 39 29 40 74 41 68 42 70 43 30 44 73 45 67 46
REMARK SMILES IDX 66 47 31 49 57 50 40 51 56 52 41 53 44 54 55 55 71 56 42 57
REMARK SMILES IDX 43 58 54 60 72 61 45 62 32 63 33 64 38 65 34 66 35 67 37 68
REMARK SMILES IDX 39 69 36 70 58 71 59 72 64 73 60 74 61 75 63 76 65 77 62 78
REMARK SMILES IDX 46 79 47 80 52 81 48 82 49 83 51 84 53 85 50 86
REMARK H PARENT 16 4 6 12 77 20 20 29 70 48 44 59
REMARK Flexibility Score: inf
ROOT
ATOM      1  C   UNL     1       8.869  -0.031   2.970  1.00  0.00     0.243 C 
ATOM      2  O   UNL     1       9.910   0.473   3.406  1.00  0.00    -0.273 OA
ATOM      3  N   UNL     1       7.736   0.161   3.714  1.00  0.00    -0.354 N 
ATOM      4  H   UNL     1       7.851   0.629   4.573  1.00  0.00     0.163 HD
ENDROOT
BRANCH   1   5
ATOM      5  C   UNL     1       8.928  -1.048   1.802  1.00  0.00     0.187 C 
ATOM      6  N   UNL     1       7.738  -1.240   0.957  1.00  0.00    -0.303 N 
ATOM      7  C   UNL     1       7.727  -2.541   0.332  1.00  0.00     0.192 C 
ATOM      8  S   UNL     1       8.383  -3.688   1.547  1.00  0.00    -0.138 SA
ATOM      9  C   UNL     1       9.286  -2.398   2.447  1.00  0.00     0.106 C 
BRANCH   6  10
ATOM     10  C   UNL     1       7.199  -0.163   0.310  1.00  0.00     0.318 C 
ATOM     11  N   UNL     1       5.888  -0.203  -0.052  1.00  0.00    -0.338 N 
ATOM     12  H   UNL     1       5.616   0.501  -0.684  1.00  0.00     0.165 HD
ATOM     13  O   UNL     1       7.820   0.881   0.130  1.00  0.00    -0.249 OA
BRANCH  11  14
ATOM     14  C   UNL     1       4.816  -1.114   0.340  1.00  0.00     0.118 C 
BRANCH  14  15
ATOM     15  C   UNL     1       3.683  -0.442   1.129  1.00  0.00     0.031 C 
BRANCH  15  16
ATOM     16  C   UNL     1       2.900   0.642   0.398  1.00  0.00     0.102 C 
BRANCH  16  17
ATOM     17  C   UNL     1       2.032   0.019  -0.666  1.00  0.00     0.220 C 
ATOM     18  O   UNL     1       0.922  -0.441  -0.418  1.00  0.00    -0.275 OA
ATOM     19  N   UNL     1       2.656  -0.070  -1.891  1.00  0.00    -0.353 N 
ATOM     20  H   UNL     1       3.513   0.396  -2.024  1.00  0.00     0.163 HD
BRANCH  19  21
ATOM     21  C   UNL     1       2.102  -0.814  -2.971  1.00  0.00     0.082 C 
ATOM     22  C   UNL     1       2.968  -1.225  -4.128  1.00  0.00     0.027 C 
ATOM     23  C   UNL     1       2.471  -2.259  -3.162  1.00  0.00     0.027 C 
ENDBRANCH  19  21
ENDBRANCH  16  17
ENDBRANCH  15  16
ENDBRANCH  14  15
ENDBRANCH  11  14
ENDBRANCH   6  10
ENDBRANCH   1   5
BRANCH   3  24
ATOM     24  C   UNL     1       6.394  -0.245   3.382  1.00  0.00     0.117 C 
BRANCH  24  25
ATOM     25  C   UNL     1       5.474  -0.487   4.561  1.00  0.00     0.042 C 
BRANCH  25  26
ATOM     26  C   UNL     1       5.014   0.773   5.274  1.00  0.00     0.118 C 
BRANCH  26  27
ATOM     27  N   UNL     1       4.217   1.672   4.444  1.00  0.00    -0.352 N 
ATOM     28  C   UNL     1       2.864   1.918   4.356  1.00  0.00     0.251 C 
ATOM     29  H   UNL     1       4.756   2.211   3.822  1.00  0.00     0.163 HD
ATOM     30  O   UNL     1       2.457   2.657   3.467  1.00  0.00    -0.269 OA
BRANCH  28  31
ATOM     31  C   UNL     1       1.891   1.273   5.271  1.00  0.00     0.039 A 
ATOM     32  C   UNL     1       0.632   0.905   4.778  1.00  0.00     0.014 A 
ATOM     33  C   UNL     1       2.188   1.036   6.609  1.00  0.00     0.014 A 
ATOM     34  C   UNL     1      -0.263   0.199   5.591  1.00  0.00     0.010 A 
ATOM     35  C   UNL     1       1.358   0.225   7.375  1.00  0.00     0.010 A 
ATOM     36  C   UNL     1       0.122  -0.210   6.877  1.00  0.00    -0.014 A 
BRANCH  36  37
ATOM     37  C   UNL     1      -0.722  -1.094   7.727  1.00  0.00     0.031 A 
ATOM     38  C   UNL     1      -1.113  -0.656   9.115  1.00  0.00     0.074 A 
ATOM     39  C   UNL     1      -1.026  -2.340   7.308  1.00  0.00     0.049 A 
ATOM     40  N   UNL     1      -1.657  -1.350  10.082  1.00  0.00    -0.248 NA
ATOM     41  C   UNL     1      -0.808   0.738   9.478  1.00  0.00     0.031 C 
ATOM     42  C   UNL     1      -0.666  -2.914   6.010  1.00  0.00     0.029 A 
ATOM     43  N   UNL     1      -1.686  -3.361   7.947  1.00  0.00    -0.354 N 
ATOM     44  C   UNL     1      -1.718  -0.493  11.174  1.00  0.00     0.074 A 
ATOM     45  C   UNL     1      -1.112   0.755  10.767  1.00  0.00     0.031 C 
ATOM     46  C   UNL     1      -1.125  -4.173   5.941  1.00  0.00     0.029 A 
ATOM     47  C   UNL     1      -1.763  -4.516   7.207  1.00  0.00     0.049 A 
ATOM     48  H   UNL     1      -2.068  -3.274   8.851  1.00  0.00     0.167 HD
ATOM     49  C   UNL     1      -2.252  -0.716  12.399  1.00  0.00     0.037 A 
ATOM     50  C   UNL     1      -2.272  -5.724   7.517  1.00  0.00     0.037 A 
ATOM     51  C   UNL     1      -2.908  -1.937  12.784  1.00  0.00     0.049 A 
ATOM     52  C   UNL     1      -2.874  -5.942   8.877  1.00  0.00     0.074 A 
ATOM     53  C   UNL     1      -3.560  -2.228  13.969  1.00  0.00     0.029 A 
ATOM     54  N   UNL     1      -3.002  -3.067  11.986  1.00  0.00    -0.354 N 
ATOM     55  N   UNL     1      -2.976  -5.104   9.879  1.00  0.00    -0.248 NA
ATOM     56  C   UNL     1      -3.429  -7.276   9.150  1.00  0.00     0.031 C 
ATOM     57  C   UNL     1      -4.016  -3.549  13.904  1.00  0.00     0.029 A 
ATOM     58  C   UNL     1      -3.683  -4.065  12.662  1.00  0.00     0.049 A 
ATOM     59  H   UNL     1      -2.638  -3.148  11.075  1.00  0.00     0.167 HD
ATOM     60  C   UNL     1      -3.627  -5.798  10.890  1.00  0.00     0.074 A 
ATOM     61  C   UNL     1      -3.907  -7.122  10.377  1.00  0.00     0.031 C 
ATOM     62  C   UNL     1      -3.962  -5.375  12.133  1.00  0.00     0.037 A 
BRANCH  49  63
ATOM     63  C   UNL     1      -2.162   0.392  13.409  1.00  0.00     0.057 A 
ATOM     64  C   UNL     1      -2.906   1.572  13.282  1.00  0.00     0.134 A 
ATOM     65  C   UNL     1      -1.347   0.262  14.540  1.00  0.00     0.134 A 
ATOM     66  F   UNL     1      -3.698   1.765  12.216  1.00  0.00    -0.206 F 
ATOM     67  C   UNL     1      -2.821   2.595  14.228  1.00  0.00     0.040 A 
ATOM     68  C   UNL     1      -1.275   1.266  15.508  1.00  0.00     0.040 A 
ATOM     69  F   UNL     1      -0.613  -0.846  14.729  1.00  0.00    -0.206 F 
ATOM     70  C   UNL     1      -2.008   2.440  15.349  1.00  0.00     0.006 A 
ENDBRANCH  49  63
BRANCH  50  71
ATOM     71  C   UNL     1      -2.246  -6.821   6.517  1.00  0.00     0.057 A 
ATOM     72  C   UNL     1      -3.426  -7.262   5.905  1.00  0.00     0.134 A 
ATOM     73  C   UNL     1      -1.054  -7.457   6.152  1.00  0.00     0.134 A 
ATOM     74  F   UNL     1      -4.602  -6.705   6.229  1.00  0.00    -0.206 F 
ATOM     75  C   UNL     1      -3.424  -8.306   4.979  1.00  0.00     0.040 A 
ATOM     76  C   UNL     1      -1.034  -8.487   5.209  1.00  0.00     0.040 A 
ATOM     77  F   UNL     1       0.111  -7.077   6.696  1.00  0.00    -0.206 F 
ATOM     78  C   UNL     1      -2.224  -8.919   4.626  1.00  0.00     0.006 A 
ENDBRANCH  50  71
BRANCH  62  79
ATOM     79  C   UNL     1      -4.695  -6.342  13.015  1.00  0.00     0.057 A 
ATOM     80  C   UNL     1      -4.047  -7.428  13.615  1.00  0.00     0.134 A 
ATOM     81  C   UNL     1      -6.051  -6.151  13.308  1.00  0.00     0.134 A 
ATOM     82  F   UNL     1      -2.752  -7.672  13.363  1.00  0.00    -0.206 F 
ATOM     83  C   UNL     1      -4.727  -8.300  14.467  1.00  0.00     0.040 A 
ATOM     84  C   UNL     1      -6.735  -7.002  14.176  1.00  0.00     0.040 A 
ATOM     85  F   UNL     1      -6.727  -5.125  12.770  1.00  0.00    -0.206 F 
ATOM     86  C   UNL     1      -6.073  -8.083  14.756  1.00  0.00     0.006 A 
ENDBRANCH  62  79
ENDBRANCH  36  37
ENDBRANCH  28  31
ENDBRANCH  26  27
ENDBRANCH  25  26
ENDBRANCH  24  25
ENDBRANCH   3  24
TORSDOF 16
