REMARK SMILES O=C(NCCCNC(=O)[C@H]1C[C@](O)(c2ccc(Cl)cc2)[C@@H](c2ccc(Cl)cc2)O1)c1ccc(-c2c3nc(c(-c4c(F)cccc4F)c4ccc([nH]4)c(-c4c(F)cccc4F)c4nc(c(-c5c(F)cccc5F)c5ccc2[nH]5)C=C4)C=C3)cc1
REMARK SMILES IDX 4 1 3 2 1 3 2 4 30 6 31 7 83 8 32 9 82 10 33 11 34 12 35 13
REMARK SMILES IDX 76 14 36 15 81 16 75 17 77 18 37 19 80 20 74 21 73 22 38 24
REMARK SMILES IDX 64 25 47 26 63 27 48 28 51 29 62 30 78 31 49 32 50 33 61 35
REMARK SMILES IDX 79 36 52 37 39 38 40 39 45 40 41 41 42 42 44 43 46 44 43 45
REMARK SMILES IDX 65 46 66 47 71 48 67 49 68 50 70 51 72 52 69 53 53 54 54 55
REMARK SMILES IDX 59 56 55 57 56 58 58 59 60 60 57 61 5 62 6 63 7 64 8 65 9 67
REMARK SMILES IDX 10 68 11 69 29 70 12 71 21 72 14 73 15 74 20 75 16 76 19 77
REMARK SMILES IDX 17 78 18 79 13 80 22 82 23 83 28 84 24 85 27 86 25 87 26 88
REMARK H PARENT 3 5 77 23 51 34 7 66 13 81
REMARK Flexibility Score: inf
ROOT
ATOM      1  C   UNL     1      10.655  -1.403  -6.914  1.00  0.00     0.118 C 
ENDROOT
BRANCH   1   2
ATOM      2  N   UNL     1      10.999  -0.063  -7.376  1.00  0.00    -0.352 N 
ATOM      3  O   UNL     1      12.251   1.773  -7.722  1.00  0.00    -0.269 OA
ATOM      4  C   UNL     1      12.214   0.570  -7.465  1.00  0.00     0.251 C 
ATOM      5  H   UNL     1      10.232   0.477  -7.674  1.00  0.00     0.163 HD
BRANCH   4   6
ATOM      6  C   UNL     1      13.476  -0.167  -7.237  1.00  0.00     0.039 A 
ATOM      7  C   UNL     1      13.665  -1.450  -7.751  1.00  0.00     0.014 A 
ATOM      8  C   UNL     1      14.510   0.459  -6.532  1.00  0.00     0.014 A 
ATOM      9  C   UNL     1      14.817  -2.162  -7.433  1.00  0.00     0.010 A 
ATOM     10  C   UNL     1      15.707  -0.223  -6.294  1.00  0.00     0.010 A 
ATOM     11  C   UNL     1      15.859  -1.553  -6.715  1.00  0.00    -0.014 A 
BRANCH  11  12
ATOM     12  C   UNL     1      17.117  -2.307  -6.478  1.00  0.00     0.031 A 
ATOM     13  C   UNL     1      17.563  -2.665  -5.088  1.00  0.00     0.074 A 
ATOM     14  C   UNL     1      17.849  -2.693  -7.541  1.00  0.00     0.049 A 
ATOM     15  N   UNL     1      18.618  -3.345  -4.711  1.00  0.00    -0.248 NA
ATOM     16  C   UNL     1      16.725  -2.196  -3.974  1.00  0.00     0.031 C 
ATOM     17  C   UNL     1      17.527  -2.390  -8.938  1.00  0.00     0.029 A 
ATOM     18  N   UNL     1      19.000  -3.434  -7.619  1.00  0.00    -0.354 N 
ATOM     19  C   UNL     1      18.578  -3.375  -3.323  1.00  0.00     0.074 A 
ATOM     20  C   UNL     1      17.413  -2.616  -2.921  1.00  0.00     0.031 C 
ATOM     21  C   UNL     1      18.432  -2.977  -9.735  1.00  0.00     0.029 A 
ATOM     22  C   UNL     1      19.430  -3.642  -8.907  1.00  0.00     0.049 A 
ATOM     23  H   UNL     1      19.472  -3.782  -6.829  1.00  0.00     0.167 HD
ATOM     24  C   UNL     1      19.431  -3.988  -2.465  1.00  0.00     0.037 A 
ATOM     25  C   UNL     1      20.518  -4.283  -9.373  1.00  0.00     0.037 A 
ATOM     26  C   UNL     1      20.587  -4.746  -2.873  1.00  0.00     0.049 A 
ATOM     27  C   UNL     1      21.462  -4.924  -8.398  1.00  0.00     0.074 A 
ATOM     28  C   UNL     1      21.490  -5.434  -2.080  1.00  0.00     0.029 A 
ATOM     29  N   UNL     1      21.007  -4.909  -4.185  1.00  0.00    -0.354 N 
ATOM     30  N   UNL     1      21.385  -4.983  -7.091  1.00  0.00    -0.248 NA
ATOM     31  C   UNL     1      22.644  -5.587  -8.963  1.00  0.00     0.031 C 
ATOM     32  C   UNL     1      22.485  -5.966  -2.906  1.00  0.00     0.029 A 
ATOM     33  C   UNL     1      22.171  -5.662  -4.221  1.00  0.00     0.049 A 
ATOM     34  H   UNL     1      20.547  -4.543  -4.975  1.00  0.00     0.167 HD
ATOM     35  C   UNL     1      22.494  -5.708  -6.678  1.00  0.00     0.074 A 
ATOM     36  C   UNL     1      23.216  -6.084  -7.877  1.00  0.00     0.031 C 
ATOM     37  C   UNL     1      22.881  -6.031  -5.420  1.00  0.00     0.037 A 
BRANCH  24  38
ATOM     38  C   UNL     1      19.159  -3.851  -0.993  1.00  0.00     0.057 A 
ATOM     39  C   UNL     1      18.078  -4.493  -0.375  1.00  0.00     0.134 A 
ATOM     40  C   UNL     1      20.021  -3.111  -0.174  1.00  0.00     0.134 A 
ATOM     41  F   UNL     1      17.207  -5.211  -1.100  1.00  0.00    -0.206 F 
ATOM     42  C   UNL     1      17.853  -4.386   1.000  1.00  0.00     0.040 A 
ATOM     43  C   UNL     1      19.822  -3.018   1.205  1.00  0.00     0.040 A 
ATOM     44  F   UNL     1      21.082  -2.478  -0.698  1.00  0.00    -0.206 F 
ATOM     45  C   UNL     1      18.732  -3.652   1.795  1.00  0.00     0.006 A 
ENDBRANCH  24  38
BRANCH  25  46
ATOM     46  C   UNL     1      20.771  -4.340 -10.835  1.00  0.00     0.057 A 
ATOM     47  C   UNL     1      20.692  -5.546 -11.540  1.00  0.00     0.134 A 
ATOM     48  C   UNL     1      21.096  -3.188 -11.562  1.00  0.00     0.134 A 
ATOM     49  F   UNL     1      20.402  -6.686 -10.897  1.00  0.00    -0.206 F 
ATOM     50  C   UNL     1      20.945  -5.608 -12.911  1.00  0.00     0.040 A 
ATOM     51  C   UNL     1      21.321  -3.229 -12.938  1.00  0.00     0.040 A 
ATOM     52  F   UNL     1      21.179  -1.999 -10.946  1.00  0.00    -0.206 F 
ATOM     53  C   UNL     1      21.254  -4.445 -13.615  1.00  0.00     0.006 A 
ENDBRANCH  25  46
BRANCH  37  54
ATOM     54  C   UNL     1      24.123  -6.862  -5.279  1.00  0.00     0.057 A 
ATOM     55  C   UNL     1      25.397  -6.343  -5.544  1.00  0.00     0.134 A 
ATOM     56  C   UNL     1      24.044  -8.194  -4.853  1.00  0.00     0.134 A 
ATOM     57  F   UNL     1      25.542  -5.080  -5.971  1.00  0.00    -0.206 F 
ATOM     58  C   UNL     1      26.545  -7.128  -5.418  1.00  0.00     0.040 A 
ATOM     59  C   UNL     1      25.186  -8.979  -4.694  1.00  0.00     0.040 A 
ATOM     60  F   UNL     1      22.855  -8.751  -4.574  1.00  0.00    -0.206 F 
ATOM     61  C   UNL     1      26.441  -8.449  -4.986  1.00  0.00     0.006 A 
ENDBRANCH  37  54
ENDBRANCH  11  12
ENDBRANCH   4   6
ENDBRANCH   1   2
BRANCH   1  62
ATOM     62  C   UNL     1       9.838  -1.397  -5.627  1.00  0.00     0.042 C 
BRANCH  62  63
ATOM     63  C   UNL     1       8.479  -0.714  -5.743  1.00  0.00     0.117 C 
BRANCH  63  64
ATOM     64  N   UNL     1       7.652  -1.274  -6.793  1.00  0.00    -0.354 N 
ATOM     65  C   UNL     1       6.630  -2.173  -6.699  1.00  0.00     0.249 C 
ATOM     66  H   UNL     1       7.857  -0.961  -7.704  1.00  0.00     0.163 HD
ATOM     67  O   UNL     1       6.044  -2.470  -7.743  1.00  0.00    -0.272 OA
BRANCH  65  68
ATOM     68  C   UNL     1       6.218  -2.728  -5.315  1.00  0.00     0.211 C 
ATOM     69  C   UNL     1       5.168  -3.829  -5.417  1.00  0.00     0.085 C 
ATOM     70  O   UNL     1       7.309  -3.231  -4.546  1.00  0.00    -0.357 OA
ATOM     71  C   UNL     1       5.806  -5.097  -4.842  1.00  0.00     0.123 C 
ATOM     72  C   UNL     1       7.272  -4.670  -4.548  1.00  0.00     0.186 C 
BRANCH  71  73
ATOM     73  C   UNL     1       4.952  -5.601  -3.664  1.00  0.00    -0.013 A 
ATOM     74  C   UNL     1       3.655  -6.093  -3.942  1.00  0.00     0.008 A 
ATOM     75  C   UNL     1       5.359  -5.588  -2.320  1.00  0.00     0.008 A 
ATOM     76  C   UNL     1       2.811  -6.557  -2.930  1.00  0.00     0.021 A 
ATOM     77  C   UNL     1       4.519  -6.066  -1.305  1.00  0.00     0.021 A 
ATOM     78  C   UNL     1       3.250  -6.547  -1.613  1.00  0.00     0.041 A 
ATOM     79  Cl  UNL     1       2.223  -7.121  -0.359  1.00  0.00    -0.084 Cl
ENDBRANCH  71  73
BRANCH  71  80
ATOM     80  O   UNL     1       5.754  -6.133  -5.833  1.00  0.00    -0.382 OA
ATOM     81  H   UNL     1       6.279  -5.867  -6.605  1.00  0.00     0.212 HD
ENDBRANCH  71  80
BRANCH  72  82
ATOM     82  C   UNL     1       8.404  -5.165  -5.441  1.00  0.00    -0.016 A 
ATOM     83  C   UNL     1       8.403  -4.991  -6.833  1.00  0.00     0.008 A 
ATOM     84  C   UNL     1       9.538  -5.753  -4.849  1.00  0.00     0.008 A 
ATOM     85  C   UNL     1       9.519  -5.332  -7.602  1.00  0.00     0.021 A 
ATOM     86  C   UNL     1      10.646  -6.117  -5.620  1.00  0.00     0.021 A 
ATOM     87  C   UNL     1      10.640  -5.886  -6.991  1.00  0.00     0.041 A 
ATOM     88  Cl  UNL     1      12.027  -6.269  -7.932  1.00  0.00    -0.084 Cl
ENDBRANCH  72  82
ENDBRANCH  65  68
ENDBRANCH  63  64
ENDBRANCH  62  63
ENDBRANCH   1  62
TORSDOF 13
