REMARK SMILES C[C@]1(C(=O)N2CCC(CC(=O)NCCCNC(=O)c3ccc(-c4c5nc(c(-c6c(F)cccc6F)c6ccc([nH]6)c(-c6c(F)cccc6F)c6nc(c(-c7c(F)cccc7F)c7ccc4[nH]7)C=C6)C=C5)cc3)CC2)CCC[NH2+]1
REMARK SMILES IDX 14 1 13 2 12 3 10 4 11 5 9 7 8 8 3 9 4 10 5 11 6 12 74 13
REMARK SMILES IDX 7 14 73 15 2 16 1 17 75 18 78 19 76 20 77 21 15 24 16 25
REMARK SMILES IDX 17 26 18 28 19 29 20 30 72 31 21 32 71 33 22 34 23 35 24 36
REMARK SMILES IDX 65 37 25 38 70 39 64 40 66 41 26 42 69 43 63 44 62 45 27 47
REMARK SMILES IDX 53 48 36 49 52 50 37 51 40 52 51 53 67 54 38 55 39 56 50 58
REMARK SMILES IDX 68 59 41 60 28 61 29 62 34 63 30 64 31 65 33 66 35 67 32 68
REMARK SMILES IDX 54 69 55 70 60 71 56 72 57 73 59 74 61 75 58 76 42 77 43 78
REMARK SMILES IDX 48 79 44 80 45 81 47 82 49 83 46 84
REMARK H PARENT 12 6 78 22 78 23 16 27 66 46 40 57
REMARK Flexibility Score: inf
ROOT
ATOM      1  C   UNL     1       3.947  -0.694  -4.641  1.00  0.00     0.042 C 
ENDROOT
BRANCH   1   2
ATOM      2  C   UNL     1       3.534  -2.154  -4.849  1.00  0.00     0.117 C 
BRANCH   2   3
ATOM      3  N   UNL     1       4.484  -3.110  -4.289  1.00  0.00    -0.356 N 
ATOM      4  C   UNL     1       4.382  -3.971  -3.236  1.00  0.00     0.220 C 
ATOM      5  O   UNL     1       5.352  -4.687  -2.977  1.00  0.00    -0.275 OA
ATOM      6  H   UNL     1       5.351  -3.139  -4.754  1.00  0.00     0.163 HD
BRANCH   4   7
ATOM      7  C   UNL     1       3.131  -4.024  -2.376  1.00  0.00     0.103 C 
BRANCH   7   8
ATOM      8  C   UNL     1       3.265  -3.204  -1.078  1.00  0.00     0.002 C 
ATOM      9  C   UNL     1       1.226  -0.111   0.267  1.00  0.00     0.283 C 
ATOM     10  O   UNL     1       0.932   0.220  -0.885  1.00  0.00    -0.268 OA
ATOM     11  N   UNL     1       2.255  -1.005   0.523  1.00  0.00    -0.337 N 
ATOM     12  C   UNL     1       3.497  -0.830  -0.192  1.00  0.00     0.120 C 
ATOM     13  C   UNL     1       1.980  -2.360   0.973  1.00  0.00     0.120 C 
ATOM     14  C   UNL     1       3.546  -1.735  -1.404  1.00  0.00     0.026 C 
ATOM     15  C   UNL     1       1.990  -3.333  -0.214  1.00  0.00     0.026 C 
BRANCH   9  16
ATOM     16  C   UNL     1       0.552   0.527   1.516  1.00  0.00     0.173 C 
ATOM     17  C   UNL     1      -0.913   0.085   1.585  1.00  0.00     0.090 C 
ATOM     18  C   UNL     1       1.300   0.308   2.832  1.00  0.00     0.084 C 
ATOM     19  N   UNL     1       0.650   1.999   1.353  1.00  0.00    -0.334 N 
ATOM     20  C   UNL     1       0.960   1.527   3.668  1.00  0.00     0.068 C 
ATOM     21  C   UNL     1       0.739   2.637   2.657  1.00  0.00     0.261 C 
ATOM     22  H   UNL     1      -0.177   2.342   0.865  1.00  0.00     0.347 HD
ATOM     23  H   UNL     1       1.486   2.222   0.813  1.00  0.00     0.347 HD
ENDBRANCH   9  16
ENDBRANCH   7   8
ENDBRANCH   4   7
ENDBRANCH   2   3
ENDBRANCH   1   2
BRANCH   1  24
ATOM     24  C   UNL     1       5.214  -0.276  -5.378  1.00  0.00     0.118 C 
BRANCH  24  25
ATOM     25  N   UNL     1       4.917   0.268  -6.692  1.00  0.00    -0.352 N 
ATOM     26  C   UNL     1       4.993   1.559  -7.154  1.00  0.00     0.251 C 
ATOM     27  H   UNL     1       4.613  -0.393  -7.355  1.00  0.00     0.163 HD
ATOM     28  O   UNL     1       4.452   1.839  -8.222  1.00  0.00    -0.269 OA
BRANCH  26  29
ATOM     29  C   UNL     1       5.709   2.623  -6.403  1.00  0.00     0.039 A 
ATOM     30  C   UNL     1       5.197   3.926  -6.443  1.00  0.00     0.014 A 
ATOM     31  C   UNL     1       6.922   2.387  -5.749  1.00  0.00     0.014 A 
ATOM     32  C   UNL     1       5.878   4.974  -5.815  1.00  0.00     0.010 A 
ATOM     33  C   UNL     1       7.566   3.420  -5.061  1.00  0.00     0.010 A 
ATOM     34  C   UNL     1       7.065   4.730  -5.106  1.00  0.00    -0.014 A 
BRANCH  34  35
ATOM     35  C   UNL     1       7.808   5.840  -4.450  1.00  0.00     0.031 A 
ATOM     36  C   UNL     1       9.182   6.228  -4.931  1.00  0.00     0.074 A 
ATOM     37  C   UNL     1       7.271   6.479  -3.393  1.00  0.00     0.049 A 
ATOM     38  N   UNL     1       9.996   7.142  -4.463  1.00  0.00    -0.248 NA
ATOM     39  C   UNL     1       9.722   5.473  -6.072  1.00  0.00     0.031 C 
ATOM     40  C   UNL     1       5.973   6.175  -2.790  1.00  0.00     0.029 A 
ATOM     41  N   UNL     1       7.758   7.514  -2.633  1.00  0.00    -0.354 N 
ATOM     42  C   UNL     1      11.150   7.053  -5.233  1.00  0.00     0.074 A 
ATOM     43  C   UNL     1      10.946   5.970  -6.172  1.00  0.00     0.031 C 
ATOM     44  C   UNL     1       5.758   7.017  -1.766  1.00  0.00     0.029 A 
ATOM     45  C   UNL     1       6.910   7.902  -1.624  1.00  0.00     0.049 A 
ATOM     46  H   UNL     1       8.631   7.938  -2.795  1.00  0.00     0.167 HD
ATOM     47  C   UNL     1      12.270   7.814  -5.179  1.00  0.00     0.037 A 
ATOM     48  C   UNL     1       7.044   8.861  -0.689  1.00  0.00     0.037 A 
ATOM     49  C   UNL     1      12.462   8.921  -4.280  1.00  0.00     0.049 A 
ATOM     50  C   UNL     1       8.279   9.717  -0.671  1.00  0.00     0.074 A 
ATOM     51  C   UNL     1      13.527   9.802  -4.210  1.00  0.00     0.029 A 
ATOM     52  N   UNL     1      11.566   9.299  -3.292  1.00  0.00    -0.354 N 
ATOM     53  N   UNL     1       9.330   9.666  -1.451  1.00  0.00    -0.248 NA
ATOM     54  C   UNL     1       8.341  10.771   0.353  1.00  0.00     0.031 C 
ATOM     55  C   UNL     1      13.291  10.694  -3.158  1.00  0.00     0.029 A 
ATOM     56  C   UNL     1      12.063  10.389  -2.596  1.00  0.00     0.049 A 
ATOM     57  H   UNL     1      10.704   8.859  -3.112  1.00  0.00     0.167 HD
ATOM     58  C   UNL     1      10.170  10.687  -1.025  1.00  0.00     0.074 A 
ATOM     59  C   UNL     1       9.499  11.351   0.073  1.00  0.00     0.031 C 
ATOM     60  C   UNL     1      11.388  11.040  -1.502  1.00  0.00     0.037 A 
BRANCH  47  61
ATOM     61  C   UNL     1      13.380   7.471  -6.129  1.00  0.00     0.057 A 
ATOM     62  C   UNL     1      13.286   7.733  -7.503  1.00  0.00     0.134 A 
ATOM     63  C   UNL     1      14.568   6.894  -5.662  1.00  0.00     0.134 A 
ATOM     64  F   UNL     1      12.171   8.274  -8.016  1.00  0.00    -0.206 F 
ATOM     65  C   UNL     1      14.320   7.405  -8.381  1.00  0.00     0.040 A 
ATOM     66  C   UNL     1      15.618   6.584  -6.527  1.00  0.00     0.040 A 
ATOM     67  F   UNL     1      14.727   6.625  -4.357  1.00  0.00    -0.206 F 
ATOM     68  C   UNL     1      15.492   6.832  -7.892  1.00  0.00     0.006 A 
ENDBRANCH  47  61
BRANCH  48  69
ATOM     69  C   UNL     1       5.956   9.083   0.294  1.00  0.00     0.057 A 
ATOM     70  C   UNL     1       5.112  10.195   0.196  1.00  0.00     0.134 A 
ATOM     71  C   UNL     1       5.725   8.185   1.342  1.00  0.00     0.134 A 
ATOM     72  F   UNL     1       5.300  11.100  -0.776  1.00  0.00    -0.206 F 
ATOM     73  C   UNL     1       4.081  10.411   1.110  1.00  0.00     0.040 A 
ATOM     74  C   UNL     1       4.685   8.378   2.252  1.00  0.00     0.040 A 
ATOM     75  F   UNL     1       6.499   7.099   1.486  1.00  0.00    -0.206 F 
ATOM     76  C   UNL     1       3.861   9.497   2.138  1.00  0.00     0.006 A 
ENDBRANCH  48  69
BRANCH  60  77
ATOM     77  C   UNL     1      12.068  12.206  -0.849  1.00  0.00     0.057 A 
ATOM     78  C   UNL     1      12.657  12.099   0.416  1.00  0.00     0.134 A 
ATOM     79  C   UNL     1      12.161  13.439  -1.506  1.00  0.00     0.134 A 
ATOM     80  F   UNL     1      12.590  10.948   1.102  1.00  0.00    -0.206 F 
ATOM     81  C   UNL     1      13.300  13.184   1.014  1.00  0.00     0.040 A 
ATOM     82  C   UNL     1      12.819  14.525  -0.927  1.00  0.00     0.040 A 
ATOM     83  F   UNL     1      11.622  13.606  -2.723  1.00  0.00    -0.206 F 
ATOM     84  C   UNL     1      13.387  14.400   0.339  1.00  0.00     0.006 A 
ENDBRANCH  60  77
ENDBRANCH  34  35
ENDBRANCH  26  29
ENDBRANCH  24  25
ENDBRANCH   1  24
TORSDOF 12
