REMARK SMILES CC[C@H](NC(=O)N1CC[C@H]2CC[C@@H](C1)[N@@H+]2C)C(=O)NCCCNC(=O)c1ccc(-c2c3nc(c(-c4c(F)cccc4F)c4ccc([nH]4)c(-c4c(F)cccc4F)c4nc(c(-c5c(F)cccc5F)c5ccc2[nH]5)C=C4)C=C3)cc1
REMARK SMILES IDX 20 1 19 2 17 3 18 4 3 6 2 7 1 8 4 9 5 10 6 12 7 13 8 14 9 15
REMARK SMILES IDX 14 17 13 18 12 19 15 20 11 21 10 22 16 23 21 26 22 27 23 28
REMARK SMILES IDX 24 29 25 31 26 32 27 33 79 34 28 35 78 36 29 37 30 38 31 39
REMARK SMILES IDX 72 40 32 41 77 42 71 43 73 44 33 45 76 46 70 47 69 48 34 50
REMARK SMILES IDX 60 51 43 52 59 53 44 54 47 55 58 56 74 57 45 58 46 59 57 61
REMARK SMILES IDX 75 62 48 63 35 64 36 65 41 66 37 67 38 68 40 69 42 70 39 71
REMARK SMILES IDX 61 72 62 73 67 74 63 75 64 76 66 77 68 78 65 79 49 80 50 81
REMARK SMILES IDX 55 82 51 83 52 84 54 85 56 86 53 87
REMARK H PARENT 19 5 4 11 15 24 23 30 73 49 47 60
REMARK Flexibility Score: 90.00
ROOT
ATOM      1  C   UNL     1      -2.798  -1.398  -2.374  1.00  0.00     0.117 C 
ENDROOT
BRANCH   1   2
ATOM      2  N   UNL     1      -1.826  -1.812  -3.361  1.00  0.00    -0.354 N 
ATOM      3  C   UNL     1      -0.466  -1.792  -3.357  1.00  0.00     0.242 C 
ATOM      4  O   UNL     1       0.082  -2.493  -4.218  1.00  0.00    -0.273 OA
ATOM      5  H   UNL     1      -2.221  -2.175  -4.186  1.00  0.00     0.163 HD
BRANCH   3   6
ATOM      6  C   UNL     1       0.391  -1.076  -2.281  1.00  0.00     0.172 C 
BRANCH   6   7
ATOM      7  C   UNL     1       0.638  -2.102  -1.139  1.00  0.00     0.032 C 
ATOM      8  C   UNL     1      -0.068  -1.878   0.195  1.00  0.00     0.006 C 
ENDBRANCH   6   7
BRANCH   6   9
ATOM      9  N   UNL     1       0.017   0.261  -1.799  1.00  0.00    -0.326 N 
ATOM     10  C   UNL     1       0.298   1.501  -2.274  1.00  0.00     0.318 C 
ATOM     11  H   UNL     1      -0.537   0.257  -0.985  1.00  0.00     0.166 HD
ATOM     12  O   UNL     1       0.456   2.373  -1.414  1.00  0.00    -0.249 OA
BRANCH  10  13
ATOM     13  N   UNL     1       0.360   1.785  -3.613  1.00  0.00    -0.319 N 
BRANCH  13  14
ATOM     14  C   UNL     1      -0.306   1.030  -4.648  1.00  0.00     0.128 C 
BRANCH  14  15
ATOM     15  C   UNL     1       0.640   0.322  -5.606  1.00  0.00     0.086 CG0
ATOM     16  G   UNL     1       1.406   1.244  -6.561  1.00  0.00     0.000 G0
ENDBRANCH  14  15
ENDBRANCH  13  14
BRANCH  13  17
ATOM     17  C   UNL     1       0.837   3.128  -4.000  1.00  0.00     0.186 C 
BRANCH  17  18
ATOM     18  C   UNL     1       1.445   3.301  -5.426  1.00  0.00     0.204 C 
ATOM     19  C   UNL     1       0.400   3.443  -6.544  1.00  0.00     0.073 C 
ATOM     20  N   UNL     1       2.285   2.146  -5.799  1.00  0.00    -0.331 N 
ATOM     21  C   UNL     1       0.482   2.158  -7.359  1.00  0.00     0.071 C 
ATOM     22  C   UNL     1       1.406   1.244  -6.561  1.00  0.00     0.186 CG0
ATOM     23  C   UNL     1       3.450   2.550  -6.583  1.00  0.00     0.333 C 
ATOM     24  H   UNL     1       2.666   1.686  -4.972  1.00  0.00     0.348 HD
ATOM     25  G   UNL     1       0.640   0.322  -5.606  1.00  0.00     0.000 G0
ENDBRANCH  17  18
ENDBRANCH  13  17
ENDBRANCH  10  13
ENDBRANCH   6   9
ENDBRANCH   3   6
ENDBRANCH   1   2
BRANCH   1  26
ATOM     26  C   UNL     1      -3.286   0.043  -2.466  1.00  0.00     0.042 C 
BRANCH  26  27
ATOM     27  C   UNL     1      -3.813   0.499  -3.823  1.00  0.00     0.118 C 
BRANCH  27  28
ATOM     28  N   UNL     1      -4.854  -0.347  -4.371  1.00  0.00    -0.352 N 
ATOM     29  C   UNL     1      -6.178  -0.103  -4.626  1.00  0.00     0.251 C 
ATOM     30  H   UNL     1      -4.558  -1.258  -4.600  1.00  0.00     0.163 HD
ATOM     31  O   UNL     1      -6.889  -1.024  -5.017  1.00  0.00    -0.269 OA
BRANCH  29  32
ATOM     32  C   UNL     1      -6.775   1.232  -4.403  1.00  0.00     0.039 A 
ATOM     33  C   UNL     1      -8.025   1.289  -3.781  1.00  0.00     0.014 A 
ATOM     34  C   UNL     1      -6.162   2.411  -4.838  1.00  0.00     0.014 A 
ATOM     35  C   UNL     1      -8.631   2.523  -3.540  1.00  0.00     0.010 A 
ATOM     36  C   UNL     1      -6.736   3.649  -4.536  1.00  0.00     0.010 A 
ATOM     37  C   UNL     1      -7.976   3.717  -3.884  1.00  0.00    -0.014 A 
BRANCH  37  38
ATOM     38  C   UNL     1      -8.584   5.030  -3.547  1.00  0.00     0.031 A 
ATOM     39  C   UNL     1      -9.044   5.966  -4.631  1.00  0.00     0.074 A 
ATOM     40  C   UNL     1      -8.702   5.391  -2.254  1.00  0.00     0.049 A 
ATOM     41  N   UNL     1      -9.590   7.152  -4.520  1.00  0.00    -0.248 NA
ATOM     42  C   UNL     1      -8.852   5.521  -6.020  1.00  0.00     0.031 C 
ATOM     43  C   UNL     1      -8.257   4.593  -1.110  1.00  0.00     0.029 A 
ATOM     44  N   UNL     1      -9.231   6.522  -1.683  1.00  0.00    -0.354 N 
ATOM     45  C   UNL     1      -9.803   7.595  -5.819  1.00  0.00     0.074 A 
ATOM     46  C   UNL     1      -9.283   6.573  -6.703  1.00  0.00     0.031 C 
ATOM     47  C   UNL     1      -8.552   5.247   0.024  1.00  0.00     0.029 A 
ATOM     48  C   UNL     1      -9.175   6.523  -0.310  1.00  0.00     0.049 A 
ATOM     49  H   UNL     1      -9.614   7.261  -2.208  1.00  0.00     0.167 HD
ATOM     50  C   UNL     1     -10.398   8.737  -6.238  1.00  0.00     0.037 A 
ATOM     51  C   UNL     1      -9.576   7.450   0.580  1.00  0.00     0.037 A 
ATOM     52  C   UNL     1     -10.931   9.747  -5.361  1.00  0.00     0.049 A 
ATOM     53  C   UNL     1     -10.223   8.715   0.086  1.00  0.00     0.074 A 
ATOM     54  C   UNL     1     -11.594  10.916  -5.694  1.00  0.00     0.029 A 
ATOM     55  N   UNL     1     -10.860   9.710  -3.977  1.00  0.00    -0.354 N 
ATOM     56  N   UNL     1     -10.476   9.088  -1.144  1.00  0.00    -0.248 NA
ATOM     57  C   UNL     1     -10.646   9.684   1.107  1.00  0.00     0.031 C 
ATOM     58  C   UNL     1     -11.888  11.606  -4.513  1.00  0.00     0.029 A 
ATOM     59  C   UNL     1     -11.449  10.844  -3.442  1.00  0.00     0.049 A 
ATOM     60  H   UNL     1     -10.451   8.984  -3.451  1.00  0.00     0.167 HD
ATOM     61  C   UNL     1     -11.109  10.320  -1.045  1.00  0.00     0.074 A 
ATOM     62  C   UNL     1     -11.219  10.622   0.367  1.00  0.00     0.031 C 
ATOM     63  C   UNL     1     -11.556  11.130  -2.035  1.00  0.00     0.037 A 
BRANCH  50  64
ATOM     64  C   UNL     1     -10.515   8.957  -7.719  1.00  0.00     0.057 A 
ATOM     65  C   UNL     1     -11.410   8.218  -8.503  1.00  0.00     0.134 A 
ATOM     66  C   UNL     1      -9.768   9.956  -8.357  1.00  0.00     0.134 A 
ATOM     67  F   UNL     1     -12.147   7.241  -7.955  1.00  0.00    -0.206 F 
ATOM     68  C   UNL     1     -11.544   8.451  -9.873  1.00  0.00     0.040 A 
ATOM     69  C   UNL     1      -9.912  10.214  -9.722  1.00  0.00     0.040 A 
ATOM     70  F   UNL     1      -8.899  10.705  -7.663  1.00  0.00    -0.206 F 
ATOM     71  C   UNL     1     -10.800   9.457 -10.484  1.00  0.00     0.006 A 
ENDBRANCH  50  64
BRANCH  51  72
ATOM     72  C   UNL     1      -9.391   7.217   2.034  1.00  0.00     0.057 A 
ATOM     73  C   UNL     1     -10.486   6.997   2.878  1.00  0.00     0.134 A 
ATOM     74  C   UNL     1      -8.119   7.230   2.618  1.00  0.00     0.134 A 
ATOM     75  F   UNL     1     -11.731   6.992   2.380  1.00  0.00    -0.206 F 
ATOM     76  C   UNL     1     -10.326   6.823   4.253  1.00  0.00     0.040 A 
ATOM     77  C   UNL     1      -7.942   7.032   3.988  1.00  0.00     0.040 A 
ATOM     78  F   UNL     1      -7.029   7.430   1.863  1.00  0.00    -0.206 F 
ATOM     79  C   UNL     1      -9.049   6.836   4.811  1.00  0.00     0.006 A 
ENDBRANCH  51  72
BRANCH  63  80
ATOM     80  C   UNL     1     -12.232  12.405  -1.623  1.00  0.00     0.057 A 
ATOM     81  C   UNL     1     -11.513  13.483  -1.089  1.00  0.00     0.134 A 
ATOM     82  C   UNL     1     -13.613  12.566  -1.786  1.00  0.00     0.134 A 
ATOM     83  F   UNL     1     -10.189  13.387  -0.894  1.00  0.00    -0.206 F 
ATOM     84  C   UNL     1     -12.149  14.666  -0.708  1.00  0.00     0.040 A 
ATOM     85  C   UNL     1     -14.256  13.754  -1.433  1.00  0.00     0.040 A 
ATOM     86  F   UNL     1     -14.359  11.576  -2.299  1.00  0.00    -0.206 F 
ATOM     87  C   UNL     1     -13.524  14.805  -0.886  1.00  0.00     0.006 A 
ENDBRANCH  63  80
ENDBRANCH  37  38
ENDBRANCH  29  32
ENDBRANCH  27  28
ENDBRANCH  26  27
ENDBRANCH   1  26
TORSDOF 13
