REMARK SMILES Cc1nsc(NC(=O)c2ccc(N)cc2)c1C(=O)NCCCNC(=O)c1ccc(-c2c3nc(c(-c4c(F)cccc4F)c4ccc([nH]4)c(-c4c(F)cccc4F)c4nc(c(-c5c(F)cccc5F)c5ccc2[nH]5)C=C4)C=C3)cc1
REMARK SMILES IDX 20 1 19 2 17 3 18 4 16 6 1 7 2 8 3 9 4 10 5 11 6 12 7 13
REMARK SMILES IDX 8 15 9 16 10 17 15 18 11 19 14 20 12 21 13 22 21 25 22 26
REMARK SMILES IDX 23 27 24 28 25 30 26 31 27 32 79 33 28 34 78 35 29 36 30 37
REMARK SMILES IDX 31 38 72 39 32 40 77 41 71 42 73 43 33 44 76 45 70 46 69 47
REMARK SMILES IDX 34 49 60 50 43 51 59 52 44 53 47 54 58 55 74 56 45 57 46 58
REMARK SMILES IDX 57 60 75 61 48 62 35 63 36 64 41 65 37 66 38 67 40 68 42 69
REMARK SMILES IDX 39 70 61 71 62 72 67 73 63 74 64 75 66 76 68 77 65 78 49 79
REMARK SMILES IDX 50 80 55 81 51 82 52 83 54 84 56 85 53 86
REMARK H PARENT 19 5 6 14 13 23 13 24 23 29 73 48 47 59
REMARK Flexibility Score: inf
ROOT
ATOM      1  C   UNL     1       2.620  -0.004  -0.684  1.00  0.00     0.118 C 
ENDROOT
BRANCH   1   2
ATOM      2  N   UNL     1       2.950   1.397  -0.728  1.00  0.00    -0.352 N 
ATOM      3  C   UNL     1       2.284   2.512  -0.277  1.00  0.00     0.256 C 
ATOM      4  O   UNL     1       2.965   3.544  -0.254  1.00  0.00    -0.269 OA
ATOM      5  H   UNL     1       3.812   1.593  -1.161  1.00  0.00     0.163 HD
BRANCH   3   6
ATOM      6  C   UNL     1       0.843   2.563   0.011  1.00  0.00     0.097 A 
ATOM      7  C   UNL     1      -0.025   0.265   1.124  1.00  0.00     0.069 C 
ATOM      8  C   UNL     1      -0.159   1.598   0.467  1.00  0.00     0.066 A 
ATOM      9  N   UNL     1      -1.432   1.972   0.311  1.00  0.00    -0.195 NA
ATOM     10  S   UNL     1      -1.475   3.533  -0.178  1.00  0.00    -0.017 S 
ATOM     11  C   UNL     1       0.194   3.806  -0.010  1.00  0.00     0.129 A 
BRANCH  11  12
ATOM     12  N   UNL     1       0.749   5.078  -0.045  1.00  0.00    -0.312 N 
ATOM     13  C   UNL     1       0.193   6.310   0.241  1.00  0.00     0.256 C 
ATOM     14  H   UNL     1       1.694   5.106  -0.319  1.00  0.00     0.171 HD
ATOM     15  O   UNL     1       0.806   7.346  -0.018  1.00  0.00    -0.269 OA
BRANCH  13  16
ATOM     16  C   UNL     1      -1.118   6.431   0.913  1.00  0.00     0.040 A 
ATOM     17  C   UNL     1      -1.376   5.774   2.121  1.00  0.00     0.016 A 
ATOM     18  C   UNL     1      -2.123   7.167   0.285  1.00  0.00     0.016 A 
ATOM     19  C   UNL     1      -2.682   5.741   2.619  1.00  0.00     0.026 A 
ATOM     20  C   UNL     1      -3.420   7.143   0.804  1.00  0.00     0.026 A 
ATOM     21  C   UNL     1      -3.720   6.392   1.946  1.00  0.00     0.031 A 
BRANCH  21  22
ATOM     22  N   UNL     1      -5.016   6.323   2.420  1.00  0.00    -0.399 N 
ATOM     23  H   UNL     1      -5.218   5.792   3.224  1.00  0.00     0.156 HD
ATOM     24  H   UNL     1      -5.737   6.804   1.953  1.00  0.00     0.156 HD
ENDBRANCH  21  22
ENDBRANCH  13  16
ENDBRANCH  11  12
ENDBRANCH   3   6
ENDBRANCH   1   2
BRANCH   1  25
ATOM     25  C   UNL     1       2.353  -0.692  -2.014  1.00  0.00     0.042 C 
BRANCH  25  26
ATOM     26  C   UNL     1       3.622  -1.268  -2.599  1.00  0.00     0.118 C 
BRANCH  26  27
ATOM     27  N   UNL     1       4.224  -2.322  -1.770  1.00  0.00    -0.352 N 
ATOM     28  C   UNL     1       5.383  -3.044  -2.034  1.00  0.00     0.251 C 
ATOM     29  H   UNL     1       3.753  -2.542  -0.933  1.00  0.00     0.163 HD
ATOM     30  O   UNL     1       5.664  -4.060  -1.441  1.00  0.00    -0.269 OA
BRANCH  28  31
ATOM     31  C   UNL     1       6.259  -2.500  -3.086  1.00  0.00     0.039 A 
ATOM     32  C   UNL     1       6.622  -3.260  -4.197  1.00  0.00     0.014 A 
ATOM     33  C   UNL     1       6.503  -1.134  -3.024  1.00  0.00     0.014 A 
ATOM     34  C   UNL     1       7.128  -2.592  -5.308  1.00  0.00     0.010 A 
ATOM     35  C   UNL     1       6.775  -0.471  -4.188  1.00  0.00     0.010 A 
ATOM     36  C   UNL     1       7.152  -1.185  -5.317  1.00  0.00    -0.014 A 
BRANCH  36  37
ATOM     37  C   UNL     1       7.469  -0.441  -6.532  1.00  0.00     0.031 A 
ATOM     38  C   UNL     1       6.782  -0.922  -7.762  1.00  0.00     0.074 A 
ATOM     39  C   UNL     1       8.198   0.698  -6.539  1.00  0.00     0.049 A 
ATOM     40  N   UNL     1       7.315  -1.578  -8.739  1.00  0.00    -0.248 NA
ATOM     41  C   UNL     1       5.319  -0.797  -7.863  1.00  0.00     0.031 C 
ATOM     42  C   UNL     1       8.710   1.484  -5.408  1.00  0.00     0.029 A 
ATOM     43  N   UNL     1       8.586   1.444  -7.608  1.00  0.00    -0.354 N 
ATOM     44  C   UNL     1       6.308  -1.767  -9.679  1.00  0.00     0.074 A 
ATOM     45  C   UNL     1       5.075  -1.422  -9.019  1.00  0.00     0.031 C 
ATOM     46  C   UNL     1       9.124   2.696  -5.838  1.00  0.00     0.029 A 
ATOM     47  C   UNL     1       9.105   2.693  -7.286  1.00  0.00     0.049 A 
ATOM     48  H   UNL     1       8.505   1.126  -8.536  1.00  0.00     0.167 HD
ATOM     49  C   UNL     1       6.609  -1.974 -10.992  1.00  0.00     0.037 A 
ATOM     50  C   UNL     1       9.512   3.653  -8.150  1.00  0.00     0.037 A 
ATOM     51  C   UNL     1       8.006  -2.293 -11.157  1.00  0.00     0.049 A 
ATOM     52  C   UNL     1       9.787   2.984  -9.443  1.00  0.00     0.074 A 
ATOM     53  C   UNL     1       8.832  -3.308 -10.713  1.00  0.00     0.029 A 
ATOM     54  N   UNL     1       8.842  -1.275 -11.547  1.00  0.00    -0.354 N 
ATOM     55  N   UNL     1      10.767   2.144  -9.626  1.00  0.00    -0.248 NA
ATOM     56  C   UNL     1       8.692   2.885 -10.395  1.00  0.00     0.031 C 
ATOM     57  C   UNL     1      10.066  -2.664 -10.399  1.00  0.00     0.029 A 
ATOM     58  C   UNL     1       9.951  -1.316 -10.742  1.00  0.00     0.049 A 
ATOM     59  H   UNL     1       8.675  -0.632 -12.273  1.00  0.00     0.167 HD
ATOM     60  C   UNL     1      10.225   1.137 -10.410  1.00  0.00     0.074 A 
ATOM     61  C   UNL     1       8.974   1.692 -10.927  1.00  0.00     0.031 C 
ATOM     62  C   UNL     1      10.693  -0.144 -10.334  1.00  0.00     0.037 A 
BRANCH  49  63
ATOM     63  C   UNL     1       5.763  -1.520 -12.154  1.00  0.00     0.057 A 
ATOM     64  C   UNL     1       6.104  -1.934 -13.455  1.00  0.00     0.134 A 
ATOM     65  C   UNL     1       4.829  -0.468 -12.085  1.00  0.00     0.134 A 
ATOM     66  F   UNL     1       6.993  -2.920 -13.654  1.00  0.00    -0.206 F 
ATOM     67  C   UNL     1       5.611  -1.296 -14.600  1.00  0.00     0.040 A 
ATOM     68  C   UNL     1       4.293   0.144 -13.222  1.00  0.00     0.040 A 
ATOM     69  F   UNL     1       4.466   0.093 -10.926  1.00  0.00    -0.206 F 
ATOM     70  C   UNL     1       4.709  -0.246 -14.485  1.00  0.00     0.006 A 
ENDBRANCH  49  63
BRANCH  50  71
ATOM     71  C   UNL     1       9.391   5.121  -8.026  1.00  0.00     0.057 A 
ATOM     72  C   UNL     1      10.117   5.980  -8.864  1.00  0.00     0.134 A 
ATOM     73  C   UNL     1       8.344   5.708  -7.295  1.00  0.00     0.134 A 
ATOM     74  F   UNL     1      11.112   5.504  -9.627  1.00  0.00    -0.206 F 
ATOM     75  C   UNL     1       9.794   7.337  -8.998  1.00  0.00     0.040 A 
ATOM     76  C   UNL     1       8.014   7.062  -7.417  1.00  0.00     0.040 A 
ATOM     77  F   UNL     1       7.547   4.966  -6.511  1.00  0.00    -0.206 F 
ATOM     78  C   UNL     1       8.729   7.878  -8.285  1.00  0.00     0.006 A 
ENDBRANCH  50  71
BRANCH  62  79
ATOM     79  C   UNL     1      11.975  -0.381  -9.578  1.00  0.00     0.057 A 
ATOM     80  C   UNL     1      12.142  -0.154  -8.202  1.00  0.00     0.134 A 
ATOM     81  C   UNL     1      13.038  -0.999 -10.245  1.00  0.00     0.134 A 
ATOM     82  F   UNL     1      11.151   0.345  -7.454  1.00  0.00    -0.206 F 
ATOM     83  C   UNL     1      13.325  -0.488  -7.535  1.00  0.00     0.040 A 
ATOM     84  C   UNL     1      14.212  -1.368  -9.584  1.00  0.00     0.040 A 
ATOM     85  F   UNL     1      12.933  -1.298 -11.549  1.00  0.00    -0.206 F 
ATOM     86  C   UNL     1      14.364  -1.103  -8.226  1.00  0.00     0.006 A 
ENDBRANCH  62  79
ENDBRANCH  36  37
ENDBRANCH  28  31
ENDBRANCH  26  27
ENDBRANCH  25  26
ENDBRANCH   1  25
TORSDOF 13
