REMARK SMILES CC[NH2+][C@]1(C(=O)NCCCNC(=O)c2ccc(-c3c4nc(c(-c5c(F)cccc5F)c5ccc([nH]5)c(-c5c(F)cccc5F)c5nc(c(-c6c(F)cccc6F)c6ccc3[nH]6)C=C5)C=C4)cc2)CC[C@H]([N@H+](C)CC[NH+]2CCCC2)C1
REMARK SMILES IDX 8 1 7 2 5 3 6 4 4 6 68 7 80 8 69 9 70 10 3 11 2 14 1 15
REMARK SMILES IDX 71 16 72 17 73 19 74 20 75 21 76 22 79 23 77 25 78 26 9 27
REMARK SMILES IDX 10 28 11 29 12 30 13 32 14 33 15 34 67 35 16 36 66 37 17 38
REMARK SMILES IDX 18 39 19 40 60 41 20 42 65 43 59 44 61 45 21 46 64 47 58 48
REMARK SMILES IDX 57 49 22 51 48 52 31 53 47 54 32 55 35 56 46 57 62 58 33 59
REMARK SMILES IDX 34 60 45 62 63 63 36 64 23 65 24 66 29 67 25 68 26 69 28 70
REMARK SMILES IDX 30 71 27 72 49 73 50 74 55 75 51 76 52 77 54 78 56 79 53 80
REMARK SMILES IDX 37 81 38 82 43 83 39 84 40 85 42 86 44 87 41 88
REMARK H PARENT 7 5 3 12 3 13 71 18 75 24 11 31 61 50 35 61
REMARK Flexibility Score: inf
ROOT
ATOM      1  C   UNL     1       3.171  -1.057   2.215  1.00  0.00     0.118 C 
ENDROOT
BRANCH   1   2
ATOM      2  N   UNL     1       2.149  -0.185   1.670  1.00  0.00    -0.351 N 
ATOM      3  C   UNL     1       1.082   0.430   2.267  1.00  0.00     0.281 C 
ATOM      4  O   UNL     1       0.500   1.282   1.587  1.00  0.00    -0.268 OA
ATOM      5  H   UNL     1       2.237  -0.004   0.706  1.00  0.00     0.163 HD
BRANCH   3   6
ATOM      6  C   UNL     1       0.623   0.068   3.708  1.00  0.00     0.181 C 
ATOM      7  C   UNL     1      -0.840   0.544   3.915  1.00  0.00     0.085 C 
ATOM      8  C   UNL     1       0.355  -1.438   3.876  1.00  0.00     0.144 C 
ATOM      9  C   UNL     1      -1.401  -0.305   5.068  1.00  0.00     0.072 C 
ATOM     10  C   UNL     1      -0.555  -1.608   5.111  1.00  0.00     0.191 C 
BRANCH   6  11
ATOM     11  N   UNL     1       1.405   0.778   4.759  1.00  0.00    -0.334 N 
ATOM     12  H   UNL     1       1.179   1.769   4.682  1.00  0.00     0.347 HD
ATOM     13  H   UNL     1       1.129   0.315   5.625  1.00  0.00     0.347 HD
BRANCH  11  14
ATOM     14  C   UNL     1       2.853   0.669   4.750  1.00  0.00     0.257 C 
ATOM     15  C   UNL     1       3.468   1.265   6.010  1.00  0.00     0.071 C 
ENDBRANCH  11  14
ENDBRANCH   6  11
BRANCH  10  16
ATOM     16  N   UNL     1       0.070  -2.023   6.396  1.00  0.00    -0.330 N 
ATOM     17  C   UNL     1      -0.321  -1.267   7.572  1.00  0.00     0.333 C 
ATOM     18  H   UNL     1      -0.376  -2.929   6.540  1.00  0.00     0.348 HD
BRANCH  16  19
ATOM     19  C   UNL     1       1.501  -2.352   6.339  1.00  0.00     0.324 C 
BRANCH  19  20
ATOM     20  C   UNL     1       2.233  -3.033   7.518  1.00  0.00     0.324 C 
BRANCH  20  21
ATOM     21  N   UNL     1       1.865  -4.450   7.637  1.00  0.00    -0.330 N 
ATOM     22  C   UNL     1       0.937  -4.685   8.752  1.00  0.00     0.262 C 
ATOM     23  C   UNL     1       3.029  -5.331   7.835  1.00  0.00     0.262 C 
ATOM     24  H   UNL     1       1.417  -4.676   6.749  1.00  0.00     0.348 HD
ATOM     25  C   UNL     1       1.803  -5.239   9.866  1.00  0.00     0.067 C 
ATOM     26  C   UNL     1       2.765  -6.123   9.104  1.00  0.00     0.067 C 
ENDBRANCH  20  21
ENDBRANCH  19  20
ENDBRANCH  16  19
ENDBRANCH  10  16
ENDBRANCH   3   6
ENDBRANCH   1   2
BRANCH   1  27
ATOM     27  C   UNL     1       3.539  -2.215   1.314  1.00  0.00     0.042 C 
BRANCH  27  28
ATOM     28  C   UNL     1       4.246  -1.780   0.045  1.00  0.00     0.118 C 
BRANCH  28  29
ATOM     29  N   UNL     1       5.500  -1.077   0.299  1.00  0.00    -0.352 N 
ATOM     30  C   UNL     1       6.808  -1.437   0.068  1.00  0.00     0.251 C 
ATOM     31  H   UNL     1       5.390  -0.188   0.708  1.00  0.00     0.163 HD
ATOM     32  O   UNL     1       7.713  -0.759   0.530  1.00  0.00    -0.269 OA
BRANCH  30  33
ATOM     33  C   UNL     1       7.118  -2.658  -0.707  1.00  0.00     0.039 A 
ATOM     34  C   UNL     1       8.204  -3.448  -0.323  1.00  0.00     0.014 A 
ATOM     35  C   UNL     1       6.337  -3.036  -1.798  1.00  0.00     0.014 A 
ATOM     36  C   UNL     1       8.437  -4.661  -0.973  1.00  0.00     0.010 A 
ATOM     37  C   UNL     1       6.481  -4.303  -2.346  1.00  0.00     0.010 A 
ATOM     38  C   UNL     1       7.540  -5.127  -1.949  1.00  0.00    -0.014 A 
BRANCH  38  39
ATOM     39  C   UNL     1       7.692  -6.472  -2.558  1.00  0.00     0.031 A 
ATOM     40  C   UNL     1       7.850  -6.624  -4.047  1.00  0.00     0.074 A 
ATOM     41  C   UNL     1       7.616  -7.564  -1.771  1.00  0.00     0.049 A 
ATOM     42  N   UNL     1       7.971  -7.717  -4.757  1.00  0.00    -0.248 NA
ATOM     43  C   UNL     1       7.828  -5.391  -4.851  1.00  0.00     0.031 C 
ATOM     44  C   UNL     1       7.369  -7.554  -0.327  1.00  0.00     0.029 A 
ATOM     45  N   UNL     1       7.737  -8.896  -2.075  1.00  0.00    -0.354 N 
ATOM     46  C   UNL     1       8.017  -7.304  -6.083  1.00  0.00     0.074 A 
ATOM     47  C   UNL     1       7.840  -5.870  -6.085  1.00  0.00     0.031 C 
ATOM     48  C   UNL     1       7.405  -8.813   0.136  1.00  0.00     0.029 A 
ATOM     49  C   UNL     1       7.639  -9.721  -0.981  1.00  0.00     0.049 A 
ATOM     50  H   UNL     1       7.880  -9.229  -2.991  1.00  0.00     0.167 HD
ATOM     51  C   UNL     1       8.223  -8.046  -7.196  1.00  0.00     0.037 A 
ATOM     52  C   UNL     1       7.736 -11.060  -0.888  1.00  0.00     0.037 A 
ATOM     53  C   UNL     1       8.436  -9.469  -7.185  1.00  0.00     0.049 A 
ATOM     54  C   UNL     1       8.011 -11.858  -2.130  1.00  0.00     0.074 A 
ATOM     55  C   UNL     1       8.737 -10.305  -8.245  1.00  0.00     0.029 A 
ATOM     56  N   UNL     1       8.367 -10.267  -6.052  1.00  0.00    -0.354 N 
ATOM     57  N   UNL     1       8.149 -11.443  -3.366  1.00  0.00    -0.248 NA
ATOM     58  C   UNL     1       8.158 -13.310  -1.962  1.00  0.00     0.031 C 
ATOM     59  C   UNL     1       8.805 -11.616  -7.761  1.00  0.00     0.029 A 
ATOM     60  C   UNL     1       8.598 -11.590  -6.391  1.00  0.00     0.049 A 
ATOM     61  H   UNL     1       8.182  -9.941  -5.142  1.00  0.00     0.167 HD
ATOM     62  C   UNL     1       8.417 -12.577  -4.121  1.00  0.00     0.074 A 
ATOM     63  C   UNL     1       8.449 -13.693  -3.197  1.00  0.00     0.031 C 
ATOM     64  C   UNL     1       8.614 -12.688  -5.458  1.00  0.00     0.037 A 
BRANCH  51  65
ATOM     65  C   UNL     1       8.238  -7.326  -8.515  1.00  0.00     0.057 A 
ATOM     66  C   UNL     1       9.263  -6.434  -8.862  1.00  0.00     0.134 A 
ATOM     67  C   UNL     1       7.224  -7.538  -9.457  1.00  0.00     0.134 A 
ATOM     68  F   UNL     1      10.258  -6.173  -8.000  1.00  0.00    -0.206 F 
ATOM     69  C   UNL     1       9.261  -5.756 -10.082  1.00  0.00     0.040 A 
ATOM     70  C   UNL     1       7.228  -6.889 -10.693  1.00  0.00     0.040 A 
ATOM     71  F   UNL     1       6.213  -8.380  -9.194  1.00  0.00    -0.206 F 
ATOM     72  C   UNL     1       8.244  -5.988 -11.005  1.00  0.00     0.006 A 
ENDBRANCH  51  65
BRANCH  52  73
ATOM     73  C   UNL     1       7.614 -11.722   0.436  1.00  0.00     0.057 A 
ATOM     74  C   UNL     1       8.726 -12.303   1.057  1.00  0.00     0.134 A 
ATOM     75  C   UNL     1       6.391 -11.784   1.113  1.00  0.00     0.134 A 
ATOM     76  F   UNL     1       9.922 -12.289   0.451  1.00  0.00    -0.206 F 
ATOM     77  C   UNL     1       8.622 -12.940   2.295  1.00  0.00     0.040 A 
ATOM     78  C   UNL     1       6.278 -12.395   2.364  1.00  0.00     0.040 A 
ATOM     79  F   UNL     1       5.291 -11.235   0.577  1.00  0.00    -0.206 F 
ATOM     80  C   UNL     1       7.396 -12.982   2.954  1.00  0.00     0.006 A 
ENDBRANCH  52  73
BRANCH  64  81
ATOM     81  C   UNL     1       8.898 -14.063  -5.988  1.00  0.00     0.057 A 
ATOM     82  C   UNL     1       7.912 -15.058  -6.028  1.00  0.00     0.134 A 
ATOM     83  C   UNL     1      10.171 -14.394  -6.471  1.00  0.00     0.134 A 
ATOM     84  F   UNL     1       6.676 -14.810  -5.570  1.00  0.00    -0.206 F 
ATOM     85  C   UNL     1       8.193 -16.344  -6.494  1.00  0.00     0.040 A 
ATOM     86  C   UNL     1      10.455 -15.666  -6.967  1.00  0.00     0.040 A 
ATOM     87  F   UNL     1      11.157 -13.484  -6.471  1.00  0.00    -0.206 F 
ATOM     88  C   UNL     1       9.467 -16.649  -6.969  1.00  0.00     0.006 A 
ENDBRANCH  64  81
ENDBRANCH  38  39
ENDBRANCH  30  33
ENDBRANCH  28  29
ENDBRANCH  27  28
ENDBRANCH   1  27
TORSDOF 16
