REMARK SMILES O=C(NCCCNC(=O)[C@H]1CS[C@@H](c2cccc(OCc3ccc(Cl)cc3Cl)c2)[NH2+]1)c1ccc(-c2c3nc(c(-c4c(F)cccc4F)c4ccc([nH]4)c(-c4c(F)cccc4F)c4nc(c(-c5c(F)cccc5F)c5ccc2[nH]5)C=C4)C=C3)cc1
REMARK SMILES IDX 6 1 5 2 4 3 3 4 1 5 2 6 31 8 32 9 84 10 33 11 83 12 34 13
REMARK SMILES IDX 35 14 36 15 77 16 37 17 82 18 76 19 78 20 38 21 81 22 75 23
REMARK SMILES IDX 74 24 39 26 65 27 48 28 64 29 49 30 52 31 63 32 79 33 50 34
REMARK SMILES IDX 51 35 62 37 80 38 53 39 40 40 41 41 46 42 42 43 43 44 45 45
REMARK SMILES IDX 47 46 44 47 66 48 67 49 72 50 68 51 69 52 71 53 73 54 70 55
REMARK SMILES IDX 54 56 55 57 60 58 56 59 57 60 59 61 61 62 58 63 7 64 8 65
REMARK SMILES IDX 9 67 10 68 11 69 30 70 12 71 13 72 14 75 15 76 29 77 16 78
REMARK SMILES IDX 18 79 17 80 19 81 20 82 21 83 22 84 27 85 23 86 26 87 28 88
REMARK SMILES IDX 24 89 25 90
REMARK H PARENT 3 7 78 25 52 36 7 66 30 73 30 74
REMARK Flexibility Score: inf
ROOT
ATOM      1  C   UNL     1       4.203  -1.985   3.119  1.00  0.00     0.118 C 
ENDROOT
BRANCH   1   2
ATOM      2  C   UNL     1       4.696  -0.890   2.181  1.00  0.00     0.042 C 
BRANCH   2   3
ATOM      3  C   UNL     1       4.418  -1.189   0.713  1.00  0.00     0.118 C 
BRANCH   3   4
ATOM      4  N   UNL     1       2.994  -1.155   0.407  1.00  0.00    -0.352 N 
ATOM      5  O   UNL     1       1.016  -0.238  -0.143  1.00  0.00    -0.269 OA
ATOM      6  C   UNL     1       2.245  -0.189  -0.212  1.00  0.00     0.251 C 
ATOM      7  H   UNL     1       2.490  -1.952   0.691  1.00  0.00     0.163 HD
BRANCH   6   8
ATOM      8  C   UNL     1       2.890   0.914  -0.953  1.00  0.00     0.039 A 
ATOM      9  C   UNL     1       3.986   0.680  -1.788  1.00  0.00     0.014 A 
ATOM     10  C   UNL     1       2.344   2.198  -0.865  1.00  0.00     0.014 A 
ATOM     11  C   UNL     1       4.615   1.744  -2.429  1.00  0.00     0.010 A 
ATOM     12  C   UNL     1       2.924   3.251  -1.575  1.00  0.00     0.010 A 
ATOM     13  C   UNL     1       4.079   3.036  -2.343  1.00  0.00    -0.014 A 
BRANCH  13  14
ATOM     14  C   UNL     1       4.695   4.152  -3.101  1.00  0.00     0.031 A 
ATOM     15  C   UNL     1       5.305   5.320  -2.383  1.00  0.00     0.074 A 
ATOM     16  C   UNL     1       4.669   4.122  -4.447  1.00  0.00     0.049 A 
ATOM     17  N   UNL     1       5.798   6.427  -2.876  1.00  0.00    -0.248 NA
ATOM     18  C   UNL     1       5.358   5.237  -0.916  1.00  0.00     0.031 C 
ATOM     19  C   UNL     1       4.103   3.041  -5.255  1.00  0.00     0.029 A 
ATOM     20  N   UNL     1       5.117   5.031  -5.372  1.00  0.00    -0.354 N 
ATOM     21  C   UNL     1       6.195   7.185  -1.782  1.00  0.00     0.074 A 
ATOM     22  C   UNL     1       5.865   6.420  -0.598  1.00  0.00     0.031 C 
ATOM     23  C   UNL     1       4.243   3.344  -6.554  1.00  0.00     0.029 A 
ATOM     24  C   UNL     1       4.850   4.665  -6.668  1.00  0.00     0.049 A 
ATOM     25  H   UNL     1       5.583   5.863  -5.130  1.00  0.00     0.167 HD
ATOM     26  C   UNL     1       6.782   8.406  -1.770  1.00  0.00     0.037 A 
ATOM     27  C   UNL     1       5.037   5.333  -7.821  1.00  0.00     0.037 A 
ATOM     28  C   UNL     1       7.112   9.155  -2.956  1.00  0.00     0.049 A 
ATOM     29  C   UNL     1       5.654   6.700  -7.784  1.00  0.00     0.074 A 
ATOM     30  C   UNL     1       7.743  10.383  -3.053  1.00  0.00     0.029 A 
ATOM     31  N   UNL     1       6.827   8.749  -4.252  1.00  0.00    -0.354 N 
ATOM     32  N   UNL     1       6.054   7.394  -6.746  1.00  0.00    -0.248 NA
ATOM     33  C   UNL     1       5.846   7.377  -9.072  1.00  0.00     0.031 C 
ATOM     34  C   UNL     1       7.794  10.743  -4.404  1.00  0.00     0.029 A 
ATOM     35  C   UNL     1       7.245   9.714  -5.154  1.00  0.00     0.049 A 
ATOM     36  H   UNL     1       6.391   7.900  -4.495  1.00  0.00     0.167 HD
ATOM     37  C   UNL     1       6.569   8.578  -7.255  1.00  0.00     0.074 A 
ATOM     38  C   UNL     1       6.432   8.506  -8.696  1.00  0.00     0.031 C 
ATOM     39  C   UNL     1       7.112   9.624  -6.587  1.00  0.00     0.037 A 
BRANCH  26  40
ATOM     40  C   UNL     1       7.071   9.020  -0.431  1.00  0.00     0.057 A 
ATOM     41  C   UNL     1       8.065   8.519   0.420  1.00  0.00     0.134 A 
ATOM     42  C   UNL     1       6.351  10.138   0.010  1.00  0.00     0.134 A 
ATOM     43  F   UNL     1       8.786   7.444   0.066  1.00  0.00    -0.206 F 
ATOM     44  C   UNL     1       8.308   9.085   1.674  1.00  0.00     0.040 A 
ATOM     45  C   UNL     1       6.603  10.729   1.249  1.00  0.00     0.040 A 
ATOM     46  F   UNL     1       5.391  10.676  -0.757  1.00  0.00    -0.206 F 
ATOM     47  C   UNL     1       7.577  10.196   2.090  1.00  0.00     0.006 A 
ENDBRANCH  26  40
BRANCH  27  48
ATOM     48  C   UNL     1       4.617   4.706  -9.098  1.00  0.00     0.057 A 
ATOM     49  C   UNL     1       5.560   4.220 -10.009  1.00  0.00     0.134 A 
ATOM     50  C   UNL     1       3.263   4.527  -9.408  1.00  0.00     0.134 A 
ATOM     51  F   UNL     1       6.870   4.374  -9.772  1.00  0.00    -0.206 F 
ATOM     52  C   UNL     1       5.171   3.580 -11.187  1.00  0.00     0.040 A 
ATOM     53  C   UNL     1       2.861   3.867 -10.570  1.00  0.00     0.040 A 
ATOM     54  F   UNL     1       2.313   4.960  -8.567  1.00  0.00    -0.206 F 
ATOM     55  C   UNL     1       3.818   3.393 -11.465  1.00  0.00     0.006 A 
ENDBRANCH  27  48
BRANCH  39  56
ATOM     56  C   UNL     1       7.646  10.762  -7.405  1.00  0.00     0.057 A 
ATOM     57  C   UNL     1       6.801  11.687  -8.030  1.00  0.00     0.134 A 
ATOM     58  C   UNL     1       9.027  10.970  -7.510  1.00  0.00     0.134 A 
ATOM     59  F   UNL     1       5.469  11.535  -7.979  1.00  0.00    -0.206 F 
ATOM     60  C   UNL     1       7.313  12.775  -8.739  1.00  0.00     0.040 A 
ATOM     61  C   UNL     1       9.550  12.067  -8.195  1.00  0.00     0.040 A 
ATOM     62  F   UNL     1       9.889  10.123  -6.928  1.00  0.00    -0.206 F 
ATOM     63  C   UNL     1       8.691  12.973  -8.814  1.00  0.00     0.006 A 
ENDBRANCH  39  56
ENDBRANCH  13  14
ENDBRANCH   6   8
ENDBRANCH   3   4
ENDBRANCH   2   3
ENDBRANCH   1   2
BRANCH   1  64
ATOM     64  N   UNL     1       4.962  -3.216   2.970  1.00  0.00    -0.351 N 
ATOM     65  C   UNL     1       5.984  -3.756   3.696  1.00  0.00     0.279 C 
ATOM     66  H   UNL     1       4.687  -3.764   2.200  1.00  0.00     0.163 HD
ATOM     67  O   UNL     1       6.515  -4.772   3.236  1.00  0.00    -0.268 OA
BRANCH  65  68
ATOM     68  C   UNL     1       6.467  -3.148   5.028  1.00  0.00     0.283 C 
ATOM     69  C   UNL     1       7.213  -1.836   4.850  1.00  0.00     0.151 C 
ATOM     70  N   UNL     1       5.358  -3.063   5.987  1.00  0.00    -0.321 N 
ATOM     71  S   UNL     1       6.339  -0.607   5.845  1.00  0.00    -0.088 SA
ATOM     72  C   UNL     1       5.404  -1.836   6.779  1.00  0.00     0.274 C 
ATOM     73  H   UNL     1       5.408  -3.863   6.617  1.00  0.00     0.348 HD
ATOM     74  H   UNL     1       4.487  -3.060   5.457  1.00  0.00     0.348 HD
BRANCH  72  75
ATOM     75  C   UNL     1       3.975  -1.473   7.179  1.00  0.00     0.024 A 
ATOM     76  C   UNL     1       3.277  -0.349   6.723  1.00  0.00     0.011 A 
ATOM     77  C   UNL     1       3.266  -2.424   7.953  1.00  0.00     0.057 A 
ATOM     78  C   UNL     1       1.914  -0.209   6.994  1.00  0.00     0.004 A 
ATOM     79  C   UNL     1       1.890  -2.347   8.144  1.00  0.00     0.120 A 
ATOM     80  C   UNL     1       1.224  -1.212   7.681  1.00  0.00     0.046 A 
BRANCH  79  81
ATOM     81  O   UNL     1       1.101  -3.298   8.730  1.00  0.00    -0.489 OA
BRANCH  81  82
ATOM     82  C   UNL     1       1.638  -4.595   9.038  1.00  0.00     0.267 C 
BRANCH  82  83
ATOM     83  C   UNL     1       1.393  -5.602   7.929  1.00  0.00     0.008 A 
ATOM     84  C   UNL     1       0.110  -6.169   7.802  1.00  0.00     0.010 A 
ATOM     85  C   UNL     1       2.374  -6.011   7.011  1.00  0.00     0.049 A 
ATOM     86  C   UNL     1      -0.186  -7.065   6.768  1.00  0.00     0.021 A 
ATOM     87  C   UNL     1       2.057  -6.833   5.924  1.00  0.00     0.041 A 
ATOM     88  Cl  UNL     1       4.049  -5.687   7.234  1.00  0.00    -0.084 Cl
ATOM     89  C   UNL     1       0.778  -7.360   5.810  1.00  0.00     0.042 A 
ATOM     90  Cl  UNL     1       0.406  -8.417   4.506  1.00  0.00    -0.084 Cl
ENDBRANCH  82  83
ENDBRANCH  81  82
ENDBRANCH  79  81
ENDBRANCH  72  75
ENDBRANCH  65  68
ENDBRANCH   1  64
TORSDOF 14
