REMARK SMILES C[C@@H](C(=O)NCCCNC(=O)c1ccc(-c2c3nc(c(-c4c(F)cccc4F)c4ccc([nH]4)c(-c4c(F)cccc4F)c4nc(c(-c5c(F)cccc5F)c5ccc2[nH]5)C=C4)C=C3)cc1)N1C(=O)c2nccnc2C1=O
REMARK SMILES IDX 7 1 6 2 5 3 3 4 4 5 2 7 1 8 66 9 67 10 75 11 68 12 69 13
REMARK SMILES IDX 74 14 76 15 70 16 73 17 71 18 72 19 8 20 9 21 10 22 11 24
REMARK SMILES IDX 12 25 13 26 65 27 14 28 64 29 15 30 16 31 17 32 58 33 18 34
REMARK SMILES IDX 63 35 57 36 59 37 19 38 62 39 56 40 55 41 20 43 46 44 29 45
REMARK SMILES IDX 45 46 30 47 33 48 44 49 60 50 31 51 32 52 43 54 61 55 34 56
REMARK SMILES IDX 21 57 22 58 27 59 23 60 24 61 26 62 28 63 25 64 47 65 48 66
REMARK SMILES IDX 53 67 49 68 50 69 52 70 54 71 51 72 35 73 36 74 41 75 37 76
REMARK SMILES IDX 38 77 40 78 42 79 39 80
REMARK H PARENT 5 6 9 23 59 42 33 53
REMARK Flexibility Score: inf
ROOT
ATOM      1  C   UNL     1       4.234   0.823  -0.984  1.00  0.00     0.042 C 
ENDROOT
BRANCH   1   2
ATOM      2  C   UNL     1       3.310   1.895  -0.408  1.00  0.00     0.117 C 
BRANCH   2   3
ATOM      3  N   UNL     1       2.203   2.200  -1.297  1.00  0.00    -0.354 N 
ATOM      4  C   UNL     1       0.867   1.940  -1.161  1.00  0.00     0.243 C 
ATOM      5  O   UNL     1       0.115   2.362  -2.043  1.00  0.00    -0.273 OA
ATOM      6  H   UNL     1       2.453   2.666  -2.128  1.00  0.00     0.163 HD
BRANCH   4   7
ATOM      7  C   UNL     1       0.348   1.158   0.062  1.00  0.00     0.180 C 
ATOM      8  C   UNL     1       0.771  -0.308   0.043  1.00  0.00     0.042 C 
BRANCH   7   9
ATOM      9  N   UNL     1      -1.105   1.329   0.132  1.00  0.00    -0.259 N 
ATOM     10  C   UNL     1      -2.037   0.589  -0.556  1.00  0.00     0.282 C 
ATOM     11  C   UNL     1      -1.694   2.361   0.819  1.00  0.00     0.282 C 
ATOM     12  O   UNL     1      -1.861  -0.372  -1.278  1.00  0.00    -0.267 OA
ATOM     13  C   UNL     1      -3.342   1.161  -0.223  1.00  0.00     0.160 A 
ATOM     14  C   UNL     1      -3.135   2.232   0.606  1.00  0.00     0.160 A 
ATOM     15  O   UNL     1      -1.145   3.215   1.492  1.00  0.00    -0.267 OA
ATOM     16  N   UNL     1      -4.558   0.693  -0.569  1.00  0.00    -0.247 NA
ATOM     17  N   UNL     1      -4.122   2.953   1.174  1.00  0.00    -0.247 NA
ATOM     18  C   UNL     1      -5.572   1.410  -0.017  1.00  0.00     0.132 A 
ATOM     19  C   UNL     1      -5.361   2.509   0.829  1.00  0.00     0.132 A 
ENDBRANCH   7   9
ENDBRANCH   4   7
ENDBRANCH   2   3
ENDBRANCH   1   2
BRANCH   1  20
ATOM     20  C   UNL     1       5.014   1.257  -2.224  1.00  0.00     0.118 C 
BRANCH  20  21
ATOM     21  N   UNL     1       5.987   2.304  -1.945  1.00  0.00    -0.352 N 
ATOM     22  C   UNL     1       7.352   2.326  -2.099  1.00  0.00     0.251 C 
ATOM     23  H   UNL     1       5.602   3.136  -1.585  1.00  0.00     0.163 HD
ATOM     24  O   UNL     1       7.992   3.270  -1.641  1.00  0.00    -0.269 OA
BRANCH  22  25
ATOM     25  C   UNL     1       8.069   1.221  -2.776  1.00  0.00     0.039 A 
ATOM     26  C   UNL     1       9.272   0.771  -2.220  1.00  0.00     0.014 A 
ATOM     27  C   UNL     1       7.593   0.643  -3.955  1.00  0.00     0.014 A 
ATOM     28  C   UNL     1       9.942  -0.315  -2.791  1.00  0.00     0.010 A 
ATOM     29  C   UNL     1       8.228  -0.482  -4.487  1.00  0.00     0.010 A 
ATOM     30  C   UNL     1       9.396  -0.988  -3.896  1.00  0.00    -0.014 A 
BRANCH  30  31
ATOM     31  C   UNL     1       9.988  -2.262  -4.384  1.00  0.00     0.031 A 
ATOM     32  C   UNL     1      10.570  -2.371  -5.766  1.00  0.00     0.074 A 
ATOM     33  C   UNL     1       9.932  -3.353  -3.592  1.00  0.00     0.049 A 
ATOM     34  N   UNL     1      11.057  -3.425  -6.374  1.00  0.00    -0.248 NA
ATOM     35  C   UNL     1      10.596  -1.145  -6.579  1.00  0.00     0.031 C 
ATOM     36  C   UNL     1       9.355  -3.391  -2.246  1.00  0.00     0.029 A 
ATOM     37  N   UNL     1      10.348  -4.644  -3.807  1.00  0.00    -0.354 N 
ATOM     38  C   UNL     1      11.437  -2.994  -7.639  1.00  0.00     0.074 A 
ATOM     39  C   UNL     1      11.093  -1.590  -7.726  1.00  0.00     0.031 C 
ATOM     40  C   UNL     1       9.465  -4.634  -1.752  1.00  0.00     0.029 A 
ATOM     41  C   UNL     1      10.074  -5.494  -2.761  1.00  0.00     0.049 A 
ATOM     42  H   UNL     1      10.801  -4.934  -4.632  1.00  0.00     0.167 HD
ATOM     43  C   UNL     1      12.029  -3.703  -8.630  1.00  0.00     0.037 A 
ATOM     44  C   UNL     1      10.267  -6.821  -2.634  1.00  0.00     0.037 A 
ATOM     45  C   UNL     1      12.389  -5.095  -8.535  1.00  0.00     0.049 A 
ATOM     46  C   UNL     1      10.895  -7.584  -3.768  1.00  0.00     0.074 A 
ATOM     47  C   UNL     1      13.062  -5.873  -9.461  1.00  0.00     0.029 A 
ATOM     48  N   UNL     1      12.094  -5.919  -7.461  1.00  0.00    -0.354 N 
ATOM     49  N   UNL     1      11.331  -7.141  -4.922  1.00  0.00    -0.248 NA
ATOM     50  C   UNL     1      11.058  -9.033  -3.582  1.00  0.00     0.031 C 
ATOM     51  C   UNL     1      13.120  -7.183  -8.975  1.00  0.00     0.029 A 
ATOM     52  C   UNL     1      12.535  -7.208  -7.720  1.00  0.00     0.049 A 
ATOM     53  H   UNL     1      11.640  -5.633  -6.636  1.00  0.00     0.167 HD
ATOM     54  C   UNL     1      11.838  -8.250  -5.587  1.00  0.00     0.074 A 
ATOM     55  C   UNL     1      11.682  -9.381  -4.697  1.00  0.00     0.031 C 
ATOM     56  C   UNL     1      12.378  -8.326  -6.827  1.00  0.00     0.037 A 
BRANCH  43  57
ATOM     57  C   UNL     1      12.336  -2.997  -9.919  1.00  0.00     0.057 A 
ATOM     58  C   UNL     1      13.373  -2.061 -10.021  1.00  0.00     0.134 A 
ATOM     59  C   UNL     1      11.652  -3.334 -11.095  1.00  0.00     0.134 A 
ATOM     60  F   UNL     1      14.064  -1.691  -8.933  1.00  0.00    -0.206 F 
ATOM     61  C   UNL     1      13.714  -1.480 -11.245  1.00  0.00     0.040 A 
ATOM     62  C   UNL     1      12.000  -2.779 -12.328  1.00  0.00     0.040 A 
ATOM     63  F   UNL     1      10.655  -4.231 -11.070  1.00  0.00    -0.206 F 
ATOM     64  C   UNL     1      13.034  -1.848 -12.404  1.00  0.00     0.006 A 
ENDBRANCH  43  57
BRANCH  44  65
ATOM     65  C   UNL     1       9.842  -7.530  -1.398  1.00  0.00     0.057 A 
ATOM     66  C   UNL     1      10.779  -8.124  -0.544  1.00  0.00     0.134 A 
ATOM     67  C   UNL     1       8.489  -7.675  -1.068  1.00  0.00     0.134 A 
ATOM     68  F   UNL     1      12.090  -8.039  -0.817  1.00  0.00    -0.206 F 
ATOM     69  C   UNL     1      10.386  -8.866   0.571  1.00  0.00     0.040 A 
ATOM     70  C   UNL     1       8.083  -8.386   0.062  1.00  0.00     0.040 A 
ATOM     71  F   UNL     1       7.539  -7.124  -1.839  1.00  0.00    -0.206 F 
ATOM     72  C   UNL     1       9.034  -8.996   0.878  1.00  0.00     0.006 A 
ENDBRANCH  44  65
BRANCH  56  73
ATOM     73  C   UNL     1      12.861  -9.672  -7.286  1.00  0.00     0.057 A 
ATOM     74  C   UNL     1      11.972 -10.707  -7.603  1.00  0.00     0.134 A 
ATOM     75  C   UNL     1      14.230  -9.926  -7.444  1.00  0.00     0.134 A 
ATOM     76  F   UNL     1      10.649 -10.534  -7.460  1.00  0.00    -0.206 F 
ATOM     77  C   UNL     1      12.427 -11.953  -8.036  1.00  0.00     0.040 A 
ATOM     78  C   UNL     1      14.695 -11.158  -7.905  1.00  0.00     0.040 A 
ATOM     79  F   UNL     1      15.136  -8.977  -7.166  1.00  0.00    -0.206 F 
ATOM     80  C   UNL     1      13.793 -12.179  -8.195  1.00  0.00     0.006 A 
ENDBRANCH  56  73
ENDBRANCH  30  31
ENDBRANCH  22  25
ENDBRANCH  20  21
ENDBRANCH   1  20
TORSDOF 11
