REMARK SMILES CC(C)Cc1cc2c(cc1Cl)C=C(C(=O)NCCCNC(=O)c1ccc(-c3c4nc(c(-c5c(F)cccc5F)c5ccc([nH]5)c(-c5c(F)cccc5F)c5nc(c(-c6c(F)cccc6F)c6ccc3[nH]6)C=C5)C=C4)cc1)[C@@H](C(F)(F)F)O2
REMARK SMILES IDX 18 1 17 2 16 3 14 4 15 5 13 7 5 8 6 9 10 10 7 11 9 12 11 13
REMARK SMILES IDX 8 14 82 15 12 16 77 17 4 18 2 19 1 20 3 21 78 22 79 23 80 24
REMARK SMILES IDX 81 25 19 26 20 27 21 28 22 30 23 31 24 32 76 33 25 34 75 35
REMARK SMILES IDX 26 36 27 37 28 38 69 39 29 40 74 41 68 42 70 43 30 44 73 45
REMARK SMILES IDX 67 46 66 47 31 49 57 50 40 51 56 52 41 53 44 54 55 55 71 56
REMARK SMILES IDX 42 57 43 58 54 60 72 61 45 62 32 63 33 64 38 65 34 66 35 67
REMARK SMILES IDX 37 68 39 69 36 70 58 71 59 72 64 73 60 74 61 75 63 76 65 77
REMARK SMILES IDX 62 78 46 79 47 80 52 81 48 82 49 83 51 84 53 85 50 86
REMARK H PARENT 16 6 20 29 70 48 44 59
REMARK Flexibility Score: inf
ROOT
ATOM      1  C   UNL     1      -3.350  -2.271   7.839  1.00  0.00     0.042 C 
ENDROOT
BRANCH   1   2
ATOM      2  C   UNL     1      -4.383  -1.423   7.115  1.00  0.00     0.118 C 
BRANCH   2   3
ATOM      3  N   UNL     1      -4.098  -0.001   7.234  1.00  0.00    -0.352 N 
ATOM      4  C   UNL     1      -3.623   0.988   6.442  1.00  0.00     0.251 C 
ATOM      5  O   UNL     1      -3.530   2.094   6.985  1.00  0.00    -0.270 OA
ATOM      6  H   UNL     1      -4.307   0.332   8.136  1.00  0.00     0.163 HD
BRANCH   4   7
ATOM      7  C   UNL     1      -3.217   0.828   5.017  1.00  0.00     0.067 C 
ATOM      8  C   UNL     1      -1.375   1.567   0.375  1.00  0.00    -0.025 A 
ATOM      9  C   UNL     1      -1.750   0.442   1.125  1.00  0.00     0.052 A 
ATOM     10  C   UNL     1      -1.487   2.834   0.970  1.00  0.00     0.045 A 
ATOM     11  C   UNL     1      -2.198   0.579   2.433  1.00  0.00     0.128 A 
ATOM     12  C   UNL     1      -1.948   2.967   2.287  1.00  0.00     0.032 A 
ATOM     13  Cl  UNL     1      -1.048   4.277   0.128  1.00  0.00    -0.084 Cl
ATOM     14  C   UNL     1      -2.298   1.835   3.027  1.00  0.00     0.019 A 
ATOM     15  O   UNL     1      -2.467  -0.578   3.103  1.00  0.00    -0.475 OA
ATOM     16  C   UNL     1      -2.715   1.926   4.421  1.00  0.00     0.025 C 
ATOM     17  C   UNL     1      -3.358  -0.451   4.241  1.00  0.00     0.314 C 
BRANCH   8  18
ATOM     18  C   UNL     1      -0.811   1.337  -1.008  1.00  0.00     0.040 C 
BRANCH  18  19
ATOM     19  C   UNL     1       0.729   1.244  -1.034  1.00  0.00    -0.013 C 
ATOM     20  C   UNL     1       1.270   0.086  -0.188  1.00  0.00     0.008 C 
ATOM     21  C   UNL     1       1.207   1.080  -2.478  1.00  0.00     0.008 C 
ENDBRANCH  18  19
ENDBRANCH   8  18
BRANCH  17  22
ATOM     22  C   UNL     1      -4.805  -0.714   3.779  1.00  0.00     0.429 C 
ATOM     23  F   UNL     1      -4.958  -2.018   3.437  1.00  0.00    -0.167 F 
ATOM     24  F   UNL     1      -5.715  -0.462   4.749  1.00  0.00    -0.167 F 
ATOM     25  F   UNL     1      -5.157   0.031   2.708  1.00  0.00    -0.167 F 
ENDBRANCH  17  22
ENDBRANCH   4   7
ENDBRANCH   2   3
ENDBRANCH   1   2
BRANCH   1  26
ATOM     26  C   UNL     1      -3.574  -2.291   9.345  1.00  0.00     0.118 C 
BRANCH  26  27
ATOM     27  N   UNL     1      -4.812  -2.979   9.706  1.00  0.00    -0.352 N 
ATOM     28  C   UNL     1      -5.015  -4.186  10.329  1.00  0.00     0.251 C 
ATOM     29  H   UNL     1      -5.636  -2.498   9.463  1.00  0.00     0.163 HD
ATOM     30  O   UNL     1      -6.133  -4.696  10.321  1.00  0.00    -0.269 OA
BRANCH  28  31
ATOM     31  C   UNL     1      -3.893  -4.879  10.992  1.00  0.00     0.039 A 
ATOM     32  C   UNL     1      -2.950  -4.153  11.718  1.00  0.00     0.014 A 
ATOM     33  C   UNL     1      -3.784  -6.270  10.898  1.00  0.00     0.014 A 
ATOM     34  C   UNL     1      -1.799  -4.781  12.170  1.00  0.00     0.010 A 
ATOM     35  C   UNL     1      -2.679  -6.918  11.459  1.00  0.00     0.010 A 
ATOM     36  C   UNL     1      -1.651  -6.172  12.055  1.00  0.00    -0.014 A 
BRANCH  36  37
ATOM     37  C   UNL     1      -0.409  -6.805  12.569  1.00  0.00     0.031 A 
ATOM     38  C   UNL     1       0.532  -7.522  11.639  1.00  0.00     0.074 A 
ATOM     39  C   UNL     1      -0.092  -6.655  13.870  1.00  0.00     0.049 A 
ATOM     40  N   UNL     1       1.670  -8.111  11.911  1.00  0.00    -0.248 NA
ATOM     41  C   UNL     1       0.148  -7.594  10.220  1.00  0.00     0.031 C 
ATOM     42  C   UNL     1      -0.919  -5.969  14.867  1.00  0.00     0.029 A 
ATOM     43  N   UNL     1       1.022  -7.035  14.572  1.00  0.00    -0.354 N 
ATOM     44  C   UNL     1       2.127  -8.634  10.707  1.00  0.00     0.074 A 
ATOM     45  C   UNL     1       1.130  -8.322   9.706  1.00  0.00     0.031 C 
ATOM     46  C   UNL     1      -0.257  -5.921  16.032  1.00  0.00     0.029 A 
ATOM     47  C   UNL     1       1.005  -6.636  15.886  1.00  0.00     0.049 A 
ATOM     48  H   UNL     1       1.764  -7.544  14.172  1.00  0.00     0.167 HD
ATOM     49  C   UNL     1       3.280  -9.299  10.456  1.00  0.00     0.037 A 
ATOM     50  C   UNL     1       1.896  -6.841  16.872  1.00  0.00     0.037 A 
ATOM     51  C   UNL     1       4.279  -9.594  11.451  1.00  0.00     0.049 A 
ATOM     52  C   UNL     1       3.142  -7.622  16.572  1.00  0.00     0.074 A 
ATOM     53  C   UNL     1       5.477 -10.271  11.299  1.00  0.00     0.029 A 
ATOM     54  N   UNL     1       4.198  -9.220  12.784  1.00  0.00    -0.354 N 
ATOM     55  N   UNL     1       3.551  -8.120  15.431  1.00  0.00    -0.248 NA
ATOM     56  C   UNL     1       4.043  -7.881  17.703  1.00  0.00     0.031 C 
ATOM     57  C   UNL     1       6.107 -10.333  12.547  1.00  0.00     0.029 A 
ATOM     58  C   UNL     1       5.319  -9.661  13.468  1.00  0.00     0.049 A 
ATOM     59  H   UNL     1       3.454  -8.715  13.185  1.00  0.00     0.167 HD
ATOM     60  C   UNL     1       4.760  -8.743  15.703  1.00  0.00     0.074 A 
ATOM     61  C   UNL     1       5.033  -8.532  17.110  1.00  0.00     0.031 C 
ATOM     62  C   UNL     1       5.569  -9.439  14.868  1.00  0.00     0.037 A 
BRANCH  49  63
ATOM     63  C   UNL     1       3.520  -9.764   9.049  1.00  0.00     0.057 A 
ATOM     64  C   UNL     1       3.455 -11.124   8.722  1.00  0.00     0.134 A 
ATOM     65  C   UNL     1       3.856  -8.869   8.024  1.00  0.00     0.134 A 
ATOM     66  F   UNL     1       3.143 -12.035   9.656  1.00  0.00    -0.206 F 
ATOM     67  C   UNL     1       3.721 -11.579   7.429  1.00  0.00     0.040 A 
ATOM     68  C   UNL     1       4.102  -9.309   6.722  1.00  0.00     0.040 A 
ATOM     69  F   UNL     1       3.920  -7.551   8.267  1.00  0.00    -0.206 F 
ATOM     70  C   UNL     1       4.042 -10.669   6.423  1.00  0.00     0.006 A 
ENDBRANCH  49  63
BRANCH  50  71
ATOM     71  C   UNL     1       1.631  -6.331  18.241  1.00  0.00     0.057 A 
ATOM     72  C   UNL     1       0.599  -6.861  19.026  1.00  0.00     0.134 A 
ATOM     73  C   UNL     1       2.422  -5.326  18.808  1.00  0.00     0.134 A 
ATOM     74  F   UNL     1      -0.199  -7.822  18.537  1.00  0.00    -0.206 F 
ATOM     75  C   UNL     1       0.360  -6.407  20.323  1.00  0.00     0.040 A 
ATOM     76  C   UNL     1       2.214  -4.884  20.116  1.00  0.00     0.040 A 
ATOM     77  F   UNL     1       3.438  -4.793  18.113  1.00  0.00    -0.206 F 
ATOM     78  C   UNL     1       1.177  -5.423  20.875  1.00  0.00     0.006 A 
ENDBRANCH  50  71
BRANCH  62  79
ATOM     79  C   UNL     1       6.828  -9.995  15.462  1.00  0.00     0.057 A 
ATOM     80  C   UNL     1       8.071  -9.424  15.164  1.00  0.00     0.134 A 
ATOM     81  C   UNL     1       6.808 -11.091  16.334  1.00  0.00     0.134 A 
ATOM     82  F   UNL     1       8.157  -8.375  14.331  1.00  0.00    -0.206 F 
ATOM     83  C   UNL     1       9.251  -9.920  15.718  1.00  0.00     0.040 A 
ATOM     84  C   UNL     1       7.979 -11.579  16.915  1.00  0.00     0.040 A 
ATOM     85  F   UNL     1       5.646 -11.669  16.673  1.00  0.00    -0.206 F 
ATOM     86  C   UNL     1       9.205 -10.995  16.604  1.00  0.00     0.006 A 
ENDBRANCH  62  79
ENDBRANCH  36  37
ENDBRANCH  28  31
ENDBRANCH  26  27
ENDBRANCH   1  26
TORSDOF 13
