REMARK SMILES Cc1cc(Br)cc2c1O[C@H](C(F)(F)F)C(C(=O)NCCCNC(=O)c1ccc(-c3c4nc(c(-c5c(F)cccc5F)c5ccc([nH]5)c(-c5c(F)cccc5F)c5nc(c(-c6c(F)cccc6F)c6ccc3[nH]6)C=C5)C=C4)cc1)=C2
REMARK SMILES IDX 20 1 19 2 18 3 16 4 17 5 15 7 1 8 2 9 3 10 8 11 4 12 7 13
REMARK SMILES IDX 9 14 5 15 6 16 79 17 10 18 11 19 12 20 13 21 14 22 21 23
REMARK SMILES IDX 22 24 23 25 24 27 25 28 26 29 78 30 27 31 77 32 28 33 29 34
REMARK SMILES IDX 30 35 71 36 31 37 76 38 70 39 72 40 32 41 75 42 69 43 68 44
REMARK SMILES IDX 33 46 59 47 42 48 58 49 43 50 46 51 57 52 73 53 44 54 45 55
REMARK SMILES IDX 56 57 74 58 47 59 34 60 35 61 40 62 36 63 37 64 39 65 41 66
REMARK SMILES IDX 38 67 60 68 61 69 66 70 62 71 63 72 65 73 67 74 64 75 48 76
REMARK SMILES IDX 49 77 54 78 50 79 51 80 53 81 55 82 52 83
REMARK H PARENT 18 6 22 26 72 45 46 56
REMARK Flexibility Score: inf
ROOT
ATOM      1  C   UNL     1      -6.013  -0.542   2.207  1.00  0.00     0.042 C 
ENDROOT
BRANCH   1   2
ATOM      2  C   UNL     1      -5.791   0.144   0.868  1.00  0.00     0.118 C 
BRANCH   2   3
ATOM      3  N   UNL     1      -5.691   1.589   1.010  1.00  0.00    -0.352 N 
ATOM      4  C   UNL     1      -4.723   2.531   0.939  1.00  0.00     0.251 C 
ATOM      5  O   UNL     1      -5.103   3.688   1.147  1.00  0.00    -0.270 OA
ATOM      6  H   UNL     1      -6.567   1.990   1.214  1.00  0.00     0.163 HD
BRANCH   4   7
ATOM      7  C   UNL     1      -3.287   2.266   0.639  1.00  0.00     0.067 C 
ATOM      8  C   UNL     1       1.359   0.221  -0.057  1.00  0.00     0.048 C 
ATOM      9  C   UNL     1       0.823   1.620   0.048  1.00  0.00    -0.007 A 
ATOM     10  C   UNL     1       1.664   2.722  -0.147  1.00  0.00     0.023 A 
ATOM     11  C   UNL     1      -0.537   1.846   0.300  1.00  0.00     0.130 A 
ATOM     12  C   UNL     1       1.150   4.017  -0.066  1.00  0.00     0.019 A 
ATOM     13  C   UNL     1      -1.054   3.144   0.383  1.00  0.00     0.019 A 
ATOM     14  O   UNL     1      -1.321   0.746   0.507  1.00  0.00    -0.475 OA
ATOM     15  Br  UNL     1       2.303   5.495  -0.317  1.00  0.00    -0.051 Br
ATOM     16  C   UNL     1      -0.202   4.236   0.202  1.00  0.00     0.027 A 
ATOM     17  C   UNL     1      -2.467   3.332   0.689  1.00  0.00     0.025 C 
ATOM     18  C   UNL     1      -2.742   0.918   0.269  1.00  0.00     0.314 C 
BRANCH  18  19
ATOM     19  C   UNL     1      -3.069   0.518  -1.183  1.00  0.00     0.429 C 
ATOM     20  F   UNL     1      -2.911  -0.819  -1.349  1.00  0.00    -0.167 F 
ATOM     21  F   UNL     1      -4.351   0.796  -1.523  1.00  0.00    -0.167 F 
ATOM     22  F   UNL     1      -2.281   1.136  -2.089  1.00  0.00    -0.167 F 
ENDBRANCH  18  19
ENDBRANCH   4   7
ENDBRANCH   2   3
ENDBRANCH   1   2
BRANCH   1  23
ATOM     23  C   UNL     1      -7.455  -0.417   2.680  1.00  0.00     0.118 C 
BRANCH  23  24
ATOM     24  N   UNL     1      -8.377  -1.130   1.798  1.00  0.00    -0.352 N 
ATOM     25  C   UNL     1      -9.006  -2.338   1.966  1.00  0.00     0.251 C 
ATOM     26  H   UNL     1      -8.578  -0.672   0.950  1.00  0.00     0.163 HD
ATOM     27  O   UNL     1      -9.515  -2.905   1.002  1.00  0.00    -0.269 OA
BRANCH  25  28
ATOM     28  C   UNL     1      -9.066  -2.957   3.303  1.00  0.00     0.039 A 
ATOM     29  C   UNL     1      -8.879  -4.335   3.432  1.00  0.00     0.014 A 
ATOM     30  C   UNL     1      -9.329  -2.172   4.428  1.00  0.00     0.014 A 
ATOM     31  C   UNL     1      -8.884  -4.912   4.703  1.00  0.00     0.010 A 
ATOM     32  C   UNL     1      -9.234  -2.729   5.695  1.00  0.00     0.010 A 
ATOM     33  C   UNL     1      -9.024  -4.106   5.845  1.00  0.00    -0.014 A 
BRANCH  33  34
ATOM     34  C   UNL     1      -8.980  -4.683   7.209  1.00  0.00     0.031 A 
ATOM     35  C   UNL     1     -10.188  -4.587   8.099  1.00  0.00     0.074 A 
ATOM     36  C   UNL     1      -7.837  -5.231   7.664  1.00  0.00     0.049 A 
ATOM     37  N   UNL     1     -10.327  -4.963   9.344  1.00  0.00    -0.248 NA
ATOM     38  C   UNL     1     -11.390  -3.959   7.524  1.00  0.00     0.031 C 
ATOM     39  C   UNL     1      -6.589  -5.337   6.906  1.00  0.00     0.029 A 
ATOM     40  N   UNL     1      -7.540  -5.801   8.875  1.00  0.00    -0.354 N 
ATOM     41  C   UNL     1     -11.622  -4.610   9.700  1.00  0.00     0.074 A 
ATOM     42  C   UNL     1     -12.206  -3.929   8.567  1.00  0.00     0.031 C 
ATOM     43  C   UNL     1      -5.673  -5.971   7.655  1.00  0.00     0.029 A 
ATOM     44  C   UNL     1      -6.254  -6.279   8.957  1.00  0.00     0.049 A 
ATOM     45  H   UNL     1      -8.186  -5.862   9.615  1.00  0.00     0.167 HD
ATOM     46  C   UNL     1     -12.278  -4.863  10.855  1.00  0.00     0.037 A 
ATOM     47  C   UNL     1      -5.619  -6.898   9.970  1.00  0.00     0.037 A 
ATOM     48  C   UNL     1     -11.701  -5.570  11.967  1.00  0.00     0.049 A 
ATOM     49  C   UNL     1      -6.364  -7.152  11.252  1.00  0.00     0.074 A 
ATOM     50  C   UNL     1     -12.297  -5.922  13.164  1.00  0.00     0.029 A 
ATOM     51  N   UNL     1     -10.396  -6.036  12.012  1.00  0.00    -0.354 N 
ATOM     52  N   UNL     1      -7.606  -6.862  11.555  1.00  0.00    -0.248 NA
ATOM     53  C   UNL     1      -5.621  -7.818  12.331  1.00  0.00     0.031 C 
ATOM     54  C   UNL     1     -11.339  -6.566  13.952  1.00  0.00     0.029 A 
ATOM     55  C   UNL     1     -10.161  -6.655  13.227  1.00  0.00     0.049 A 
ATOM     56  H   UNL     1      -9.735  -5.940  11.289  1.00  0.00     0.167 HD
ATOM     57  C   UNL     1      -7.801  -7.328  12.848  1.00  0.00     0.074 A 
ATOM     58  C   UNL     1      -6.553  -7.934  13.267  1.00  0.00     0.031 C 
ATOM     59  C   UNL     1      -8.912  -7.258  13.621  1.00  0.00     0.037 A 
BRANCH  46  60
ATOM     60  C   UNL     1     -13.699  -4.397  10.965  1.00  0.00     0.057 A 
ATOM     61  C   UNL     1     -14.729  -5.000  10.230  1.00  0.00     0.134 A 
ATOM     62  C   UNL     1     -14.053  -3.369  11.848  1.00  0.00     0.134 A 
ATOM     63  F   UNL     1     -14.455  -5.981   9.357  1.00  0.00    -0.206 F 
ATOM     64  C   UNL     1     -16.055  -4.586  10.355  1.00  0.00     0.040 A 
ATOM     65  C   UNL     1     -15.381  -2.964  12.001  1.00  0.00     0.040 A 
ATOM     66  F   UNL     1     -13.118  -2.750  12.584  1.00  0.00    -0.206 F 
ATOM     67  C   UNL     1     -16.385  -3.571  11.250  1.00  0.00     0.006 A 
ENDBRANCH  46  60
BRANCH  47  68
ATOM     68  C   UNL     1      -4.219  -7.357   9.794  1.00  0.00     0.057 A 
ATOM     69  C   UNL     1      -3.919  -8.721   9.694  1.00  0.00     0.134 A 
ATOM     70  C   UNL     1      -3.153  -6.455   9.700  1.00  0.00     0.134 A 
ATOM     71  F   UNL     1      -4.896  -9.635   9.792  1.00  0.00    -0.206 F 
ATOM     72  C   UNL     1      -2.611  -9.172   9.515  1.00  0.00     0.040 A 
ATOM     73  C   UNL     1      -1.842  -6.891   9.498  1.00  0.00     0.040 A 
ATOM     74  F   UNL     1      -3.374  -5.135   9.778  1.00  0.00    -0.206 F 
ATOM     75  C   UNL     1      -1.568  -8.254   9.410  1.00  0.00     0.006 A 
ENDBRANCH  47  68
BRANCH  59  76
ATOM     76  C   UNL     1      -8.843  -7.862  14.992  1.00  0.00     0.057 A 
ATOM     77  C   UNL     1      -8.143  -7.240  16.032  1.00  0.00     0.134 A 
ATOM     78  C   UNL     1      -9.557  -9.028  15.294  1.00  0.00     0.134 A 
ATOM     79  F   UNL     1      -7.432  -6.126  15.803  1.00  0.00    -0.206 F 
ATOM     80  C   UNL     1      -8.149  -7.762  17.326  1.00  0.00     0.040 A 
ATOM     81  C   UNL     1      -9.592  -9.545  16.589  1.00  0.00     0.040 A 
ATOM     82  F   UNL     1     -10.258  -9.665  14.343  1.00  0.00    -0.206 F 
ATOM     83  C   UNL     1      -8.885  -8.912  17.609  1.00  0.00     0.006 A 
ENDBRANCH  59  76
ENDBRANCH  33  34
ENDBRANCH  25  28
ENDBRANCH  23  24
ENDBRANCH   1  23
TORSDOF 11
