REMARK SMILES COCc1cc(N2CCCC[C@H]2C(=O)NCCCNC(=O)c2ccc(-c3c4nc(c(-c5c(F)cccc5F)c5ccc([nH]5)c(-c5c(F)cccc5F)c5nc(c(-c6c(F)cccc6F)c6ccc3[nH]6)C=C5)C=C4)cc2)nc(-c2ccc(Cl)cc2)n1
REMARK SMILES IDX 16 1 15 2 13 3 14 4 12 6 7 7 8 8 9 9 11 10 10 11 6 12 4 13
REMARK SMILES IDX 5 14 85 15 77 16 76 17 3 18 2 19 1 20 78 21 79 22 84 23
REMARK SMILES IDX 80 24 83 25 81 26 82 27 17 28 18 29 19 30 20 31 21 33 22 34
REMARK SMILES IDX 23 35 75 36 24 37 74 38 25 39 26 40 27 41 68 42 28 43 73 44
REMARK SMILES IDX 67 45 69 46 29 47 72 48 66 49 65 50 30 52 56 53 39 54 55 55
REMARK SMILES IDX 40 56 43 57 54 58 70 59 41 60 42 61 53 63 71 64 44 65 31 66
REMARK SMILES IDX 32 67 37 68 33 69 34 70 36 71 38 72 35 73 57 74 58 75 63 76
REMARK SMILES IDX 59 77 60 78 62 79 64 80 61 81 45 82 46 83 51 84 47 85 48 86
REMARK SMILES IDX 50 87 52 88 49 89
REMARK H PARENT 15 5 19 32 69 51 43 62
REMARK Flexibility Score: inf
ROOT
ATOM      1  C   UNL     1       0.324  -1.600   2.936  1.00  0.00     0.117 C 
ENDROOT
BRANCH   1   2
ATOM      2  N   UNL     1      -0.976  -1.211   3.450  1.00  0.00    -0.354 N 
ATOM      3  C   UNL     1      -1.429  -0.036   3.974  1.00  0.00     0.242 C 
ATOM      4  O   UNL     1      -2.580  -0.049   4.421  1.00  0.00    -0.273 OA
ATOM      5  H   UNL     1      -1.653  -1.924   3.413  1.00  0.00     0.163 HD
BRANCH   3   6
ATOM      6  C   UNL     1      -0.537   1.226   3.989  1.00  0.00     0.173 C 
ATOM      7  N   UNL     1      -1.207   2.353   3.322  1.00  0.00    -0.344 N 
ATOM      8  C   UNL     1      -2.294   3.042   4.003  1.00  0.00     0.119 C 
ATOM      9  C   UNL     1      -1.886   3.443   5.416  1.00  0.00     0.022 C 
ATOM     10  C   UNL     1      -0.148   1.616   5.421  1.00  0.00     0.035 C 
ATOM     11  C   UNL     1      -1.289   2.273   6.195  1.00  0.00     0.004 C 
BRANCH   7  12
ATOM     12  C   UNL     1      -0.618   2.930   2.215  1.00  0.00     0.133 A 
ATOM     13  C   UNL     1       0.340   2.725   0.053  1.00  0.00     0.072 A 
ATOM     14  C   UNL     1      -0.311   2.141   1.121  1.00  0.00     0.073 A 
ATOM     15  N   UNL     1       0.633   4.039   0.046  1.00  0.00    -0.230 NA
ATOM     16  C   UNL     1       0.270   4.743   1.135  1.00  0.00     0.161 A 
ATOM     17  N   UNL     1      -0.335   4.241   2.226  1.00  0.00    -0.211 NA
BRANCH  13  18
ATOM     18  C   UNL     1       0.771   1.923  -1.156  1.00  0.00     0.216 C 
BRANCH  18  19
ATOM     19  O   UNL     1       0.435   0.532  -1.088  1.00  0.00    -0.378 OA
ATOM     20  C   UNL     1       1.442  -0.253  -0.465  1.00  0.00     0.195 C 
ENDBRANCH  18  19
ENDBRANCH  13  18
BRANCH  16  21
ATOM     21  C   UNL     1       0.583   6.174   1.124  1.00  0.00     0.019 A 
ATOM     22  C   UNL     1       0.056   7.014   0.127  1.00  0.00     0.013 A 
ATOM     23  C   UNL     1       1.435   6.741   2.088  1.00  0.00     0.013 A 
ATOM     24  C   UNL     1       0.368   8.377   0.092  1.00  0.00     0.021 A 
ATOM     25  C   UNL     1       1.762   8.101   2.047  1.00  0.00     0.021 A 
ATOM     26  C   UNL     1       1.225   8.912   1.050  1.00  0.00     0.041 A 
ATOM     27  Cl  UNL     1       1.627  10.584   0.998  1.00  0.00    -0.084 Cl
ENDBRANCH  16  21
ENDBRANCH   7  12
ENDBRANCH   3   6
ENDBRANCH   1   2
BRANCH   1  28
ATOM     28  C   UNL     1       0.958  -2.708   3.770  1.00  0.00     0.042 C 
BRANCH  28  29
ATOM     29  C   UNL     1       0.135  -3.991   3.855  1.00  0.00     0.118 C 
BRANCH  29  30
ATOM     30  N   UNL     1      -0.082  -4.620   2.561  1.00  0.00    -0.352 N 
ATOM     31  C   UNL     1       0.203  -5.897   2.137  1.00  0.00     0.251 C 
ATOM     32  H   UNL     1      -0.496  -4.041   1.882  1.00  0.00     0.163 HD
ATOM     33  O   UNL     1       0.079  -6.182   0.951  1.00  0.00    -0.269 OA
BRANCH  31  34
ATOM     34  C   UNL     1       0.686  -6.919   3.092  1.00  0.00     0.039 A 
ATOM     35  C   UNL     1       1.726  -7.765   2.698  1.00  0.00     0.014 A 
ATOM     36  C   UNL     1       0.115  -7.061   4.360  1.00  0.00     0.014 A 
ATOM     37  C   UNL     1       2.244  -8.698   3.600  1.00  0.00     0.010 A 
ATOM     38  C   UNL     1       0.684  -7.935   5.284  1.00  0.00     0.010 A 
ATOM     39  C   UNL     1       1.756  -8.761   4.916  1.00  0.00    -0.014 A 
BRANCH  39  40
ATOM     40  C   UNL     1       2.364  -9.675   5.919  1.00  0.00     0.031 A 
ATOM     41  C   UNL     1       1.550 -10.779   6.536  1.00  0.00     0.074 A 
ATOM     42  C   UNL     1       3.635  -9.474   6.320  1.00  0.00     0.049 A 
ATOM     43  N   UNL     1       1.884 -11.629   7.474  1.00  0.00    -0.248 NA
ATOM     44  C   UNL     1       0.170 -10.937   6.050  1.00  0.00     0.031 C 
ATOM     45  C   UNL     1       4.521  -8.416   5.829  1.00  0.00     0.029 A 
ATOM     46  N   UNL     1       4.402 -10.146   7.239  1.00  0.00    -0.354 N 
ATOM     47  C   UNL     1       0.759 -12.413   7.695  1.00  0.00     0.074 A 
ATOM     48  C   UNL     1      -0.286 -11.902   6.834  1.00  0.00     0.031 C 
ATOM     49  C   UNL     1       5.716  -8.526   6.431  1.00  0.00     0.029 A 
ATOM     50  C   UNL     1       5.669  -9.631   7.383  1.00  0.00     0.049 A 
ATOM     51  H   UNL     1       4.076 -10.923   7.747  1.00  0.00     0.167 HD
ATOM     52  C   UNL     1       0.616 -13.479   8.519  1.00  0.00     0.037 A 
ATOM     53  C   UNL     1       6.675 -10.001   8.198  1.00  0.00     0.037 A 
ATOM     54  C   UNL     1       1.660 -13.995   9.365  1.00  0.00     0.049 A 
ATOM     55  C   UNL     1       6.477 -11.165   9.130  1.00  0.00     0.074 A 
ATOM     56  C   UNL     1       1.623 -15.095  10.206  1.00  0.00     0.029 A 
ATOM     57  N   UNL     1       2.929 -13.448   9.480  1.00  0.00    -0.354 N 
ATOM     58  N   UNL     1       5.426 -11.934   9.283  1.00  0.00    -0.248 NA
ATOM     59  C   UNL     1       7.608 -11.516  10.001  1.00  0.00     0.031 C 
ATOM     60  C   UNL     1       2.853 -15.183  10.866  1.00  0.00     0.029 A 
ATOM     61  C   UNL     1       3.675 -14.174  10.395  1.00  0.00     0.049 A 
ATOM     62  H   UNL     1       3.251 -12.660   8.986  1.00  0.00     0.167 HD
ATOM     63  C   UNL     1       5.782 -12.878  10.238  1.00  0.00     0.074 A 
ATOM     64  C   UNL     1       7.149 -12.595  10.618  1.00  0.00     0.031 C 
ATOM     65  C   UNL     1       5.042 -13.890  10.754  1.00  0.00     0.037 A 
BRANCH  52  66
ATOM     66  C   UNL     1      -0.720 -14.165   8.541  1.00  0.00     0.057 A 
ATOM     67  C   UNL     1      -1.180 -14.918   7.453  1.00  0.00     0.134 A 
ATOM     68  C   UNL     1      -1.534 -14.114   9.680  1.00  0.00     0.134 A 
ATOM     69  F   UNL     1      -0.454 -15.000   6.327  1.00  0.00    -0.206 F 
ATOM     70  C   UNL     1      -2.411 -15.575   7.486  1.00  0.00     0.040 A 
ATOM     71  C   UNL     1      -2.755 -14.790   9.736  1.00  0.00     0.040 A 
ATOM     72  F   UNL     1      -1.152 -13.418  10.761  1.00  0.00    -0.206 F 
ATOM     73  C   UNL     1      -3.199 -15.518   8.634  1.00  0.00     0.006 A 
ENDBRANCH  52  66
BRANCH  53  74
ATOM     74  C   UNL     1       7.972  -9.275   8.167  1.00  0.00     0.057 A 
ATOM     75  C   UNL     1       9.137  -9.899   7.704  1.00  0.00     0.134 A 
ATOM     76  C   UNL     1       8.087  -7.958   8.628  1.00  0.00     0.134 A 
ATOM     77  F   UNL     1       9.096 -11.166   7.267  1.00  0.00    -0.206 F 
ATOM     78  C   UNL     1      10.373  -9.252   7.728  1.00  0.00     0.040 A 
ATOM     79  C   UNL     1       9.312  -7.289   8.630  1.00  0.00     0.040 A 
ATOM     80  F   UNL     1       7.008  -7.301   9.077  1.00  0.00    -0.206 F 
ATOM     81  C   UNL     1      10.462  -7.940   8.190  1.00  0.00     0.006 A 
ENDBRANCH  53  74
BRANCH  65  82
ATOM     82  C   UNL     1       5.710 -14.796  11.748  1.00  0.00     0.057 A 
ATOM     83  C   UNL     1       6.027 -14.372  13.044  1.00  0.00     0.134 A 
ATOM     84  C   UNL     1       6.009 -16.123  11.411  1.00  0.00     0.134 A 
ATOM     85  F   UNL     1       5.780 -13.110  13.427  1.00  0.00    -0.206 F 
ATOM     86  C   UNL     1       6.641 -15.227  13.962  1.00  0.00     0.040 A 
ATOM     87  C   UNL     1       6.594 -16.995  12.329  1.00  0.00     0.040 A 
ATOM     88  F   UNL     1       5.723 -16.597  10.189  1.00  0.00    -0.206 F 
ATOM     89  C   UNL     1       6.919 -16.546  13.606  1.00  0.00     0.006 A 
ENDBRANCH  65  82
ENDBRANCH  39  40
ENDBRANCH  31  34
ENDBRANCH  29  30
ENDBRANCH  28  29
ENDBRANCH   1  28
TORSDOF 14
