REMARK SMILES Cc1onc2c(=O)n(C)nc(C(=O)NCCCNC(=O)c3ccc(-c4c5nc(c(-c6c(F)cccc6F)c6ccc([nH]6)c(-c6c(F)cccc6F)c6nc(c(-c7c(F)cccc7F)c7ccc4[nH]7)C=C6)C=C5)cc3)c12
REMARK SMILES IDX 17 1 16 2 15 3 14 4 12 5 13 6 11 8 1 9 2 10 3 11 75 12 4 13
REMARK SMILES IDX 5 14 6 15 10 16 7 17 8 18 9 19 18 20 19 21 20 23 21 24 22 25
REMARK SMILES IDX 74 26 23 27 73 28 24 29 25 30 26 31 67 32 27 33 72 34 66 35
REMARK SMILES IDX 68 36 28 37 71 38 65 39 64 40 29 42 55 43 38 44 54 45 39 46
REMARK SMILES IDX 42 47 53 48 69 49 40 50 41 51 52 53 70 54 43 55 30 56 31 57
REMARK SMILES IDX 36 58 32 59 33 60 35 61 37 62 34 63 56 64 57 65 62 66 58 67
REMARK SMILES IDX 59 68 61 69 63 70 60 71 44 72 45 73 50 74 46 75 47 76 49 77
REMARK SMILES IDX 51 78 48 79
REMARK H PARENT 14 7 18 22 68 41 42 52
REMARK Flexibility Score: inf
ROOT
ATOM      1  C   UNL     1       2.742   7.025  -0.830  1.00  0.00     0.118 C 
ENDROOT
BRANCH   1   2
ATOM      2  C   UNL     1       2.181   6.457   0.486  1.00  0.00     0.042 C 
BRANCH   2   3
ATOM      3  C   UNL     1       0.916   5.600   0.330  1.00  0.00     0.118 C 
BRANCH   3   4
ATOM      4  N   UNL     1       1.211   4.313  -0.275  1.00  0.00    -0.351 N 
ATOM      5  C   UNL     1       1.188   3.026   0.213  1.00  0.00     0.272 C 
ATOM      6  O   UNL     1       1.626   2.143  -0.518  1.00  0.00    -0.267 OA
ATOM      7  H   UNL     1       1.480   4.372  -1.220  1.00  0.00     0.163 HD
BRANCH   5   8
ATOM      8  C   UNL     1       0.633   2.651   1.598  1.00  0.00     0.161 A 
ATOM      9  C   UNL     1       0.900  -0.492   0.109  1.00  0.00     0.091 C 
ATOM     10  C   UNL     1       0.503   0.044   1.425  1.00  0.00     0.144 A 
ATOM     11  O   UNL     1       0.135  -0.906   2.335  1.00  0.00    -0.360 OA
ATOM     12  C   UNL     1       0.391   1.285   2.013  1.00  0.00     0.083 A 
ATOM     13  N   UNL     1      -0.242  -0.303   3.521  1.00  0.00    -0.074 NA
ATOM     14  C   UNL     1      -0.092   1.007   3.308  1.00  0.00     0.183 A 
ATOM     15  C   UNL     1      -0.394   2.057   4.252  1.00  0.00     0.296 A 
ATOM     16  N   UNL     1       0.367   3.604   2.454  1.00  0.00    -0.164 NA
ATOM     17  O   UNL     1      -0.828   1.859   5.391  1.00  0.00    -0.265 OA
ATOM     18  N   UNL     1      -0.153   3.337   3.726  1.00  0.00    -0.230 N 
ATOM     19  C   UNL     1      -0.474   4.486   4.550  1.00  0.00     0.178 C 
ENDBRANCH   5   8
ENDBRANCH   3   4
ENDBRANCH   2   3
ENDBRANCH   1   2
BRANCH   1  20
ATOM     20  N   UNL     1       1.773   7.898  -1.470  1.00  0.00    -0.352 N 
ATOM     21  C   UNL     1       1.847   9.194  -1.892  1.00  0.00     0.251 C 
ATOM     22  H   UNL     1       0.898   7.476  -1.629  1.00  0.00     0.163 HD
ATOM     23  O   UNL     1       0.789   9.807  -2.035  1.00  0.00    -0.269 OA
BRANCH  21  24
ATOM     24  C   UNL     1       3.116   9.875  -2.226  1.00  0.00     0.039 A 
ATOM     25  C   UNL     1       3.158  11.263  -2.035  1.00  0.00     0.014 A 
ATOM     26  C   UNL     1       4.166   9.238  -2.895  1.00  0.00     0.014 A 
ATOM     27  C   UNL     1       4.237  12.009  -2.503  1.00  0.00     0.010 A 
ATOM     28  C   UNL     1       5.255   9.990  -3.360  1.00  0.00     0.010 A 
ATOM     29  C   UNL     1       5.295  11.378  -3.168  1.00  0.00    -0.014 A 
BRANCH  29  30
ATOM     30  C   UNL     1       6.456  12.217  -3.527  1.00  0.00     0.031 A 
ATOM     31  C   UNL     1       7.793  11.653  -3.178  1.00  0.00     0.074 A 
ATOM     32  C   UNL     1       6.406  13.117  -4.532  1.00  0.00     0.049 A 
ATOM     33  N   UNL     1       8.425  10.798  -3.929  1.00  0.00    -0.248 NA
ATOM     34  C   UNL     1       8.382  11.823  -1.851  1.00  0.00     0.031 C 
ATOM     35  C   UNL     1       5.708  12.881  -5.802  1.00  0.00     0.029 A 
ATOM     36  N   UNL     1       7.148  14.255  -4.755  1.00  0.00    -0.354 N 
ATOM     37  C   UNL     1       9.460  10.277  -3.174  1.00  0.00     0.074 A 
ATOM     38  C   UNL     1       9.400  10.949  -1.894  1.00  0.00     0.031 C 
ATOM     39  C   UNL     1       6.188  13.743  -6.722  1.00  0.00     0.029 A 
ATOM     40  C   UNL     1       7.108  14.680  -6.080  1.00  0.00     0.049 A 
ATOM     41  H   UNL     1       7.655  14.719  -4.050  1.00  0.00     0.167 HD
ATOM     42  C   UNL     1      10.303   9.318  -3.638  1.00  0.00     0.037 A 
ATOM     43  C   UNL     1       8.118  15.343  -6.707  1.00  0.00     0.037 A 
ATOM     44  C   UNL     1      10.089   8.908  -4.992  1.00  0.00     0.049 A 
ATOM     45  C   UNL     1       9.094  14.215  -6.926  1.00  0.00     0.074 A 
ATOM     46  C   UNL     1       9.410   7.911  -5.657  1.00  0.00     0.029 A 
ATOM     47  N   UNL     1      10.621   9.694  -5.987  1.00  0.00    -0.354 N 
ATOM     48  N   UNL     1       9.013  13.299  -7.855  1.00  0.00    -0.248 NA
ATOM     49  C   UNL     1      10.003  13.885  -5.826  1.00  0.00     0.031 C 
ATOM     50  C   UNL     1       9.186   8.420  -6.976  1.00  0.00     0.029 A 
ATOM     51  C   UNL     1       9.705   9.713  -7.007  1.00  0.00     0.049 A 
ATOM     52  H   UNL     1      11.491  10.154  -5.970  1.00  0.00     0.167 HD
ATOM     53  C   UNL     1       9.626  12.167  -7.311  1.00  0.00     0.074 A 
ATOM     54  C   UNL     1      10.254  12.609  -6.083  1.00  0.00     0.031 C 
ATOM     55  C   UNL     1       9.419  10.901  -7.777  1.00  0.00     0.037 A 
BRANCH  42  56
ATOM     56  C   UNL     1      11.482   8.806  -2.916  1.00  0.00     0.057 A 
ATOM     57  C   UNL     1      12.749   9.263  -3.303  1.00  0.00     0.134 A 
ATOM     58  C   UNL     1      11.416   7.728  -2.034  1.00  0.00     0.134 A 
ATOM     59  F   UNL     1      12.861  10.291  -4.161  1.00  0.00    -0.206 F 
ATOM     60  C   UNL     1      13.915   8.638  -2.868  1.00  0.00     0.040 A 
ATOM     61  C   UNL     1      12.579   7.097  -1.583  1.00  0.00     0.040 A 
ATOM     62  F   UNL     1      10.231   7.238  -1.641  1.00  0.00    -0.206 F 
ATOM     63  C   UNL     1      13.831   7.541  -2.015  1.00  0.00     0.006 A 
ENDBRANCH  42  56
BRANCH  43  64
ATOM     64  C   UNL     1       8.493  16.666  -6.111  1.00  0.00     0.057 A 
ATOM     65  C   UNL     1       7.466  17.594  -5.843  1.00  0.00     0.134 A 
ATOM     66  C   UNL     1       9.788  17.091  -5.790  1.00  0.00     0.134 A 
ATOM     67  F   UNL     1       6.206  17.346  -6.235  1.00  0.00    -0.206 F 
ATOM     68  C   UNL     1       7.694  18.797  -5.168  1.00  0.00     0.040 A 
ATOM     69  C   UNL     1      10.029  18.282  -5.091  1.00  0.00     0.040 A 
ATOM     70  F   UNL     1      10.864  16.370  -6.129  1.00  0.00    -0.206 F 
ATOM     71  C   UNL     1       8.977  19.127  -4.756  1.00  0.00     0.006 A 
ENDBRANCH  43  64
BRANCH  55  72
ATOM     72  C   UNL     1       8.611  10.797  -9.024  1.00  0.00     0.057 A 
ATOM     73  C   UNL     1       9.149  11.182 -10.255  1.00  0.00     0.134 A 
ATOM     74  C   UNL     1       7.307  10.282  -9.017  1.00  0.00     0.134 A 
ATOM     75  F   UNL     1      10.394  11.677 -10.330  1.00  0.00    -0.206 F 
ATOM     76  C   UNL     1       8.426  11.039 -11.440  1.00  0.00     0.040 A 
ATOM     77  C   UNL     1       6.585  10.109 -10.198  1.00  0.00     0.040 A 
ATOM     78  F   UNL     1       6.715   9.914  -7.870  1.00  0.00    -0.206 F 
ATOM     79  C   UNL     1       7.145  10.488 -11.415  1.00  0.00     0.006 A 
ENDBRANCH  55  72
ENDBRANCH  29  30
ENDBRANCH  21  24
ENDBRANCH   1  20
TORSDOF 10
