REMARK SMILES Cc1cc2c(c(C)c1Cl)C=C(C(=O)NCCCNC(=O)c1ccc(-c3c4nc(c(-c5c(F)cccc5F)c5ccc([nH]5)c(-c5c(F)cccc5F)c5nc(c(-c6c(F)cccc6F)c6ccc3[nH]6)C=C5)C=C4)cc1)[C@@H](C(F)(F)F)O2
REMARK SMILES IDX 16 1 15 2 14 3 12 4 13 5 11 7 1 8 2 9 3 10 8 11 4 12 6 13
REMARK SMILES IDX 9 14 5 15 80 16 7 17 10 18 75 19 76 20 77 21 78 22 79 23
REMARK SMILES IDX 17 24 18 25 19 26 20 28 21 29 22 30 74 31 23 32 73 33 24 34
REMARK SMILES IDX 25 35 26 36 67 37 27 38 72 39 66 40 68 41 28 42 71 43 65 44
REMARK SMILES IDX 64 45 29 47 55 48 38 49 54 50 39 51 42 52 53 53 69 54 40 55
REMARK SMILES IDX 41 56 52 58 70 59 43 60 30 61 31 62 36 63 32 64 33 65 35 66
REMARK SMILES IDX 37 67 34 68 56 69 57 70 62 71 58 72 59 73 61 74 63 75 60 76
REMARK SMILES IDX 44 77 45 78 50 79 46 80 47 81 49 82 51 83 48 84
REMARK H PARENT 14 6 18 27 68 46 42 57
REMARK Flexibility Score: inf
ROOT
ATOM      1  C   UNL     1      -3.422   5.707   6.633  1.00  0.00     0.042 C 
ENDROOT
BRANCH   1   2
ATOM      2  C   UNL     1      -3.790   5.839   5.164  1.00  0.00     0.118 C 
BRANCH   2   3
ATOM      3  N   UNL     1      -2.821   6.644   4.435  1.00  0.00    -0.352 N 
ATOM      4  C   UNL     1      -1.861   6.442   3.504  1.00  0.00     0.251 C 
ATOM      5  O   UNL     1      -1.248   7.457   3.155  1.00  0.00    -0.270 OA
ATOM      6  H   UNL     1      -2.881   7.593   4.689  1.00  0.00     0.163 HD
BRANCH   4   7
ATOM      7  C   UNL     1      -1.514   5.123   2.902  1.00  0.00     0.067 C 
ATOM      8  C   UNL     1       1.038  -0.026  -0.148  1.00  0.00     0.046 C 
ATOM      9  C   UNL     1       0.681   1.341   0.368  1.00  0.00    -0.028 A 
ATOM     10  C   UNL     1      -0.260   1.436   1.395  1.00  0.00     0.052 A 
ATOM     11  C   UNL     1       1.245   2.524  -0.151  1.00  0.00     0.047 A 
ATOM     12  C   UNL     1      -0.629   2.677   1.900  1.00  0.00     0.128 A 
ATOM     13  C   UNL     1       0.886   3.796   0.363  1.00  0.00    -0.021 A 
ATOM     14  Cl  UNL     1       2.403   2.385  -1.440  1.00  0.00    -0.084 Cl
ATOM     15  C   UNL     1      -0.063   3.859   1.411  1.00  0.00     0.022 A 
ATOM     16  O   UNL     1      -1.533   2.640   2.922  1.00  0.00    -0.475 OA
ATOM     17  C   UNL     1       1.492   5.073  -0.171  1.00  0.00     0.047 C 
ATOM     18  C   UNL     1      -0.465   5.114   2.058  1.00  0.00     0.026 C 
ATOM     19  C   UNL     1      -2.271   3.860   3.172  1.00  0.00     0.314 C 
BRANCH  19  20
ATOM     20  C   UNL     1      -3.624   3.806   2.435  1.00  0.00     0.429 C 
ATOM     21  F   UNL     1      -4.433   2.877   3.005  1.00  0.00    -0.167 F 
ATOM     22  F   UNL     1      -4.295   4.981   2.490  1.00  0.00    -0.167 F 
ATOM     23  F   UNL     1      -3.497   3.488   1.129  1.00  0.00    -0.167 F 
ENDBRANCH  19  20
ENDBRANCH   4   7
ENDBRANCH   2   3
ENDBRANCH   1   2
BRANCH   1  24
ATOM     24  C   UNL     1      -3.749   6.970   7.418  1.00  0.00     0.118 C 
BRANCH  24  25
ATOM     25  N   UNL     1      -5.185   7.241   7.433  1.00  0.00    -0.352 N 
ATOM     26  C   UNL     1      -6.106   7.072   8.434  1.00  0.00     0.251 C 
ATOM     27  H   UNL     1      -5.548   7.602   6.592  1.00  0.00     0.163 HD
ATOM     28  O   UNL     1      -7.308   7.078   8.169  1.00  0.00    -0.269 OA
BRANCH  26  29
ATOM     29  C   UNL     1      -5.657   6.880   9.824  1.00  0.00     0.039 A 
ATOM     30  C   UNL     1      -6.326   5.968  10.643  1.00  0.00     0.014 A 
ATOM     31  C   UNL     1      -4.587   7.624  10.325  1.00  0.00     0.014 A 
ATOM     32  C   UNL     1      -5.877   5.759  11.947  1.00  0.00     0.010 A 
ATOM     33  C   UNL     1      -4.075   7.338  11.582  1.00  0.00     0.010 A 
ATOM     34  C   UNL     1      -4.727   6.418  12.413  1.00  0.00    -0.014 A 
BRANCH  34  35
ATOM     35  C   UNL     1      -4.206   6.188  13.781  1.00  0.00     0.031 A 
ATOM     36  C   UNL     1      -4.160   7.328  14.761  1.00  0.00     0.074 A 
ATOM     37  C   UNL     1      -3.727   4.976  14.116  1.00  0.00     0.049 A 
ATOM     38  N   UNL     1      -3.685   7.348  15.979  1.00  0.00    -0.248 NA
ATOM     39  C   UNL     1      -4.689   8.625  14.304  1.00  0.00     0.031 C 
ATOM     40  C   UNL     1      -3.675   3.811  13.229  1.00  0.00     0.029 A 
ATOM     41  N   UNL     1      -3.187   4.521  15.292  1.00  0.00    -0.354 N 
ATOM     42  C   UNL     1      -3.849   8.653  16.425  1.00  0.00     0.074 A 
ATOM     43  C   UNL     1      -4.404   9.414  15.329  1.00  0.00     0.031 C 
ATOM     44  C   UNL     1      -3.167   2.767  13.903  1.00  0.00     0.029 A 
ATOM     45  C   UNL     1      -2.818   3.198  15.254  1.00  0.00     0.049 A 
ATOM     46  H   UNL     1      -3.074   5.089  16.088  1.00  0.00     0.167 HD
ATOM     47  C   UNL     1      -3.592   9.162  17.651  1.00  0.00     0.037 A 
ATOM     48  C   UNL     1      -2.259   2.422  16.202  1.00  0.00     0.037 A 
ATOM     49  C   UNL     1      -3.077   8.388  18.748  1.00  0.00     0.049 A 
ATOM     50  C   UNL     1      -1.975   3.016  17.554  1.00  0.00     0.074 A 
ATOM     51  C   UNL     1      -2.842   8.794  20.048  1.00  0.00     0.029 A 
ATOM     52  N   UNL     1      -2.723   7.050  18.672  1.00  0.00    -0.354 N 
ATOM     53  N   UNL     1      -2.200   4.234  17.983  1.00  0.00    -0.248 NA
ATOM     54  C   UNL     1      -1.364   2.130  18.555  1.00  0.00     0.031 C 
ATOM     55  C   UNL     1      -2.298   7.715  20.748  1.00  0.00     0.029 A 
ATOM     56  C   UNL     1      -2.245   6.622  19.897  1.00  0.00     0.049 A 
ATOM     57  H   UNL     1      -2.800   6.489  17.866  1.00  0.00     0.167 HD
ATOM     58  C   UNL     1      -1.780   4.256  19.307  1.00  0.00     0.074 A 
ATOM     59  C   UNL     1      -1.304   2.924  19.616  1.00  0.00     0.031 C 
ATOM     60  C   UNL     1      -1.784   5.287  20.186  1.00  0.00     0.037 A 
BRANCH  47  61
ATOM     61  C   UNL     1      -3.886  10.614  17.887  1.00  0.00     0.057 A 
ATOM     62  C   UNL     1      -5.200  11.095  17.964  1.00  0.00     0.134 A 
ATOM     63  C   UNL     1      -2.849  11.527  18.116  1.00  0.00     0.134 A 
ATOM     64  F   UNL     1      -6.238  10.275  17.740  1.00  0.00    -0.206 F 
ATOM     65  C   UNL     1      -5.471  12.433  18.252  1.00  0.00     0.040 A 
ATOM     66  C   UNL     1      -3.108  12.861  18.432  1.00  0.00     0.040 A 
ATOM     67  F   UNL     1      -1.568  11.131  18.060  1.00  0.00    -0.206 F 
ATOM     68  C   UNL     1      -4.423  13.317  18.500  1.00  0.00     0.006 A 
ENDBRANCH  47  61
BRANCH  48  69
ATOM     69  C   UNL     1      -1.962   0.996  15.913  1.00  0.00     0.057 A 
ATOM     70  C   UNL     1      -2.685  -0.032  16.530  1.00  0.00     0.134 A 
ATOM     71  C   UNL     1      -0.960   0.623  15.008  1.00  0.00     0.134 A 
ATOM     72  F   UNL     1      -3.647   0.260  17.418  1.00  0.00    -0.206 F 
ATOM     73  C   UNL     1      -2.414  -1.376  16.271  1.00  0.00     0.040 A 
ATOM     74  C   UNL     1      -0.696  -0.717  14.720  1.00  0.00     0.040 A 
ATOM     75  F   UNL     1      -0.236   1.558  14.375  1.00  0.00    -0.206 F 
ATOM     76  C   UNL     1      -1.420  -1.722  15.358  1.00  0.00     0.006 A 
ENDBRANCH  48  69
BRANCH  60  77
ATOM     77  C   UNL     1      -1.275   5.024  21.572  1.00  0.00     0.057 A 
ATOM     78  C   UNL     1       0.090   4.857  21.832  1.00  0.00     0.134 A 
ATOM     79  C   UNL     1      -2.149   5.032  22.666  1.00  0.00     0.134 A 
ATOM     80  F   UNL     1       0.977   4.832  20.825  1.00  0.00    -0.206 F 
ATOM     81  C   UNL     1       0.569   4.700  23.133  1.00  0.00     0.040 A 
ATOM     82  C   UNL     1      -1.680   4.904  23.974  1.00  0.00     0.040 A 
ATOM     83  F   UNL     1      -3.467   5.200  22.485  1.00  0.00    -0.206 F 
ATOM     84  C   UNL     1      -0.317   4.736  24.209  1.00  0.00     0.006 A 
ENDBRANCH  60  77
ENDBRANCH  34  35
ENDBRANCH  26  29
ENDBRANCH  24  25
ENDBRANCH   1  24
TORSDOF 11
