REMARK SMILES COC(=O)C[C@H](NC(=O)N(C)C[C@@H]1CCC[N@H+]1C)C(=O)NCCCNC(=O)c1ccc(-c2c3nc(c(-c4c(F)cccc4F)c4ccc([nH]4)c(-c4c(F)cccc4F)c4nc(c(-c5c(F)cccc5F)c5ccc2[nH]5)C=C4)C=C3)cc1
REMARK SMILES IDX 22 1 21 2 19 3 20 4 6 6 5 7 3 8 4 9 2 10 1 11 7 12 8 13 9 15
REMARK SMILES IDX 10 16 11 17 12 18 13 19 14 20 17 21 15 22 16 23 18 24 23 26
REMARK SMILES IDX 24 27 25 28 26 29 27 31 28 32 29 33 81 34 30 35 80 36 31 37
REMARK SMILES IDX 32 38 33 39 74 40 34 41 79 42 73 43 75 44 35 45 78 46 72 47
REMARK SMILES IDX 71 48 36 50 62 51 45 52 61 53 46 54 49 55 60 56 76 57 47 58
REMARK SMILES IDX 48 59 59 61 77 62 50 63 37 64 38 65 43 66 39 67 40 68 42 69
REMARK SMILES IDX 44 70 41 71 63 72 64 73 69 74 65 75 66 76 68 77 70 78 67 79
REMARK SMILES IDX 51 80 52 81 57 82 53 83 54 84 56 85 58 86 55 87
REMARK H PARENT 21 5 7 14 17 25 25 30 75 49 49 60
REMARK Flexibility Score: inf
ROOT
ATOM      1  C   UNL     1      -1.927  10.356  -5.738  1.00  0.00     0.117 C 
ENDROOT
BRANCH   1   2
ATOM      2  N   UNL     1      -1.540   9.686  -6.963  1.00  0.00    -0.354 N 
ATOM      3  C   UNL     1      -2.233   9.212  -8.031  1.00  0.00     0.243 C 
ATOM      4  O   UNL     1      -1.521   8.972  -9.019  1.00  0.00    -0.273 OA
ATOM      5  H   UNL     1      -0.569   9.543  -7.037  1.00  0.00     0.163 HD
BRANCH   3   6
ATOM      6  C   UNL     1      -3.771   8.951  -8.133  1.00  0.00     0.184 C 
BRANCH   6   7
ATOM      7  C   UNL     1      -4.575  10.252  -7.922  1.00  0.00     0.157 C 
BRANCH   7   8
ATOM      8  C   UNL     1      -5.328  10.389  -6.620  1.00  0.00     0.308 C 
ATOM      9  O   UNL     1      -5.049  11.207  -5.747  1.00  0.00    -0.252 OA
BRANCH   8  10
ATOM     10  O   UNL     1      -6.379   9.527  -6.573  1.00  0.00    -0.469 OA
ATOM     11  C   UNL     1      -7.200   9.623  -5.402  1.00  0.00     0.282 C 
ENDBRANCH   8  10
ENDBRANCH   7   8
ENDBRANCH   6   7
BRANCH   6  12
ATOM     12  N   UNL     1      -4.410   7.776  -7.514  1.00  0.00    -0.326 N 
ATOM     13  C   UNL     1      -4.306   6.430  -7.526  1.00  0.00     0.318 C 
ATOM     14  H   UNL     1      -5.131   8.059  -6.906  1.00  0.00     0.166 HD
ATOM     15  O   UNL     1      -5.258   5.832  -7.016  1.00  0.00    -0.249 OA
BRANCH  13  16
ATOM     16  N   UNL     1      -3.175   5.778  -7.927  1.00  0.00    -0.322 N 
ATOM     17  C   UNL     1      -2.330   6.146  -9.043  1.00  0.00     0.149 C 
BRANCH  16  18
ATOM     18  C   UNL     1      -2.821   4.538  -7.197  1.00  0.00     0.185 C 
BRANCH  18  19
ATOM     19  C   UNL     1      -2.069   4.764  -5.843  1.00  0.00     0.203 C 
ATOM     20  C   UNL     1      -1.971   3.481  -5.005  1.00  0.00     0.073 C 
ATOM     21  N   UNL     1      -2.724   5.720  -4.934  1.00  0.00    -0.333 N 
ATOM     22  C   UNL     1      -2.391   3.856  -3.586  1.00  0.00     0.068 C 
ATOM     23  C   UNL     1      -2.380   5.362  -3.561  1.00  0.00     0.262 C 
ATOM     24  C   UNL     1      -2.305   7.075  -5.201  1.00  0.00     0.333 C 
ATOM     25  H   UNL     1      -3.733   5.673  -5.078  1.00  0.00     0.348 HD
ENDBRANCH  18  19
ENDBRANCH  16  18
ENDBRANCH  13  16
ENDBRANCH   6  12
ENDBRANCH   3   6
ENDBRANCH   1   2
BRANCH   1  26
ATOM     26  C   UNL     1      -1.123  10.036  -4.457  1.00  0.00     0.042 C 
BRANCH  26  27
ATOM     27  C   UNL     1       0.218   9.300  -4.570  1.00  0.00     0.118 C 
BRANCH  27  28
ATOM     28  N   UNL     1       1.311  10.039  -3.972  1.00  0.00    -0.352 N 
ATOM     29  C   UNL     1       2.026   9.796  -2.825  1.00  0.00     0.251 C 
ATOM     30  H   UNL     1       1.585  10.845  -4.467  1.00  0.00     0.163 HD
ATOM     31  O   UNL     1       2.772  10.677  -2.400  1.00  0.00    -0.269 OA
BRANCH  29  32
ATOM     32  C   UNL     1       1.932   8.515  -2.072  1.00  0.00     0.039 A 
ATOM     33  C   UNL     1       1.929   8.582  -0.674  1.00  0.00     0.014 A 
ATOM     34  C   UNL     1       1.990   7.261  -2.691  1.00  0.00     0.014 A 
ATOM     35  C   UNL     1       1.984   7.415   0.097  1.00  0.00     0.010 A 
ATOM     36  C   UNL     1       1.998   6.088  -1.918  1.00  0.00     0.010 A 
ATOM     37  C   UNL     1       2.020   6.151  -0.514  1.00  0.00    -0.014 A 
BRANCH  37  38
ATOM     38  C   UNL     1       2.125   4.919   0.321  1.00  0.00     0.031 A 
ATOM     39  C   UNL     1       3.384   4.088   0.319  1.00  0.00     0.074 A 
ATOM     40  C   UNL     1       1.097   4.546   1.109  1.00  0.00     0.049 A 
ATOM     41  N   UNL     1       3.665   3.006   1.004  1.00  0.00    -0.248 NA
ATOM     42  C   UNL     1       4.466   4.523  -0.578  1.00  0.00     0.031 C 
ATOM     43  C   UNL     1      -0.187   5.240   1.205  1.00  0.00     0.029 A 
ATOM     44  N   UNL     1       0.972   3.493   1.985  1.00  0.00    -0.354 N 
ATOM     45  C   UNL     1       4.948   2.631   0.621  1.00  0.00     0.074 A 
ATOM     46  C   UNL     1       5.374   3.575  -0.390  1.00  0.00     0.031 C 
ATOM     47  C   UNL     1      -0.961   4.609   2.103  1.00  0.00     0.029 A 
ATOM     48  C   UNL     1      -0.242   3.450   2.627  1.00  0.00     0.049 A 
ATOM     49  H   UNL     1       1.686   2.832   2.137  1.00  0.00     0.167 HD
ATOM     50  C   UNL     1       5.712   1.608   1.079  1.00  0.00     0.037 A 
ATOM     51  C   UNL     1      -0.726   2.578   3.534  1.00  0.00     0.037 A 
ATOM     52  C   UNL     1       5.308   0.674   2.100  1.00  0.00     0.049 A 
ATOM     53  C   UNL     1       0.133   1.438   4.010  1.00  0.00     0.074 A 
ATOM     54  C   UNL     1       6.038  -0.362   2.658  1.00  0.00     0.029 A 
ATOM     55  N   UNL     1       4.065   0.659   2.713  1.00  0.00    -0.354 N 
ATOM     56  N   UNL     1       1.364   1.136   3.679  1.00  0.00    -0.248 NA
ATOM     57  C   UNL     1      -0.466   0.521   4.993  1.00  0.00     0.031 C 
ATOM     58  C   UNL     1       5.223  -1.031   3.578  1.00  0.00     0.029 A 
ATOM     59  C   UNL     1       4.001  -0.382   3.626  1.00  0.00     0.049 A 
ATOM     60  H   UNL     1       3.336   1.295   2.529  1.00  0.00     0.167 HD
ATOM     61  C   UNL     1       1.696   0.014   4.430  1.00  0.00     0.074 A 
ATOM     62  C   UNL     1       0.542  -0.302   5.245  1.00  0.00     0.031 C 
ATOM     63  C   UNL     1       2.854  -0.689   4.441  1.00  0.00     0.037 A 
BRANCH  50  64
ATOM     64  C   UNL     1       7.079   1.438   0.480  1.00  0.00     0.057 A 
ATOM     65  C   UNL     1       8.127   2.322   0.771  1.00  0.00     0.134 A 
ATOM     66  C   UNL     1       7.367   0.346  -0.348  1.00  0.00     0.134 A 
ATOM     67  F   UNL     1       7.916   3.391   1.554  1.00  0.00    -0.206 F 
ATOM     68  C   UNL     1       9.405   2.138   0.242  1.00  0.00     0.040 A 
ATOM     69  C   UNL     1       8.648   0.137  -0.863  1.00  0.00     0.040 A 
ATOM     70  F   UNL     1       6.413  -0.545  -0.657  1.00  0.00    -0.206 F 
ATOM     71  C   UNL     1       9.671   1.038  -0.572  1.00  0.00     0.006 A 
ENDBRANCH  50  64
BRANCH  51  72
ATOM     72  C   UNL     1      -2.102   2.751   4.068  1.00  0.00     0.057 A 
ATOM     73  C   UNL     1      -2.322   3.129   5.398  1.00  0.00     0.134 A 
ATOM     74  C   UNL     1      -3.227   2.520   3.268  1.00  0.00     0.134 A 
ATOM     75  F   UNL     1      -1.284   3.340   6.220  1.00  0.00    -0.206 F 
ATOM     76  C   UNL     1      -3.611   3.253   5.918  1.00  0.00     0.040 A 
ATOM     77  C   UNL     1      -4.521   2.666   3.768  1.00  0.00     0.040 A 
ATOM     78  F   UNL     1      -3.082   2.157   1.985  1.00  0.00    -0.206 F 
ATOM     79  C   UNL     1      -4.716   3.026   5.100  1.00  0.00     0.006 A 
ENDBRANCH  51  72
BRANCH  63  80
ATOM     80  C   UNL     1       2.947  -1.853   5.385  1.00  0.00     0.057 A 
ATOM     81  C   UNL     1       2.255  -3.049   5.156  1.00  0.00     0.134 A 
ATOM     82  C   UNL     1       3.766  -1.787   6.520  1.00  0.00     0.134 A 
ATOM     83  F   UNL     1       1.444  -3.173   4.095  1.00  0.00    -0.206 F 
ATOM     84  C   UNL     1       2.357  -4.130   6.034  1.00  0.00     0.040 A 
ATOM     85  C   UNL     1       3.896  -2.870   7.391  1.00  0.00     0.040 A 
ATOM     86  F   UNL     1       4.463  -0.674   6.794  1.00  0.00    -0.206 F 
ATOM     87  C   UNL     1       3.185  -4.045   7.152  1.00  0.00     0.006 A 
ENDBRANCH  63  80
ENDBRANCH  37  38
ENDBRANCH  29  32
ENDBRANCH  27  28
ENDBRANCH  26  27
ENDBRANCH   1  26
TORSDOF 17
