REMARK SMILES CC1CCN(S(=O)(=O)N2CCC[C@H](c3cccc(C(=O)NCCCNC(=O)c4ccc(-c5c6nc(c(-c7c(F)cccc7F)c7ccc([nH]7)c(-c7c(F)cccc7F)c7nc(c(-c8c(F)cccc8F)c8ccc5[nH]8)C=C7)C=C6)cc4)c3)C2)CC1
REMARK SMILES IDX 22 1 21 2 19 3 20 4 18 6 14 7 15 8 82 9 16 10 17 11 13 12
REMARK SMILES IDX 9 13 10 14 83 15 11 16 12 17 6 18 7 19 8 20 5 21 1 22 2 23
REMARK SMILES IDX 3 24 85 25 4 26 84 27 23 28 24 29 25 30 26 31 27 33 28 34
REMARK SMILES IDX 29 35 81 36 30 37 80 38 31 39 32 40 33 41 74 42 34 43 79 44
REMARK SMILES IDX 73 45 75 46 35 47 78 48 72 49 71 50 36 52 62 53 45 54 61 55
REMARK SMILES IDX 46 56 49 57 60 58 76 59 47 60 48 61 59 63 77 64 50 65 37 66
REMARK SMILES IDX 38 67 43 68 39 69 40 70 42 71 44 72 41 73 63 74 64 75 69 76
REMARK SMILES IDX 65 77 66 78 68 79 70 80 67 81 51 82 52 83 57 84 53 85 54 86
REMARK SMILES IDX 56 87 58 88 55 89
REMARK H PARENT 21 5 25 32 75 51 49 62
REMARK Flexibility Score: inf
ROOT
ATOM      1  C   UNL     1       4.001  -7.417  -4.939  1.00  0.00     0.118 C 
ENDROOT
BRANCH   1   2
ATOM      2  N   UNL     1       3.716  -7.210  -6.356  1.00  0.00    -0.352 N 
ATOM      3  C   UNL     1       3.172  -6.173  -7.088  1.00  0.00     0.251 C 
ATOM      4  O   UNL     1       3.047  -6.338  -8.301  1.00  0.00    -0.269 OA
ATOM      5  H   UNL     1       3.966  -7.982  -6.913  1.00  0.00     0.163 HD
BRANCH   3   6
ATOM      6  C   UNL     1       2.667  -4.916  -6.473  1.00  0.00     0.040 A 
ATOM      7  C   UNL     1       2.360  -3.582  -4.463  1.00  0.00    -0.043 A 
ATOM      8  C   UNL     1       1.369  -2.846  -5.121  1.00  0.00     0.004 A 
ATOM      9  C   UNL     1       3.106  -4.476  -5.233  1.00  0.00     0.017 A 
ATOM     10  C   UNL     1       1.071  -3.102  -6.464  1.00  0.00     0.001 A 
ATOM     11  C   UNL     1       1.674  -4.177  -7.119  1.00  0.00     0.014 A 
BRANCH   7  12
ATOM     12  C   UNL     1       2.498  -3.665  -2.945  1.00  0.00     0.034 C 
ATOM     13  N   UNL     1       2.567  -1.301  -2.213  1.00  0.00    -0.188 NA
ATOM     14  C   UNL     1       3.982  -1.372  -1.804  1.00  0.00     0.103 C 
ATOM     15  C   UNL     1       1.807  -2.565  -2.140  1.00  0.00     0.111 C 
ATOM     16  C   UNL     1       4.694  -2.510  -2.536  1.00  0.00     0.017 C 
ATOM     17  C   UNL     1       3.928  -3.817  -2.389  1.00  0.00     0.011 C 
BRANCH  13  18
ATOM     18  S   UNL     1       1.744   0.133  -1.964  1.00  0.00     0.281 S 
ATOM     19  O   UNL     1       0.433  -0.006  -2.548  1.00  0.00    -0.195 OA
ATOM     20  O   UNL     1       2.611   1.220  -2.369  1.00  0.00    -0.195 OA
BRANCH  18  21
ATOM     21  N   UNL     1       1.593   0.239  -0.273  1.00  0.00    -0.189 NA
ATOM     22  C   UNL     1      -2.657   0.093   0.002  1.00  0.00     0.008 C 
ATOM     23  C   UNL     1      -1.231   0.218   0.539  1.00  0.00    -0.012 C 
ATOM     24  C   UNL     1      -0.552   1.485  -0.022  1.00  0.00     0.020 C 
ATOM     25  C   UNL     1      -0.444  -1.067   0.243  1.00  0.00     0.020 C 
ATOM     26  C   UNL     1       0.965   1.515   0.181  1.00  0.00     0.104 C 
ATOM     27  C   UNL     1       1.034  -0.869   0.529  1.00  0.00     0.104 C 
ENDBRANCH  18  21
ENDBRANCH  13  18
ENDBRANCH   7  12
ENDBRANCH   3   6
ENDBRANCH   1   2
BRANCH   1  28
ATOM     28  C   UNL     1       3.235  -8.561  -4.306  1.00  0.00     0.042 C 
BRANCH  28  29
ATOM     29  C   UNL     1       3.706  -9.930  -4.747  1.00  0.00     0.118 C 
BRANCH  29  30
ATOM     30  N   UNL     1       5.099 -10.184  -4.389  1.00  0.00    -0.352 N 
ATOM     31  C   UNL     1       5.646 -11.079  -3.503  1.00  0.00     0.251 C 
ATOM     32  H   UNL     1       5.753  -9.620  -4.861  1.00  0.00     0.163 HD
ATOM     33  O   UNL     1       6.827 -10.975  -3.186  1.00  0.00    -0.269 OA
BRANCH  31  34
ATOM     34  C   UNL     1       4.819 -12.159  -2.924  1.00  0.00     0.039 A 
ATOM     35  C   UNL     1       5.045 -12.564  -1.606  1.00  0.00     0.014 A 
ATOM     36  C   UNL     1       3.839 -12.794  -3.688  1.00  0.00     0.014 A 
ATOM     37  C   UNL     1       4.247 -13.563  -1.043  1.00  0.00     0.010 A 
ATOM     38  C   UNL     1       2.967 -13.692  -3.091  1.00  0.00     0.010 A 
ATOM     39  C   UNL     1       3.179 -14.110  -1.772  1.00  0.00    -0.014 A 
BRANCH  39  40
ATOM     40  C   UNL     1       2.307 -15.169  -1.208  1.00  0.00     0.031 A 
ATOM     41  C   UNL     1       2.235 -16.511  -1.891  1.00  0.00     0.074 A 
ATOM     42  C   UNL     1       1.541 -14.909  -0.131  1.00  0.00     0.049 A 
ATOM     43  N   UNL     1       1.460 -17.532  -1.630  1.00  0.00    -0.248 NA
ATOM     44  C   UNL     1       3.130 -16.721  -3.043  1.00  0.00     0.031 C 
ATOM     45  C   UNL     1       1.491 -13.635   0.591  1.00  0.00     0.029 A 
ATOM     46  N   UNL     1       0.647 -15.704   0.541  1.00  0.00    -0.354 N 
ATOM     47  C   UNL     1       1.770 -18.493  -2.585  1.00  0.00     0.074 A 
ATOM     48  C   UNL     1       2.742 -17.909  -3.480  1.00  0.00     0.031 C 
ATOM     49  C   UNL     1       0.633 -13.745   1.619  1.00  0.00     0.029 A 
ATOM     50  C   UNL     1       0.039 -15.077   1.602  1.00  0.00     0.049 A 
ATOM     51  H   UNL     1       0.459 -16.637   0.287  1.00  0.00     0.167 HD
ATOM     52  C   UNL     1       1.317 -19.764  -2.686  1.00  0.00     0.037 A 
ATOM     53  C   UNL     1      -0.900 -15.527   2.455  1.00  0.00     0.037 A 
ATOM     54  C   UNL     1       0.370 -20.352  -1.778  1.00  0.00     0.049 A 
ATOM     55  C   UNL     1      -1.406 -16.937   2.301  1.00  0.00     0.074 A 
ATOM     56  C   UNL     1      -0.141 -21.638  -1.778  1.00  0.00     0.029 A 
ATOM     57  N   UNL     1      -0.200 -19.692  -0.701  1.00  0.00    -0.354 N 
ATOM     58  N   UNL     1      -1.068 -17.849   1.421  1.00  0.00    -0.248 NA
ATOM     59  C   UNL     1      -2.419 -17.385   3.267  1.00  0.00     0.031 C 
ATOM     60  C   UNL     1      -1.049 -21.745  -0.722  1.00  0.00     0.029 A 
ATOM     61  C   UNL     1      -1.060 -20.544  -0.031  1.00  0.00     0.049 A 
ATOM     62  H   UNL     1      -0.020 -18.757  -0.450  1.00  0.00     0.167 HD
ATOM     63  C   UNL     1      -1.787 -18.989   1.759  1.00  0.00     0.074 A 
ATOM     64  C   UNL     1      -2.570 -18.657   2.930  1.00  0.00     0.031 C 
ATOM     65  C   UNL     1      -1.801 -20.203   1.156  1.00  0.00     0.037 A 
BRANCH  52  66
ATOM     66  C   UNL     1       1.864 -20.614  -3.796  1.00  0.00     0.057 A 
ATOM     67  C   UNL     1       3.194 -21.057  -3.792  1.00  0.00     0.134 A 
ATOM     68  C   UNL     1       1.046 -21.039  -4.849  1.00  0.00     0.134 A 
ATOM     69  F   UNL     1       4.036 -20.673  -2.821  1.00  0.00    -0.206 F 
ATOM     70  C   UNL     1       3.694 -21.878  -4.804  1.00  0.00     0.040 A 
ATOM     71  C   UNL     1       1.526 -21.885  -5.851  1.00  0.00     0.040 A 
ATOM     72  F   UNL     1      -0.238 -20.655  -4.913  1.00  0.00    -0.206 F 
ATOM     73  C   UNL     1       2.856 -22.303  -5.832  1.00  0.00     0.006 A 
ENDBRANCH  52  66
BRANCH  53  74
ATOM     74  C   UNL     1      -1.425 -14.655   3.539  1.00  0.00     0.057 A 
ATOM     75  C   UNL     1      -1.203 -14.963   4.888  1.00  0.00     0.134 A 
ATOM     76  C   UNL     1      -2.212 -13.532   3.259  1.00  0.00     0.134 A 
ATOM     77  F   UNL     1      -0.468 -16.033   5.223  1.00  0.00    -0.206 F 
ATOM     78  C   UNL     1      -1.784 -14.218   5.915  1.00  0.00     0.040 A 
ATOM     79  C   UNL     1      -2.772 -12.758   4.277  1.00  0.00     0.040 A 
ATOM     80  F   UNL     1      -2.452 -13.171   1.990  1.00  0.00    -0.206 F 
ATOM     81  C   UNL     1      -2.573 -13.111   5.610  1.00  0.00     0.006 A 
ENDBRANCH  53  74
BRANCH  65  82
ATOM     82  C   UNL     1      -2.625 -21.281   1.797  1.00  0.00     0.057 A 
ATOM     83  C   UNL     1      -4.025 -21.258   1.788  1.00  0.00     0.134 A 
ATOM     84  C   UNL     1      -2.000 -22.379   2.403  1.00  0.00     0.134 A 
ATOM     85  F   UNL     1      -4.685 -20.230   1.233  1.00  0.00    -0.206 F 
ATOM     86  C   UNL     1      -4.773 -22.271   2.388  1.00  0.00     0.040 A 
ATOM     87  C   UNL     1      -2.737 -23.415   2.976  1.00  0.00     0.040 A 
ATOM     88  F   UNL     1      -0.661 -22.470   2.435  1.00  0.00    -0.206 F 
ATOM     89  C   UNL     1      -4.129 -23.357   2.978  1.00  0.00     0.006 A 
ENDBRANCH  65  82
ENDBRANCH  39  40
ENDBRANCH  31  34
ENDBRANCH  29  30
ENDBRANCH  28  29
ENDBRANCH   1  28
TORSDOF 13
