REMARK SMILES C[NH2+][C@]1(C(=O)NCCCNC(=O)c2ccc(-c3c4nc(c(-c5c(F)cccc5F)c5ccc([nH]5)c(-c5c(F)cccc5F)c5nc(c(-c6c(F)cccc6F)c6ccc3[nH]6)C=C5)C=C4)cc2)CCC[C@@H]1CC[N@H+]1CCC[C@H]([NH+](C)C)C1
REMARK SMILES IDX 7 1 6 2 4 3 5 4 3 6 67 7 70 8 68 9 69 10 2 11 1 12 71 15
REMARK SMILES IDX 72 16 73 17 74 18 81 19 75 21 77 22 76 23 78 24 79 25 80 26
REMARK SMILES IDX 8 28 9 29 10 30 11 31 12 33 13 34 14 35 66 36 15 37 65 38
REMARK SMILES IDX 16 39 17 40 18 41 59 42 19 43 64 44 58 45 60 46 20 47 63 48
REMARK SMILES IDX 57 49 56 50 21 52 47 53 30 54 46 55 31 56 34 57 45 58 61 59
REMARK SMILES IDX 32 60 33 61 44 63 62 64 35 65 22 66 23 67 28 68 24 69 25 70
REMARK SMILES IDX 27 71 29 72 26 73 48 74 49 75 54 76 50 77 51 78 53 79 55 80
REMARK SMILES IDX 52 81 36 82 37 83 42 84 38 85 39 86 41 87 43 88 40 89
REMARK H PARENT 6 5 2 13 2 14 73 20 78 27 10 32 60 51 34 62
REMARK Flexibility Score: inf
ROOT
ATOM      1  C   UNL     1       0.468  -0.818  -1.867  1.00  0.00     0.118 C 
ENDROOT
BRANCH   1   2
ATOM      2  N   UNL     1       0.915  -0.822  -0.483  1.00  0.00    -0.351 N 
ATOM      3  C   UNL     1       0.269  -0.878   0.715  1.00  0.00     0.281 C 
ATOM      4  O   UNL     1       1.024  -0.859   1.697  1.00  0.00    -0.268 OA
ATOM      5  H   UNL     1       1.894  -0.774  -0.393  1.00  0.00     0.163 HD
BRANCH   3   6
ATOM      6  C   UNL     1      -1.295  -0.996   0.865  1.00  0.00     0.178 C 
ATOM      7  C   UNL     1      -2.007   0.154   0.120  1.00  0.00     0.079 C 
ATOM      8  C   UNL     1      -1.826  -2.269   0.132  1.00  0.00     0.066 C 
ATOM      9  C   UNL     1      -3.379  -0.388  -0.249  1.00  0.00     0.008 C 
ATOM     10  C   UNL     1      -3.241  -1.907  -0.353  1.00  0.00     0.011 C 
BRANCH   6  11
ATOM     11  N   UNL     1      -1.598  -0.812   2.302  1.00  0.00    -0.336 N 
ATOM     12  C   UNL     1      -2.588  -1.576   3.008  1.00  0.00     0.331 C 
ATOM     13  H   UNL     1      -0.719  -0.972   2.795  1.00  0.00     0.346 HD
ATOM     14  H   UNL     1      -2.026   0.113   2.298  1.00  0.00     0.346 HD
ENDBRANCH   6  11
BRANCH   8  15
ATOM     15  C   UNL     1      -1.742  -3.592   0.915  1.00  0.00     0.072 C 
BRANCH  15  16
ATOM     16  C   UNL     1      -1.491  -4.860   0.084  1.00  0.00     0.262 C 
BRANCH  16  17
ATOM     17  N   UNL     1      -0.248  -4.934  -0.699  1.00  0.00    -0.330 N 
ATOM     18  C   UNL     1       0.950  -4.415  -0.034  1.00  0.00     0.262 C 
ATOM     19  C   UNL     1       0.009  -6.339  -1.082  1.00  0.00     0.327 C 
ATOM     20  H   UNL     1      -0.410  -4.329  -1.504  1.00  0.00     0.348 HD
ATOM     21  C   UNL     1       2.118  -4.366  -1.021  1.00  0.00     0.068 C 
ATOM     22  C   UNL     1       1.147  -6.491  -2.127  1.00  0.00     0.239 C 
ATOM     23  C   UNL     1       2.405  -5.721  -1.663  1.00  0.00     0.077 C 
BRANCH  22  24
ATOM     24  N   UNL     1       0.779  -6.253  -3.547  1.00  0.00    -0.333 N 
ATOM     25  C   UNL     1      -0.237  -7.205  -4.006  1.00  0.00     0.332 C 
ATOM     26  C   UNL     1       0.346  -4.893  -3.855  1.00  0.00     0.332 C 
ATOM     27  H   UNL     1       1.652  -6.396  -4.054  1.00  0.00     0.348 HD
ENDBRANCH  22  24
ENDBRANCH  16  17
ENDBRANCH  15  16
ENDBRANCH   8  15
ENDBRANCH   3   6
ENDBRANCH   1   2
BRANCH   1  28
ATOM     28  C   UNL     1       0.838   0.483  -2.564  1.00  0.00     0.042 C 
BRANCH  28  29
ATOM     29  C   UNL     1       2.338   0.666  -2.747  1.00  0.00     0.118 C 
BRANCH  29  30
ATOM     30  N   UNL     1       2.907  -0.286  -3.692  1.00  0.00    -0.352 N 
ATOM     31  C   UNL     1       3.515  -0.068  -4.904  1.00  0.00     0.251 C 
ATOM     32  H   UNL     1       2.845  -1.230  -3.420  1.00  0.00     0.163 HD
ATOM     33  O   UNL     1       3.752  -1.013  -5.648  1.00  0.00    -0.269 OA
BRANCH  31  34
ATOM     34  C   UNL     1       3.865   1.306  -5.326  1.00  0.00     0.039 A 
ATOM     35  C   UNL     1       3.637   1.683  -6.652  1.00  0.00     0.014 A 
ATOM     36  C   UNL     1       4.426   2.215  -4.427  1.00  0.00     0.014 A 
ATOM     37  C   UNL     1       3.906   2.993  -7.055  1.00  0.00     0.010 A 
ATOM     38  C   UNL     1       4.605   3.542  -4.803  1.00  0.00     0.010 A 
ATOM     39  C   UNL     1       4.354   3.944  -6.123  1.00  0.00    -0.014 A 
BRANCH  39  40
ATOM     40  C   UNL     1       4.573   5.361  -6.510  1.00  0.00     0.031 A 
ATOM     41  C   UNL     1       5.946   5.968  -6.411  1.00  0.00     0.074 A 
ATOM     42  C   UNL     1       3.525   6.120  -6.886  1.00  0.00     0.049 A 
ATOM     43  N   UNL     1       6.323   7.202  -6.634  1.00  0.00    -0.248 NA
ATOM     44  C   UNL     1       7.034   5.079  -5.975  1.00  0.00     0.031 C 
ATOM     45  C   UNL     1       2.137   5.662  -6.976  1.00  0.00     0.029 A 
ATOM     46  N   UNL     1       3.463   7.440  -7.253  1.00  0.00    -0.354 N 
ATOM     47  C   UNL     1       7.683   7.238  -6.350  1.00  0.00     0.074 A 
ATOM     48  C   UNL     1       8.052   5.920  -5.883  1.00  0.00     0.031 C 
ATOM     49  C   UNL     1       1.366   6.676  -7.399  1.00  0.00     0.029 A 
ATOM     50  C   UNL     1       2.195   7.866  -7.567  1.00  0.00     0.049 A 
ATOM     51  H   UNL     1       4.252   8.028  -7.287  1.00  0.00     0.167 HD
ATOM     52  C   UNL     1       8.550   8.269  -6.489  1.00  0.00     0.037 A 
ATOM     53  C   UNL     1       1.749   9.080  -7.941  1.00  0.00     0.037 A 
ATOM     54  C   UNL     1       8.182   9.573  -6.976  1.00  0.00     0.049 A 
ATOM     55  C   UNL     1       2.729  10.213  -8.074  1.00  0.00     0.074 A 
ATOM     56  C   UNL     1       8.997  10.666  -7.212  1.00  0.00     0.029 A 
ATOM     57  N   UNL     1       6.889   9.962  -7.294  1.00  0.00    -0.354 N 
ATOM     58  N   UNL     1       4.024  10.214  -7.873  1.00  0.00    -0.248 NA
ATOM     59  C   UNL     1       2.185  11.512  -8.493  1.00  0.00     0.031 C 
ATOM     60  C   UNL     1       8.190  11.732  -7.624  1.00  0.00     0.029 A 
ATOM     61  C   UNL     1       6.880  11.286  -7.699  1.00  0.00     0.049 A 
ATOM     62  H   UNL     1       6.095   9.382  -7.240  1.00  0.00     0.167 HD
ATOM     63  C   UNL     1       4.455  11.501  -8.168  1.00  0.00     0.074 A 
ATOM     64  C   UNL     1       3.284  12.249  -8.576  1.00  0.00     0.031 C 
ATOM     65  C   UNL     1       5.707  12.017  -8.108  1.00  0.00     0.037 A 
BRANCH  52  66
ATOM     66  C   UNL     1       9.982   8.025  -6.108  1.00  0.00     0.057 A 
ATOM     67  C   UNL     1      10.813   7.176  -6.853  1.00  0.00     0.134 A 
ATOM     68  C   UNL     1      10.546   8.667  -4.998  1.00  0.00     0.134 A 
ATOM     69  F   UNL     1      10.335   6.521  -7.921  1.00  0.00    -0.206 F 
ATOM     70  C   UNL     1      12.142   6.950  -6.489  1.00  0.00     0.040 A 
ATOM     71  C   UNL     1      11.882   8.473  -4.643  1.00  0.00     0.040 A 
ATOM     72  F   UNL     1       9.811   9.498  -4.245  1.00  0.00    -0.206 F 
ATOM     73  C   UNL     1      12.682   7.606  -5.384  1.00  0.00     0.006 A 
ENDBRANCH  52  66
BRANCH  53  74
ATOM     74  C   UNL     1       0.308   9.284  -8.238  1.00  0.00     0.057 A 
ATOM     75  C   UNL     1      -0.132   9.527  -9.544  1.00  0.00     0.134 A 
ATOM     76  C   UNL     1      -0.661   9.249  -7.228  1.00  0.00     0.134 A 
ATOM     77  F   UNL     1       0.751   9.590 -10.552  1.00  0.00    -0.206 F 
ATOM     78  C   UNL     1      -1.479   9.748  -9.834  1.00  0.00     0.040 A 
ATOM     79  C   UNL     1      -2.015   9.442  -7.507  1.00  0.00     0.040 A 
ATOM     80  F   UNL     1      -0.307   9.013  -5.956  1.00  0.00    -0.206 F 
ATOM     81  C   UNL     1      -2.426   9.701  -8.813  1.00  0.00     0.006 A 
ENDBRANCH  53  74
BRANCH  65  82
ATOM     82  C   UNL     1       5.883  13.447  -8.527  1.00  0.00     0.057 A 
ATOM     83  C   UNL     1       5.414  14.512  -7.748  1.00  0.00     0.134 A 
ATOM     84  C   UNL     1       6.564  13.763  -9.710  1.00  0.00     0.134 A 
ATOM     85  F   UNL     1       4.742  14.279  -6.611  1.00  0.00    -0.206 F 
ATOM     86  C   UNL     1       5.597  15.839  -8.142  1.00  0.00     0.040 A 
ATOM     87  C   UNL     1       6.779  15.085 -10.099  1.00  0.00     0.040 A 
ATOM     88  F   UNL     1       7.047  12.790 -10.499  1.00  0.00    -0.206 F 
ATOM     89  C   UNL     1       6.288  16.128  -9.317  1.00  0.00     0.006 A 
ENDBRANCH  65  82
ENDBRANCH  39  40
ENDBRANCH  31  34
ENDBRANCH  29  30
ENDBRANCH  28  29
ENDBRANCH   1  28
TORSDOF 15
