REMARK SMILES CC(C)CCc1cc2c(cc1Cl)C=C(C(=O)NCCCNC(=O)c1ccc(-c3c4nc(c(-c5c(F)cccc5F)c5ccc([nH]5)c(-c5c(F)cccc5F)c5nc(c(-c6c(F)cccc6F)c6ccc3[nH]6)C=C5)C=C4)cc1)[C@H](C(F)(F)F)O2
REMARK SMILES IDX 18 1 17 2 15 3 16 4 14 6 6 7 7 8 11 9 8 10 10 11 12 12 9 13
REMARK SMILES IDX 83 14 13 15 78 16 5 17 4 18 2 19 1 20 3 21 79 22 80 23 81 24
REMARK SMILES IDX 82 25 19 26 20 27 21 28 22 29 23 31 24 32 25 33 77 34 26 35
REMARK SMILES IDX 76 36 27 37 28 38 29 39 70 40 30 41 75 42 69 43 71 44 31 45
REMARK SMILES IDX 74 46 68 47 67 48 32 50 58 51 41 52 57 53 42 54 45 55 56 56
REMARK SMILES IDX 72 57 43 58 44 59 55 61 73 62 46 63 33 64 34 65 39 66 35 67
REMARK SMILES IDX 36 68 38 69 40 70 37 71 59 72 60 73 65 74 61 75 62 76 64 77
REMARK SMILES IDX 66 78 63 79 47 80 48 81 53 82 49 83 50 84 52 85 54 86 51 87
REMARK H PARENT 17 5 21 30 71 49 45 60
REMARK Flexibility Score: inf
ROOT
ATOM      1  C   UNL     1       0.684   6.058   8.133  1.00  0.00     0.118 C 
ENDROOT
BRANCH   1   2
ATOM      2  N   UNL     1       0.752   4.713   8.683  1.00  0.00    -0.352 N 
ATOM      3  C   UNL     1       0.555   3.450   8.238  1.00  0.00     0.251 C 
ATOM      4  O   UNL     1       0.826   2.557   9.046  1.00  0.00    -0.270 OA
ATOM      5  H   UNL     1       1.010   4.724   9.633  1.00  0.00     0.163 HD
BRANCH   3   6
ATOM      6  C   UNL     1       0.045   3.088   6.885  1.00  0.00     0.067 C 
ATOM      7  C   UNL     1      -1.176   0.615   2.650  1.00  0.00    -0.026 A 
ATOM      8  C   UNL     1      -1.228   1.950   3.078  1.00  0.00     0.052 A 
ATOM      9  C   UNL     1      -0.716  -0.349   3.564  1.00  0.00     0.045 A 
ATOM     10  C   UNL     1      -0.770   2.319   4.337  1.00  0.00     0.128 A 
ATOM     11  C   UNL     1      -0.265   0.026   4.839  1.00  0.00     0.032 A 
ATOM     12  Cl  UNL     1      -0.664  -2.033   3.176  1.00  0.00    -0.084 Cl
ATOM     13  C   UNL     1      -0.276   1.369   5.223  1.00  0.00     0.019 A 
ATOM     14  O   UNL     1      -0.784   3.656   4.606  1.00  0.00    -0.475 OA
ATOM     15  C   UNL     1       0.250   1.811   6.509  1.00  0.00     0.025 C 
ATOM     16  C   UNL     1      -0.749   4.018   6.009  1.00  0.00     0.314 C 
BRANCH   7  17
ATOM     17  C   UNL     1      -1.611   0.294   1.235  1.00  0.00     0.037 C 
BRANCH  17  18
ATOM     18  C   UNL     1      -1.028   1.236   0.161  1.00  0.00     0.008 C 
BRANCH  18  19
ATOM     19  C   UNL     1       0.512   1.334   0.148  1.00  0.00    -0.017 C 
ATOM     20  C   UNL     1       1.165   0.003  -0.220  1.00  0.00     0.007 C 
ATOM     21  C   UNL     1       0.960   2.428  -0.824  1.00  0.00     0.007 C 
ENDBRANCH  18  19
ENDBRANCH  17  18
ENDBRANCH   7  17
BRANCH  16  22
ATOM     22  C   UNL     1      -2.176   4.281   6.512  1.00  0.00     0.429 C 
ATOM     23  F   UNL     1      -3.095   3.480   5.930  1.00  0.00    -0.167 F 
ATOM     24  F   UNL     1      -2.296   4.116   7.849  1.00  0.00    -0.167 F 
ATOM     25  F   UNL     1      -2.533   5.564   6.244  1.00  0.00    -0.167 F 
ENDBRANCH  16  22
ENDBRANCH   3   6
ENDBRANCH   1   2
BRANCH   1  26
ATOM     26  C   UNL     1      -0.584   6.783   8.568  1.00  0.00     0.042 C 
BRANCH  26  27
ATOM     27  C   UNL     1      -0.515   7.265  10.013  1.00  0.00     0.118 C 
BRANCH  27  28
ATOM     28  N   UNL     1       0.375   8.411  10.162  1.00  0.00    -0.352 N 
ATOM     29  C   UNL     1       0.087   9.725  10.440  1.00  0.00     0.251 C 
ATOM     30  H   UNL     1       1.332   8.211  10.046  1.00  0.00     0.163 HD
ATOM     31  O   UNL     1       0.951  10.585  10.276  1.00  0.00    -0.269 OA
BRANCH  29  32
ATOM     32  C   UNL     1      -1.259  10.111  10.914  1.00  0.00     0.039 A 
ATOM     33  C   UNL     1      -1.946   9.310  11.825  1.00  0.00     0.014 A 
ATOM     34  C   UNL     1      -1.841  11.294  10.448  1.00  0.00     0.014 A 
ATOM     35  C   UNL     1      -3.277   9.579  12.114  1.00  0.00     0.010 A 
ATOM     36  C   UNL     1      -3.144  11.625  10.834  1.00  0.00     0.010 A 
ATOM     37  C   UNL     1      -3.893  10.742  11.628  1.00  0.00    -0.014 A 
BRANCH  37  38
ATOM     38  C   UNL     1      -5.316  11.006  11.969  1.00  0.00     0.031 A 
ATOM     39  C   UNL     1      -6.364  11.098  10.891  1.00  0.00     0.074 A 
ATOM     40  C   UNL     1      -5.675  11.105  13.264  1.00  0.00     0.049 A 
ATOM     41  N   UNL     1      -7.650  11.318  11.005  1.00  0.00    -0.248 NA
ATOM     42  C   UNL     1      -5.909  10.926   9.502  1.00  0.00     0.031 C 
ATOM     43  C   UNL     1      -4.757  11.018  14.404  1.00  0.00     0.029 A 
ATOM     44  N   UNL     1      -6.906  11.272  13.845  1.00  0.00    -0.354 N 
ATOM     45  C   UNL     1      -8.152  11.330   9.709  1.00  0.00     0.074 A 
ATOM     46  C   UNL     1      -7.027  11.133   8.821  1.00  0.00     0.031 C 
ATOM     47  C   UNL     1      -5.462  11.075  15.543  1.00  0.00     0.029 A 
ATOM     48  C   UNL     1      -6.867  11.281  15.218  1.00  0.00     0.049 A 
ATOM     49  H   UNL     1      -7.737  11.375  13.327  1.00  0.00     0.167 HD
ATOM     50  C   UNL     1      -9.435  11.478   9.296  1.00  0.00     0.037 A 
ATOM     51  C   UNL     1      -7.851  11.461  16.118  1.00  0.00     0.037 A 
ATOM     52  C   UNL     1     -10.555  11.663  10.183  1.00  0.00     0.049 A 
ATOM     53  C   UNL     1      -9.251  11.694  15.629  1.00  0.00     0.074 A 
ATOM     54  C   UNL     1     -11.895  11.809   9.865  1.00  0.00     0.029 A 
ATOM     55  N   UNL     1     -10.465  11.732  11.566  1.00  0.00    -0.354 N 
ATOM     56  N   UNL     1      -9.711  11.694  14.401  1.00  0.00    -0.248 NA
ATOM     57  C   UNL     1     -10.268  11.964  16.654  1.00  0.00     0.031 C 
ATOM     58  C   UNL     1     -12.607  12.018  11.051  1.00  0.00     0.029 A 
ATOM     59  C   UNL     1     -11.721  11.946  12.113  1.00  0.00     0.049 A 
ATOM     60  H   UNL     1      -9.632  11.643  12.083  1.00  0.00     0.167 HD
ATOM     61  C   UNL     1     -11.072  11.943  14.507  1.00  0.00     0.074 A 
ATOM     62  C   UNL     1     -11.366  12.062  15.920  1.00  0.00     0.031 C 
ATOM     63  C   UNL     1     -11.996  12.066  13.523  1.00  0.00     0.037 A 
BRANCH  50  64
ATOM     64  C   UNL     1      -9.690  11.471   7.815  1.00  0.00     0.057 A 
ATOM     65  C   UNL     1     -10.091  12.640   7.154  1.00  0.00     0.134 A 
ATOM     66  C   UNL     1      -9.559  10.309   7.042  1.00  0.00     0.134 A 
ATOM     67  F   UNL     1     -10.245  13.787   7.832  1.00  0.00    -0.206 F 
ATOM     68  C   UNL     1     -10.347  12.655   5.782  1.00  0.00     0.040 A 
ATOM     69  C   UNL     1      -9.784  10.318   5.663  1.00  0.00     0.040 A 
ATOM     70  F   UNL     1      -9.167   9.157   7.607  1.00  0.00    -0.206 F 
ATOM     71  C   UNL     1     -10.185  11.493   5.030  1.00  0.00     0.006 A 
ENDBRANCH  50  64
BRANCH  51  72
ATOM     72  C   UNL     1      -7.545  11.458  17.571  1.00  0.00     0.057 A 
ATOM     73  C   UNL     1      -6.773  12.470  18.157  1.00  0.00     0.134 A 
ATOM     74  C   UNL     1      -8.041  10.457  18.414  1.00  0.00     0.134 A 
ATOM     75  F   UNL     1      -6.262  13.455  17.403  1.00  0.00    -0.206 F 
ATOM     76  C   UNL     1      -6.500  12.483  19.524  1.00  0.00     0.040 A 
ATOM     77  C   UNL     1      -7.803  10.476  19.789  1.00  0.00     0.040 A 
ATOM     78  F   UNL     1      -8.803   9.472  17.916  1.00  0.00    -0.206 F 
ATOM     79  C   UNL     1      -7.026  11.490  20.347  1.00  0.00     0.006 A 
ENDBRANCH  51  72
BRANCH  63  80
ATOM     80  C   UNL     1     -13.414  12.312  13.953  1.00  0.00     0.057 A 
ATOM     81  C   UNL     1     -14.386  11.314  13.807  1.00  0.00     0.134 A 
ATOM     82  C   UNL     1     -13.819  13.532  14.511  1.00  0.00     0.134 A 
ATOM     83  F   UNL     1     -14.067  10.124  13.274  1.00  0.00    -0.206 F 
ATOM     84  C   UNL     1     -15.707  11.519  14.204  1.00  0.00     0.040 A 
ATOM     85  C   UNL     1     -15.131  13.738  14.940  1.00  0.00     0.040 A 
ATOM     86  F   UNL     1     -12.933  14.523  14.694  1.00  0.00    -0.206 F 
ATOM     87  C   UNL     1     -16.081  12.730  14.782  1.00  0.00     0.006 A 
ENDBRANCH  63  80
ENDBRANCH  37  38
ENDBRANCH  29  32
ENDBRANCH  27  28
ENDBRANCH  26  27
ENDBRANCH   1  26
TORSDOF 14
