REMARK SMILES O=C(C[C@@H]1C(=O)NC(=S)N1c1ccccc1)NCCCNC(=O)c1ccc(-c2c3nc(c(-c4c(F)cccc4F)c4ccc([nH]4)c(-c4c(F)cccc4F)c4nc(c(-c5c(F)cccc5F)c5ccc2[nH]5)C=C4)C=C3)cc1
REMARK SMILES IDX 19 1 18 2 17 3 1 4 2 5 3 7 4 8 5 9 10 10 6 11 7 12 8 13 9 15
REMARK SMILES IDX 11 16 12 17 16 18 13 19 15 20 14 21 20 22 21 23 22 24 23 26
REMARK SMILES IDX 24 27 25 28 77 29 26 30 76 31 27 32 28 33 29 34 70 35 30 36
REMARK SMILES IDX 75 37 69 38 71 39 31 40 74 41 68 42 67 43 32 45 58 46 41 47
REMARK SMILES IDX 57 48 42 49 45 50 56 51 72 52 43 53 44 54 55 56 73 57 46 58
REMARK SMILES IDX 33 59 34 60 39 61 35 62 36 63 38 64 40 65 37 66 59 67 60 68
REMARK SMILES IDX 65 69 61 70 62 71 64 72 66 73 63 74 47 75 48 76 53 77 49 78
REMARK SMILES IDX 50 79 52 80 54 81 51 82
REMARK H PARENT 17 6 7 14 21 25 71 44 45 55
REMARK Flexibility Score: inf
ROOT
ATOM      1  C   UNL     1       2.433   2.937   1.975  1.00  0.00     0.042 C 
ENDROOT
BRANCH   1   2
ATOM      2  C   UNL     1       2.069   2.470   0.570  1.00  0.00     0.117 C 
BRANCH   2   3
ATOM      3  N   UNL     1       2.767   1.252   0.211  1.00  0.00    -0.356 N 
ATOM      4  O   UNL     1       0.924  -0.020  -0.299  1.00  0.00    -0.275 OA
ATOM      5  C   UNL     1       2.138   0.094  -0.178  1.00  0.00     0.222 C 
ATOM      6  H   UNL     1       3.751   1.255   0.248  1.00  0.00     0.163 HD
BRANCH   5   7
ATOM      7  C   UNL     1       3.080  -1.072  -0.403  1.00  0.00     0.135 C 
BRANCH   7   8
ATOM      8  C   UNL     1       3.823  -1.106  -1.735  1.00  0.00     0.188 C 
ATOM      9  C   UNL     1       3.977   0.275  -2.372  1.00  0.00     0.249 C 
ATOM     10  N   UNL     1       3.192  -1.833  -2.841  1.00  0.00    -0.306 N 
ATOM     11  O   UNL     1       4.530   1.232  -1.853  1.00  0.00    -0.272 OA
ATOM     12  N   UNL     1       3.406   0.265  -3.603  1.00  0.00    -0.301 N 
ATOM     13  C   UNL     1       2.967  -0.980  -3.933  1.00  0.00     0.180 C 
ATOM     14  H   UNL     1       3.322   1.056  -4.183  1.00  0.00     0.172 HD
ATOM     15  S   UNL     1       2.280  -1.300  -5.411  1.00  0.00    -0.040 S 
BRANCH  10  16
ATOM     16  C   UNL     1       3.324  -3.244  -2.924  1.00  0.00     0.044 A 
ATOM     17  C   UNL     1       4.129  -3.830  -3.910  1.00  0.00     0.026 A 
ATOM     18  C   UNL     1       2.681  -4.072  -2.001  1.00  0.00     0.026 A 
ATOM     19  C   UNL     1       4.280  -5.218  -3.974  1.00  0.00     0.002 A 
ATOM     20  C   UNL     1       2.828  -5.461  -2.067  1.00  0.00     0.002 A 
ATOM     21  C   UNL     1       3.627  -6.034  -3.053  1.00  0.00     0.000 A 
ENDBRANCH  10  16
ENDBRANCH   7   8
ENDBRANCH   5   7
ENDBRANCH   2   3
ENDBRANCH   1   2
BRANCH   1  22
ATOM     22  C   UNL     1       3.924   3.170   2.208  1.00  0.00     0.118 C 
BRANCH  22  23
ATOM     23  N   UNL     1       4.481   4.236   1.389  1.00  0.00    -0.352 N 
ATOM     24  C   UNL     1       5.168   5.367   1.759  1.00  0.00     0.251 C 
ATOM     25  H   UNL     1       4.343   4.130   0.420  1.00  0.00     0.163 HD
ATOM     26  O   UNL     1       5.432   6.223   0.919  1.00  0.00    -0.269 OA
BRANCH  24  27
ATOM     27  C   UNL     1       5.572   5.577   3.167  1.00  0.00     0.039 A 
ATOM     28  C   UNL     1       5.410   6.847   3.730  1.00  0.00     0.014 A 
ATOM     29  C   UNL     1       6.124   4.545   3.930  1.00  0.00     0.014 A 
ATOM     30  C   UNL     1       5.732   7.060   5.073  1.00  0.00     0.010 A 
ATOM     31  C   UNL     1       6.368   4.737   5.289  1.00  0.00     0.010 A 
ATOM     32  C   UNL     1       6.175   5.997   5.876  1.00  0.00    -0.014 A 
BRANCH  32  33
ATOM     33  C   UNL     1       6.429   6.185   7.330  1.00  0.00     0.031 A 
ATOM     34  C   UNL     1       7.808   5.980   7.897  1.00  0.00     0.074 A 
ATOM     35  C   UNL     1       5.405   6.486   8.152  1.00  0.00     0.049 A 
ATOM     36  N   UNL     1       8.208   6.047   9.143  1.00  0.00    -0.248 NA
ATOM     37  C   UNL     1       8.872   5.630   6.944  1.00  0.00     0.031 C 
ATOM     38  C   UNL     1       4.012   6.665   7.738  1.00  0.00     0.029 A 
ATOM     39  N   UNL     1       5.374   6.686   9.510  1.00  0.00    -0.354 N 
ATOM     40  C   UNL     1       9.563   5.738   9.123  1.00  0.00     0.074 A 
ATOM     41  C   UNL     1       9.903   5.427   7.751  1.00  0.00     0.031 C 
ATOM     42  C   UNL     1       3.269   6.975   8.813  1.00  0.00     0.029 A 
ATOM     43  C   UNL     1       4.122   6.974   9.997  1.00  0.00     0.049 A 
ATOM     44  H   UNL     1       6.174   6.629  10.081  1.00  0.00     0.167 HD
ATOM     45  C   UNL     1      10.448   5.737  10.148  1.00  0.00     0.037 A 
ATOM     46  C   UNL     1       3.704   7.204  11.257  1.00  0.00     0.037 A 
ATOM     47  C   UNL     1      10.112   6.061  11.510  1.00  0.00     0.049 A 
ATOM     48  C   UNL     1       4.703   7.177  12.380  1.00  0.00     0.074 A 
ATOM     49  C   UNL     1      10.950   6.139  12.610  1.00  0.00     0.029 A 
ATOM     50  N   UNL     1       8.834   6.356  11.962  1.00  0.00    -0.354 N 
ATOM     51  N   UNL     1       5.994   6.951  12.335  1.00  0.00    -0.248 NA
ATOM     52  C   UNL     1       4.188   7.446  13.730  1.00  0.00     0.031 C 
ATOM     53  C   UNL     1      10.171   6.428  13.735  1.00  0.00     0.029 A 
ATOM     54  C   UNL     1       8.857   6.590  13.328  1.00  0.00     0.049 A 
ATOM     55  H   UNL     1       8.030   6.393  11.396  1.00  0.00     0.167 HD
ATOM     56  C   UNL     1       6.449   7.082  13.641  1.00  0.00     0.074 A 
ATOM     57  C   UNL     1       5.299   7.423  14.452  1.00  0.00     0.031 C 
ATOM     58  C   UNL     1       7.707   6.935  14.125  1.00  0.00     0.037 A 
BRANCH  45  59
ATOM     59  C   UNL     1      11.872   5.371   9.835  1.00  0.00     0.057 A 
ATOM     60  C   UNL     1      12.701   6.206   9.073  1.00  0.00     0.134 A 
ATOM     61  C   UNL     1      12.433   4.187  10.331  1.00  0.00     0.134 A 
ATOM     62  F   UNL     1      12.226   7.351   8.559  1.00  0.00    -0.206 F 
ATOM     63  C   UNL     1      14.025   5.864   8.793  1.00  0.00     0.040 A 
ATOM     64  C   UNL     1      13.765   3.849  10.083  1.00  0.00     0.040 A 
ATOM     65  F   UNL     1      11.700   3.344  11.073  1.00  0.00    -0.206 F 
ATOM     66  C   UNL     1      14.563   4.685   9.305  1.00  0.00     0.006 A 
ENDBRANCH  45  59
BRANCH  46  67
ATOM     67  C   UNL     1       2.272   7.497  11.525  1.00  0.00     0.057 A 
ATOM     68  C   UNL     1       1.862   8.766  11.953  1.00  0.00     0.134 A 
ATOM     69  C   UNL     1       1.283   6.517  11.378  1.00  0.00     0.134 A 
ATOM     70  F   UNL     1       2.764   9.742  12.133  1.00  0.00    -0.206 F 
ATOM     71  C   UNL     1       0.526   9.043  12.248  1.00  0.00     0.040 A 
ATOM     72  C   UNL     1      -0.061   6.788  11.641  1.00  0.00     0.040 A 
ATOM     73  F   UNL     1       1.608   5.284  10.964  1.00  0.00    -0.206 F 
ATOM     74  C   UNL     1      -0.441   8.052  12.087  1.00  0.00     0.006 A 
ENDBRANCH  46  67
BRANCH  58  75
ATOM     75  C   UNL     1       7.914   7.184  15.592  1.00  0.00     0.057 A 
ATOM     76  C   UNL     1       7.426   6.311  16.572  1.00  0.00     0.134 A 
ATOM     77  C   UNL     1       8.639   8.302  16.027  1.00  0.00     0.134 A 
ATOM     78  F   UNL     1       6.713   5.229  16.225  1.00  0.00    -0.206 F 
ATOM     79  C   UNL     1       7.624   6.556  17.932  1.00  0.00     0.040 A 
ATOM     80  C   UNL     1       8.872   8.540  17.382  1.00  0.00     0.040 A 
ATOM     81  F   UNL     1       9.145   9.174  15.142  1.00  0.00    -0.206 F 
ATOM     82  C   UNL     1       8.355   7.670  18.340  1.00  0.00     0.006 A 
ENDBRANCH  58  75
ENDBRANCH  32  33
ENDBRANCH  24  27
ENDBRANCH  22  23
ENDBRANCH   1  22
TORSDOF 12
