REMARK SMILES CO[C@@H]1C[NH2+][C@@H](O[C@@H]2C[C@@H](C(=O)NCCCNC(=O)c3ccc(-c4c5nc(c(-c6c(F)cccc6F)c6ccc([nH]6)c(-c6c(F)cccc6F)c6nc(c(-c7c(F)cccc7F)c7ccc4[nH]7)C=C6)C=C5)cc3)N(C(=O)OC(C)(C)C)C2)c2cc(Cl)ccc21
REMARK SMILES IDX 14 1 13 2 11 3 12 4 10 6 8 7 9 8 82 9 74 10 7 11 6 12 3 13
REMARK SMILES IDX 4 14 89 15 5 16 83 17 88 18 84 21 87 22 85 23 86 24 2 25
REMARK SMILES IDX 1 26 75 27 76 28 77 29 78 30 79 31 80 32 81 33 15 34 16 35
REMARK SMILES IDX 17 36 18 37 19 39 20 40 21 41 73 42 22 43 72 44 23 45 24 46
REMARK SMILES IDX 25 47 66 48 26 49 71 50 65 51 67 52 27 53 70 54 64 55 63 56
REMARK SMILES IDX 28 58 54 59 37 60 53 61 38 62 41 63 52 64 68 65 39 66 40 67
REMARK SMILES IDX 51 69 69 70 42 71 29 72 30 73 35 74 31 75 32 76 34 77 36 78
REMARK SMILES IDX 33 79 55 80 56 81 61 82 57 83 58 84 60 85 62 86 59 87 43 88
REMARK SMILES IDX 44 89 49 90 45 91 46 92 48 93 50 94 47 95
REMARK H PARENT 13 5 5 19 5 20 17 38 67 57 41 68
REMARK Flexibility Score: inf
ROOT
ATOM      1  C   UNL     1       2.074   0.040  -1.170  1.00  0.00     0.117 C 
ENDROOT
BRANCH   1   2
ATOM      2  N   UNL     1       3.208   0.767  -1.720  1.00  0.00    -0.354 N 
ATOM      3  C   UNL     1       3.768   1.936  -1.220  1.00  0.00     0.243 C 
ATOM      4  O   UNL     1       4.922   2.227  -1.531  1.00  0.00    -0.273 OA
ATOM      5  H   UNL     1       3.623   0.391  -2.530  1.00  0.00     0.163 HD
BRANCH   3   6
ATOM      6  C   UNL     1       2.889   2.829  -0.319  1.00  0.00     0.180 C 
ATOM      7  C   UNL     1       2.381   5.015   0.635  1.00  0.00     0.147 C 
ATOM      8  C   UNL     1       3.108   4.337  -0.538  1.00  0.00     0.069 C 
ATOM      9  C   UNL     1       2.420   3.969   1.747  1.00  0.00     0.156 C 
ATOM     10  N   UNL     1       2.854   2.715   1.141  1.00  0.00    -0.293 N 
BRANCH   7  11
ATOM     11  O   UNL     1       1.153   5.721   0.513  1.00  0.00    -0.320 OA
BRANCH  11  12
ATOM     12  C   UNL     1      -0.029   5.409  -0.203  1.00  0.00     0.354 C 
ATOM     13  C   UNL     1      -0.650   2.583  -0.412  1.00  0.00     0.203 C 
ATOM     14  C   UNL     1      -1.187   3.449   0.754  1.00  0.00     0.300 C 
ATOM     15  C   UNL     1      -0.232   3.361  -1.661  1.00  0.00    -0.002 A 
ATOM     16  N   UNL     1      -1.103   4.893   0.623  1.00  0.00    -0.315 N 
ATOM     17  C   UNL     1       0.098   4.723  -1.532  1.00  0.00     0.046 A 
ATOM     18  C   UNL     1       0.035   2.739  -2.890  1.00  0.00     0.009 A 
ATOM     19  H   UNL     1      -0.988   5.282   1.559  1.00  0.00     0.349 HD
ATOM     20  H   UNL     1      -1.963   5.170   0.150  1.00  0.00     0.349 HD
ATOM     21  C   UNL     1       0.596   5.450  -2.632  1.00  0.00     0.033 A 
ATOM     22  C   UNL     1       0.634   3.440  -3.947  1.00  0.00     0.021 A 
ATOM     23  C   UNL     1       0.892   4.800  -3.822  1.00  0.00     0.041 A 
ATOM     24  Cl  UNL     1       1.629   5.670  -5.109  1.00  0.00    -0.084 Cl
BRANCH  13  25
ATOM     25  O   UNL     1      -1.449   1.433  -0.704  1.00  0.00    -0.371 OA
ATOM     26  C   UNL     1      -1.445   0.484   0.368  1.00  0.00     0.196 C 
ENDBRANCH  13  25
ENDBRANCH  11  12
ENDBRANCH   7  11
BRANCH  10  27
ATOM     27  C   UNL     1       2.849   1.587   1.935  1.00  0.00     0.411 C 
ATOM     28  O   UNL     1       2.427   1.613   3.083  1.00  0.00    -0.224 OA
BRANCH  27  29
ATOM     29  O   UNL     1       3.383   0.483   1.345  1.00  0.00    -0.444 OA
BRANCH  29  30
ATOM     30  C   UNL     1       3.510  -0.757   2.111  1.00  0.00     0.106 C 
ATOM     31  C   UNL     1       4.416  -0.563   3.332  1.00  0.00     0.056 C 
ATOM     32  C   UNL     1       2.128  -1.311   2.490  1.00  0.00     0.056 C 
ATOM     33  C   UNL     1       4.226  -1.787   1.213  1.00  0.00     0.056 C 
ENDBRANCH  29  30
ENDBRANCH  27  29
ENDBRANCH  10  27
ENDBRANCH   3   6
ENDBRANCH   1   2
BRANCH   1  34
ATOM     34  C   UNL     1       1.121  -0.604  -2.153  1.00  0.00     0.042 C 
BRANCH  34  35
ATOM     35  C   UNL     1       1.467  -2.022  -2.574  1.00  0.00     0.118 C 
BRANCH  35  36
ATOM     36  N   UNL     1       1.532  -3.005  -1.494  1.00  0.00    -0.352 N 
ATOM     37  C   UNL     1       0.939  -4.233  -1.305  1.00  0.00     0.251 C 
ATOM     38  H   UNL     1       2.118  -2.733  -0.751  1.00  0.00     0.163 HD
ATOM     39  O   UNL     1       1.187  -4.853  -0.273  1.00  0.00    -0.269 OA
BRANCH  37  40
ATOM     40  C   UNL     1      -0.029  -4.793  -2.277  1.00  0.00     0.039 A 
ATOM     41  C   UNL     1       0.052  -4.495  -3.629  1.00  0.00     0.014 A 
ATOM     42  C   UNL     1      -1.065  -5.622  -1.825  1.00  0.00     0.014 A 
ATOM     43  C   UNL     1      -1.026  -4.752  -4.456  1.00  0.00     0.010 A 
ATOM     44  C   UNL     1      -2.062  -6.049  -2.711  1.00  0.00     0.010 A 
ATOM     45  C   UNL     1      -2.087  -5.562  -4.024  1.00  0.00    -0.014 A 
BRANCH  45  46
ATOM     46  C   UNL     1      -3.157  -5.888  -5.004  1.00  0.00     0.031 A 
ATOM     47  C   UNL     1      -4.592  -5.511  -4.753  1.00  0.00     0.074 A 
ATOM     48  C   UNL     1      -2.792  -6.428  -6.185  1.00  0.00     0.049 A 
ATOM     49  N   UNL     1      -5.624  -5.627  -5.553  1.00  0.00    -0.248 NA
ATOM     50  C   UNL     1      -4.920  -4.943  -3.437  1.00  0.00     0.031 C 
ATOM     51  C   UNL     1      -1.428  -6.839  -6.537  1.00  0.00     0.029 A 
ATOM     52  N   UNL     1      -3.508  -6.664  -7.329  1.00  0.00    -0.354 N 
ATOM     53  C   UNL     1      -6.720  -5.166  -4.833  1.00  0.00     0.074 A 
ATOM     54  C   UNL     1      -6.236  -4.805  -3.519  1.00  0.00     0.031 C 
ATOM     55  C   UNL     1      -1.385  -7.168  -7.834  1.00  0.00     0.029 A 
ATOM     56  C   UNL     1      -2.732  -7.093  -8.380  1.00  0.00     0.049 A 
ATOM     57  H   UNL     1      -4.482  -6.538  -7.392  1.00  0.00     0.167 HD
ATOM     58  C   UNL     1      -8.009  -5.046  -5.236  1.00  0.00     0.037 A 
ATOM     59  C   UNL     1      -3.068  -7.408  -9.642  1.00  0.00     0.037 A 
ATOM     60  C   UNL     1      -8.480  -5.405  -6.551  1.00  0.00     0.049 A 
ATOM     61  C   UNL     1      -4.508  -7.300 -10.043  1.00  0.00     0.074 A 
ATOM     62  C   UNL     1      -9.764  -5.327  -7.063  1.00  0.00     0.029 A 
ATOM     63  N   UNL     1      -7.679  -5.913  -7.565  1.00  0.00    -0.354 N 
ATOM     64  N   UNL     1      -5.532  -6.863  -9.349  1.00  0.00    -0.248 NA
ATOM     65  C   UNL     1      -4.841  -7.739 -11.403  1.00  0.00     0.031 C 
ATOM     66  C   UNL     1      -9.748  -5.835  -8.368  1.00  0.00     0.029 A 
ATOM     67  C   UNL     1      -8.444  -6.171  -8.692  1.00  0.00     0.049 A 
ATOM     68  H   UNL     1      -6.709  -6.066  -7.494  1.00  0.00     0.167 HD
ATOM     69  C   UNL     1      -6.629  -6.964 -10.191  1.00  0.00     0.074 A 
ATOM     70  C   UNL     1      -6.134  -7.462 -11.460  1.00  0.00     0.031 C 
ATOM     71  C   UNL     1      -7.932  -6.683  -9.939  1.00  0.00     0.037 A 
BRANCH  58  72
ATOM     72  C   UNL     1      -9.003  -4.533  -4.229  1.00  0.00     0.057 A 
ATOM     73  C   UNL     1      -9.993  -5.378  -3.708  1.00  0.00     0.134 A 
ATOM     74  C   UNL     1      -8.991  -3.206  -3.777  1.00  0.00     0.134 A 
ATOM     75  F   UNL     1     -10.070  -6.659  -4.099  1.00  0.00    -0.206 F 
ATOM     76  C   UNL     1     -10.928  -4.924  -2.775  1.00  0.00     0.040 A 
ATOM     77  C   UNL     1      -9.902  -2.748  -2.821  1.00  0.00     0.040 A 
ATOM     78  F   UNL     1      -8.062  -2.345  -4.222  1.00  0.00    -0.206 F 
ATOM     79  C   UNL     1     -10.878  -3.607  -2.321  1.00  0.00     0.006 A 
ENDBRANCH  58  72
BRANCH  59  80
ATOM     80  C   UNL     1      -2.037  -7.879 -10.603  1.00  0.00     0.057 A 
ATOM     81  C   UNL     1      -1.362  -9.091 -10.410  1.00  0.00     0.134 A 
ATOM     82  C   UNL     1      -1.720  -7.144 -11.751  1.00  0.00     0.134 A 
ATOM     83  F   UNL     1      -1.610  -9.841  -9.326  1.00  0.00    -0.206 F 
ATOM     84  C   UNL     1      -0.408  -9.552 -11.318  1.00  0.00     0.040 A 
ATOM     85  C   UNL     1      -0.794  -7.610 -12.686  1.00  0.00     0.040 A 
ATOM     86  F   UNL     1      -2.342  -5.982 -12.002  1.00  0.00    -0.206 F 
ATOM     87  C   UNL     1      -0.132  -8.816 -12.467  1.00  0.00     0.006 A 
ENDBRANCH  59  80
BRANCH  71  88
ATOM     88  C   UNL     1      -8.886  -6.888 -11.081  1.00  0.00     0.057 A 
ATOM     89  C   UNL     1      -9.471  -5.790 -11.724  1.00  0.00     0.134 A 
ATOM     90  C   UNL     1      -9.187  -8.164 -11.576  1.00  0.00     0.134 A 
ATOM     91  F   UNL     1      -9.233  -4.542 -11.295  1.00  0.00    -0.206 F 
ATOM     92  C   UNL     1     -10.302  -5.953 -12.832  1.00  0.00     0.040 A 
ATOM     93  C   UNL     1      -9.987  -8.337 -12.706  1.00  0.00     0.040 A 
ATOM     94  F   UNL     1      -8.645  -9.257 -11.016  1.00  0.00    -0.206 F 
ATOM     95  C   UNL     1     -10.547  -7.229 -13.337  1.00  0.00     0.006 A 
ENDBRANCH  71  88
ENDBRANCH  45  46
ENDBRANCH  37  40
ENDBRANCH  35  36
ENDBRANCH  34  35
ENDBRANCH   1  34
TORSDOF 16
