REMARK SMILES O=C(NCCCNC(=O)[C@H]1CC2(CCN(S(=O)(=O)N3CCOCC3)CC2)C[NH2+]1)c1ccc(-c2c3nc(c(-c4c(F)cccc4F)c4ccc([nH]4)c(-c4c(F)cccc4F)c4nc(c(-c5c(F)cccc5F)c5ccc2[nH]5)C=C4)C=C3)cc1
REMARK SMILES IDX 5 1 4 2 3 3 1 4 2 5 29 7 30 8 82 9 31 10 81 11 32 12 33 13
REMARK SMILES IDX 34 14 75 15 35 16 80 17 74 18 76 19 36 20 79 21 73 22 72 23
REMARK SMILES IDX 37 25 63 26 46 27 62 28 47 29 50 30 61 31 77 32 48 33 49 34
REMARK SMILES IDX 60 36 78 37 51 38 38 39 39 40 44 41 40 42 41 43 43 44 45 45
REMARK SMILES IDX 42 46 64 47 65 48 70 49 66 50 67 51 69 52 71 53 68 54 52 55
REMARK SMILES IDX 53 56 58 57 54 58 55 59 57 60 59 61 56 62 6 63 7 64 8 65
REMARK SMILES IDX 9 67 10 68 11 69 28 70 12 71 27 72 13 75 26 76 14 77 25 78
REMARK SMILES IDX 15 79 16 80 17 81 18 82 19 83 20 84 24 85 21 86 23 87 22 88
REMARK H PARENT 3 6 76 24 50 35 7 66 28 73 28 74
REMARK Flexibility Score: inf
ROOT
ATOM      1  C   UNL     1       6.576  -2.576   5.658  1.00  0.00     0.042 C 
ENDROOT
BRANCH   1   2
ATOM      2  C   UNL     1       7.938  -2.081   6.143  1.00  0.00     0.118 C 
BRANCH   2   3
ATOM      3  N   UNL     1       8.157  -0.664   5.872  1.00  0.00    -0.352 N 
ATOM      4  O   UNL     1       8.352   1.536   6.302  1.00  0.00    -0.269 OA
ATOM      5  C   UNL     1       8.363   0.386   6.731  1.00  0.00     0.251 C 
ATOM      6  H   UNL     1       8.156  -0.422   4.918  1.00  0.00     0.163 HD
BRANCH   5   7
ATOM      7  C   UNL     1       8.580   0.141   8.171  1.00  0.00     0.039 A 
ATOM      8  C   UNL     1       9.410  -0.894   8.603  1.00  0.00     0.014 A 
ATOM      9  C   UNL     1       7.966   0.981   9.105  1.00  0.00     0.014 A 
ATOM     10  C   UNL     1       9.502  -1.188   9.958  1.00  0.00     0.010 A 
ATOM     11  C   UNL     1       8.136   0.743  10.471  1.00  0.00     0.010 A 
ATOM     12  C   UNL     1       8.880  -0.363  10.909  1.00  0.00    -0.014 A 
BRANCH  12  13
ATOM     13  C   UNL     1       9.072  -0.643  12.355  1.00  0.00     0.031 A 
ATOM     14  C   UNL     1       7.913  -1.009  13.238  1.00  0.00     0.074 A 
ATOM     15  C   UNL     1      10.317  -0.579  12.866  1.00  0.00     0.049 A 
ATOM     16  N   UNL     1       7.908  -1.283  14.519  1.00  0.00    -0.248 NA
ATOM     17  C   UNL     1       6.586  -1.070  12.607  1.00  0.00     0.031 C 
ATOM     18  C   UNL     1      11.521  -0.226  12.109  1.00  0.00     0.029 A 
ATOM     19  N   UNL     1      10.781  -0.816  14.134  1.00  0.00    -0.354 N 
ATOM     20  C   UNL     1       6.582  -1.535  14.850  1.00  0.00     0.074 A 
ATOM     21  C   UNL     1       5.806  -1.347  13.643  1.00  0.00     0.031 C 
ATOM     22  C   UNL     1      12.588  -0.307  12.916  1.00  0.00     0.029 A 
ATOM     23  C   UNL     1      12.138  -0.648  14.261  1.00  0.00     0.049 A 
ATOM     24  H   UNL     1      10.197  -1.080  14.882  1.00  0.00     0.167 HD
ATOM     25  C   UNL     1       6.064  -1.897  16.049  1.00  0.00     0.037 A 
ATOM     26  C   UNL     1      12.933  -0.733  15.342  1.00  0.00     0.037 A 
ATOM     27  C   UNL     1       6.845  -2.081  17.247  1.00  0.00     0.049 A 
ATOM     28  C   UNL     1      12.324  -1.084  16.669  1.00  0.00     0.074 A 
ATOM     29  C   UNL     1       6.417  -2.478  18.502  1.00  0.00     0.029 A 
ATOM     30  N   UNL     1       8.213  -1.868  17.343  1.00  0.00    -0.354 N 
ATOM     31  N   UNL     1      11.076  -1.360  16.958  1.00  0.00    -0.248 NA
ATOM     32  C   UNL     1      13.235  -1.135  17.819  1.00  0.00     0.031 C 
ATOM     33  C   UNL     1       7.513  -2.446  19.371  1.00  0.00     0.029 A 
ATOM     34  C   UNL     1       8.639  -2.095  18.643  1.00  0.00     0.049 A 
ATOM     35  H   UNL     1       8.796  -1.596  16.597  1.00  0.00     0.167 HD
ATOM     36  C   UNL     1      11.055  -1.644  18.317  1.00  0.00     0.074 A 
ATOM     37  C   UNL     1      12.419  -1.523  18.789  1.00  0.00     0.031 C 
ATOM     38  C   UNL     1      10.000  -1.975  19.101  1.00  0.00     0.037 A 
BRANCH  25  39
ATOM     39  C   UNL     1       4.576  -2.094  16.135  1.00  0.00     0.057 A 
ATOM     40  C   UNL     1       3.930  -3.170  15.513  1.00  0.00     0.134 A 
ATOM     41  C   UNL     1       3.783  -1.219  16.890  1.00  0.00     0.134 A 
ATOM     42  F   UNL     1       4.626  -4.043  14.768  1.00  0.00    -0.206 F 
ATOM     43  C   UNL     1       2.549  -3.353  15.614  1.00  0.00     0.040 A 
ATOM     44  C   UNL     1       2.406  -1.408  17.024  1.00  0.00     0.040 A 
ATOM     45  F   UNL     1       4.336  -0.172  17.522  1.00  0.00    -0.206 F 
ATOM     46  C   UNL     1       1.784  -2.474  16.378  1.00  0.00     0.006 A 
ENDBRANCH  25  39
BRANCH  26  47
ATOM     47  C   UNL     1      14.388  -0.467  15.213  1.00  0.00     0.057 A 
ATOM     48  C   UNL     1      15.330  -1.486  15.388  1.00  0.00     0.134 A 
ATOM     49  C   UNL     1      14.870   0.813  14.908  1.00  0.00     0.134 A 
ATOM     50  F   UNL     1      14.931  -2.729  15.697  1.00  0.00    -0.206 F 
ATOM     51  C   UNL     1      16.700  -1.239  15.286  1.00  0.00     0.040 A 
ATOM     52  C   UNL     1      16.235   1.067  14.771  1.00  0.00     0.040 A 
ATOM     53  F   UNL     1      14.018   1.831  14.718  1.00  0.00    -0.206 F 
ATOM     54  C   UNL     1      17.155   0.040  14.969  1.00  0.00     0.006 A 
ENDBRANCH  26  47
BRANCH  38  55
ATOM     55  C   UNL     1      10.287  -2.272  20.546  1.00  0.00     0.057 A 
ATOM     56  C   UNL     1      10.662  -1.272  21.452  1.00  0.00     0.134 A 
ATOM     57  C   UNL     1      10.159  -3.577  21.041  1.00  0.00     0.134 A 
ATOM     58  F   UNL     1      10.819  -0.005  21.041  1.00  0.00    -0.206 F 
ATOM     59  C   UNL     1      10.925  -1.563  22.792  1.00  0.00     0.040 A 
ATOM     60  C   UNL     1      10.387  -3.874  22.385  1.00  0.00     0.040 A 
ATOM     61  F   UNL     1       9.796  -4.582  20.230  1.00  0.00    -0.206 F 
ATOM     62  C   UNL     1      10.780  -2.867  23.263  1.00  0.00     0.006 A 
ENDBRANCH  38  55
ENDBRANCH  12  13
ENDBRANCH   5   7
ENDBRANCH   2   3
ENDBRANCH   1   2
BRANCH   1  63
ATOM     63  C   UNL     1       6.367  -2.412   4.156  1.00  0.00     0.118 C 
BRANCH  63  64
ATOM     64  N   UNL     1       7.351  -3.150   3.392  1.00  0.00    -0.351 N 
ATOM     65  C   UNL     1       7.324  -4.358   2.776  1.00  0.00     0.278 C 
ATOM     66  H   UNL     1       8.211  -2.681   3.301  1.00  0.00     0.163 HD
ATOM     67  O   UNL     1       8.401  -4.728   2.289  1.00  0.00    -0.268 OA
BRANCH  65  68
ATOM     68  C   UNL     1       6.054  -5.191   2.554  1.00  0.00     0.273 C 
ATOM     69  C   UNL     1       6.424  -6.672   2.538  1.00  0.00     0.088 C 
ATOM     70  N   UNL     1       5.041  -5.144   3.623  1.00  0.00    -0.336 N 
ATOM     71  C   UNL     1       5.125  -7.422   2.885  1.00  0.00     0.028 C 
ATOM     72  C   UNL     1       4.191  -6.319   3.402  1.00  0.00     0.268 C 
ATOM     73  H   UNL     1       4.490  -4.288   3.557  1.00  0.00     0.346 HD
ATOM     74  H   UNL     1       5.465  -5.151   4.551  1.00  0.00     0.346 HD
ATOM     75  C   UNL     1       5.411  -8.453   3.994  1.00  0.00     0.030 C 
ATOM     76  C   UNL     1       4.516  -8.093   1.625  1.00  0.00     0.030 C 
ATOM     77  C   UNL     1       6.134  -9.655   3.419  1.00  0.00     0.104 C 
ATOM     78  C   UNL     1       5.207  -9.395   1.210  1.00  0.00     0.104 C 
ATOM     79  N   UNL     1       5.338 -10.320   2.370  1.00  0.00    -0.189 NA
BRANCH  79  80
ATOM     80  S   UNL     1       3.910 -11.153   2.759  1.00  0.00     0.282 S 
ATOM     81  O   UNL     1       2.988 -10.241   3.388  1.00  0.00    -0.195 OA
ATOM     82  O   UNL     1       3.523 -11.874   1.565  1.00  0.00    -0.195 OA
BRANCH  80  83
ATOM     83  N   UNL     1       4.401 -12.266   3.880  1.00  0.00    -0.184 NA
ATOM     84  C   UNL     1       5.230 -13.416   3.499  1.00  0.00     0.132 C 
ATOM     85  C   UNL     1       4.330 -12.046   5.335  1.00  0.00     0.132 C 
ATOM     86  C   UNL     1       6.625 -13.220   4.080  1.00  0.00     0.177 C 
ATOM     87  C   UNL     1       5.718 -12.087   5.994  1.00  0.00     0.177 C 
ATOM     88  O   UNL     1       6.573 -13.135   5.514  1.00  0.00    -0.379 OA
ENDBRANCH  80  83
ENDBRANCH  79  80
ENDBRANCH  65  68
ENDBRANCH  63  64
ENDBRANCH   1  63
TORSDOF 12
