REMARK SMILES O=C(CCCN1C(=O)/C(=C/c2ccccc2Cl)SC1=S)Nc1cccc(C(=O)NCCCNC(=O)c2ccc(-c3c4nc(c(-c5c(F)cccc5F)c5ccc([nH]5)c(-c5c(F)cccc5F)c5nc(c(-c6c(F)cccc6F)c6ccc3[nH]6)C=C5)C=C4)cc2)c1
REMARK SMILES IDX 27 1 28 2 29 3 26 5 22 6 23 7 90 8 24 9 25 10 21 11 1 12
REMARK SMILES IDX 2 13 3 15 4 16 5 17 6 18 7 19 19 20 8 21 9 22 18 23 20 24
REMARK SMILES IDX 10 25 11 26 12 27 16 28 13 29 15 30 17 31 14 32 30 33 31 34
REMARK SMILES IDX 32 35 33 36 34 37 35 39 36 40 37 41 89 42 38 43 88 44 39 45
REMARK SMILES IDX 40 46 41 47 82 48 42 49 87 50 81 51 83 52 43 53 86 54 80 55
REMARK SMILES IDX 79 56 44 58 70 59 53 60 69 61 54 62 57 63 68 64 84 65 55 66
REMARK SMILES IDX 56 67 67 69 85 70 58 71 45 72 46 73 51 74 47 75 48 76 50 77
REMARK SMILES IDX 52 78 49 79 71 80 72 81 77 82 73 83 74 84 76 85 78 86 75 87
REMARK SMILES IDX 59 88 60 89 65 90 61 91 62 92 64 93 66 94 63 95
REMARK H PARENT 29 4 21 14 33 38 83 57 57 68
REMARK Flexibility Score: inf
ROOT
ATOM      1  C   UNL     1      -0.635  -1.823  -3.854  1.00  0.00     0.251 C 
ATOM      2  O   UNL     1      -1.343  -2.499  -4.597  1.00  0.00    -0.269 OA
ATOM      3  N   UNL     1      -0.787  -0.451  -3.853  1.00  0.00    -0.352 N 
ATOM      4  H   UNL     1      -1.505  -0.126  -4.442  1.00  0.00     0.163 HD
ENDROOT
BRANCH   1   5
ATOM      5  C   UNL     1       0.414  -2.488  -3.041  1.00  0.00     0.041 A 
ATOM      6  C   UNL     1       1.999  -2.352  -1.227  1.00  0.00     0.041 A 
ATOM      7  C   UNL     1       2.721  -3.408  -1.789  1.00  0.00     0.026 A 
ATOM      8  C   UNL     1       0.777  -1.996  -1.790  1.00  0.00     0.040 A 
ATOM      9  C   UNL     1       2.241  -4.061  -2.928  1.00  0.00     0.003 A 
ATOM     10  C   UNL     1       1.106  -3.576  -3.579  1.00  0.00     0.014 A 
BRANCH   6  11
ATOM     11  N   UNL     1       2.614  -1.569  -0.225  1.00  0.00    -0.326 N 
ATOM     12  O   UNL     1       0.825  -0.295   0.538  1.00  0.00    -0.275 OA
ATOM     13  C   UNL     1       2.030  -0.508   0.443  1.00  0.00     0.224 C 
ATOM     14  H   UNL     1       3.540  -1.799   0.020  1.00  0.00     0.169 HD
BRANCH  13  15
ATOM     15  C   UNL     1       3.012   0.506   0.984  1.00  0.00     0.102 C 
BRANCH  15  16
ATOM     16  C   UNL     1       3.941  -0.004   2.081  1.00  0.00     0.032 C 
BRANCH  16  17
ATOM     17  C   UNL     1       5.310  -0.520   1.615  1.00  0.00     0.128 C 
BRANCH  17  18
ATOM     18  N   UNL     1       5.996   0.264   0.583  1.00  0.00    -0.293 N 
ATOM     19  C   UNL     1       6.008   1.649   0.655  1.00  0.00     0.266 C 
ATOM     20  C   UNL     1       6.770  -0.293  -0.419  1.00  0.00     0.148 C 
ATOM     21  O   UNL     1       5.545   2.341   1.545  1.00  0.00    -0.268 OA
ATOM     22  C   UNL     1       6.691   2.214  -0.532  1.00  0.00     0.081 C 
ATOM     23  S   UNL     1       7.553   0.975  -1.348  1.00  0.00    -0.054 SA
ATOM     24  S   UNL     1       6.983  -1.908  -0.781  1.00  0.00    -0.052 S 
ATOM     25  C   UNL     1       6.589   3.512  -0.850  1.00  0.00     0.031 C 
BRANCH  25  26
ATOM     26  C   UNL     1       7.368   4.136  -1.923  1.00  0.00    -0.006 A 
ATOM     27  C   UNL     1       8.438   4.942  -1.506  1.00  0.00     0.010 A 
ATOM     28  C   UNL     1       7.189   3.880  -3.292  1.00  0.00     0.048 A 
ATOM     29  C   UNL     1       9.374   5.398  -2.425  1.00  0.00     0.001 A 
ATOM     30  C   UNL     1       8.141   4.324  -4.210  1.00  0.00     0.021 A 
ATOM     31  Cl  UNL     1       5.824   3.006  -3.894  1.00  0.00    -0.084 Cl
ATOM     32  C   UNL     1       9.247   5.050  -3.764  1.00  0.00     0.002 A 
ENDBRANCH  25  26
ENDBRANCH  17  18
ENDBRANCH  16  17
ENDBRANCH  15  16
ENDBRANCH  13  15
ENDBRANCH   6  11
ENDBRANCH   1   5
BRANCH   3  33
ATOM     33  C   UNL     1      -0.076   0.609  -3.138  1.00  0.00     0.118 C 
BRANCH  33  34
ATOM     34  C   UNL     1       0.505   1.684  -4.039  1.00  0.00     0.042 C 
BRANCH  34  35
ATOM     35  C   UNL     1      -0.529   2.528  -4.759  1.00  0.00     0.118 C 
BRANCH  35  36
ATOM     36  N   UNL     1      -1.308   3.372  -3.860  1.00  0.00    -0.352 N 
ATOM     37  C   UNL     1      -1.319   4.738  -3.698  1.00  0.00     0.251 C 
ATOM     38  H   UNL     1      -1.929   2.884  -3.272  1.00  0.00     0.163 HD
ATOM     39  O   UNL     1      -1.944   5.242  -2.769  1.00  0.00    -0.269 OA
BRANCH  37  40
ATOM     40  C   UNL     1      -0.555   5.606  -4.621  1.00  0.00     0.039 A 
ATOM     41  C   UNL     1       0.172   6.684  -4.104  1.00  0.00     0.014 A 
ATOM     42  C   UNL     1      -0.552   5.362  -5.994  1.00  0.00     0.014 A 
ATOM     43  C   UNL     1       0.973   7.454  -4.954  1.00  0.00     0.010 A 
ATOM     44  C   UNL     1       0.324   6.056  -6.818  1.00  0.00     0.010 A 
ATOM     45  C   UNL     1       1.093   7.115  -6.311  1.00  0.00    -0.014 A 
BRANCH  45  46
ATOM     46  C   UNL     1       1.980   7.861  -7.241  1.00  0.00     0.031 A 
ATOM     47  C   UNL     1       1.388   8.525  -8.458  1.00  0.00     0.074 A 
ATOM     48  C   UNL     1       3.315   7.853  -7.062  1.00  0.00     0.049 A 
ATOM     49  N   UNL     1       1.991   9.055  -9.492  1.00  0.00    -0.248 NA
ATOM     50  C   UNL     1      -0.082   8.557  -8.541  1.00  0.00     0.031 C 
ATOM     51  C   UNL     1       4.034   7.204  -5.962  1.00  0.00     0.029 A 
ATOM     52  N   UNL     1       4.314   8.394  -7.833  1.00  0.00    -0.354 N 
ATOM     53  C   UNL     1       0.978   9.445 -10.360  1.00  0.00     0.074 A 
ATOM     54  C   UNL     1      -0.275   9.047  -9.756  1.00  0.00     0.031 C 
ATOM     55  C   UNL     1       5.355   7.392  -6.125  1.00  0.00     0.029 A 
ATOM     56  C   UNL     1       5.577   8.140  -7.358  1.00  0.00     0.049 A 
ATOM     57  H   UNL     1       4.141   8.914  -8.651  1.00  0.00     0.167 HD
ATOM     58  C   UNL     1       1.076  10.097 -11.543  1.00  0.00     0.037 A 
ATOM     59  C   UNL     1       6.776   8.456  -7.876  1.00  0.00     0.037 A 
ATOM     60  C   UNL     1       2.317  10.532 -12.126  1.00  0.00     0.049 A 
ATOM     61  C   UNL     1       6.859   9.182  -9.189  1.00  0.00     0.074 A 
ATOM     62  C   UNL     1       2.515  11.258 -13.288  1.00  0.00     0.029 A 
ATOM     63  N   UNL     1       3.569  10.287 -11.588  1.00  0.00    -0.354 N 
ATOM     64  N   UNL     1       5.894   9.574  -9.982  1.00  0.00    -0.248 NA
ATOM     65  C   UNL     1       8.209   9.502  -9.679  1.00  0.00     0.031 C 
ATOM     66  C   UNL     1       3.891  11.416 -13.475  1.00  0.00     0.029 A 
ATOM     67  C   UNL     1       4.545  10.834 -12.403  1.00  0.00     0.049 A 
ATOM     68  H   UNL     1       3.740   9.796 -10.752  1.00  0.00     0.167 HD
ATOM     69  C   UNL     1       6.518  10.205 -11.050  1.00  0.00     0.074 A 
ATOM     70  C   UNL     1       7.942  10.151 -10.802  1.00  0.00     0.031 C 
ATOM     71  C   UNL     1       5.958  10.781 -12.140  1.00  0.00     0.037 A 
BRANCH  58  72
ATOM     72  C   UNL     1      -0.196  10.387 -12.286  1.00  0.00     0.057 A 
ATOM     73  C   UNL     1      -1.125  11.326 -11.820  1.00  0.00     0.134 A 
ATOM     74  C   UNL     1      -0.474   9.752 -13.503  1.00  0.00     0.134 A 
ATOM     75  F   UNL     1      -0.924  11.962 -10.656  1.00  0.00    -0.206 F 
ATOM     76  C   UNL     1      -2.300  11.601 -12.523  1.00  0.00     0.040 A 
ATOM     77  C   UNL     1      -1.629  10.042 -14.230  1.00  0.00     0.040 A 
ATOM     78  F   UNL     1       0.379   8.849 -14.011  1.00  0.00    -0.206 F 
ATOM     79  C   UNL     1      -2.550  10.964 -13.736  1.00  0.00     0.006 A 
ENDBRANCH  58  72
BRANCH  59  80
ATOM     80  C   UNL     1       8.031   8.070  -7.194  1.00  0.00     0.057 A 
ATOM     81  C   UNL     1       8.796   9.021  -6.508  1.00  0.00     0.134 A 
ATOM     82  C   UNL     1       8.559   6.786  -7.342  1.00  0.00     0.134 A 
ATOM     83  F   UNL     1       8.349  10.277  -6.373  1.00  0.00    -0.206 F 
ATOM     84  C   UNL     1      10.066   8.715  -6.021  1.00  0.00     0.040 A 
ATOM     85  C   UNL     1       9.833   6.473  -6.872  1.00  0.00     0.040 A 
ATOM     86  F   UNL     1       7.860   5.831  -7.971  1.00  0.00    -0.206 F 
ATOM     87  C   UNL     1      10.593   7.440  -6.214  1.00  0.00     0.006 A 
ENDBRANCH  59  80
BRANCH  71  88
ATOM     88  C   UNL     1       6.879  11.443 -13.119  1.00  0.00     0.057 A 
ATOM     89  C   UNL     1       7.689  10.707 -13.991  1.00  0.00     0.134 A 
ATOM     90  C   UNL     1       6.918  12.839 -13.218  1.00  0.00     0.134 A 
ATOM     91  F   UNL     1       7.712   9.366 -13.931  1.00  0.00    -0.206 F 
ATOM     92  C   UNL     1       8.514  11.338 -14.923  1.00  0.00     0.040 A 
ATOM     93  C   UNL     1       7.719  13.481 -14.162  1.00  0.00     0.040 A 
ATOM     94  F   UNL     1       6.164  13.601 -12.410  1.00  0.00    -0.206 F 
ATOM     95  C   UNL     1       8.523  12.729 -15.016  1.00  0.00     0.006 A 
ENDBRANCH  71  88
ENDBRANCH  45  46
ENDBRANCH  37  40
ENDBRANCH  35  36
ENDBRANCH  34  35
ENDBRANCH  33  34
ENDBRANCH   3  33
TORSDOF 16
