REMARK SMILES O=C(NCCCNC(=O)c1ccc(-c2c3nc(c(-c4c(F)cccc4F)c4ccc([nH]4)c(-c4c(F)cccc4F)c4nc(c(-c5c(F)cccc5F)c5ccc2[nH]5)C=C4)C=C3)cc1)c1ccc(Cn2cc(Cl)c(=O)[nH]c2=O)cc1
REMARK SMILES IDX 5 1 4 2 3 3 1 4 2 5 64 7 65 8 79 9 66 10 78 11 67 12 68 13
REMARK SMILES IDX 69 14 70 15 76 16 71 17 75 18 77 19 72 20 73 21 74 23 6 24
REMARK SMILES IDX 7 25 8 26 9 28 10 29 11 30 63 31 12 32 62 33 13 34 14 35
REMARK SMILES IDX 15 36 56 37 16 38 61 39 55 40 57 41 17 42 60 43 54 44 53 45
REMARK SMILES IDX 18 47 44 48 27 49 43 50 28 51 31 52 42 53 58 54 29 55 30 56
REMARK SMILES IDX 41 58 59 59 32 60 19 61 20 62 25 63 21 64 22 65 24 66 26 67
REMARK SMILES IDX 23 68 45 69 46 70 51 71 47 72 48 73 50 74 52 75 49 76 33 77
REMARK SMILES IDX 34 78 39 79 35 80 36 81 38 82 40 83 37 84
REMARK H PARENT 3 6 75 22 7 27 57 46 31 57
REMARK Flexibility Score: inf
ROOT
ATOM      1  C   UNL     1       4.903  -0.843   1.974  1.00  0.00     0.042 C 
ENDROOT
BRANCH   1   2
ATOM      2  C   UNL     1       4.388  -1.077   0.558  1.00  0.00     0.118 C 
BRANCH   2   3
ATOM      3  N   UNL     1       2.941  -0.945   0.468  1.00  0.00    -0.352 N 
ATOM      4  O   UNL     1       0.983   0.112   0.087  1.00  0.00    -0.269 OA
ATOM      5  C   UNL     1       2.196   0.057  -0.100  1.00  0.00     0.251 C 
ATOM      6  H   UNL     1       2.425  -1.680   0.870  1.00  0.00     0.163 HD
BRANCH   5   7
ATOM      7  C   UNL     1       2.857   1.077  -0.934  1.00  0.00     0.039 A 
ATOM      8  C   UNL     1       3.607   0.693  -2.049  1.00  0.00     0.014 A 
ATOM      9  C   UNL     1       2.703   2.428  -0.617  1.00  0.00     0.014 A 
ATOM     10  C   UNL     1       4.266   1.661  -2.805  1.00  0.00     0.006 A 
ATOM     11  C   UNL     1       3.374   3.396  -1.371  1.00  0.00     0.006 A 
ATOM     12  C   UNL     1       4.175   3.020  -2.461  1.00  0.00    -0.028 A 
BRANCH  12  13
ATOM     13  C   UNL     1       4.953   4.059  -3.240  1.00  0.00     0.162 C 
BRANCH  13  14
ATOM     14  N   UNL     1       6.295   4.290  -2.691  1.00  0.00    -0.295 N 
ATOM     15  C   UNL     1       7.272   3.319  -2.836  1.00  0.00     0.117 A 
ATOM     16  C   UNL     1       6.555   5.491  -2.040  1.00  0.00     0.328 A 
ATOM     17  C   UNL     1       8.509   3.465  -2.353  1.00  0.00     0.122 A 
ATOM     18  N   UNL     1       7.836   5.640  -1.567  1.00  0.00    -0.273 N 
ATOM     19  O   UNL     1       5.732   6.387  -1.880  1.00  0.00    -0.248 OA
ATOM     20  Cl  UNL     1       9.701   2.242  -2.520  1.00  0.00    -0.077 Cl
ATOM     21  C   UNL     1       8.852   4.726  -1.655  1.00  0.00     0.272 A 
ATOM     22  H   UNL     1       8.045   6.491  -1.119  1.00  0.00     0.175 HD
ATOM     23  O   UNL     1       9.963   4.954  -1.186  1.00  0.00    -0.268 OA
ENDBRANCH  13  14
ENDBRANCH  12  13
ENDBRANCH   5   7
ENDBRANCH   2   3
ENDBRANCH   1   2
BRANCH   1  24
ATOM     24  C   UNL     1       4.419  -1.858   3.004  1.00  0.00     0.118 C 
BRANCH  24  25
ATOM     25  N   UNL     1       4.840  -3.219   2.705  1.00  0.00    -0.352 N 
ATOM     26  C   UNL     1       5.548  -4.125   3.453  1.00  0.00     0.251 C 
ATOM     27  H   UNL     1       4.572  -3.544   1.815  1.00  0.00     0.163 HD
ATOM     28  O   UNL     1       5.920  -5.172   2.928  1.00  0.00    -0.269 OA
BRANCH  26  29
ATOM     29  C   UNL     1       5.889  -3.860   4.870  1.00  0.00     0.039 A 
ATOM     30  C   UNL     1       7.135  -4.285   5.346  1.00  0.00     0.014 A 
ATOM     31  C   UNL     1       4.987  -3.252   5.747  1.00  0.00     0.014 A 
ATOM     32  C   UNL     1       7.494  -4.053   6.676  1.00  0.00     0.010 A 
ATOM     33  C   UNL     1       5.375  -2.950   7.051  1.00  0.00     0.010 A 
ATOM     34  C   UNL     1       6.628  -3.356   7.534  1.00  0.00    -0.014 A 
BRANCH  34  35
ATOM     35  C   UNL     1       7.014  -3.059   8.937  1.00  0.00     0.031 A 
ATOM     36  C   UNL     1       6.240  -3.655  10.082  1.00  0.00     0.074 A 
ATOM     37  C   UNL     1       8.027  -2.207   9.185  1.00  0.00     0.049 A 
ATOM     38  N   UNL     1       6.394  -3.472  11.369  1.00  0.00    -0.248 NA
ATOM     39  C   UNL     1       5.128  -4.553   9.733  1.00  0.00     0.031 C 
ATOM     40  C   UNL     1       8.822  -1.517   8.168  1.00  0.00     0.029 A 
ATOM     41  N   UNL     1       8.556  -1.768  10.373  1.00  0.00    -0.354 N 
ATOM     42  C   UNL     1       5.388  -4.210  11.980  1.00  0.00     0.074 A 
ATOM     43  C   UNL     1       4.601  -4.807  10.922  1.00  0.00     0.031 C 
ATOM     44  C   UNL     1       9.749  -0.759   8.774  1.00  0.00     0.029 A 
ATOM     45  C   UNL     1       9.597  -0.886  10.220  1.00  0.00     0.049 A 
ATOM     46  H   UNL     1       8.220  -2.058  11.252  1.00  0.00     0.167 HD
ATOM     47  C   UNL     1       5.152  -4.392  13.301  1.00  0.00     0.037 A 
ATOM     48  C   UNL     1      10.346  -0.250  11.141  1.00  0.00     0.037 A 
ATOM     49  C   UNL     1       5.957  -3.832  14.354  1.00  0.00     0.049 A 
ATOM     50  C   UNL     1      10.087  -0.495  12.601  1.00  0.00     0.074 A 
ATOM     51  C   UNL     1       5.844  -4.021  15.721  1.00  0.00     0.029 A 
ATOM     52  N   UNL     1       7.028  -2.973  14.157  1.00  0.00    -0.354 N 
ATOM     53  N   UNL     1       9.177  -1.253  13.162  1.00  0.00    -0.248 NA
ATOM     54  C   UNL     1      10.966   0.197  13.554  1.00  0.00     0.031 C 
ATOM     55  C   UNL     1       6.825  -3.249  16.353  1.00  0.00     0.029 A 
ATOM     56  C   UNL     1       7.574  -2.611  15.377  1.00  0.00     0.049 A 
ATOM     57  H   UNL     1       7.352  -2.666  13.280  1.00  0.00     0.167 HD
ATOM     58  C   UNL     1       9.389  -1.150  14.531  1.00  0.00     0.074 A 
ATOM     59  C   UNL     1      10.521  -0.266  14.714  1.00  0.00     0.031 C 
ATOM     60  C   UNL     1       8.705  -1.735  15.544  1.00  0.00     0.037 A 
BRANCH  47  61
ATOM     61  C   UNL     1       3.975  -5.241  13.682  1.00  0.00     0.057 A 
ATOM     62  C   UNL     1       3.973  -6.629  13.491  1.00  0.00     0.134 A 
ATOM     63  C   UNL     1       2.841  -4.669  14.271  1.00  0.00     0.134 A 
ATOM     64  F   UNL     1       5.024  -7.238  12.920  1.00  0.00    -0.206 F 
ATOM     65  C   UNL     1       2.874  -7.414  13.847  1.00  0.00     0.040 A 
ATOM     66  C   UNL     1       1.746  -5.446  14.654  1.00  0.00     0.040 A 
ATOM     67  F   UNL     1       2.779  -3.346  14.488  1.00  0.00    -0.206 F 
ATOM     68  C   UNL     1       1.759  -6.822  14.436  1.00  0.00     0.006 A 
ENDBRANCH  47  61
BRANCH  48  69
ATOM     69  C   UNL     1      11.436   0.657  10.707  1.00  0.00     0.057 A 
ATOM     70  C   UNL     1      12.779   0.289  10.851  1.00  0.00     0.134 A 
ATOM     71  C   UNL     1      11.165   1.907  10.139  1.00  0.00     0.134 A 
ATOM     72  F   UNL     1      13.100  -0.889  11.405  1.00  0.00    -0.206 F 
ATOM     73  C   UNL     1      13.815   1.138  10.460  1.00  0.00     0.040 A 
ATOM     74  C   UNL     1      12.191   2.758   9.724  1.00  0.00     0.040 A 
ATOM     75  F   UNL     1       9.898   2.313   9.969  1.00  0.00    -0.206 F 
ATOM     76  C   UNL     1      13.521   2.376   9.889  1.00  0.00     0.006 A 
ENDBRANCH  48  69
BRANCH  60  77
ATOM     77  C   UNL     1       9.182  -1.461  16.939  1.00  0.00     0.057 A 
ATOM     78  C   UNL     1       8.969  -0.226  17.563  1.00  0.00     0.134 A 
ATOM     79  C   UNL     1       9.835  -2.456  17.677  1.00  0.00     0.134 A 
ATOM     80  F   UNL     1       8.361   0.773  16.904  1.00  0.00    -0.206 F 
ATOM     81  C   UNL     1       9.408   0.018  18.865  1.00  0.00     0.040 A 
ATOM     82  C   UNL     1      10.258  -2.232  18.988  1.00  0.00     0.040 A 
ATOM     83  F   UNL     1      10.063  -3.664  17.140  1.00  0.00    -0.206 F 
ATOM     84  C   UNL     1      10.049  -0.990  19.584  1.00  0.00     0.006 A 
ENDBRANCH  60  77
ENDBRANCH  34  35
ENDBRANCH  26  29
ENDBRANCH  24  25
ENDBRANCH   1  24
TORSDOF 12
