REMARK SMILES O=C(NCCCNC(=O)[C@H]1C[C@H]2CCCC[C@H]2[N@@H+]1CC1(O)CCCC1)c1ccc(-c2c3nc(c(-c4c(F)cccc4F)c4ccc([nH]4)c(-c4c(F)cccc4F)c4nc(c(-c5c(F)cccc5F)c5ccc2[nH]5)C=C4)C=C3)cc1
REMARK SMILES IDX 5 1 4 2 3 3 1 4 2 5 26 7 27 8 79 9 28 10 78 11 29 12 30 13
REMARK SMILES IDX 31 14 72 15 32 16 77 17 71 18 73 19 33 20 76 21 70 22 69 23
REMARK SMILES IDX 34 25 60 26 43 27 59 28 44 29 47 30 58 31 74 32 45 33 46 34
REMARK SMILES IDX 57 36 75 37 48 38 35 39 36 40 41 41 37 42 38 43 40 44 42 45
REMARK SMILES IDX 39 46 61 47 62 48 67 49 63 50 64 51 66 52 68 53 65 54 49 55
REMARK SMILES IDX 50 56 55 57 51 58 52 59 54 60 56 61 53 62 6 63 7 64 8 65
REMARK SMILES IDX 9 67 10 68 11 69 18 70 12 71 17 72 13 74 16 75 14 76 15 77
REMARK SMILES IDX 19 78 20 79 22 80 25 81 23 82 24 83 21 84
REMARK H PARENT 3 6 73 24 47 35 7 66 18 73 21 85
REMARK Flexibility Score: inf
ROOT
ATOM      1  C   UNL     1       4.509  -2.458   0.747  1.00  0.00     0.042 C 
ENDROOT
BRANCH   1   2
ATOM      2  C   UNL     1       4.332  -1.228  -0.139  1.00  0.00     0.118 C 
BRANCH   2   3
ATOM      3  N   UNL     1       2.928  -0.925  -0.392  1.00  0.00    -0.352 N 
ATOM      4  O   UNL     1       1.009   0.245  -0.252  1.00  0.00    -0.269 OA
ATOM      5  C   UNL     1       2.229   0.235  -0.169  1.00  0.00     0.251 C 
ATOM      6  H   UNL     1       2.404  -1.662  -0.782  1.00  0.00     0.163 HD
BRANCH   5   7
ATOM      7  C   UNL     1       2.960   1.469   0.180  1.00  0.00     0.039 A 
ATOM      8  C   UNL     1       4.125   1.819  -0.507  1.00  0.00     0.014 A 
ATOM      9  C   UNL     1       2.458   2.296   1.189  1.00  0.00     0.014 A 
ATOM     10  C   UNL     1       4.860   2.922  -0.096  1.00  0.00     0.010 A 
ATOM     11  C   UNL     1       3.153   3.454   1.541  1.00  0.00     0.010 A 
ATOM     12  C   UNL     1       4.373   3.761   0.918  1.00  0.00    -0.014 A 
BRANCH  12  13
ATOM     13  C   UNL     1       5.127   4.990   1.263  1.00  0.00     0.031 A 
ATOM     14  C   UNL     1       5.745   5.166   2.619  1.00  0.00     0.074 A 
ATOM     15  C   UNL     1       5.266   5.942   0.321  1.00  0.00     0.049 A 
ATOM     16  N   UNL     1       6.448   6.170   3.079  1.00  0.00    -0.248 NA
ATOM     17  C   UNL     1       5.540   4.081   3.589  1.00  0.00     0.031 C 
ATOM     18  C   UNL     1       4.702   5.878  -1.030  1.00  0.00     0.029 A 
ATOM     19  N   UNL     1       5.938   7.135   0.344  1.00  0.00    -0.354 N 
ATOM     20  C   UNL     1       6.752   5.849   4.395  1.00  0.00     0.074 A 
ATOM     21  C   UNL     1       6.132   4.570   4.670  1.00  0.00     0.031 C 
ATOM     22  C   UNL     1       5.094   6.956  -1.721  1.00  0.00     0.029 A 
ATOM     23  C   UNL     1       5.879   7.818  -0.846  1.00  0.00     0.049 A 
ATOM     24  H   UNL     1       6.417   7.471   1.136  1.00  0.00     0.167 HD
ATOM     25  C   UNL     1       7.486   6.557   5.288  1.00  0.00     0.037 A 
ATOM     26  C   UNL     1       6.388   9.013  -1.192  1.00  0.00     0.037 A 
ATOM     27  C   UNL     1       8.105   7.826   4.999  1.00  0.00     0.049 A 
ATOM     28  C   UNL     1       7.168   9.791  -0.174  1.00  0.00     0.074 A 
ATOM     29  C   UNL     1       8.899   8.607   5.821  1.00  0.00     0.029 A 
ATOM     30  N   UNL     1       7.989   8.506   3.794  1.00  0.00    -0.354 N 
ATOM     31  N   UNL     1       7.477   9.462   1.056  1.00  0.00    -0.248 NA
ATOM     32  C   UNL     1       7.665  11.107  -0.592  1.00  0.00     0.031 C 
ATOM     33  C   UNL     1       9.220   9.782   5.132  1.00  0.00     0.029 A 
ATOM     34  C   UNL     1       8.674   9.710   3.860  1.00  0.00     0.049 A 
ATOM     35  H   UNL     1       7.494   8.181   3.008  1.00  0.00     0.167 HD
ATOM     36  C   UNL     1       8.224  10.519   1.556  1.00  0.00     0.074 A 
ATOM     37  C   UNL     1       8.332  11.492   0.487  1.00  0.00     0.031 C 
ATOM     38  C   UNL     1       8.771  10.669   2.787  1.00  0.00     0.037 A 
BRANCH  25  39
ATOM     39  C   UNL     1       7.631   5.986   6.670  1.00  0.00     0.057 A 
ATOM     40  C   UNL     1       8.393   4.838   6.928  1.00  0.00     0.134 A 
ATOM     41  C   UNL     1       7.011   6.603   7.764  1.00  0.00     0.134 A 
ATOM     42  F   UNL     1       9.006   4.190   5.926  1.00  0.00    -0.206 F 
ATOM     43  C   UNL     1       8.505   4.307   8.215  1.00  0.00     0.040 A 
ATOM     44  C   UNL     1       7.138   6.098   9.060  1.00  0.00     0.040 A 
ATOM     45  F   UNL     1       6.273   7.711   7.594  1.00  0.00    -0.206 F 
ATOM     46  C   UNL     1       7.879   4.941   9.287  1.00  0.00     0.006 A 
ENDBRANCH  25  39
BRANCH  26  47
ATOM     47  C   UNL     1       6.176   9.530  -2.565  1.00  0.00     0.057 A 
ATOM     48  C   UNL     1       7.235   9.615  -3.475  1.00  0.00     0.134 A 
ATOM     49  C   UNL     1       4.907   9.918  -3.013  1.00  0.00     0.134 A 
ATOM     50  F   UNL     1       8.476   9.271  -3.101  1.00  0.00    -0.206 F 
ATOM     51  C   UNL     1       7.042  10.074  -4.779  1.00  0.00     0.040 A 
ATOM     52  C   UNL     1       4.694  10.353  -4.321  1.00  0.00     0.040 A 
ATOM     53  F   UNL     1       3.849   9.849  -2.191  1.00  0.00    -0.206 F 
ATOM     54  C   UNL     1       5.766  10.436  -5.207  1.00  0.00     0.006 A 
ENDBRANCH  26  47
BRANCH  38  55
ATOM     55  C   UNL     1       9.566  11.918   3.029  1.00  0.00     0.057 A 
ATOM     56  C   UNL     1       8.956  13.172   3.157  1.00  0.00     0.134 A 
ATOM     57  C   UNL     1      10.960  11.860   3.155  1.00  0.00     0.134 A 
ATOM     58  F   UNL     1       7.626  13.299   3.029  1.00  0.00    -0.206 F 
ATOM     59  C   UNL     1       9.707  14.328   3.377  1.00  0.00     0.040 A 
ATOM     60  C   UNL     1      11.718  13.004   3.404  1.00  0.00     0.040 A 
ATOM     61  F   UNL     1      11.606  10.689   3.049  1.00  0.00    -0.206 F 
ATOM     62  C   UNL     1      11.092  14.244   3.508  1.00  0.00     0.006 A 
ENDBRANCH  38  55
ENDBRANCH  12  13
ENDBRANCH   5   7
ENDBRANCH   2   3
ENDBRANCH   1   2
BRANCH   1  63
ATOM     63  C   UNL     1       4.011  -3.737   0.083  1.00  0.00     0.118 C 
BRANCH  63  64
ATOM     64  N   UNL     1       4.822  -4.069  -1.064  1.00  0.00    -0.351 N 
ATOM     65  C   UNL     1       5.906  -4.892  -1.148  1.00  0.00     0.278 C 
ATOM     66  H   UNL     1       4.553  -3.639  -1.908  1.00  0.00     0.163 HD
ATOM     67  O   UNL     1       6.525  -4.856  -2.216  1.00  0.00    -0.268 OA
BRANCH  65  68
ATOM     68  C   UNL     1       6.235  -5.894  -0.009  1.00  0.00     0.274 C 
ATOM     69  C   UNL     1       7.352  -6.862  -0.463  1.00  0.00     0.085 C 
ATOM     70  N   UNL     1       6.753  -5.226   1.223  1.00  0.00    -0.320 N 
ATOM     71  C   UNL     1       8.337  -6.881   0.697  1.00  0.00     0.054 C 
ATOM     72  C   UNL     1       8.200  -5.486   1.287  1.00  0.00     0.188 C 
ATOM     73  H   UNL     1       6.570  -4.226   1.142  1.00  0.00     0.349 HD
ATOM     74  C   UNL     1       9.769  -7.286   0.375  1.00  0.00     0.010 C 
ATOM     75  C   UNL     1       8.994  -4.431   0.494  1.00  0.00     0.065 C 
ATOM     76  C   UNL     1      10.554  -6.217  -0.372  1.00  0.00     0.001 C 
ATOM     77  C   UNL     1      10.450  -4.856   0.312  1.00  0.00     0.006 C 
BRANCH  70  78
ATOM     78  C   UNL     1       6.037  -5.548   2.484  1.00  0.00     0.298 C 
BRANCH  78  79
ATOM     79  C   UNL     1       5.850  -6.947   3.171  1.00  0.00     0.113 C 
ATOM     80  C   UNL     1       5.316  -8.091   2.300  1.00  0.00     0.041 C 
ATOM     81  C   UNL     1       7.078  -7.521   3.906  1.00  0.00     0.041 C 
ATOM     82  C   UNL     1       5.734  -9.359   3.034  1.00  0.00     0.003 C 
ATOM     83  C   UNL     1       7.104  -9.023   3.600  1.00  0.00     0.003 C 
BRANCH  79  84
ATOM     84  O   UNL     1       4.842  -6.719   4.192  1.00  0.00    -0.384 OA
ATOM     85  H   UNL     1       4.042  -6.355   3.781  1.00  0.00     0.211 HD
ENDBRANCH  79  84
ENDBRANCH  78  79
ENDBRANCH  70  78
ENDBRANCH  65  68
ENDBRANCH  63  64
ENDBRANCH   1  63
TORSDOF 13
