REMARK SMILES Cc1n[nH]c2c1[C@@]1(C(=O)N([C@@H](C)C(=O)NCCCNC(=O)c3ccc(-c4c5nc(c(-c6c(F)cccc6F)c6ccc([nH]6)c(-c6c(F)cccc6F)c6nc(c(-c7c(F)cccc7F)c7ccc4[nH]7)C=C6)C=C5)cc3)c3ccccc31)C(C#N)=C(N)O2
REMARK SMILES IDX 17 1 16 2 15 3 13 4 14 5 11 7 12 8 10 9 1 10 2 11 3 12 6 13
REMARK SMILES IDX 4 14 5 15 7 16 87 18 8 19 81 20 82 21 85 22 9 23 76 24 80 25
REMARK SMILES IDX 77 26 79 27 78 28 83 29 84 30 86 31 18 34 19 35 20 36 21 38
REMARK SMILES IDX 22 39 23 40 75 41 24 42 74 43 25 44 26 45 27 46 68 47 28 48
REMARK SMILES IDX 73 49 67 50 69 51 29 52 72 53 66 54 65 55 30 57 56 58 39 59
REMARK SMILES IDX 55 60 40 61 43 62 54 63 70 64 41 65 42 66 53 68 71 69 44 70
REMARK SMILES IDX 31 71 32 72 37 73 33 74 34 75 36 76 38 77 35 78 57 79 58 80
REMARK SMILES IDX 63 81 59 82 60 83 62 84 64 85 61 86 45 87 46 88 51 89 47 90
REMARK SMILES IDX 48 91 50 92 52 93 49 94
REMARK H PARENT 15 6 4 17 86 32 86 33 19 37 69 56 43 67
REMARK Flexibility Score: inf
ROOT
ATOM      1  C   UNL     1       4.199  -2.395  -4.216  1.00  0.00     0.042 C 
ENDROOT
BRANCH   1   2
ATOM      2  C   UNL     1       4.911  -1.049  -4.033  1.00  0.00     0.117 C 
BRANCH   2   3
ATOM      3  N   UNL     1       4.417  -0.015  -4.930  1.00  0.00    -0.354 N 
ATOM      4  C   UNL     1       3.611   1.069  -4.771  1.00  0.00     0.242 C 
ATOM      5  O   UNL     1       3.458   1.768  -5.784  1.00  0.00    -0.273 OA
ATOM      6  H   UNL     1       4.736  -0.123  -5.855  1.00  0.00     0.163 HD
BRANCH   4   7
ATOM      7  C   UNL     1       2.841   1.455  -3.481  1.00  0.00     0.176 C 
ATOM      8  C   UNL     1       3.685   1.685  -2.234  1.00  0.00     0.042 C 
BRANCH   7   9
ATOM      9  N   UNL     1       1.664   0.619  -3.269  1.00  0.00    -0.298 N 
ATOM     10  C   UNL     1       0.588  -0.068   0.338  1.00  0.00     0.069 C 
ATOM     11  C   UNL     1       0.019  -1.342  -0.170  1.00  0.00     0.068 A 
ATOM     12  N   UNL     1      -0.387  -2.282   0.700  1.00  0.00    -0.177 NA
ATOM     13  C   UNL     1      -0.097  -1.794  -1.510  1.00  0.00     0.063 A 
ATOM     14  N   UNL     1      -0.678  -3.348  -0.073  1.00  0.00    -0.246 N 
ATOM     15  C   UNL     1      -0.506  -3.096  -1.395  1.00  0.00     0.222 A 
ATOM     16  C   UNL     1       0.292  -1.262  -2.847  1.00  0.00     0.149 C 
ATOM     17  H   UNL     1      -0.983  -4.214   0.284  1.00  0.00     0.193 HD
ATOM     18  O   UNL     1      -0.627  -4.001  -2.357  1.00  0.00    -0.422 OA
ATOM     19  C   UNL     1       1.704  -0.674  -2.757  1.00  0.00     0.248 C 
ATOM     20  C   UNL     1      -0.536  -0.042  -3.139  1.00  0.00     0.002 A 
ATOM     21  C   UNL     1       0.202  -2.343  -3.927  1.00  0.00     0.114 C 
ATOM     22  C   UNL     1      -0.238  -3.605  -3.648  1.00  0.00     0.208 C 
ATOM     23  O   UNL     1       2.673  -1.233  -2.246  1.00  0.00    -0.273 OA
ATOM     24  C   UNL     1       0.323   1.028  -3.439  1.00  0.00     0.050 A 
ATOM     25  C   UNL     1      -1.917   0.107  -3.163  1.00  0.00     0.008 A 
ATOM     26  C   UNL     1      -0.186   2.269  -3.772  1.00  0.00     0.027 A 
ATOM     27  C   UNL     1      -2.435   1.363  -3.475  1.00  0.00     0.001 A 
ATOM     28  C   UNL     1      -1.578   2.432  -3.780  1.00  0.00     0.002 A 
BRANCH  21  29
ATOM     29  C   UNL     1       0.571  -2.049  -5.372  1.00  0.00     0.102 C 
ATOM     30  N   UNL     1       0.876  -1.805  -6.571  1.00  0.00    -0.193 NA
ENDBRANCH  21  29
BRANCH  22  31
ATOM     31  N   UNL     1      -0.367  -4.617  -4.554  1.00  0.00    -0.369 N 
ATOM     32  H   UNL     1      -0.126  -4.467  -5.497  1.00  0.00     0.159 HD
ATOM     33  H   UNL     1      -0.700  -5.497  -4.266  1.00  0.00     0.159 HD
ENDBRANCH  22  31
ENDBRANCH   7   9
ENDBRANCH   4   7
ENDBRANCH   2   3
ENDBRANCH   1   2
BRANCH   1  34
ATOM     34  C   UNL     1       4.665  -3.229  -5.399  1.00  0.00     0.118 C 
BRANCH  34  35
ATOM     35  N   UNL     1       6.019  -3.715  -5.256  1.00  0.00    -0.352 N 
ATOM     36  C   UNL     1       6.617  -4.726  -4.557  1.00  0.00     0.251 C 
ATOM     37  H   UNL     1       6.663  -3.195  -5.789  1.00  0.00     0.163 HD
ATOM     38  O   UNL     1       7.835  -4.837  -4.729  1.00  0.00    -0.269 OA
BRANCH  36  39
ATOM     39  C   UNL     1       5.945  -5.673  -3.615  1.00  0.00     0.039 A 
ATOM     40  C   UNL     1       4.576  -5.772  -3.365  1.00  0.00     0.014 A 
ATOM     41  C   UNL     1       6.803  -6.563  -2.936  1.00  0.00     0.014 A 
ATOM     42  C   UNL     1       4.084  -6.712  -2.450  1.00  0.00     0.010 A 
ATOM     43  C   UNL     1       6.317  -7.514  -2.038  1.00  0.00     0.010 A 
ATOM     44  C   UNL     1       4.951  -7.585  -1.780  1.00  0.00    -0.014 A 
BRANCH  44  45
ATOM     45  C   UNL     1       4.375  -8.658  -0.954  1.00  0.00     0.031 A 
ATOM     46  C   UNL     1       3.499  -9.620  -1.683  1.00  0.00     0.074 A 
ATOM     47  C   UNL     1       4.716  -8.935   0.325  1.00  0.00     0.049 A 
ATOM     48  N   UNL     1       2.261  -9.912  -1.444  1.00  0.00    -0.248 NA
ATOM     49  C   UNL     1       4.062 -10.311  -2.854  1.00  0.00     0.031 C 
ATOM     50  C   UNL     1       5.796  -8.314   1.093  1.00  0.00     0.029 A 
ATOM     51  N   UNL     1       4.242  -9.906   1.176  1.00  0.00    -0.354 N 
ATOM     52  C   UNL     1       1.948 -10.967  -2.301  1.00  0.00     0.074 A 
ATOM     53  C   UNL     1       3.041 -11.083  -3.229  1.00  0.00     0.031 C 
ATOM     54  C   UNL     1       6.033  -9.049   2.201  1.00  0.00     0.029 A 
ATOM     55  C   UNL     1       5.044 -10.114   2.292  1.00  0.00     0.049 A 
ATOM     56  H   UNL     1       3.412 -10.408   1.010  1.00  0.00     0.167 HD
ATOM     57  C   UNL     1       0.939 -11.832  -2.008  1.00  0.00     0.037 A 
ATOM     58  C   UNL     1       4.948 -11.089   3.228  1.00  0.00     0.037 A 
ATOM     59  C   UNL     1       0.065 -11.312  -0.992  1.00  0.00     0.049 A 
ATOM     60  C   UNL     1       3.572 -11.631   3.235  1.00  0.00     0.074 A 
ATOM     61  C   UNL     1      -0.964 -10.405  -0.886  1.00  0.00     0.029 A 
ATOM     62  N   UNL     1       0.451 -11.638   0.275  1.00  0.00    -0.354 N 
ATOM     63  N   UNL     1       2.532 -10.981   3.675  1.00  0.00    -0.248 NA
ATOM     64  C   UNL     1       3.275 -12.880   2.540  1.00  0.00     0.031 C 
ATOM     65  C   UNL     1      -1.084 -10.092   0.504  1.00  0.00     0.029 A 
ATOM     66  C   UNL     1      -0.122 -10.815   1.203  1.00  0.00     0.049 A 
ATOM     67  H   UNL     1       1.065 -12.376   0.494  1.00  0.00     0.167 HD
ATOM     68  C   UNL     1       1.480 -11.493   2.947  1.00  0.00     0.074 A 
ATOM     69  C   UNL     1       1.948 -12.774   2.440  1.00  0.00     0.031 C 
ATOM     70  C   UNL     1       0.481 -10.676   2.508  1.00  0.00     0.037 A 
BRANCH  57  71
ATOM     71  C   UNL     1       1.008 -13.335  -2.226  1.00  0.00     0.057 A 
ATOM     72  C   UNL     1       2.212 -14.062  -2.327  1.00  0.00     0.134 A 
ATOM     73  C   UNL     1      -0.134 -14.113  -1.944  1.00  0.00     0.134 A 
ATOM     74  F   UNL     1       3.394 -13.466  -2.520  1.00  0.00    -0.206 F 
ATOM     75  C   UNL     1       2.282 -15.445  -2.120  1.00  0.00     0.040 A 
ATOM     76  C   UNL     1      -0.066 -15.488  -1.686  1.00  0.00     0.040 A 
ATOM     77  F   UNL     1      -1.341 -13.540  -1.817  1.00  0.00    -0.206 F 
ATOM     78  C   UNL     1       1.149 -16.157  -1.761  1.00  0.00     0.006 A 
ENDBRANCH  57  71
BRANCH  58  79
ATOM     79  C   UNL     1       5.999 -11.665   4.101  1.00  0.00     0.057 A 
ATOM     80  C   UNL     1       7.339 -11.742   3.688  1.00  0.00     0.134 A 
ATOM     81  C   UNL     1       5.675 -12.377   5.267  1.00  0.00     0.134 A 
ATOM     82  F   UNL     1       7.746 -11.169   2.545  1.00  0.00    -0.206 F 
ATOM     83  C   UNL     1       8.299 -12.482   4.386  1.00  0.00     0.040 A 
ATOM     84  C   UNL     1       6.622 -13.135   5.967  1.00  0.00     0.040 A 
ATOM     85  F   UNL     1       4.415 -12.405   5.725  1.00  0.00    -0.206 F 
ATOM     86  C   UNL     1       7.938 -13.195   5.522  1.00  0.00     0.006 A 
ENDBRANCH  58  79
BRANCH  70  87
ATOM     87  C   UNL     1       0.176  -9.467   3.330  1.00  0.00     0.057 A 
ATOM     88  C   UNL     1      -1.090  -9.369   3.920  1.00  0.00     0.134 A 
ATOM     89  C   UNL     1       1.067  -8.409   3.545  1.00  0.00     0.134 A 
ATOM     90  F   UNL     1      -2.010 -10.325   3.715  1.00  0.00    -0.206 F 
ATOM     91  C   UNL     1      -1.446  -8.282   4.718  1.00  0.00     0.040 A 
ATOM     92  C   UNL     1       0.736  -7.333   4.373  1.00  0.00     0.040 A 
ATOM     93  F   UNL     1       2.265  -8.376   2.944  1.00  0.00    -0.206 F 
ATOM     94  C   UNL     1      -0.524  -7.269   4.963  1.00  0.00     0.006 A 
ENDBRANCH  70  87
ENDBRANCH  44  45
ENDBRANCH  36  39
ENDBRANCH  34  35
ENDBRANCH   1  34
TORSDOF 13
