REMARK SMILES CS(=O)(=O)c1ccc(N2N=C(C(=O)NCCCNC(=O)c3ccc(-c4c5nc(c(-c6c(F)cccc6F)c6ccc([nH]6)c(-c6c(F)cccc6F)c6nc(c(-c7c(F)cccc7F)c7ccc4[nH]7)C=C6)C=C5)cc3)C[C@H]2c2cccs2)cc1
REMARK SMILES IDX 16 1 15 2 14 3 12 4 13 5 11 7 9 8 10 9 76 10 75 11 8 12 5 13
REMARK SMILES IDX 6 14 83 15 7 16 82 17 2 18 1 19 3 20 4 21 77 22 78 23 81 24
REMARK SMILES IDX 79 25 80 26 17 27 18 28 19 29 20 31 21 32 22 33 74 34 23 35
REMARK SMILES IDX 73 36 24 37 25 38 26 39 67 40 27 41 72 42 66 43 68 44 28 45
REMARK SMILES IDX 71 46 65 47 64 48 29 50 55 51 38 52 54 53 39 54 42 55 53 56
REMARK SMILES IDX 69 57 40 58 41 59 52 61 70 62 43 63 30 64 31 65 36 66 32 67
REMARK SMILES IDX 33 68 35 69 37 70 34 71 56 72 57 73 62 74 58 75 59 76 61 77
REMARK SMILES IDX 63 78 60 79 44 80 45 81 50 82 46 83 47 84 49 85 51 86 48 87
REMARK H PARENT 14 6 18 30 68 49 42 60
REMARK Flexibility Score: inf
ROOT
ATOM      1  C   UNL     1       3.384 -12.396   1.715  1.00  0.00     0.042 C 
ENDROOT
BRANCH   1   2
ATOM      2  C   UNL     1       4.106 -11.336   0.895  1.00  0.00     0.118 C 
BRANCH   2   3
ATOM      3  N   UNL     1       3.250 -10.816  -0.151  1.00  0.00    -0.351 N 
ATOM      4  C   UNL     1       2.549  -9.654  -0.334  1.00  0.00     0.267 C 
ATOM      5  O   UNL     1       1.807  -9.595  -1.312  1.00  0.00    -0.268 OA
ATOM      6  H   UNL     1       3.150 -11.441  -0.905  1.00  0.00     0.163 HD
BRANCH   4   7
ATOM      7  C   UNL     1       2.672  -8.428   0.557  1.00  0.00     0.128 C 
ATOM      8  N   UNL     1       2.590  -6.367   1.088  1.00  0.00    -0.256 N 
ATOM      9  N   UNL     1       2.248  -7.272   0.140  1.00  0.00    -0.171 NA
ATOM     10  C   UNL     1       3.222  -6.947   2.273  1.00  0.00     0.154 C 
ATOM     11  C   UNL     1       3.201  -8.446   1.954  1.00  0.00     0.097 C 
BRANCH   8  12
ATOM     12  C   UNL     1       1.999  -5.110   1.125  1.00  0.00     0.060 A 
ATOM     13  C   UNL     1       0.861  -2.559   1.329  1.00  0.00     0.067 A 
ATOM     14  C   UNL     1       0.032  -3.674   1.196  1.00  0.00     0.022 A 
ATOM     15  C   UNL     1       2.247  -2.699   1.349  1.00  0.00     0.022 A 
ATOM     16  C   UNL     1       0.607  -4.945   1.084  1.00  0.00     0.029 A 
ATOM     17  C   UNL     1       2.803  -3.968   1.231  1.00  0.00     0.029 A 
BRANCH  13  18
ATOM     18  S   UNL     1       0.174  -0.931   1.479  1.00  0.00     0.175 S 
ATOM     19  C   UNL     1       0.784  -0.087   0.041  1.00  0.00     0.163 C 
ATOM     20  O   UNL     1       0.783  -0.329   2.653  1.00  0.00    -0.224 OA
ATOM     21  O   UNL     1      -1.264  -1.036   1.356  1.00  0.00    -0.224 OA
ENDBRANCH  13  18
ENDBRANCH   8  12
BRANCH  10  22
ATOM     22  C   UNL     1       4.600  -6.402   2.627  1.00  0.00     0.030 A 
ATOM     23  C   UNL     1       4.877  -5.360   3.497  1.00  0.00     0.017 A 
ATOM     24  S   UNL     1       6.051  -6.983   1.906  1.00  0.00    -0.147 S 
ATOM     25  C   UNL     1       6.268  -5.069   3.591  1.00  0.00     0.012 A 
ATOM     26  C   UNL     1       7.023  -5.918   2.816  1.00  0.00     0.065 A 
ENDBRANCH  10  22
ENDBRANCH   4   7
ENDBRANCH   2   3
ENDBRANCH   1   2
BRANCH   1  27
ATOM     27  C   UNL     1       3.284 -13.723   0.976  1.00  0.00     0.118 C 
BRANCH  27  28
ATOM     28  N   UNL     1       4.598 -14.314   0.747  1.00  0.00    -0.352 N 
ATOM     29  C   UNL     1       5.146 -15.471   1.235  1.00  0.00     0.251 C 
ATOM     30  H   UNL     1       5.184 -13.799   0.145  1.00  0.00     0.163 HD
ATOM     31  O   UNL     1       6.355 -15.660   1.134  1.00  0.00    -0.269 OA
BRANCH  29  32
ATOM     32  C   UNL     1       4.289 -16.485   1.879  1.00  0.00     0.039 A 
ATOM     33  C   UNL     1       4.785 -17.203   2.969  1.00  0.00     0.014 A 
ATOM     34  C   UNL     1       3.012 -16.757   1.382  1.00  0.00     0.014 A 
ATOM     35  C   UNL     1       3.981 -18.162   3.587  1.00  0.00     0.010 A 
ATOM     36  C   UNL     1       2.176 -17.630   2.063  1.00  0.00     0.010 A 
ATOM     37  C   UNL     1       2.661 -18.364   3.154  1.00  0.00    -0.014 A 
BRANCH  37  38
ATOM     38  C   UNL     1       1.782 -19.377   3.786  1.00  0.00     0.031 A 
ATOM     39  C   UNL     1       1.261 -20.526   2.965  1.00  0.00     0.074 A 
ATOM     40  C   UNL     1       1.405 -19.230   5.070  1.00  0.00     0.049 A 
ATOM     41  N   UNL     1       0.418 -21.469   3.301  1.00  0.00    -0.248 NA
ATOM     42  C   UNL     1       1.720 -20.607   1.567  1.00  0.00     0.031 C 
ATOM     43  C   UNL     1       1.808 -18.133   5.953  1.00  0.00     0.029 A 
ATOM     44  N   UNL     1       0.588 -20.004   5.853  1.00  0.00    -0.354 N 
ATOM     45  C   UNL     1       0.230 -22.232   2.155  1.00  0.00     0.074 A 
ATOM     46  C   UNL     1       0.995 -21.610   1.098  1.00  0.00     0.031 C 
ATOM     47  C   UNL     1       1.263 -18.324   7.166  1.00  0.00     0.029 A 
ATOM     48  C   UNL     1       0.440 -19.528   7.133  1.00  0.00     0.049 A 
ATOM     49  H   UNL     1       0.150 -20.824   5.529  1.00  0.00     0.167 HD
ATOM     50  C   UNL     1      -0.493 -23.366   2.003  1.00  0.00     0.037 A 
ATOM     51  C   UNL     1      -0.282 -20.011   8.161  1.00  0.00     0.037 A 
ATOM     52  C   UNL     1      -1.220 -24.002   3.068  1.00  0.00     0.049 A 
ATOM     53  C   UNL     1      -1.075 -21.275   7.966  1.00  0.00     0.074 A 
ATOM     54  C   UNL     1      -1.932 -25.187   3.038  1.00  0.00     0.029 A 
ATOM     55  N   UNL     1      -1.325 -23.503   4.358  1.00  0.00    -0.354 N 
ATOM     56  N   UNL     1      -1.190 -22.024   6.896  1.00  0.00    -0.248 NA
ATOM     57  C   UNL     1      -1.831 -21.765   9.127  1.00  0.00     0.031 C 
ATOM     58  C   UNL     1      -2.509 -25.381   4.297  1.00  0.00     0.029 A 
ATOM     59  C   UNL     1      -2.106 -24.347   5.128  1.00  0.00     0.049 A 
ATOM     60  H   UNL     1      -0.906 -22.671   4.678  1.00  0.00     0.167 HD
ATOM     61  C   UNL     1      -1.993 -23.096   7.267  1.00  0.00     0.074 A 
ATOM     62  C   UNL     1      -2.329 -22.901   8.662  1.00  0.00     0.031 C 
ATOM     63  C   UNL     1      -2.411 -24.148   6.522  1.00  0.00     0.037 A 
BRANCH  50  64
ATOM     64  C   UNL     1      -0.528 -23.992   0.637  1.00  0.00     0.057 A 
ATOM     65  C   UNL     1       0.602 -24.593   0.067  1.00  0.00     0.134 A 
ATOM     66  C   UNL     1      -1.716 -24.020  -0.104  1.00  0.00     0.134 A 
ATOM     67  F   UNL     1       1.776 -24.589   0.716  1.00  0.00    -0.206 F 
ATOM     68  C   UNL     1       0.558 -25.175  -1.202  1.00  0.00     0.040 A 
ATOM     69  C   UNL     1      -1.780 -24.626  -1.360  1.00  0.00     0.040 A 
ATOM     70  F   UNL     1      -2.837 -23.467   0.383  1.00  0.00    -0.206 F 
ATOM     71  C   UNL     1      -0.638 -25.199  -1.915  1.00  0.00     0.006 A 
ENDBRANCH  50  64
BRANCH  51  72
ATOM     72  C   UNL     1      -0.266 -19.322   9.477  1.00  0.00     0.057 A 
ATOM     73  C   UNL     1       0.337 -19.916  10.593  1.00  0.00     0.134 A 
ATOM     74  C   UNL     1      -0.869 -18.072   9.660  1.00  0.00     0.134 A 
ATOM     75  F   UNL     1       0.918 -21.120  10.485  1.00  0.00    -0.206 F 
ATOM     76  C   UNL     1       0.313 -19.308  11.849  1.00  0.00     0.040 A 
ATOM     77  C   UNL     1      -0.875 -17.439  10.905  1.00  0.00     0.040 A 
ATOM     78  F   UNL     1      -1.454 -17.444   8.630  1.00  0.00    -0.206 F 
ATOM     79  C   UNL     1      -0.292 -18.063  12.006  1.00  0.00     0.006 A 
ENDBRANCH  51  72
BRANCH  63  80
ATOM     80  C   UNL     1      -3.223 -25.203   7.216  1.00  0.00     0.057 A 
ATOM     81  C   UNL     1      -4.541 -24.978   7.630  1.00  0.00     0.134 A 
ATOM     82  C   UNL     1      -2.682 -26.476   7.438  1.00  0.00     0.134 A 
ATOM     83  F   UNL     1      -5.114 -23.777   7.457  1.00  0.00    -0.206 F 
ATOM     84  C   UNL     1      -5.283 -25.974   8.269  1.00  0.00     0.040 A 
ATOM     85  C   UNL     1      -3.424 -27.489   8.046  1.00  0.00     0.040 A 
ATOM     86  F   UNL     1      -1.428 -26.762   7.055  1.00  0.00    -0.206 F 
ATOM     87  C   UNL     1      -4.726 -27.236   8.471  1.00  0.00     0.006 A 
ENDBRANCH  63  80
ENDBRANCH  37  38
ENDBRANCH  29  32
ENDBRANCH  27  28
ENDBRANCH   1  27
TORSDOF 13
