REMARK SMILES O=C(NCCCNC(=O)c1ccc(-c2c3nc(c(-c4c(F)cccc4F)c4ccc([nH]4)c(-c4c(F)cccc4F)c4nc(c(-c5c(F)cccc5F)c5ccc2[nH]5)C=C4)C=C3)cc1)C1=Cc2cc(Cl)cc(Cl)c2O[C@@H]1C(F)(F)F
REMARK SMILES IDX 5 1 4 2 3 3 1 4 2 5 64 7 65 8 75 9 66 10 74 11 67 12 73 13
REMARK SMILES IDX 68 14 71 15 69 16 70 17 72 18 76 19 77 20 78 21 79 22 6 23
REMARK SMILES IDX 7 24 8 25 9 27 10 28 11 29 63 30 12 31 62 32 13 33 14 34
REMARK SMILES IDX 15 35 56 36 16 37 61 38 55 39 57 40 17 41 60 42 54 43 53 44
REMARK SMILES IDX 18 46 44 47 27 48 43 49 28 50 31 51 42 52 58 53 29 54 30 55
REMARK SMILES IDX 41 57 59 58 32 59 19 60 20 61 25 62 21 63 22 64 24 65 26 66
REMARK SMILES IDX 23 67 45 68 46 69 51 70 47 71 48 72 50 73 52 74 49 75 33 76
REMARK SMILES IDX 34 77 39 78 35 79 36 80 38 81 40 82 37 83
REMARK H PARENT 3 6 7 26 57 45 31 56
REMARK Flexibility Score: inf
ROOT
ATOM      1  C   UNL     1       3.996  -1.355   2.378  1.00  0.00     0.042 C 
ENDROOT
BRANCH   1   2
ATOM      2  C   UNL     1       3.163  -1.251   1.104  1.00  0.00     0.118 C 
BRANCH   2   3
ATOM      3  N   UNL     1       2.215  -0.133   1.132  1.00  0.00    -0.352 N 
ATOM      4  O   UNL     1       1.137   1.702   0.344  1.00  0.00    -0.270 OA
ATOM      5  C   UNL     1       2.108   0.961   0.308  1.00  0.00     0.251 C 
ATOM      6  H   UNL     1       1.549  -0.173   1.856  1.00  0.00     0.163 HD
BRANCH   5   7
ATOM      7  C   UNL     1       3.204   1.174  -0.651  1.00  0.00     0.067 C 
ATOM      8  C   UNL     1       4.389   1.508  -0.125  1.00  0.00     0.025 C 
ATOM      9  C   UNL     1       3.036   0.613  -2.026  1.00  0.00     0.314 C 
ATOM     10  C   UNL     1       5.514   0.755  -0.686  1.00  0.00     0.020 A 
ATOM     11  O   UNL     1       4.099  -0.307  -2.376  1.00  0.00    -0.474 OA
ATOM     12  C   UNL     1       6.693   0.723   0.066  1.00  0.00     0.032 A 
ATOM     13  C   UNL     1       5.278  -0.223  -1.672  1.00  0.00     0.146 A 
ATOM     14  C   UNL     1       7.572  -0.347  -0.081  1.00  0.00     0.043 A 
ATOM     15  C   UNL     1       6.190  -1.277  -1.822  1.00  0.00     0.085 A 
ATOM     16  Cl  UNL     1       8.908  -0.489   0.995  1.00  0.00    -0.084 Cl
ATOM     17  C   UNL     1       7.319  -1.356  -1.006  1.00  0.00     0.045 A 
ATOM     18  Cl  UNL     1       5.857  -2.599  -2.885  1.00  0.00    -0.080 Cl
BRANCH   9  19
ATOM     19  C   UNL     1       2.903   1.722  -3.082  1.00  0.00     0.429 C 
ATOM     20  F   UNL     1       2.602   1.203  -4.297  1.00  0.00    -0.167 F 
ATOM     21  F   UNL     1       1.916   2.596  -2.775  1.00  0.00    -0.167 F 
ATOM     22  F   UNL     1       4.045   2.435  -3.221  1.00  0.00    -0.167 F 
ENDBRANCH   9  19
ENDBRANCH   5   7
ENDBRANCH   2   3
ENDBRANCH   1   2
BRANCH   1  23
ATOM     23  C   UNL     1       3.959  -2.752   2.989  1.00  0.00     0.118 C 
BRANCH  23  24
ATOM     24  N   UNL     1       4.615  -3.779   2.187  1.00  0.00    -0.352 N 
ATOM     25  C   UNL     1       5.493  -4.772   2.566  1.00  0.00     0.251 C 
ATOM     26  H   UNL     1       4.397  -3.760   1.227  1.00  0.00     0.163 HD
ATOM     27  O   UNL     1       5.983  -5.507   1.711  1.00  0.00    -0.269 OA
BRANCH  25  28
ATOM     28  C   UNL     1       5.892  -4.930   3.985  1.00  0.00     0.039 A 
ATOM     29  C   UNL     1       7.227  -5.212   4.290  1.00  0.00     0.014 A 
ATOM     30  C   UNL     1       4.970  -4.766   5.017  1.00  0.00     0.014 A 
ATOM     31  C   UNL     1       7.652  -5.220   5.623  1.00  0.00     0.010 A 
ATOM     32  C   UNL     1       5.414  -4.651   6.329  1.00  0.00     0.010 A 
ATOM     33  C   UNL     1       6.761  -4.877   6.651  1.00  0.00    -0.014 A 
BRANCH  33  34
ATOM     34  C   UNL     1       7.195  -4.750   8.069  1.00  0.00     0.031 A 
ATOM     35  C   UNL     1       6.516  -5.566   9.138  1.00  0.00     0.074 A 
ATOM     36  C   UNL     1       8.116  -3.827   8.413  1.00  0.00     0.049 A 
ATOM     37  N   UNL     1       6.628  -5.487  10.440  1.00  0.00    -0.248 NA
ATOM     38  C   UNL     1       5.538  -6.569   8.683  1.00  0.00     0.031 C 
ATOM     39  C   UNL     1       8.798  -2.918   7.489  1.00  0.00     0.029 A 
ATOM     40  N   UNL     1       8.625  -3.488   9.643  1.00  0.00    -0.354 N 
ATOM     41  C   UNL     1       5.703  -6.389  10.953  1.00  0.00     0.074 A 
ATOM     42  C   UNL     1       4.999  -6.961   9.827  1.00  0.00     0.031 C 
ATOM     43  C   UNL     1       9.658  -2.150   8.178  1.00  0.00     0.029 A 
ATOM     44  C   UNL     1       9.559  -2.480   9.595  1.00  0.00     0.049 A 
ATOM     45  H   UNL     1       8.348  -3.926  10.480  1.00  0.00     0.167 HD
ATOM     46  C   UNL     1       5.480  -6.735  12.243  1.00  0.00     0.037 A 
ATOM     47  C   UNL     1      10.253  -1.886  10.584  1.00  0.00     0.037 A 
ATOM     48  C   UNL     1       6.234  -6.221  13.355  1.00  0.00     0.049 A 
ATOM     49  C   UNL     1      10.039  -2.334  12.002  1.00  0.00     0.074 A 
ATOM     50  C   UNL     1       6.154  -6.577  14.689  1.00  0.00     0.029 A 
ATOM     51  N   UNL     1       7.220  -5.252  13.255  1.00  0.00    -0.354 N 
ATOM     52  N   UNL     1       9.207  -3.235  12.466  1.00  0.00    -0.248 NA
ATOM     53  C   UNL     1      10.863  -1.689  13.034  1.00  0.00     0.031 C 
ATOM     54  C   UNL     1       7.074  -5.801  15.402  1.00  0.00     0.029 A 
ATOM     55  C   UNL     1       7.752  -4.990  14.506  1.00  0.00     0.049 A 
ATOM     56  H   UNL     1       7.500  -4.814  12.419  1.00  0.00     0.167 HD
ATOM     57  C   UNL     1       9.424  -3.283  13.836  1.00  0.00     0.074 A 
ATOM     58  C   UNL     1      10.475  -2.331  14.127  1.00  0.00     0.031 C 
ATOM     59  C   UNL     1       8.806  -4.046  14.771  1.00  0.00     0.037 A 
BRANCH  46  60
ATOM     60  C   UNL     1       4.388  -7.730  12.514  1.00  0.00     0.057 A 
ATOM     61  C   UNL     1       4.503  -9.076  12.139  1.00  0.00     0.134 A 
ATOM     62  C   UNL     1       3.213  -7.341  13.169  1.00  0.00     0.134 A 
ATOM     63  F   UNL     1       5.597  -9.511  11.496  1.00  0.00    -0.206 F 
ATOM     64  C   UNL     1       3.474  -9.990  12.373  1.00  0.00     0.040 A 
ATOM     65  C   UNL     1       2.189  -8.254  13.435  1.00  0.00     0.040 A 
ATOM     66  F   UNL     1       3.038  -6.071  13.561  1.00  0.00    -0.206 F 
ATOM     67  C   UNL     1       2.315  -9.580  13.028  1.00  0.00     0.006 A 
ENDBRANCH  46  60
BRANCH  47  68
ATOM     68  C   UNL     1      11.247  -0.829  10.264  1.00  0.00     0.057 A 
ATOM     69  C   UNL     1      12.620  -1.081  10.369  1.00  0.00     0.134 A 
ATOM     70  C   UNL     1      10.855   0.448   9.846  1.00  0.00     0.134 A 
ATOM     71  F   UNL     1      13.056  -2.280  10.781  1.00  0.00    -0.206 F 
ATOM     72  C   UNL     1      13.568  -0.096  10.087  1.00  0.00     0.040 A 
ATOM     73  C   UNL     1      11.793   1.435   9.539  1.00  0.00     0.040 A 
ATOM     74  F   UNL     1       9.555   0.749   9.716  1.00  0.00    -0.206 F 
ATOM     75  C   UNL     1      13.155   1.166   9.666  1.00  0.00     0.006 A 
ENDBRANCH  47  68
BRANCH  59  76
ATOM     76  C   UNL     1       9.276  -3.906  16.188  1.00  0.00     0.057 A 
ATOM     77  C   UNL     1       8.956  -2.786  16.963  1.00  0.00     0.134 A 
ATOM     78  C   UNL     1      10.018  -4.927  16.795  1.00  0.00     0.134 A 
ATOM     79  F   UNL     1       8.258  -1.769  16.434  1.00  0.00    -0.206 F 
ATOM     80  C   UNL     1       9.375  -2.676  18.290  1.00  0.00     0.040 A 
ATOM     81  C   UNL     1      10.422  -4.840  18.127  1.00  0.00     0.040 A 
ATOM     82  F   UNL     1      10.350  -6.030  16.107  1.00  0.00    -0.206 F 
ATOM     83  C   UNL     1      10.104  -3.709  18.877  1.00  0.00     0.006 A 
ENDBRANCH  59  76
ENDBRANCH  33  34
ENDBRANCH  25  28
ENDBRANCH  23  24
ENDBRANCH   1  23
TORSDOF 11
