REMARK SMILES Cc1cc(F)c(C(=O)NCCCNC(=O)c2ccc(-c3c4nc(c(-c5c(F)cccc5F)c5ccc([nH]5)c(-c5c(F)cccc5F)c5nc(c(-c6c(F)cccc6F)c6ccc3[nH]6)C=C5)C=C4)cc2)cc1F
REMARK SMILES IDX 12 1 11 2 10 3 9 4 7 5 8 6 6 8 1 9 2 10 3 11 71 12 4 13
REMARK SMILES IDX 70 14 72 15 5 16 13 17 14 18 15 20 16 21 17 22 69 23 18 24
REMARK SMILES IDX 68 25 19 26 20 27 21 28 62 29 22 30 67 31 61 32 63 33 23 34
REMARK SMILES IDX 66 35 60 36 59 37 24 39 50 40 33 41 49 42 34 43 37 44 48 45
REMARK SMILES IDX 64 46 35 47 36 48 47 50 65 51 38 52 25 53 26 54 31 55 27 56
REMARK SMILES IDX 28 57 30 58 32 59 29 60 51 61 52 62 57 63 53 64 54 65 56 66
REMARK SMILES IDX 58 67 55 68 39 69 40 70 45 71 41 72 42 73 44 74 46 75 43 76
REMARK H PARENT 9 7 13 19 63 38 37 49
REMARK Flexibility Score: inf
ROOT
ATOM      1  C   UNL     1       2.100   8.519  -0.524  1.00  0.00     0.118 C 
ENDROOT
BRANCH   1   2
ATOM      2  C   UNL     1       2.340   7.080  -0.090  1.00  0.00     0.042 C 
BRANCH   2   3
ATOM      3  C   UNL     1       1.112   6.365   0.454  1.00  0.00     0.118 C 
BRANCH   3   4
ATOM      4  N   UNL     1       0.022   6.265  -0.507  1.00  0.00    -0.352 N 
ATOM      5  C   UNL     1      -0.645   5.207  -1.074  1.00  0.00     0.254 C 
ATOM      6  O   UNL     1      -1.540   5.469  -1.875  1.00  0.00    -0.269 OA
ATOM      7  H   UNL     1      -0.306   7.141  -0.814  1.00  0.00     0.163 HD
BRANCH   5   8
ATOM      8  C   UNL     1      -0.327   3.794  -0.766  1.00  0.00     0.078 A 
ATOM      9  C   UNL     1       0.797  -0.314  -0.057  1.00  0.00     0.047 C 
ATOM     10  C   UNL     1       0.337   1.090  -0.299  1.00  0.00    -0.012 A 
ATOM     11  C   UNL     1      -0.117   1.499  -1.556  1.00  0.00     0.046 A 
ATOM     12  C   UNL     1       0.402   2.039   0.722  1.00  0.00     0.127 A 
ATOM     13  C   UNL     1      -0.439   2.839  -1.784  1.00  0.00     0.136 A 
ATOM     14  C   UNL     1       0.032   3.365   0.513  1.00  0.00     0.056 A 
ATOM     15  F   UNL     1       0.839   1.681   1.938  1.00  0.00    -0.207 F 
ATOM     16  F   UNL     1      -0.834   3.179  -3.019  1.00  0.00    -0.206 F 
ENDBRANCH   5   8
ENDBRANCH   3   4
ENDBRANCH   2   3
ENDBRANCH   1   2
BRANCH   1  17
ATOM     17  N   UNL     1       1.783   9.417   0.581  1.00  0.00    -0.352 N 
ATOM     18  C   UNL     1       2.549  10.325   1.278  1.00  0.00     0.251 C 
ATOM     19  H   UNL     1       0.848   9.364   0.885  1.00  0.00     0.163 HD
ATOM     20  O   UNL     1       2.086  10.860   2.277  1.00  0.00    -0.269 OA
BRANCH  18  21
ATOM     21  C   UNL     1       3.940  10.629   0.865  1.00  0.00     0.039 A 
ATOM     22  C   UNL     1       4.289  10.755  -0.476  1.00  0.00     0.014 A 
ATOM     23  C   UNL     1       4.920  10.805   1.849  1.00  0.00     0.014 A 
ATOM     24  C   UNL     1       5.629  10.811  -0.841  1.00  0.00     0.010 A 
ATOM     25  C   UNL     1       6.258  10.988   1.481  1.00  0.00     0.010 A 
ATOM     26  C   UNL     1       6.635  10.920   0.132  1.00  0.00    -0.014 A 
BRANCH  26  27
ATOM     27  C   UNL     1       8.062  10.935  -0.294  1.00  0.00     0.031 A 
ATOM     28  C   UNL     1       9.010   9.848   0.147  1.00  0.00     0.074 A 
ATOM     29  C   UNL     1       8.489  11.886  -1.148  1.00  0.00     0.049 A 
ATOM     30  N   UNL     1      10.271   9.674  -0.163  1.00  0.00    -0.248 NA
ATOM     31  C   UNL     1       8.476   8.826   1.062  1.00  0.00     0.031 C 
ATOM     32  C   UNL     1       7.670  12.983  -1.668  1.00  0.00     0.029 A 
ATOM     33  N   UNL     1       9.704  12.060  -1.762  1.00  0.00    -0.354 N 
ATOM     34  C   UNL     1      10.687   8.548   0.540  1.00  0.00     0.074 A 
ATOM     35  C   UNL     1       9.552   8.096   1.314  1.00  0.00     0.031 C 
ATOM     36  C   UNL     1       8.376  13.664  -2.582  1.00  0.00     0.029 A 
ATOM     37  C   UNL     1       9.720  13.102  -2.657  1.00  0.00     0.049 A 
ATOM     38  H   UNL     1      10.487  11.493  -1.579  1.00  0.00     0.167 HD
ATOM     39  C   UNL     1      11.898   7.939   0.534  1.00  0.00     0.037 A 
ATOM     40  C   UNL     1      10.709  13.562  -3.445  1.00  0.00     0.037 A 
ATOM     41  C   UNL     1      13.020   8.369  -0.260  1.00  0.00     0.049 A 
ATOM     42  C   UNL     1      12.056  12.905  -3.386  1.00  0.00     0.074 A 
ATOM     43  C   UNL     1      14.275   7.794  -0.367  1.00  0.00     0.029 A 
ATOM     44  N   UNL     1      13.023   9.486  -1.082  1.00  0.00    -0.354 N 
ATOM     45  N   UNL     1      12.428  11.836  -2.726  1.00  0.00    -0.248 NA
ATOM     46  C   UNL     1      13.128  13.537  -4.167  1.00  0.00     0.031 C 
ATOM     47  C   UNL     1      15.052   8.591  -1.217  1.00  0.00     0.029 A 
ATOM     48  C   UNL     1      14.267   9.636  -1.675  1.00  0.00     0.049 A 
ATOM     49  H   UNL     1      12.254  10.085  -1.224  1.00  0.00     0.167 HD
ATOM     50  C   UNL     1      13.772  11.655  -3.025  1.00  0.00     0.074 A 
ATOM     51  C   UNL     1      14.142  12.715  -3.942  1.00  0.00     0.031 C 
ATOM     52  C   UNL     1      14.623  10.700  -2.579  1.00  0.00     0.037 A 
BRANCH  39  53
ATOM     53  C   UNL     1      12.078   6.758   1.445  1.00  0.00     0.057 A 
ATOM     54  C   UNL     1      12.885   6.858   2.586  1.00  0.00     0.134 A 
ATOM     55  C   UNL     1      11.462   5.523   1.200  1.00  0.00     0.134 A 
ATOM     56  F   UNL     1      13.512   8.008   2.878  1.00  0.00    -0.206 F 
ATOM     57  C   UNL     1      13.065   5.779   3.454  1.00  0.00     0.040 A 
ATOM     58  C   UNL     1      11.613   4.444   2.074  1.00  0.00     0.040 A 
ATOM     59  F   UNL     1      10.665   5.362   0.133  1.00  0.00    -0.206 F 
ATOM     60  C   UNL     1      12.419   4.570   3.204  1.00  0.00     0.006 A 
ENDBRANCH  39  53
BRANCH  40  61
ATOM     61  C   UNL     1      10.465  14.708  -4.357  1.00  0.00     0.057 A 
ATOM     62  C   UNL     1      10.241  16.000  -3.869  1.00  0.00     0.134 A 
ATOM     63  C   UNL     1      10.460  14.531  -5.745  1.00  0.00     0.134 A 
ATOM     64  F   UNL     1      10.231  16.234  -2.548  1.00  0.00    -0.206 F 
ATOM     65  C   UNL     1      10.006  17.075  -4.727  1.00  0.00     0.040 A 
ATOM     66  C   UNL     1      10.253  15.601  -6.616  1.00  0.00     0.040 A 
ATOM     67  F   UNL     1      10.691  13.320  -6.272  1.00  0.00    -0.206 F 
ATOM     68  C   UNL     1      10.018  16.877  -6.106  1.00  0.00     0.006 A 
ENDBRANCH  40  61
BRANCH  52  69
ATOM     69  C   UNL     1      16.029  10.752  -3.100  1.00  0.00     0.057 A 
ATOM     70  C   UNL     1      16.481   9.809  -4.031  1.00  0.00     0.134 A 
ATOM     71  C   UNL     1      16.934  11.736  -2.682  1.00  0.00     0.134 A 
ATOM     72  F   UNL     1      15.665   8.838  -4.468  1.00  0.00    -0.206 F 
ATOM     73  C   UNL     1      17.783   9.845  -4.532  1.00  0.00     0.040 A 
ATOM     74  C   UNL     1      18.231  11.798  -3.195  1.00  0.00     0.040 A 
ATOM     75  F   UNL     1      16.556  12.680  -1.806  1.00  0.00    -0.206 F 
ATOM     76  C   UNL     1      18.659  10.847  -4.120  1.00  0.00     0.006 A 
ENDBRANCH  52  69
ENDBRANCH  26  27
ENDBRANCH  18  21
ENDBRANCH   1  17
TORSDOF 10
