REMARK SMILES O=C(NCCCNC(=O)c1ccc2c(c1)[C@@H]1C=CC[C@@H]1[C@H](c1ccncc1)N2)c1ccc(-c2c3nc(c(-c4c(F)cccc4F)c4ccc([nH]4)c(-c4c(F)cccc4F)c4nc(c(-c5c(F)cccc5F)c5ccc2[nH]5)C=C4)C=C3)cc1
REMARK SMILES IDX 4 1 3 2 1 3 2 4 29 6 30 7 82 8 31 9 81 10 32 11 33 12 34 13
REMARK SMILES IDX 75 14 35 15 80 16 74 17 76 18 36 19 79 20 73 21 72 22 37 24
REMARK SMILES IDX 63 25 46 26 62 27 47 28 50 29 61 30 77 31 48 32 49 33 60 35
REMARK SMILES IDX 78 36 51 37 38 38 39 39 44 40 40 41 41 42 43 43 45 44 42 45
REMARK SMILES IDX 64 46 65 47 70 48 66 49 67 50 69 51 71 52 68 53 52 54 53 55
REMARK SMILES IDX 58 56 54 57 55 58 57 59 59 60 56 61 5 62 6 63 7 64 8 65 9 67
REMARK SMILES IDX 10 68 11 69 15 70 12 71 14 72 13 73 16 74 28 75 17 76 20 77
REMARK SMILES IDX 21 78 18 80 19 81 22 82 23 83 27 84 24 85 26 86 25 87
REMARK H PARENT 3 5 76 23 50 34 7 66 28 79
REMARK Flexibility Score: inf
ROOT
ATOM      1  C   UNL     1       4.595  -0.822  -1.194  1.00  0.00     0.118 C 
ENDROOT
BRANCH   1   2
ATOM      2  N   UNL     1       3.166  -0.547  -1.097  1.00  0.00    -0.352 N 
ATOM      3  O   UNL     1       1.219   0.123  -0.189  1.00  0.00    -0.269 OA
ATOM      4  C   UNL     1       2.446   0.154  -0.159  1.00  0.00     0.251 C 
ATOM      5  H   UNL     1       2.626  -0.928  -1.826  1.00  0.00     0.163 HD
BRANCH   4   6
ATOM      6  C   UNL     1       3.135   0.916   0.907  1.00  0.00     0.039 A 
ATOM      7  C   UNL     1       4.290   1.646   0.637  1.00  0.00     0.014 A 
ATOM      8  C   UNL     1       2.609   0.908   2.203  1.00  0.00     0.014 A 
ATOM      9  C   UNL     1       5.030   2.181   1.683  1.00  0.00     0.010 A 
ATOM     10  C   UNL     1       3.293   1.553   3.239  1.00  0.00     0.010 A 
ATOM     11  C   UNL     1       4.540   2.148   2.998  1.00  0.00    -0.014 A 
BRANCH  11  12
ATOM     12  C   UNL     1       5.346   2.769   4.083  1.00  0.00     0.031 A 
ATOM     13  C   UNL     1       5.882   1.947   5.224  1.00  0.00     0.074 A 
ATOM     14  C   UNL     1       5.648   4.080   3.999  1.00  0.00     0.049 A 
ATOM     15  N   UNL     1       6.657   2.319   6.213  1.00  0.00    -0.248 NA
ATOM     16  C   UNL     1       5.494   0.529   5.273  1.00  0.00     0.031 C 
ATOM     17  C   UNL     1       5.176   4.987   2.949  1.00  0.00     0.029 A 
ATOM     18  N   UNL     1       6.448   4.870   4.783  1.00  0.00    -0.354 N 
ATOM     19  C   UNL     1       6.824   1.195   7.013  1.00  0.00     0.074 A 
ATOM     20  C   UNL     1       6.052   0.132   6.408  1.00  0.00     0.031 C 
ATOM     21  C   UNL     1       5.751   6.186   3.113  1.00  0.00     0.029 A 
ATOM     22  C   UNL     1       6.579   6.154   4.313  1.00  0.00     0.049 A 
ATOM     23  H   UNL     1       6.886   4.548   5.604  1.00  0.00     0.167 HD
ATOM     24  C   UNL     1       7.560   1.060   8.143  1.00  0.00     0.037 A 
ATOM     25  C   UNL     1       7.284   7.194   4.793  1.00  0.00     0.037 A 
ATOM     26  C   UNL     1       8.356   2.111   8.725  1.00  0.00     0.049 A 
ATOM     27  C   UNL     1       8.094   7.014   6.042  1.00  0.00     0.074 A 
ATOM     28  C   UNL     1       9.172   2.056   9.843  1.00  0.00     0.029 A 
ATOM     29  N   UNL     1       8.437   3.405   8.236  1.00  0.00    -0.354 N 
ATOM     30  N   UNL     1       8.267   5.935   6.766  1.00  0.00    -0.248 NA
ATOM     31  C   UNL     1       8.803   8.198   6.543  1.00  0.00     0.031 C 
ATOM     32  C   UNL     1       9.715   3.328  10.052  1.00  0.00     0.029 A 
ATOM     33  C   UNL     1       9.273   4.164   9.040  1.00  0.00     0.049 A 
ATOM     34  H   UNL     1       7.969   3.737   7.436  1.00  0.00     0.167 HD
ATOM     35  C   UNL     1       9.119   6.303   7.796  1.00  0.00     0.074 A 
ATOM     36  C   UNL     1       9.442   7.701   7.593  1.00  0.00     0.031 C 
ATOM     37  C   UNL     1       9.589   5.552   8.822  1.00  0.00     0.037 A 
BRANCH  24  38
ATOM     38  C   UNL     1       7.527  -0.269   8.840  1.00  0.00     0.057 A 
ATOM     39  C   UNL     1       8.177  -1.397   8.323  1.00  0.00     0.134 A 
ATOM     40  C   UNL     1       6.870  -0.411  10.070  1.00  0.00     0.134 A 
ATOM     41  F   UNL     1       8.815  -1.334   7.145  1.00  0.00    -0.206 F 
ATOM     42  C   UNL     1       8.157  -2.623   8.993  1.00  0.00     0.040 A 
ATOM     43  C   UNL     1       6.863  -1.624  10.760  1.00  0.00     0.040 A 
ATOM     44  F   UNL     1       6.233   0.631  10.625  1.00  0.00    -0.206 F 
ATOM     45  C   UNL     1       7.503  -2.736  10.219  1.00  0.00     0.006 A 
ENDBRANCH  24  38
BRANCH  25  46
ATOM     46  C   UNL     1       7.261   8.494   4.078  1.00  0.00     0.057 A 
ATOM     47  C   UNL     1       8.393   8.969   3.407  1.00  0.00     0.134 A 
ATOM     48  C   UNL     1       6.107   9.285   4.041  1.00  0.00     0.134 A 
ATOM     49  F   UNL     1       9.533   8.262   3.422  1.00  0.00    -0.206 F 
ATOM     50  C   UNL     1       8.383  10.192   2.735  1.00  0.00     0.040 A 
ATOM     51  C   UNL     1       6.074  10.497   3.350  1.00  0.00     0.040 A 
ATOM     52  F   UNL     1       4.987   8.879   4.657  1.00  0.00    -0.206 F 
ATOM     53  C   UNL     1       7.218  10.956   2.700  1.00  0.00     0.006 A 
ENDBRANCH  25  46
BRANCH  37  54
ATOM     54  C   UNL     1      10.530   6.223   9.778  1.00  0.00     0.057 A 
ATOM     55  C   UNL     1      10.086   7.171  10.708  1.00  0.00     0.134 A 
ATOM     56  C   UNL     1      11.893   5.905   9.775  1.00  0.00     0.134 A 
ATOM     57  F   UNL     1       8.794   7.530  10.749  1.00  0.00    -0.206 F 
ATOM     58  C   UNL     1      10.971   7.802  11.583  1.00  0.00     0.040 A 
ATOM     59  C   UNL     1      12.784   6.510  10.662  1.00  0.00     0.040 A 
ATOM     60  F   UNL     1      12.381   5.000   8.913  1.00  0.00    -0.206 F 
ATOM     61  C   UNL     1      12.324   7.467  11.565  1.00  0.00     0.006 A 
ENDBRANCH  37  54
ENDBRANCH  11  12
ENDBRANCH   4   6
ENDBRANCH   1   2
BRANCH   1  62
ATOM     62  C   UNL     1       4.941  -2.281  -0.949  1.00  0.00     0.042 C 
BRANCH  62  63
ATOM     63  C   UNL     1       4.401  -3.229  -2.006  1.00  0.00     0.118 C 
BRANCH  63  64
ATOM     64  N   UNL     1       4.936  -2.951  -3.333  1.00  0.00    -0.352 N 
ATOM     65  C   UNL     1       5.802  -3.676  -4.115  1.00  0.00     0.251 C 
ATOM     66  H   UNL     1       4.628  -2.106  -3.733  1.00  0.00     0.163 HD
ATOM     67  O   UNL     1       6.295  -3.160  -5.113  1.00  0.00    -0.269 OA
BRANCH  65  68
ATOM     68  C   UNL     1       6.148  -5.069  -3.761  1.00  0.00     0.040 A 
ATOM     69  C   UNL     1       7.468  -5.500  -3.884  1.00  0.00     0.016 A 
ATOM     70  C   UNL     1       5.170  -5.958  -3.318  1.00  0.00     0.020 A 
ATOM     71  C   UNL     1       7.804  -6.809  -3.527  1.00  0.00     0.027 A 
ATOM     72  C   UNL     1       5.522  -7.234  -2.859  1.00  0.00    -0.017 A 
ATOM     73  C   UNL     1       6.836  -7.696  -3.034  1.00  0.00     0.038 A 
ATOM     74  C   UNL     1       4.482  -8.074  -2.155  1.00  0.00     0.049 C 
ATOM     75  N   UNL     1       7.209  -8.979  -2.652  1.00  0.00    -0.378 N 
ATOM     76  C   UNL     1       3.942  -7.399  -0.915  1.00  0.00    -0.023 C 
ATOM     77  C   UNL     1       5.041  -9.371  -1.549  1.00  0.00     0.031 C 
ATOM     78  C   UNL     1       6.163  -9.963  -2.403  1.00  0.00     0.114 C 
ATOM     79  H   UNL     1       8.159  -9.218  -2.551  1.00  0.00     0.161 HD
ATOM     80  C   UNL     1       4.460  -7.914   0.207  1.00  0.00    -0.030 C 
ATOM     81  C   UNL     1       5.415  -9.022  -0.097  1.00  0.00     0.034 C 
BRANCH  78  82
ATOM     82  C   UNL     1       6.705 -11.249  -1.800  1.00  0.00    -0.022 A 
ATOM     83  C   UNL     1       5.888 -12.389  -1.780  1.00  0.00     0.026 A 
ATOM     84  C   UNL     1       7.976 -11.353  -1.223  1.00  0.00     0.026 A 
ATOM     85  C   UNL     1       6.365 -13.554  -1.202  1.00  0.00     0.111 A 
ATOM     86  C   UNL     1       8.370 -12.568  -0.682  1.00  0.00     0.111 A 
ATOM     87  N   UNL     1       7.592 -13.670  -0.657  1.00  0.00    -0.265 NA
ENDBRANCH  78  82
ENDBRANCH  65  68
ENDBRANCH  63  64
ENDBRANCH  62  63
ENDBRANCH   1  62
TORSDOF 11
