REMARK SMILES CC(C)(C)c1ccc(C(=O)C[C@H](C(=O)NCCCNC(=O)c2ccc(-c3c4nc(c(-c5c(F)cccc5F)c5ccc([nH]5)c(-c5c(F)cccc5F)c5nc(c(-c6c(F)cccc6F)c6ccc3[nH]6)C=C5)C=C4)cc2)[NH+]2CCCC2)cc1
REMARK SMILES IDX 16 1 15 2 13 3 14 4 12 6 11 7 9 8 10 9 8 10 5 11 6 12 82 13
REMARK SMILES IDX 7 14 81 15 2 16 1 17 3 18 4 19 76 20 77 21 80 22 78 24 79 25
REMARK SMILES IDX 17 26 18 27 19 28 20 29 21 31 22 32 23 33 75 34 24 35 74 36
REMARK SMILES IDX 25 37 26 38 27 39 68 40 28 41 73 42 67 43 69 44 29 45 72 46
REMARK SMILES IDX 66 47 65 48 30 50 56 51 39 52 55 53 40 54 43 55 54 56 70 57
REMARK SMILES IDX 41 58 42 59 53 61 71 62 44 63 31 64 32 65 37 66 33 67 34 68
REMARK SMILES IDX 36 69 38 70 35 71 57 72 58 73 63 74 59 75 60 76 62 77 64 78
REMARK SMILES IDX 61 79 45 80 46 81 51 82 47 83 48 84 50 85 52 86 49 87
REMARK H PARENT 15 5 76 23 19 30 69 49 43 60
REMARK Flexibility Score: inf
ROOT
ATOM      1  C   UNL     1       2.447   8.966  -1.002  1.00  0.00     0.118 C 
ENDROOT
BRANCH   1   2
ATOM      2  N   UNL     1       2.295   7.509  -1.046  1.00  0.00    -0.351 N 
ATOM      3  C   UNL     1       1.490   6.673  -1.782  1.00  0.00     0.278 C 
ATOM      4  O   UNL     1       1.653   5.464  -1.579  1.00  0.00    -0.268 OA
ATOM      5  H   UNL     1       2.890   7.033  -0.423  1.00  0.00     0.163 HD
BRANCH   3   6
ATOM      6  C   UNL     1       0.448   7.193  -2.845  1.00  0.00     0.281 C 
BRANCH   6   7
ATOM      7  C   UNL     1      -0.470   6.011  -3.283  1.00  0.00     0.156 C 
BRANCH   7   8
ATOM      8  C   UNL     1      -1.379   6.083  -4.517  1.00  0.00     0.169 C 
ATOM      9  O   UNL     1      -1.588   5.085  -5.210  1.00  0.00    -0.294 OA
BRANCH   8  10
ATOM     10  C   UNL     1      -2.076   7.322  -4.925  1.00  0.00     0.018 A 
ATOM     11  C   UNL     1      -3.046   9.894  -5.623  1.00  0.00    -0.043 A 
ATOM     12  C   UNL     1      -2.211   9.162  -6.489  1.00  0.00     0.005 A 
ATOM     13  C   UNL     1      -3.533   9.210  -4.490  1.00  0.00     0.005 A 
ATOM     14  C   UNL     1      -1.729   7.891  -6.147  1.00  0.00     0.012 A 
ATOM     15  C   UNL     1      -3.067   7.926  -4.152  1.00  0.00     0.012 A 
BRANCH  11  16
ATOM     16  C   UNL     1      -3.357  11.391  -5.857  1.00  0.00    -0.013 C 
ATOM     17  C   UNL     1      -4.874  11.632  -5.936  1.00  0.00     0.016 C 
ATOM     18  C   UNL     1      -2.705  11.951  -7.141  1.00  0.00     0.016 C 
ATOM     19  C   UNL     1      -2.804  12.259  -4.703  1.00  0.00     0.016 C 
ENDBRANCH  11  16
ENDBRANCH   8  10
ENDBRANCH   7   8
ENDBRANCH   6   7
BRANCH   6  20
ATOM     20  N   UNL     1      -0.232   8.329  -2.248  1.00  0.00    -0.324 N 
ATOM     21  C   UNL     1      -0.353   9.552  -2.998  1.00  0.00     0.263 C 
ATOM     22  C   UNL     1      -1.294   8.128  -1.294  1.00  0.00     0.263 C 
ATOM     23  H   UNL     1       0.568   8.495  -1.637  1.00  0.00     0.348 HD
ATOM     24  C   UNL     1      -1.291  10.401  -2.163  1.00  0.00     0.067 C 
ATOM     25  C   UNL     1      -1.859   9.515  -1.064  1.00  0.00     0.067 C 
ENDBRANCH   6  20
ENDBRANCH   3   6
ENDBRANCH   1   2
BRANCH   1  26
ATOM     26  C   UNL     1       1.452   9.644  -0.052  1.00  0.00     0.042 C 
BRANCH  26  27
ATOM     27  C   UNL     1       2.023  10.491   1.080  1.00  0.00     0.118 C 
BRANCH  27  28
ATOM     28  N   UNL     1       2.355  11.850   0.671  1.00  0.00    -0.352 N 
ATOM     29  C   UNL     1       1.811  13.092   0.887  1.00  0.00     0.251 C 
ATOM     30  H   UNL     1       3.161  11.886   0.107  1.00  0.00     0.163 HD
ATOM     31  O   UNL     1       2.338  14.026   0.261  1.00  0.00    -0.269 OA
BRANCH  29  32
ATOM     32  C   UNL     1       0.659  13.418   1.785  1.00  0.00     0.039 A 
ATOM     33  C   UNL     1       0.027  14.664   1.599  1.00  0.00     0.014 A 
ATOM     34  C   UNL     1       0.221  12.637   2.853  1.00  0.00     0.014 A 
ATOM     35  C   UNL     1      -1.002  15.104   2.448  1.00  0.00     0.010 A 
ATOM     36  C   UNL     1      -0.874  13.030   3.642  1.00  0.00     0.010 A 
ATOM     37  C   UNL     1      -1.480  14.284   3.478  1.00  0.00    -0.014 A 
BRANCH  37  38
ATOM     38  C   UNL     1      -2.547  14.744   4.420  1.00  0.00     0.031 A 
ATOM     39  C   UNL     1      -2.274  14.834   5.905  1.00  0.00     0.074 A 
ATOM     40  C   UNL     1      -3.779  15.055   3.965  1.00  0.00     0.049 A 
ATOM     41  N   UNL     1      -3.089  15.144   6.886  1.00  0.00    -0.248 NA
ATOM     42  C   UNL     1      -0.913  14.500   6.351  1.00  0.00     0.031 C 
ATOM     43  C   UNL     1      -4.212  14.980   2.570  1.00  0.00     0.029 A 
ATOM     44  N   UNL     1      -4.898  15.495   4.634  1.00  0.00    -0.354 N 
ATOM     45  C   UNL     1      -2.350  15.007   8.057  1.00  0.00     0.074 A 
ATOM     46  C   UNL     1      -1.038  14.537   7.669  1.00  0.00     0.031 C 
ATOM     47  C   UNL     1      -5.488  15.390   2.481  1.00  0.00     0.029 A 
ATOM     48  C   UNL     1      -5.978  15.724   3.816  1.00  0.00     0.049 A 
ATOM     49  H   UNL     1      -4.922  15.633   5.609  1.00  0.00     0.167 HD
ATOM     50  C   UNL     1      -2.712  15.272   9.337  1.00  0.00     0.037 A 
ATOM     51  C   UNL     1      -7.223  16.155   4.101  1.00  0.00     0.037 A 
ATOM     52  C   UNL     1      -3.996  15.794   9.730  1.00  0.00     0.049 A 
ATOM     53  C   UNL     1      -7.592  16.479   5.523  1.00  0.00     0.074 A 
ATOM     54  C   UNL     1      -4.431  16.152  10.995  1.00  0.00     0.029 A 
ATOM     55  N   UNL     1      -5.046  16.044   8.862  1.00  0.00    -0.354 N 
ATOM     56  N   UNL     1      -6.864  16.387   6.609  1.00  0.00    -0.248 NA
ATOM     57  C   UNL     1      -8.956  16.977   5.756  1.00  0.00     0.031 C 
ATOM     58  C   UNL     1      -5.757  16.591  10.896  1.00  0.00     0.029 A 
ATOM     59  C   UNL     1      -6.131  16.545   9.564  1.00  0.00     0.049 A 
ATOM     60  H   UNL     1      -5.025  15.889   7.890  1.00  0.00     0.167 HD
ATOM     61  C   UNL     1      -7.669  16.841   7.646  1.00  0.00     0.074 A 
ATOM     62  C   UNL     1      -8.935  17.225   7.058  1.00  0.00     0.031 C 
ATOM     63  C   UNL     1      -7.384  16.931   8.969  1.00  0.00     0.037 A 
BRANCH  50  64
ATOM     64  C   UNL     1      -1.695  15.011  10.413  1.00  0.00     0.057 A 
ATOM     65  C   UNL     1      -0.548  15.803  10.556  1.00  0.00     0.134 A 
ATOM     66  C   UNL     1      -1.880  13.974  11.338  1.00  0.00     0.134 A 
ATOM     67  F   UNL     1      -0.304  16.806   9.700  1.00  0.00    -0.206 F 
ATOM     68  C   UNL     1       0.395  15.552  11.555  1.00  0.00     0.040 A 
ATOM     69  C   UNL     1      -0.959  13.732  12.359  1.00  0.00     0.040 A 
ATOM     70  F   UNL     1      -2.961  13.183  11.268  1.00  0.00    -0.206 F 
ATOM     71  C   UNL     1       0.187  14.518  12.465  1.00  0.00     0.006 A 
ENDBRANCH  50  64
BRANCH  51  72
ATOM     72  C   UNL     1      -8.212  16.346   3.009  1.00  0.00     0.057 A 
ATOM     73  C   UNL     1      -8.611  17.630   2.616  1.00  0.00     0.134 A 
ATOM     74  C   UNL     1      -8.790  15.259   2.343  1.00  0.00     0.134 A 
ATOM     75  F   UNL     1      -8.110  18.710   3.233  1.00  0.00    -0.206 F 
ATOM     76  C   UNL     1      -9.563  17.826   1.614  1.00  0.00     0.040 A 
ATOM     77  C   UNL     1      -9.724  15.441   1.322  1.00  0.00     0.040 A 
ATOM     78  F   UNL     1      -8.446  14.005   2.669  1.00  0.00    -0.206 F 
ATOM     79  C   UNL     1     -10.118  16.728   0.960  1.00  0.00     0.006 A 
ENDBRANCH  51  72
BRANCH  63  80
ATOM     80  C   UNL     1      -8.448  17.501   9.862  1.00  0.00     0.057 A 
ATOM     81  C   UNL     1      -9.611  16.787  10.177  1.00  0.00     0.134 A 
ATOM     82  C   UNL     1      -8.297  18.773  10.427  1.00  0.00     0.134 A 
ATOM     83  F   UNL     1      -9.822  15.568   9.659  1.00  0.00    -0.206 F 
ATOM     84  C   UNL     1     -10.601  17.331  10.998  1.00  0.00     0.040 A 
ATOM     85  C   UNL     1      -9.268  19.318  11.270  1.00  0.00     0.040 A 
ATOM     86  F   UNL     1      -7.203  19.506  10.174  1.00  0.00    -0.206 F 
ATOM     87  C   UNL     1     -10.428  18.599  11.550  1.00  0.00     0.006 A 
ENDBRANCH  63  80
ENDBRANCH  37  38
ENDBRANCH  29  32
ENDBRANCH  27  28
ENDBRANCH  26  27
ENDBRANCH   1  26
TORSDOF 15
