REMARK SMILES Cc1ccc(S(=O)(=O)n2cc(C(=O)C(=O)N[C@@H](Cc3c[nH]c4ccccc34)C(=O)NCC(=O)NCCCNC(=O)c3ccc(-c4c5nc(c(-c6c(F)cccc6F)c6ccc([nH]6)c(-c6c(F)cccc6F)c6nc(c(-c7c(F)cccc7F)c7ccc4[nH]7)C=C6)C=C5)cc3)c3ccccc32)cc1
REMARK SMILES IDX 32 1 33 2 34 3 31 5 30 6 28 7 29 8 17 10 16 11 14 12 15 13
REMARK SMILES IDX 12 15 13 16 11 17 9 18 10 19 100 20 95 21 99 22 96 23 98 24
REMARK SMILES IDX 97 25 6 26 7 27 8 28 5 29 1 30 2 31 3 32 102 33 4 34 101 35
REMARK SMILES IDX 18 36 19 37 20 38 27 39 21 40 22 41 26 42 23 44 25 45 24 46
REMARK SMILES IDX 35 47 36 48 37 49 38 50 39 51 40 53 41 54 42 55 94 56 43 57
REMARK SMILES IDX 93 58 44 59 45 60 46 61 87 62 47 63 92 64 86 65 88 66 48 67
REMARK SMILES IDX 91 68 85 69 84 70 49 72 75 73 58 74 74 75 59 76 62 77 73 78
REMARK SMILES IDX 89 79 60 80 61 81 72 83 90 84 63 85 50 86 51 87 56 88 52 89
REMARK SMILES IDX 53 90 55 91 57 92 54 93 76 94 77 95 82 96 78 97 79 98 81 99
REMARK SMILES IDX 83 100 80 101 64 102 65 103 70 104 66 105 67 106 69 107
REMARK SMILES IDX 71 108 68 109
REMARK H PARENT 34 4 30 9 16 14 21 43 38 52 88 71 62 82
REMARK Flexibility Score: inf
ROOT
ATOM      1  C   UNL     1     -12.277   5.232  -2.395  1.00  0.00     0.239 C 
ATOM      2  O   UNL     1     -13.234   5.832  -2.883  1.00  0.00    -0.273 OA
ATOM      3  N   UNL     1     -11.005   5.574  -2.770  1.00  0.00    -0.355 N 
ATOM      4  H   UNL     1     -10.908   6.349  -3.370  1.00  0.00     0.163 HD
ENDROOT
BRANCH   1   5
ATOM      5  C   UNL     1     -12.456   4.128  -1.347  1.00  0.00     0.216 C 
BRANCH   5   6
ATOM      6  N   UNL     1     -12.249   2.755  -1.772  1.00  0.00    -0.345 N 
ATOM      7  C   UNL     1     -11.707   1.682  -1.130  1.00  0.00     0.243 C 
ATOM      8  O   UNL     1     -11.990   0.578  -1.613  1.00  0.00    -0.273 OA
ATOM      9  H   UNL     1     -12.556   2.566  -2.688  1.00  0.00     0.164 HD
BRANCH   7  10
ATOM     10  C   UNL     1     -10.870   1.741   0.189  1.00  0.00     0.176 C 
BRANCH  10  11
ATOM     11  N   UNL     1      -9.700   2.649   0.221  1.00  0.00    -0.337 N 
ATOM     12  C   UNL     1      -8.349   2.439  -0.050  1.00  0.00     0.293 C 
ATOM     13  O   UNL     1      -7.541   3.340   0.157  1.00  0.00    -0.265 OA
ATOM     14  H   UNL     1      -9.918   3.573   0.482  1.00  0.00     0.164 HD
BRANCH  12  15
ATOM     15  C   UNL     1      -7.858   1.142  -0.707  1.00  0.00     0.252 C 
ATOM     16  O   UNL     1      -8.554   0.721  -1.631  1.00  0.00    -0.283 OA
BRANCH  15  17
ATOM     17  C   UNL     1      -6.683   0.383  -0.238  1.00  0.00     0.054 A 
ATOM     18  N   UNL     1      -4.683  -0.369   0.528  1.00  0.00    -0.240 N 
ATOM     19  C   UNL     1      -5.363   0.759   0.058  1.00  0.00     0.117 A 
ATOM     20  C   UNL     1      -5.626  -1.403   0.661  1.00  0.00     0.065 A 
ATOM     21  C   UNL     1      -6.707  -1.041  -0.134  1.00  0.00     0.012 A 
ATOM     22  C   UNL     1      -5.506  -2.708   1.179  1.00  0.00     0.028 A 
ATOM     23  C   UNL     1      -7.572  -2.054  -0.601  1.00  0.00     0.011 A 
ATOM     24  C   UNL     1      -6.339  -3.699   0.665  1.00  0.00     0.002 A 
ATOM     25  C   UNL     1      -7.330  -3.385  -0.254  1.00  0.00     0.001 A 
BRANCH  18  26
ATOM     26  S   UNL     1      -3.132  -0.983   0.008  1.00  0.00     0.268 S 
ATOM     27  O   UNL     1      -3.393  -1.414  -1.355  1.00  0.00    -0.201 OA
ATOM     28  O   UNL     1      -2.829  -1.951   1.055  1.00  0.00    -0.201 OA
BRANCH  26  29
ATOM     29  C   UNL     1      -1.606  -0.115  -0.073  1.00  0.00     0.088 A 
ATOM     30  C   UNL     1       2.567   1.029  -0.041  1.00  0.00     0.044 C 
ATOM     31  C   UNL     1       1.107   0.677  -0.098  1.00  0.00    -0.051 A 
ATOM     32  C   UNL     1       0.780  -0.644  -0.365  1.00  0.00     0.005 A 
ATOM     33  C   UNL     1       0.066   1.599   0.159  1.00  0.00     0.005 A 
ATOM     34  C   UNL     1      -0.552  -1.021  -0.364  1.00  0.00     0.022 A 
ATOM     35  C   UNL     1      -1.301   1.210   0.179  1.00  0.00     0.022 A 
ENDBRANCH  26  29
ENDBRANCH  18  26
ENDBRANCH  15  17
ENDBRANCH  12  15
ENDBRANCH  10  11
BRANCH  10  36
ATOM     36  C   UNL     1     -11.764   1.856   1.467  1.00  0.00     0.072 C 
BRANCH  36  37
ATOM     37  C   UNL     1     -12.539   3.136   1.685  1.00  0.00    -0.020 A 
ATOM     38  C   UNL     1     -13.916   3.264   1.595  1.00  0.00     0.087 A 
ATOM     39  C   UNL     1     -12.035   4.456   1.965  1.00  0.00     0.003 A 
ATOM     40  N   UNL     1     -14.239   4.595   1.671  1.00  0.00    -0.361 N 
ATOM     41  C   UNL     1     -13.094   5.348   1.770  1.00  0.00     0.046 A 
ATOM     42  C   UNL     1     -10.758   4.997   2.224  1.00  0.00     0.010 A 
ATOM     43  H   UNL     1     -15.155   4.956   1.656  1.00  0.00     0.166 HD
ATOM     44  C   UNL     1     -12.914   6.733   1.671  1.00  0.00     0.026 A 
ATOM     45  C   UNL     1     -10.554   6.377   2.102  1.00  0.00     0.001 A 
ATOM     46  C   UNL     1     -11.613   7.227   1.799  1.00  0.00     0.002 A 
ENDBRANCH  36  37
ENDBRANCH  10  36
ENDBRANCH   7  10
ENDBRANCH   5   6
ENDBRANCH   1   5
BRANCH   3  47
ATOM     47  C   UNL     1      -9.787   4.899  -2.366  1.00  0.00     0.117 C 
BRANCH  47  48
ATOM     48  C   UNL     1      -9.608   3.598  -3.144  1.00  0.00     0.042 C 
BRANCH  48  49
ATOM     49  C   UNL     1      -8.626   3.738  -4.280  1.00  0.00     0.118 C 
BRANCH  49  50
ATOM     50  N   UNL     1      -7.269   3.300  -3.983  1.00  0.00    -0.352 N 
ATOM     51  C   UNL     1      -6.099   3.606  -4.671  1.00  0.00     0.251 C 
ATOM     52  H   UNL     1      -7.167   2.715  -3.197  1.00  0.00     0.163 HD
ATOM     53  O   UNL     1      -5.029   3.163  -4.321  1.00  0.00    -0.269 OA
BRANCH  51  54
ATOM     54  C   UNL     1      -6.189   4.618  -5.758  1.00  0.00     0.039 A 
ATOM     55  C   UNL     1      -5.402   5.762  -5.616  1.00  0.00     0.014 A 
ATOM     56  C   UNL     1      -7.269   4.601  -6.636  1.00  0.00     0.014 A 
ATOM     57  C   UNL     1      -5.883   6.970  -6.107  1.00  0.00     0.010 A 
ATOM     58  C   UNL     1      -7.812   5.814  -7.011  1.00  0.00     0.010 A 
ATOM     59  C   UNL     1      -7.157   7.004  -6.675  1.00  0.00    -0.014 A 
BRANCH  59  60
ATOM     60  C   UNL     1      -7.914   8.243  -6.824  1.00  0.00     0.031 A 
ATOM     61  C   UNL     1      -8.149   8.803  -8.169  1.00  0.00     0.074 A 
ATOM     62  C   UNL     1      -8.424   8.867  -5.737  1.00  0.00     0.049 A 
ATOM     63  N   UNL     1      -8.331  10.056  -8.416  1.00  0.00    -0.248 NA
ATOM     64  C   UNL     1      -8.152   7.974  -9.367  1.00  0.00     0.031 C 
ATOM     65  C   UNL     1      -9.361   9.988  -5.716  1.00  0.00     0.029 A 
ATOM     66  N   UNL     1      -8.008   8.739  -4.404  1.00  0.00    -0.354 N 
ATOM     67  C   UNL     1      -8.739  10.169  -9.726  1.00  0.00     0.074 A 
ATOM     68  C   UNL     1      -8.554   8.851 -10.288  1.00  0.00     0.031 C 
ATOM     69  C   UNL     1      -9.239  10.632  -4.545  1.00  0.00     0.029 A 
ATOM     70  C   UNL     1      -8.136  10.020  -3.825  1.00  0.00     0.049 A 
ATOM     71  H   UNL     1      -7.689   7.919  -3.960  1.00  0.00     0.167 HD
ATOM     72  C   UNL     1      -9.315  11.331 -10.152  1.00  0.00     0.037 A 
ATOM     73  C   UNL     1      -7.054  10.687  -3.332  1.00  0.00     0.037 A 
ATOM     74  C   UNL     1      -9.305  12.343  -9.096  1.00  0.00     0.049 A 
ATOM     75  C   UNL     1      -6.780  12.002  -4.026  1.00  0.00     0.074 A 
ATOM     76  C   UNL     1     -10.263  12.748  -8.181  1.00  0.00     0.029 A 
ATOM     77  N   UNL     1      -8.094  12.868  -8.654  1.00  0.00    -0.354 N 
ATOM     78  N   UNL     1      -7.294  12.337  -5.177  1.00  0.00    -0.248 NA
ATOM     79  C   UNL     1      -5.884  13.027  -3.497  1.00  0.00     0.031 C 
ATOM     80  C   UNL     1      -9.611  13.466  -7.148  1.00  0.00     0.029 A 
ATOM     81  C   UNL     1      -8.261  13.516  -7.445  1.00  0.00     0.049 A 
ATOM     82  H   UNL     1      -7.239  12.788  -9.135  1.00  0.00     0.167 HD
ATOM     83  C   UNL     1      -6.800  13.557  -5.562  1.00  0.00     0.074 A 
ATOM     84  C   UNL     1      -5.941  13.960  -4.465  1.00  0.00     0.031 C 
ATOM     85  C   UNL     1      -7.133  14.127  -6.758  1.00  0.00     0.037 A 
BRANCH  72  86
ATOM     86  C   UNL     1     -10.170  11.415 -11.399  1.00  0.00     0.057 A 
ATOM     87  C   UNL     1     -11.279  12.281 -11.463  1.00  0.00     0.134 A 
ATOM     88  C   UNL     1     -10.001  10.616 -12.543  1.00  0.00     0.134 A 
ATOM     89  F   UNL     1     -11.509  13.205 -10.522  1.00  0.00    -0.206 F 
ATOM     90  C   UNL     1     -12.219  12.245 -12.503  1.00  0.00     0.040 A 
ATOM     91  C   UNL     1     -10.962  10.524 -13.561  1.00  0.00     0.040 A 
ATOM     92  F   UNL     1      -8.871   9.930 -12.756  1.00  0.00    -0.206 F 
ATOM     93  C   UNL     1     -12.090  11.329 -13.534  1.00  0.00     0.006 A 
ENDBRANCH  72  86
BRANCH  73  94
ATOM     94  C   UNL     1      -6.024   9.784  -2.756  1.00  0.00     0.057 A 
ATOM     95  C   UNL     1      -6.369   9.006  -1.635  1.00  0.00     0.134 A 
ATOM     96  C   UNL     1      -4.896   9.391  -3.480  1.00  0.00     0.134 A 
ATOM     97  F   UNL     1      -7.439   9.332  -0.892  1.00  0.00    -0.206 F 
ATOM     98  C   UNL     1      -5.702   7.819  -1.324  1.00  0.00     0.040 A 
ATOM     99  C   UNL     1      -4.210   8.210  -3.168  1.00  0.00     0.040 A 
ATOM    100  F   UNL     1      -4.515  10.068  -4.572  1.00  0.00    -0.206 F 
ATOM    101  C   UNL     1      -4.638   7.400  -2.116  1.00  0.00     0.006 A 
ENDBRANCH  73  94
BRANCH  85 102
ATOM    102  C   UNL     1      -6.501  15.362  -7.351  1.00  0.00     0.057 A 
ATOM    103  C   UNL     1      -5.167  15.741  -7.148  1.00  0.00     0.134 A 
ATOM    104  C   UNL     1      -7.212  16.149  -8.285  1.00  0.00     0.134 A 
ATOM    105  F   UNL     1      -4.344  15.018  -6.375  1.00  0.00    -0.206 F 
ATOM    106  C   UNL     1      -4.598  16.857  -7.777  1.00  0.00     0.040 A 
ATOM    107  C   UNL     1      -6.640  17.233  -8.958  1.00  0.00     0.040 A 
ATOM    108  F   UNL     1      -8.489  15.886  -8.600  1.00  0.00    -0.206 F 
ATOM    109  C   UNL     1      -5.331  17.601  -8.693  1.00  0.00     0.006 A 
ENDBRANCH  85 102
ENDBRANCH  59  60
ENDBRANCH  51  54
ENDBRANCH  49  50
ENDBRANCH  48  49
ENDBRANCH  47  48
ENDBRANCH   3  47
TORSDOF 19
