REMARK SMILES CS(=O)(=O)NCC[NH2+]Cc1ccc(C(=O)NCCCNC(=O)c2ccc(-c3c4nc(c(-c5c(F)cccc5F)c5ccc([nH]5)c(-c5c(F)cccc5F)c5nc(c(-c6c(F)cccc6F)c6ccc3[nH]6)C=C5)C=C4)cc2)cn1
REMARK SMILES IDX 14 1 15 2 16 3 13 5 10 6 11 7 78 8 12 9 77 10 9 11 8 12 7 15
REMARK SMILES IDX 6 16 5 17 2 19 1 20 3 21 4 22 17 23 18 24 19 25 20 26 21 27
REMARK SMILES IDX 22 29 23 30 24 31 76 32 25 33 75 34 26 35 27 36 28 37 69 38
REMARK SMILES IDX 29 39 74 40 68 41 70 42 30 43 73 44 67 45 66 46 31 48 57 49
REMARK SMILES IDX 40 50 56 51 41 52 44 53 55 54 71 55 42 56 43 57 54 59 72 60
REMARK SMILES IDX 45 61 32 62 33 63 38 64 34 65 35 66 37 67 39 68 36 69 58 70
REMARK SMILES IDX 59 71 64 72 60 73 61 74 63 75 65 76 62 77 46 78 47 79 52 80
REMARK SMILES IDX 48 81 49 82 51 83 53 84 50 85
REMARK H PARENT 16 4 8 13 8 14 5 18 20 28 70 47 44 58
REMARK Flexibility Score: inf
ROOT
ATOM      1  C   UNL     1       1.299   4.171   4.759  1.00  0.00     0.252 C 
ATOM      2  O   UNL     1       2.017   5.082   5.171  1.00  0.00    -0.269 OA
ATOM      3  N   UNL     1       0.210   4.501   3.992  1.00  0.00    -0.352 N 
ATOM      4  H   UNL     1       0.054   5.470   3.907  1.00  0.00     0.163 HD
ENDROOT
BRANCH   1   5
ATOM      5  C   UNL     1       1.672   2.773   5.059  1.00  0.00     0.058 A 
ATOM      6  C   UNL     1       2.623   0.209   5.430  1.00  0.00     0.094 A 
ATOM      7  C   UNL     1       1.249   0.440   5.470  1.00  0.00     0.030 A 
ATOM      8  N   UNL     1       3.522   1.216   5.306  1.00  0.00    -0.255 NA
ATOM      9  C   UNL     1       0.772   1.737   5.287  1.00  0.00     0.017 A 
ATOM     10  C   UNL     1       3.026   2.469   5.136  1.00  0.00     0.125 A 
BRANCH   6  11
ATOM     11  C   UNL     1       3.152  -1.216   5.416  1.00  0.00     0.317 C 
BRANCH  11  12
ATOM     12  N   UNL     1       2.678  -2.023   4.269  1.00  0.00    -0.340 N 
ATOM     13  H   UNL     1       2.942  -2.997   4.414  1.00  0.00     0.346 HD
ATOM     14  H   UNL     1       1.664  -1.934   4.206  1.00  0.00     0.346 HD
BRANCH  12  15
ATOM     15  C   UNL     1       3.271  -1.545   3.009  1.00  0.00     0.277 C 
BRANCH  15  16
ATOM     16  C   UNL     1       2.651  -2.242   1.787  1.00  0.00     0.159 C 
BRANCH  16  17
ATOM     17  N   UNL     1       1.185  -2.126   1.707  1.00  0.00    -0.210 NA
ATOM     18  H   UNL     1       0.890  -2.778   0.980  1.00  0.00     0.141 HD
BRANCH  17  19
ATOM     19  S   UNL     1       0.406  -0.691   1.379  1.00  0.00     0.208 S 
ATOM     20  C   UNL     1       0.944  -0.294  -0.271  1.00  0.00     0.176 C 
ATOM     21  O   UNL     1       0.897   0.322   2.279  1.00  0.00    -0.213 OA
ATOM     22  O   UNL     1      -1.005  -1.012   1.338  1.00  0.00    -0.213 OA
ENDBRANCH  17  19
ENDBRANCH  16  17
ENDBRANCH  15  16
ENDBRANCH  12  15
ENDBRANCH  11  12
ENDBRANCH   6  11
ENDBRANCH   1   5
BRANCH   3  23
ATOM     23  C   UNL     1      -0.753   3.676   3.283  1.00  0.00     0.118 C 
BRANCH  23  24
ATOM     24  C   UNL     1      -2.089   3.625   4.022  1.00  0.00     0.042 C 
BRANCH  24  25
ATOM     25  C   UNL     1      -2.864   4.938   3.972  1.00  0.00     0.118 C 
BRANCH  25  26
ATOM     26  N   UNL     1      -3.344   5.246   2.632  1.00  0.00    -0.352 N 
ATOM     27  C   UNL     1      -4.623   5.426   2.170  1.00  0.00     0.251 C 
ATOM     28  H   UNL     1      -2.640   5.340   1.951  1.00  0.00     0.163 HD
ATOM     29  O   UNL     1      -4.830   5.464   0.960  1.00  0.00    -0.269 OA
BRANCH  27  30
ATOM     30  C   UNL     1      -5.755   5.566   3.112  1.00  0.00     0.039 A 
ATOM     31  C   UNL     1      -6.971   4.951   2.799  1.00  0.00     0.014 A 
ATOM     32  C   UNL     1      -5.640   6.330   4.276  1.00  0.00     0.014 A 
ATOM     33  C   UNL     1      -8.050   5.056   3.679  1.00  0.00     0.010 A 
ATOM     34  C   UNL     1      -6.689   6.366   5.191  1.00  0.00     0.010 A 
ATOM     35  C   UNL     1      -7.907   5.735   4.900  1.00  0.00    -0.014 A 
BRANCH  35  36
ATOM     36  C   UNL     1      -9.020   5.792   5.883  1.00  0.00     0.031 A 
ATOM     37  C   UNL     1      -9.631   7.113   6.265  1.00  0.00     0.074 A 
ATOM     38  C   UNL     1      -9.441   4.658   6.476  1.00  0.00     0.049 A 
ATOM     39  N   UNL     1     -10.564   7.369   7.146  1.00  0.00    -0.248 NA
ATOM     40  C   UNL     1      -9.106   8.308   5.584  1.00  0.00     0.031 C 
ATOM     41  C   UNL     1      -8.900   3.321   6.223  1.00  0.00     0.029 A 
ATOM     42  N   UNL     1     -10.414   4.448   7.420  1.00  0.00    -0.354 N 
ATOM     43  C   UNL     1     -10.729   8.748   7.134  1.00  0.00     0.074 A 
ATOM     44  C   UNL     1      -9.760   9.281   6.201  1.00  0.00     0.031 C 
ATOM     45  C   UNL     1      -9.564   2.428   6.973  1.00  0.00     0.029 A 
ATOM     46  C   UNL     1     -10.545   3.132   7.793  1.00  0.00     0.049 A 
ATOM     47  H   UNL     1     -10.966   5.172   7.795  1.00  0.00     0.167 HD
ATOM     48  C   UNL     1     -11.623   9.501   7.820  1.00  0.00     0.037 A 
ATOM     49  C   UNL     1     -11.356   2.558   8.702  1.00  0.00     0.037 A 
ATOM     50  C   UNL     1     -12.594   8.964   8.738  1.00  0.00     0.049 A 
ATOM     51  C   UNL     1     -12.320   3.419   9.470  1.00  0.00     0.074 A 
ATOM     52  C   UNL     1     -13.576   9.637   9.444  1.00  0.00     0.029 A 
ATOM     53  N   UNL     1     -12.698   7.625   9.085  1.00  0.00    -0.354 N 
ATOM     54  N   UNL     1     -12.513   4.714   9.397  1.00  0.00    -0.248 NA
ATOM     55  C   UNL     1     -13.185   2.737  10.443  1.00  0.00     0.031 C 
ATOM     56  C   UNL     1     -14.236   8.714  10.261  1.00  0.00     0.029 A 
ATOM     57  C   UNL     1     -13.710   7.456  10.016  1.00  0.00     0.049 A 
ATOM     58  H   UNL     1     -12.136   6.902   8.723  1.00  0.00     0.167 HD
ATOM     59  C   UNL     1     -13.540   4.997  10.288  1.00  0.00     0.074 A 
ATOM     60  C   UNL     1     -13.940   3.736  10.878  1.00  0.00     0.031 C 
ATOM     61  C   UNL     1     -14.102   6.193  10.591  1.00  0.00     0.037 A 
BRANCH  48  62
ATOM     62  C   UNL     1     -11.590  10.988   7.604  1.00  0.00     0.057 A 
ATOM     63  C   UNL     1     -11.971  11.569   6.387  1.00  0.00     0.134 A 
ATOM     64  C   UNL     1     -11.207  11.853   8.637  1.00  0.00     0.134 A 
ATOM     65  F   UNL     1     -12.340  10.800   5.351  1.00  0.00    -0.206 F 
ATOM     66  C   UNL     1     -11.942  12.952   6.195  1.00  0.00     0.040 A 
ATOM     67  C   UNL     1     -11.205  13.239   8.468  1.00  0.00     0.040 A 
ATOM     68  F   UNL     1     -10.838  11.367   9.832  1.00  0.00    -0.206 F 
ATOM     69  C   UNL     1     -11.565  13.792   7.241  1.00  0.00     0.006 A 
ENDBRANCH  48  62
BRANCH  49  70
ATOM     70  C   UNL     1     -11.302   1.090   8.927  1.00  0.00     0.057 A 
ATOM     71  C   UNL     1     -12.371   0.263   8.564  1.00  0.00     0.134 A 
ATOM     72  C   UNL     1     -10.189   0.481   9.520  1.00  0.00     0.134 A 
ATOM     73  F   UNL     1     -13.472   0.788   8.008  1.00  0.00    -0.206 F 
ATOM     74  C   UNL     1     -12.347  -1.112   8.805  1.00  0.00     0.040 A 
ATOM     75  C   UNL     1     -10.139  -0.897   9.739  1.00  0.00     0.040 A 
ATOM     76  F   UNL     1      -9.127   1.215   9.883  1.00  0.00    -0.206 F 
ATOM     77  C   UNL     1     -11.226  -1.696   9.389  1.00  0.00     0.006 A 
ENDBRANCH  49  70
BRANCH  61  78
ATOM     78  C   UNL     1     -15.239   6.191  11.572  1.00  0.00     0.057 A 
ATOM     79  C   UNL     1     -15.047   5.929  12.934  1.00  0.00     0.134 A 
ATOM     80  C   UNL     1     -16.541   6.493  11.151  1.00  0.00     0.134 A 
ATOM     81  F   UNL     1     -13.828   5.620  13.402  1.00  0.00    -0.206 F 
ATOM     82  C   UNL     1     -16.112   5.940  13.837  1.00  0.00     0.040 A 
ATOM     83  C   UNL     1     -17.608   6.540  12.049  1.00  0.00     0.040 A 
ATOM     84  F   UNL     1     -16.796   6.765   9.862  1.00  0.00    -0.206 F 
ATOM     85  C   UNL     1     -17.396   6.254  13.396  1.00  0.00     0.006 A 
ENDBRANCH  61  78
ENDBRANCH  35  36
ENDBRANCH  27  30
ENDBRANCH  25  26
ENDBRANCH  24  25
ENDBRANCH  23  24
ENDBRANCH   3  23
TORSDOF 16
