REMARK SMILES CC[N@@H+](C[C@H]1CCCO1)[C@@H](C)c1ccc(C(=O)NCCCNC(=O)c2ccc(-c3c4nc(c(-c5c(F)cccc5F)c5ccc([nH]5)c(-c5c(F)cccc5F)c5nc(c(-c6c(F)cccc6F)c6ccc3[nH]6)C=C5)C=C4)cc2)o1
REMARK SMILES IDX 19 1 18 2 16 3 17 4 15 6 12 7 13 8 79 9 14 10 10 11 11 12
REMARK SMILES IDX 3 13 2 15 1 16 4 17 5 18 6 19 9 20 7 21 8 22 20 23 21 24
REMARK SMILES IDX 22 25 23 26 24 28 25 29 26 30 78 31 27 32 77 33 28 34 29 35
REMARK SMILES IDX 30 36 71 37 31 38 76 39 70 40 72 41 32 42 75 43 69 44 68 45
REMARK SMILES IDX 33 47 59 48 42 49 58 50 43 51 46 52 57 53 73 54 44 55 45 56
REMARK SMILES IDX 56 58 74 59 47 60 34 61 35 62 40 63 36 64 37 65 39 66 41 67
REMARK SMILES IDX 38 68 60 69 61 70 66 71 62 72 63 73 65 74 67 75 64 76 48 77
REMARK SMILES IDX 49 78 54 79 50 80 51 81 53 82 55 83 52 84
REMARK H PARENT 18 5 3 14 22 27 72 46 46 57
REMARK Flexibility Score: inf
ROOT
ATOM      1  C   UNL     1       4.119  -4.536   1.166  1.00  0.00     0.118 C 
ENDROOT
BRANCH   1   2
ATOM      2  N   UNL     1       3.667  -3.500   2.069  1.00  0.00    -0.349 N 
ATOM      3  C   UNL     1       2.996  -2.325   1.823  1.00  0.00     0.287 C 
ATOM      4  O   UNL     1       2.647  -1.700   2.834  1.00  0.00    -0.266 OA
ATOM      5  H   UNL     1       3.874  -3.663   3.017  1.00  0.00     0.163 HD
BRANCH   3   6
ATOM      6  C   UNL     1       2.728  -1.864   0.473  1.00  0.00     0.191 A 
ATOM      7  C   UNL     1       1.806  -0.447  -0.967  1.00  0.00     0.161 A 
ATOM      8  C   UNL     1       2.553  -1.330  -1.715  1.00  0.00     0.053 A 
ATOM      9  O   UNL     1       1.878  -0.789   0.350  1.00  0.00    -0.450 OA
ATOM     10  C   UNL     1       3.162  -2.215  -0.795  1.00  0.00     0.057 A 
BRANCH   7  11
ATOM     11  C   UNL     1       0.996   0.774  -1.310  1.00  0.00     0.248 C 
ATOM     12  C   UNL     1       0.481   0.658  -2.752  1.00  0.00     0.084 C 
BRANCH  11  13
ATOM     13  N   UNL     1       1.664   2.048  -0.957  1.00  0.00    -0.324 N 
ATOM     14  H   UNL     1       1.688   1.930   0.056  1.00  0.00     0.348 HD
BRANCH  13  15
ATOM     15  C   UNL     1       3.082   2.212  -1.299  1.00  0.00     0.259 C 
ATOM     16  C   UNL     1       4.056   1.550  -0.325  1.00  0.00     0.071 C 
ENDBRANCH  13  15
BRANCH  13  17
ATOM     17  C   UNL     1       0.879   3.270  -1.239  1.00  0.00     0.295 C 
BRANCH  17  18
ATOM     18  C   UNL     1       0.827   3.850  -2.684  1.00  0.00     0.173 C 
ATOM     19  C   UNL     1       0.138   5.213  -2.734  1.00  0.00     0.040 C 
ATOM     20  O   UNL     1       2.141   4.037  -3.246  1.00  0.00    -0.372 OA
ATOM     21  C   UNL     1       1.289   6.183  -2.837  1.00  0.00     0.031 C 
ATOM     22  C   UNL     1       2.289   5.399  -3.650  1.00  0.00     0.161 C 
ENDBRANCH  17  18
ENDBRANCH  13  17
ENDBRANCH  11  13
ENDBRANCH   7  11
ENDBRANCH   3   6
ENDBRANCH   1   2
BRANCH   1  23
ATOM     23  C   UNL     1       5.580  -4.346   0.760  1.00  0.00     0.042 C 
BRANCH  23  24
ATOM     24  C   UNL     1       6.566  -4.856   1.810  1.00  0.00     0.118 C 
BRANCH  24  25
ATOM     25  N   UNL     1       6.496  -6.305   1.954  1.00  0.00    -0.352 N 
ATOM     26  C   UNL     1       7.463  -7.264   1.808  1.00  0.00     0.251 C 
ATOM     27  H   UNL     1       5.607  -6.652   2.195  1.00  0.00     0.163 HD
ATOM     28  O   UNL     1       7.132  -8.445   1.736  1.00  0.00    -0.269 OA
BRANCH  26  29
ATOM     29  C   UNL     1       8.895  -6.902   1.742  1.00  0.00     0.039 A 
ATOM     30  C   UNL     1       9.729  -7.625   0.882  1.00  0.00     0.014 A 
ATOM     31  C   UNL     1       9.434  -5.916   2.572  1.00  0.00     0.014 A 
ATOM     32  C   UNL     1      11.093  -7.334   0.826  1.00  0.00     0.010 A 
ATOM     33  C   UNL     1      10.784  -5.584   2.471  1.00  0.00     0.010 A 
ATOM     34  C   UNL     1      11.626  -6.297   1.605  1.00  0.00    -0.014 A 
BRANCH  34  35
ATOM     35  C   UNL     1      13.067  -5.949   1.537  1.00  0.00     0.031 A 
ATOM     36  C   UNL     1      13.952  -6.157   2.734  1.00  0.00     0.074 A 
ATOM     37  C   UNL     1      13.559  -5.385   0.418  1.00  0.00     0.049 A 
ATOM     38  N   UNL     1      15.210  -5.837   2.897  1.00  0.00    -0.248 NA
ATOM     39  C   UNL     1      13.334  -6.784   3.913  1.00  0.00     0.031 C 
ATOM     40  C   UNL     1      12.789  -5.093  -0.792  1.00  0.00     0.029 A 
ATOM     41  N   UNL     1      14.823  -4.941   0.124  1.00  0.00    -0.354 N 
ATOM     42  C   UNL     1      15.527  -6.200   4.200  1.00  0.00     0.074 A 
ATOM     43  C   UNL     1      14.320  -6.729   4.796  1.00  0.00     0.031 C 
ATOM     44  C   UNL     1      13.599  -4.531  -1.703  1.00  0.00     0.029 A 
ATOM     45  C   UNL     1      14.934  -4.393  -1.131  1.00  0.00     0.049 A 
ATOM     46  H   UNL     1      15.578  -5.008   0.752  1.00  0.00     0.167 HD
ATOM     47  C   UNL     1      16.720  -6.115   4.835  1.00  0.00     0.037 A 
ATOM     48  C   UNL     1      15.993  -3.834  -1.746  1.00  0.00     0.037 A 
ATOM     49  C   UNL     1      17.927  -5.620   4.226  1.00  0.00     0.049 A 
ATOM     50  C   UNL     1      17.310  -3.768  -1.026  1.00  0.00     0.074 A 
ATOM     51  C   UNL     1      19.201  -5.559   4.761  1.00  0.00     0.029 A 
ATOM     52  N   UNL     1      18.007  -5.104   2.941  1.00  0.00    -0.354 N 
ATOM     53  N   UNL     1      17.610  -4.173   0.184  1.00  0.00    -0.248 NA
ATOM     54  C   UNL     1      18.436  -3.172  -1.758  1.00  0.00     0.031 C 
ATOM     55  C   UNL     1      20.047  -4.974   3.812  1.00  0.00     0.029 A 
ATOM     56  C   UNL     1      19.306  -4.706   2.672  1.00  0.00     0.049 A 
ATOM     57  H   UNL     1      17.252  -5.031   2.314  1.00  0.00     0.167 HD
ATOM     58  C   UNL     1      18.962  -3.905   0.350  1.00  0.00     0.074 A 
ATOM     59  C   UNL     1      19.426  -3.314  -0.888  1.00  0.00     0.031 C 
ATOM     60  C   UNL     1      19.749  -4.127   1.431  1.00  0.00     0.037 A 
BRANCH  47  61
ATOM     61  C   UNL     1      16.778  -6.570   6.263  1.00  0.00     0.057 A 
ATOM     62  C   UNL     1      16.703  -7.925   6.610  1.00  0.00     0.134 A 
ATOM     63  C   UNL     1      16.945  -5.646   7.302  1.00  0.00     0.134 A 
ATOM     64  F   UNL     1      16.531  -8.860   5.663  1.00  0.00    -0.206 F 
ATOM     65  C   UNL     1      16.766  -8.343   7.941  1.00  0.00     0.040 A 
ATOM     66  C   UNL     1      17.034  -6.053   8.634  1.00  0.00     0.040 A 
ATOM     67  F   UNL     1      17.031  -4.333   7.039  1.00  0.00    -0.206 F 
ATOM     68  C   UNL     1      16.939  -7.405   8.957  1.00  0.00     0.006 A 
ENDBRANCH  47  61
BRANCH  48  69
ATOM     69  C   UNL     1      15.856  -3.314  -3.128  1.00  0.00     0.057 A 
ATOM     70  C   UNL     1      16.447  -3.979  -4.208  1.00  0.00     0.134 A 
ATOM     71  C   UNL     1      15.136  -2.146  -3.403  1.00  0.00     0.134 A 
ATOM     72  F   UNL     1      17.164  -5.094  -4.004  1.00  0.00    -0.206 F 
ATOM     73  C   UNL     1      16.341  -3.492  -5.512  1.00  0.00     0.040 A 
ATOM     74  C   UNL     1      15.003  -1.660  -4.705  1.00  0.00     0.040 A 
ATOM     75  F   UNL     1      14.540  -1.468  -2.411  1.00  0.00    -0.206 F 
ATOM     76  C   UNL     1      15.613  -2.331  -5.763  1.00  0.00     0.006 A 
ENDBRANCH  48  69
BRANCH  60  77
ATOM     77  C   UNL     1      21.197  -3.760   1.307  1.00  0.00     0.057 A 
ATOM     78  C   UNL     1      21.623  -2.426   1.336  1.00  0.00     0.134 A 
ATOM     79  C   UNL     1      22.177  -4.753   1.194  1.00  0.00     0.134 A 
ATOM     80  F   UNL     1      20.731  -1.429   1.428  1.00  0.00    -0.206 F 
ATOM     81  C   UNL     1      22.975  -2.093   1.237  1.00  0.00     0.040 A 
ATOM     82  C   UNL     1      23.533  -4.434   1.118  1.00  0.00     0.040 A 
ATOM     83  F   UNL     1      21.833  -6.050   1.168  1.00  0.00    -0.206 F 
ATOM     84  C   UNL     1      23.934  -3.099   1.134  1.00  0.00     0.006 A 
ENDBRANCH  60  77
ENDBRANCH  34  35
ENDBRANCH  26  29
ENDBRANCH  24  25
ENDBRANCH  23  24
ENDBRANCH   1  23
TORSDOF 15
