REMARK SMILES C[C@H](Sc1ccccn1)C(=O)N[C@H](C(=O)NCCCNC(=O)c1ccc(-c2c3nc(c(-c4c(F)cccc4F)c4ccc([nH]4)c(-c4c(F)cccc4F)c4nc(c(-c5c(F)cccc5F)c5ccc2[nH]5)C=C4)C=C3)cc1)c1ccc(F)cc1
REMARK SMILES IDX 17 1 16 2 14 3 15 4 13 6 12 7 10 8 11 9 2 11 1 12 3 13 4 14
REMARK SMILES IDX 5 15 9 16 6 17 8 18 7 19 77 20 78 21 83 22 79 23 82 24 80 25
REMARK SMILES IDX 81 26 18 27 19 28 20 29 21 30 22 32 23 33 24 34 76 35 25 36
REMARK SMILES IDX 75 37 26 38 27 39 28 40 69 41 29 42 74 43 68 44 70 45 30 46
REMARK SMILES IDX 73 47 67 48 66 49 31 51 57 52 40 53 56 54 41 55 44 56 55 57
REMARK SMILES IDX 71 58 42 59 43 60 54 62 72 63 45 64 32 65 33 66 38 67 34 68
REMARK SMILES IDX 35 69 37 70 39 71 36 72 58 73 59 74 64 75 60 76 61 77 63 78
REMARK SMILES IDX 65 79 62 80 46 81 47 82 52 83 48 84 49 85 51 86 53 87 50 88
REMARK H PARENT 16 5 12 10 20 31 70 50 44 61
REMARK Flexibility Score: inf
ROOT
ATOM      1  C   UNL     1       0.132   0.201  -0.572  1.00  0.00     0.117 C 
ENDROOT
BRANCH   1   2
ATOM      2  N   UNL     1      -1.172  -0.427  -0.453  1.00  0.00    -0.354 N 
ATOM      3  C   UNL     1      -1.726  -1.145   0.580  1.00  0.00     0.247 C 
ATOM      4  O   UNL     1      -2.886  -1.522   0.415  1.00  0.00    -0.272 OA
ATOM      5  H   UNL     1      -1.754  -0.321  -1.240  1.00  0.00     0.163 HD
BRANCH   3   6
ATOM      6  C   UNL     1      -0.918  -1.320   1.897  1.00  0.00     0.202 C 
BRANCH   6   7
ATOM      7  N   UNL     1      -1.140  -0.092   2.698  1.00  0.00    -0.340 N 
ATOM      8  C   UNL     1      -1.917   0.366   3.701  1.00  0.00     0.234 C 
ATOM      9  O   UNL     1      -2.095   1.598   3.655  1.00  0.00    -0.274 OA
ATOM     10  H   UNL     1      -0.523   0.616   2.403  1.00  0.00     0.164 HD
BRANCH   8  11
ATOM     11  C   UNL     1      -2.423  -0.361   4.943  1.00  0.00     0.139 C 
ATOM     12  C   UNL     1      -1.335  -0.575   5.992  1.00  0.00     0.030 C 
BRANCH  11  13
ATOM     13  S   UNL     1      -3.448  -1.817   4.649  1.00  0.00    -0.093 SA
BRANCH  13  14
ATOM     14  C   UNL     1      -4.750  -1.162   3.627  1.00  0.00     0.097 A 
ATOM     15  C   UNL     1      -5.263   0.125   3.757  1.00  0.00     0.035 A 
ATOM     16  N   UNL     1      -5.227  -2.033   2.713  1.00  0.00    -0.250 NA
ATOM     17  C   UNL     1      -6.261   0.550   2.885  1.00  0.00     0.004 A 
ATOM     18  C   UNL     1      -6.192  -1.597   1.875  1.00  0.00     0.112 A 
ATOM     19  C   UNL     1      -6.734  -0.325   1.919  1.00  0.00     0.020 A 
ENDBRANCH  13  14
ENDBRANCH  11  13
ENDBRANCH   8  11
ENDBRANCH   6   7
BRANCH   6  20
ATOM     20  C   UNL     1      -0.959  -2.673   2.574  1.00  0.00    -0.016 A 
ATOM     21  C   UNL     1      -0.185  -2.879   3.728  1.00  0.00     0.009 A 
ATOM     22  C   UNL     1      -1.662  -3.776   2.058  1.00  0.00     0.009 A 
ATOM     23  C   UNL     1      -0.252  -4.077   4.442  1.00  0.00     0.039 A 
ATOM     24  C   UNL     1      -1.687  -4.997   2.741  1.00  0.00     0.039 A 
ATOM     25  C   UNL     1      -1.015  -5.123   3.946  1.00  0.00     0.123 A 
ATOM     26  F   UNL     1      -1.085  -6.271   4.631  1.00  0.00    -0.207 F 
ENDBRANCH   6  20
ENDBRANCH   3   6
ENDBRANCH   1   2
BRANCH   1  27
ATOM     27  C   UNL     1       1.117  -0.656  -1.360  1.00  0.00     0.042 C 
BRANCH  27  28
ATOM     28  C   UNL     1       0.715  -0.888  -2.815  1.00  0.00     0.118 C 
BRANCH  28  29
ATOM     29  N   UNL     1       0.618   0.348  -3.582  1.00  0.00    -0.352 N 
ATOM     30  C   UNL     1       1.268   0.740  -4.725  1.00  0.00     0.251 C 
ATOM     31  H   UNL     1      -0.016   1.009  -3.221  1.00  0.00     0.163 HD
ATOM     32  O   UNL     1       1.165   1.902  -5.114  1.00  0.00    -0.269 OA
BRANCH  30  33
ATOM     33  C   UNL     1       2.108  -0.213  -5.479  1.00  0.00     0.039 A 
ATOM     34  C   UNL     1       3.339   0.221  -5.979  1.00  0.00     0.014 A 
ATOM     35  C   UNL     1       1.682  -1.523  -5.711  1.00  0.00     0.014 A 
ATOM     36  C   UNL     1       4.175  -0.679  -6.643  1.00  0.00     0.010 A 
ATOM     37  C   UNL     1       2.549  -2.439  -6.300  1.00  0.00     0.010 A 
ATOM     38  C   UNL     1       3.805  -2.028  -6.770  1.00  0.00    -0.014 A 
BRANCH  38  39
ATOM     39  C   UNL     1       4.726  -3.027  -7.369  1.00  0.00     0.031 A 
ATOM     40  C   UNL     1       4.350  -3.749  -8.631  1.00  0.00     0.074 A 
ATOM     41  C   UNL     1       5.871  -3.337  -6.732  1.00  0.00     0.049 A 
ATOM     42  N   UNL     1       4.994  -4.695  -9.268  1.00  0.00    -0.248 NA
ATOM     43  C   UNL     1       3.066  -3.378  -9.245  1.00  0.00     0.031 C 
ATOM     44  C   UNL     1       6.333  -2.735  -5.480  1.00  0.00     0.029 A 
ATOM     45  N   UNL     1       6.853  -4.242  -7.047  1.00  0.00    -0.354 N 
ATOM     46  C   UNL     1       4.189  -5.041 -10.345  1.00  0.00     0.074 A 
ATOM     47  C   UNL     1       2.985  -4.246 -10.242  1.00  0.00     0.031 C 
ATOM     48  C   UNL     1       7.525  -3.258  -5.154  1.00  0.00     0.029 A 
ATOM     49  C   UNL     1       7.889  -4.265  -6.146  1.00  0.00     0.049 A 
ATOM     50  H   UNL     1       6.819  -4.820  -7.843  1.00  0.00     0.167 HD
ATOM     51  C   UNL     1       4.439  -5.926 -11.341  1.00  0.00     0.037 A 
ATOM     52  C   UNL     1       9.006  -5.016  -6.119  1.00  0.00     0.037 A 
ATOM     53  C   UNL     1       5.643  -6.710 -11.442  1.00  0.00     0.049 A 
ATOM     54  C   UNL     1       9.242  -6.023  -7.209  1.00  0.00     0.074 A 
ATOM     55  C   UNL     1       6.021  -7.587 -12.443  1.00  0.00     0.029 A 
ATOM     56  N   UNL     1       6.660  -6.722 -10.497  1.00  0.00    -0.354 N 
ATOM     57  N   UNL     1       8.509  -6.289  -8.263  1.00  0.00    -0.248 NA
ATOM     58  C   UNL     1      10.461  -6.836  -7.103  1.00  0.00     0.031 C 
ATOM     59  C   UNL     1       7.236  -8.175 -12.074  1.00  0.00     0.029 A 
ATOM     60  C   UNL     1       7.647  -7.619 -10.873  1.00  0.00     0.049 A 
ATOM     61  H   UNL     1       6.678  -6.173  -9.680  1.00  0.00     0.167 HD
ATOM     62  C   UNL     1       9.191  -7.275  -8.963  1.00  0.00     0.074 A 
ATOM     63  C   UNL     1      10.402  -7.553  -8.217  1.00  0.00     0.031 C 
ATOM     64  C   UNL     1       8.848  -7.890 -10.122  1.00  0.00     0.037 A 
BRANCH  51  65
ATOM     65  C   UNL     1       3.374  -6.100 -12.387  1.00  0.00     0.057 A 
ATOM     66  C   UNL     1       3.041  -5.078 -13.288  1.00  0.00     0.134 A 
ATOM     67  C   UNL     1       2.667  -7.304 -12.494  1.00  0.00     0.134 A 
ATOM     68  F   UNL     1       3.672  -3.894 -13.237  1.00  0.00    -0.206 F 
ATOM     69  C   UNL     1       2.015  -5.230 -14.222  1.00  0.00     0.040 A 
ATOM     70  C   UNL     1       1.661  -7.481 -13.446  1.00  0.00     0.040 A 
ATOM     71  F   UNL     1       2.938  -8.330 -11.673  1.00  0.00    -0.206 F 
ATOM     72  C   UNL     1       1.324  -6.437 -14.305  1.00  0.00     0.006 A 
ENDBRANCH  51  65
BRANCH  52  73
ATOM     73  C   UNL     1      10.008  -4.813  -5.042  1.00  0.00     0.057 A 
ATOM     74  C   UNL     1      11.248  -4.229  -5.323  1.00  0.00     0.134 A 
ATOM     75  C   UNL     1       9.752  -5.178  -3.715  1.00  0.00     0.134 A 
ATOM     76  F   UNL     1      11.557  -3.873  -6.578  1.00  0.00    -0.206 F 
ATOM     77  C   UNL     1      12.203  -4.025  -4.326  1.00  0.00     0.040 A 
ATOM     78  C   UNL     1      10.688  -4.958  -2.704  1.00  0.00     0.040 A 
ATOM     79  F   UNL     1       8.579  -5.735  -3.380  1.00  0.00    -0.206 F 
ATOM     80  C   UNL     1      11.921  -4.384  -3.010  1.00  0.00     0.006 A 
ENDBRANCH  52  73
BRANCH  64  81
ATOM     81  C   UNL     1       9.810  -8.902 -10.675  1.00  0.00     0.057 A 
ATOM     82  C   UNL     1      10.001 -10.152 -10.073  1.00  0.00     0.134 A 
ATOM     83  C   UNL     1      10.529  -8.634 -11.848  1.00  0.00     0.134 A 
ATOM     84  F   UNL     1       9.356 -10.467  -8.939  1.00  0.00    -0.206 F 
ATOM     85  C   UNL     1      10.887 -11.091 -10.605  1.00  0.00     0.040 A 
ATOM     86  C   UNL     1      11.394  -9.576 -12.406  1.00  0.00     0.040 A 
ATOM     87  F   UNL     1      10.389  -7.459 -12.480  1.00  0.00    -0.206 F 
ATOM     88  C   UNL     1      11.581 -10.806 -11.780  1.00  0.00     0.006 A 
ENDBRANCH  64  81
ENDBRANCH  38  39
ENDBRANCH  30  33
ENDBRANCH  28  29
ENDBRANCH  27  28
ENDBRANCH   1  27
TORSDOF 15
