REMARK SMILES COc1cccc(-c2c(C(=O)NCCCNC(=O)c3ccc(-c4c5nc(c(-c6c(F)cccc6F)c6ccc([nH]6)c(-c6c(F)cccc6F)c6nc(c(-c7c(F)cccc7F)c7ccc4[nH]7)C=C6)C=C5)cc3)nnn2-c2ccc(OC(F)(F)F)cc2)c1
REMARK SMILES IDX 13 1 12 2 10 3 11 4 9 6 8 7 75 8 73 9 74 10 7 11 3 12 4 13
REMARK SMILES IDX 87 14 5 15 6 16 2 17 1 18 76 19 77 20 86 21 78 22 85 23
REMARK SMILES IDX 79 24 80 25 81 26 82 27 83 28 84 29 14 30 15 31 16 32 17 33
REMARK SMILES IDX 18 35 19 36 20 37 72 38 21 39 71 40 22 41 23 42 24 43 65 44
REMARK SMILES IDX 25 45 70 46 64 47 66 48 26 49 69 50 63 51 62 52 27 54 53 55
REMARK SMILES IDX 36 56 52 57 37 58 40 59 51 60 67 61 38 62 39 63 50 65 68 66
REMARK SMILES IDX 41 67 28 68 29 69 34 70 30 71 31 72 33 73 35 74 32 75 54 76
REMARK SMILES IDX 55 77 60 78 56 79 57 80 59 81 61 82 58 83 42 84 43 85 48 86
REMARK SMILES IDX 44 87 45 88 47 89 49 90 46 91
REMARK H PARENT 12 5 16 34 66 53 40 64
REMARK Flexibility Score: inf
ROOT
ATOM      1  C   UNL     1       1.680  -6.046   0.999  1.00  0.00     0.118 C 
ENDROOT
BRANCH   1   2
ATOM      2  N   UNL     1       2.988  -6.515   0.624  1.00  0.00    -0.351 N 
ATOM      3  C   UNL     1       4.268  -6.114   0.889  1.00  0.00     0.274 C 
ATOM      4  O   UNL     1       5.117  -6.897   0.445  1.00  0.00    -0.267 OA
ATOM      5  H   UNL     1       2.953  -7.307   0.040  1.00  0.00     0.163 HD
BRANCH   3   6
ATOM      6  C   UNL     1       4.692  -4.896   1.595  1.00  0.00     0.178 A 
ATOM      7  C   UNL     1       4.099  -3.834   2.286  1.00  0.00     0.108 A 
ATOM      8  N   UNL     1       5.191  -3.042   2.672  1.00  0.00    -0.212 N 
ATOM      9  N   UNL     1       6.058  -4.643   1.538  1.00  0.00    -0.124 NA
ATOM     10  N   UNL     1       6.319  -3.479   2.092  1.00  0.00    -0.061 NA
BRANCH   7  11
ATOM     11  C   UNL     1       2.733  -3.347   2.484  1.00  0.00     0.006 A 
ATOM     12  C   UNL     1       0.994  -1.738   1.905  1.00  0.00     0.119 A 
ATOM     13  C   UNL     1       0.164  -2.311   2.872  1.00  0.00     0.046 A 
ATOM     14  C   UNL     1       2.276  -2.258   1.713  1.00  0.00     0.056 A 
ATOM     15  C   UNL     1       0.615  -3.370   3.661  1.00  0.00     0.005 A 
ATOM     16  C   UNL     1       1.906  -3.869   3.486  1.00  0.00     0.011 A 
BRANCH  12  17
ATOM     17  O   UNL     1       0.434  -0.697   1.219  1.00  0.00    -0.497 OA
ATOM     18  C   UNL     1       1.151  -0.183   0.104  1.00  0.00     0.278 C 
ENDBRANCH  12  17
ENDBRANCH   7  11
BRANCH   8  19
ATOM     19  C   UNL     1       5.205  -1.871   3.469  1.00  0.00     0.067 A 
ATOM     20  C   UNL     1       6.035  -0.805   3.116  1.00  0.00     0.032 A 
ATOM     21  C   UNL     1       4.375  -1.765   4.589  1.00  0.00     0.032 A 
ATOM     22  C   UNL     1       5.955   0.393   3.833  1.00  0.00     0.049 A 
ATOM     23  C   UNL     1       4.319  -0.575   5.315  1.00  0.00     0.049 A 
ATOM     24  C   UNL     1       5.088   0.521   4.925  1.00  0.00     0.129 A 
BRANCH  24  25
ATOM     25  O   UNL     1       5.090   1.752   5.516  1.00  0.00    -0.406 OA
BRANCH  25  26
ATOM     26  C   UNL     1       4.209   1.952   6.609  1.00  0.00     0.573 C 
ATOM     27  F   UNL     1       2.924   1.738   6.251  1.00  0.00    -0.132 F 
ATOM     28  F   UNL     1       4.528   1.144   7.643  1.00  0.00    -0.132 F 
ATOM     29  F   UNL     1       4.318   3.232   7.027  1.00  0.00    -0.132 F 
ENDBRANCH  25  26
ENDBRANCH  24  25
ENDBRANCH   8  19
ENDBRANCH   3   6
ENDBRANCH   1   2
BRANCH   1  30
ATOM     30  C   UNL     1       1.132  -4.978   0.055  1.00  0.00     0.042 C 
BRANCH  30  31
ATOM     31  C   UNL     1      -0.074  -5.472  -0.720  1.00  0.00     0.118 C 
BRANCH  31  32
ATOM     32  N   UNL     1      -1.212  -5.737   0.165  1.00  0.00    -0.352 N 
ATOM     33  C   UNL     1      -2.377  -6.433  -0.106  1.00  0.00     0.251 C 
ATOM     34  H   UNL     1      -1.137  -5.370   1.075  1.00  0.00     0.163 HD
ATOM     35  O   UNL     1      -3.344  -6.365   0.616  1.00  0.00    -0.269 OA
BRANCH  33  36
ATOM     36  C   UNL     1      -2.404  -7.236  -1.342  1.00  0.00     0.039 A 
ATOM     37  C   UNL     1      -3.403  -7.020  -2.291  1.00  0.00     0.014 A 
ATOM     38  C   UNL     1      -1.325  -8.073  -1.600  1.00  0.00     0.014 A 
ATOM     39  C   UNL     1      -3.240  -7.561  -3.563  1.00  0.00     0.010 A 
ATOM     40  C   UNL     1      -1.096  -8.475  -2.896  1.00  0.00     0.010 A 
ATOM     41  C   UNL     1      -2.058  -8.249  -3.882  1.00  0.00    -0.014 A 
BRANCH  41  42
ATOM     42  C   UNL     1      -1.785  -8.626  -5.271  1.00  0.00     0.031 A 
ATOM     43  C   UNL     1      -1.977  -7.560  -6.305  1.00  0.00     0.074 A 
ATOM     44  C   UNL     1      -1.191  -9.785  -5.628  1.00  0.00     0.049 A 
ATOM     45  N   UNL     1      -2.795  -7.561  -7.308  1.00  0.00    -0.248 NA
ATOM     46  C   UNL     1      -1.204  -6.315  -6.174  1.00  0.00     0.031 C 
ATOM     47  C   UNL     1      -0.630 -10.836  -4.770  1.00  0.00     0.029 A 
ATOM     48  N   UNL     1      -0.870 -10.217  -6.879  1.00  0.00    -0.354 N 
ATOM     49  C   UNL     1      -2.535  -6.397  -8.034  1.00  0.00     0.074 A 
ATOM     50  C   UNL     1      -1.633  -5.615  -7.227  1.00  0.00     0.031 C 
ATOM     51  C   UNL     1       0.160 -11.645  -5.506  1.00  0.00     0.029 A 
ATOM     52  C   UNL     1       0.002 -11.293  -6.903  1.00  0.00     0.049 A 
ATOM     53  H   UNL     1      -1.227  -9.800  -7.696  1.00  0.00     0.167 HD
ATOM     54  C   UNL     1      -2.943  -6.247  -9.327  1.00  0.00     0.037 A 
ATOM     55  C   UNL     1       0.568 -11.861  -7.991  1.00  0.00     0.037 A 
ATOM     56  C   UNL     1      -3.961  -7.204  -9.672  1.00  0.00     0.049 A 
ATOM     57  C   UNL     1      -0.252 -11.491  -9.166  1.00  0.00     0.074 A 
ATOM     58  C   UNL     1      -5.228  -7.495  -9.204  1.00  0.00     0.029 A 
ATOM     59  N   UNL     1      -3.601  -8.283 -10.440  1.00  0.00    -0.354 N 
ATOM     60  N   UNL     1      -1.466 -11.920  -9.374  1.00  0.00    -0.248 NA
ATOM     61  C   UNL     1       0.128 -10.307  -9.919  1.00  0.00     0.031 C 
ATOM     62  C   UNL     1      -5.332  -8.915  -9.287  1.00  0.00     0.029 A 
ATOM     63  C   UNL     1      -4.143  -9.390  -9.844  1.00  0.00     0.049 A 
ATOM     64  H   UNL     1      -3.058  -8.264 -11.261  1.00  0.00     0.167 HD
ATOM     65  C   UNL     1      -2.131 -10.841  -9.935  1.00  0.00     0.074 A 
ATOM     66  C   UNL     1      -1.075  -9.923 -10.353  1.00  0.00     0.031 C 
ATOM     67  C   UNL     1      -3.474 -10.667  -9.758  1.00  0.00     0.037 A 
BRANCH  54  68
ATOM     68  C   UNL     1      -2.207  -5.459 -10.387  1.00  0.00     0.057 A 
ATOM     69  C   UNL     1      -2.805  -5.263 -11.649  1.00  0.00     0.134 A 
ATOM     70  C   UNL     1      -0.836  -5.145 -10.326  1.00  0.00     0.134 A 
ATOM     71  F   UNL     1      -4.104  -5.536 -11.846  1.00  0.00    -0.206 F 
ATOM     72  C   UNL     1      -2.076  -4.864 -12.777  1.00  0.00     0.040 A 
ATOM     73  C   UNL     1      -0.109  -4.697 -11.434  1.00  0.00     0.040 A 
ATOM     74  F   UNL     1      -0.105  -5.348  -9.223  1.00  0.00    -0.206 F 
ATOM     75  C   UNL     1      -0.720  -4.587 -12.674  1.00  0.00     0.006 A 
ENDBRANCH  54  68
BRANCH  55  76
ATOM     76  C   UNL     1       1.889 -12.509  -8.103  1.00  0.00     0.057 A 
ATOM     77  C   UNL     1       2.185 -13.377  -9.161  1.00  0.00     0.134 A 
ATOM     78  C   UNL     1       2.977 -12.088  -7.319  1.00  0.00     0.134 A 
ATOM     79  F   UNL     1       1.215 -13.803  -9.983  1.00  0.00    -0.206 F 
ATOM     80  C   UNL     1       3.495 -13.782  -9.441  1.00  0.00     0.040 A 
ATOM     81  C   UNL     1       4.289 -12.491  -7.583  1.00  0.00     0.040 A 
ATOM     82  F   UNL     1       2.813 -11.203  -6.324  1.00  0.00    -0.206 F 
ATOM     83  C   UNL     1       4.553 -13.329  -8.659  1.00  0.00     0.006 A 
ENDBRANCH  55  76
BRANCH  67  84
ATOM     84  C   UNL     1      -4.264 -11.806  -9.174  1.00  0.00     0.057 A 
ATOM     85  C   UNL     1      -4.069 -12.315  -7.880  1.00  0.00     0.134 A 
ATOM     86  C   UNL     1      -5.361 -12.301  -9.886  1.00  0.00     0.134 A 
ATOM     87  F   UNL     1      -3.112 -11.831  -7.081  1.00  0.00    -0.206 F 
ATOM     88  C   UNL     1      -4.899 -13.303  -7.342  1.00  0.00     0.040 A 
ATOM     89  C   UNL     1      -6.218 -13.264  -9.347  1.00  0.00     0.040 A 
ATOM     90  F   UNL     1      -5.649 -11.819 -11.106  1.00  0.00    -0.206 F 
ATOM     91  C   UNL     1      -5.982 -13.776  -8.074  1.00  0.00     0.006 A 
ENDBRANCH  67  84
ENDBRANCH  41  42
ENDBRANCH  33  36
ENDBRANCH  31  32
ENDBRANCH  30  31
ENDBRANCH   1  30
TORSDOF 15
