REMARK SMILES CC[C@](C)(NC(=O)N1CCC[C@@H]1C)C(=O)NCCCNC(=O)c1ccc(-c2c3nc(c(-c4c(F)cccc4F)c4ccc([nH]4)c(-c4c(F)cccc4F)c4nc(c(-c5c(F)cccc5F)c5ccc2[nH]5)C=C4)C=C3)cc1
REMARK SMILES IDX 18 1 17 2 16 3 14 4 15 5 3 7 4 8 2 9 1 10 5 11 6 12 7 14
REMARK SMILES IDX 8 15 9 16 12 17 10 18 11 19 13 20 19 21 20 22 21 23 22 25
REMARK SMILES IDX 23 26 24 27 76 28 25 29 75 30 26 31 27 32 28 33 69 34 29 35
REMARK SMILES IDX 74 36 68 37 70 38 30 39 73 40 67 41 66 42 31 44 57 45 40 46
REMARK SMILES IDX 56 47 41 48 44 49 55 50 71 51 42 52 43 53 54 55 72 56 45 57
REMARK SMILES IDX 32 58 33 59 38 60 34 61 35 62 37 63 39 64 36 65 58 66 59 67
REMARK SMILES IDX 64 68 60 69 61 70 63 71 65 72 62 73 46 74 47 75 52 76 48 77
REMARK SMILES IDX 49 78 51 79 53 80 50 81
REMARK H PARENT 16 6 5 13 20 24 70 43 44 54
REMARK Flexibility Score: inf
ROOT
ATOM      1  C   UNL     1       1.989   4.476  -4.682  1.00  0.00     0.042 C 
ENDROOT
BRANCH   1   2
ATOM      2  C   UNL     1       1.649   2.981  -4.764  1.00  0.00     0.117 C 
BRANCH   2   3
ATOM      3  N   UNL     1       2.353   1.988  -3.958  1.00  0.00    -0.354 N 
ATOM      4  C   UNL     1       2.220   1.488  -2.687  1.00  0.00     0.245 C 
ATOM      5  O   UNL     1       2.880   0.473  -2.430  1.00  0.00    -0.272 OA
ATOM      6  H   UNL     1       3.106   1.579  -4.443  1.00  0.00     0.163 HD
BRANCH   4   7
ATOM      7  C   UNL     1       1.219   2.060  -1.657  1.00  0.00     0.117 C 
ATOM      8  C   UNL     1       1.396   1.542  -0.217  1.00  0.00     0.045 C 
BRANCH   7   9
ATOM      9  C   UNL     1      -0.214   1.632  -2.132  1.00  0.00     0.035 C 
ATOM     10  C   UNL     1      -0.559   0.153  -1.941  1.00  0.00     0.007 C 
ENDBRANCH   7   9
BRANCH   7  11
ATOM     11  N   UNL     1       1.328   3.526  -1.656  1.00  0.00    -0.324 N 
ATOM     12  C   UNL     1       2.220   4.446  -1.264  1.00  0.00     0.318 C 
ATOM     13  H   UNL     1       0.530   3.946  -2.050  1.00  0.00     0.166 HD
ATOM     14  O   UNL     1       1.733   5.582  -1.180  1.00  0.00    -0.249 OA
BRANCH  12  15
ATOM     15  N   UNL     1       3.531   4.236  -0.970  1.00  0.00    -0.322 N 
ATOM     16  C   UNL     1       4.189   5.313  -0.239  1.00  0.00     0.122 C 
ATOM     17  C   UNL     1       4.502   3.128  -1.146  1.00  0.00     0.083 C 
ATOM     18  C   UNL     1       5.199   4.609   0.643  1.00  0.00     0.024 C 
ATOM     19  C   UNL     1       5.710   3.506  -0.256  1.00  0.00     0.027 C 
ATOM     20  C   UNL     1       5.078   2.965  -2.552  1.00  0.00     0.031 C 
ENDBRANCH  12  15
ENDBRANCH   7  11
ENDBRANCH   4   7
ENDBRANCH   2   3
ENDBRANCH   1   2
BRANCH   1  21
ATOM     21  C   UNL     1       3.420   4.991  -4.832  1.00  0.00     0.118 C 
BRANCH  21  22
ATOM     22  N   UNL     1       4.223   4.326  -5.838  1.00  0.00    -0.352 N 
ATOM     23  C   UNL     1       5.245   4.839  -6.607  1.00  0.00     0.251 C 
ATOM     24  H   UNL     1       4.010   3.378  -5.993  1.00  0.00     0.163 HD
ATOM     25  O   UNL     1       5.806   4.131  -7.430  1.00  0.00    -0.269 OA
BRANCH  23  26
ATOM     26  C   UNL     1       5.643   6.261  -6.475  1.00  0.00     0.039 A 
ATOM     27  C   UNL     1       5.653   7.052  -7.628  1.00  0.00     0.014 A 
ATOM     28  C   UNL     1       6.036   6.808  -5.250  1.00  0.00     0.014 A 
ATOM     29  C   UNL     1       5.990   8.407  -7.544  1.00  0.00     0.010 A 
ATOM     30  C   UNL     1       6.348   8.171  -5.162  1.00  0.00     0.010 A 
ATOM     31  C   UNL     1       6.311   8.987  -6.305  1.00  0.00    -0.014 A 
BRANCH  31  32
ATOM     32  C   UNL     1       6.537  10.455  -6.201  1.00  0.00     0.031 A 
ATOM     33  C   UNL     1       7.902  11.019  -5.925  1.00  0.00     0.074 A 
ATOM     34  C   UNL     1       5.487  11.290  -6.329  1.00  0.00     0.049 A 
ATOM     35  N   UNL     1       8.270  12.271  -5.808  1.00  0.00    -0.248 NA
ATOM     36  C   UNL     1       8.994  10.052  -5.745  1.00  0.00     0.031 C 
ATOM     37  C   UNL     1       4.104  10.873  -6.562  1.00  0.00     0.029 A 
ATOM     38  N   UNL     1       5.418  12.661  -6.279  1.00  0.00    -0.354 N 
ATOM     39  C   UNL     1       9.633  12.246  -5.540  1.00  0.00     0.074 A 
ATOM     40  C   UNL     1      10.018  10.850  -5.472  1.00  0.00     0.031 C 
ATOM     41  C   UNL     1       3.326  11.964  -6.651  1.00  0.00     0.029 A 
ATOM     42  C   UNL     1       4.147  13.154  -6.454  1.00  0.00     0.049 A 
ATOM     43  H   UNL     1       6.203  13.235  -6.130  1.00  0.00     0.167 HD
ATOM     44  C   UNL     1      10.486  13.287  -5.380  1.00  0.00     0.037 A 
ATOM     45  C   UNL     1       3.691  14.422  -6.452  1.00  0.00     0.037 A 
ATOM     46  C   UNL     1      10.107  14.676  -5.453  1.00  0.00     0.049 A 
ATOM     47  C   UNL     1       4.655  15.557  -6.255  1.00  0.00     0.074 A 
ATOM     48  C   UNL     1      10.915  15.797  -5.357  1.00  0.00     0.029 A 
ATOM     49  N   UNL     1       8.811  15.135  -5.630  1.00  0.00    -0.354 N 
ATOM     50  N   UNL     1       5.953  15.518  -6.077  1.00  0.00    -0.248 NA
ATOM     51  C   UNL     1       4.091  16.915  -6.263  1.00  0.00     0.031 C 
ATOM     52  C   UNL     1      10.102  16.933  -5.433  1.00  0.00     0.029 A 
ATOM     53  C   UNL     1       8.793  16.521  -5.620  1.00  0.00     0.049 A 
ATOM     54  H   UNL     1       8.019  14.561  -5.745  1.00  0.00     0.167 HD
ATOM     55  C   UNL     1       6.363  16.841  -5.976  1.00  0.00     0.074 A 
ATOM     56  C   UNL     1       5.179  17.660  -6.127  1.00  0.00     0.031 C 
ATOM     57  C   UNL     1       7.611  17.330  -5.774  1.00  0.00     0.037 A 
BRANCH  44  58
ATOM     58  C   UNL     1      11.928  12.965  -5.107  1.00  0.00     0.057 A 
ATOM     59  C   UNL     1      12.767  12.444  -6.101  1.00  0.00     0.134 A 
ATOM     60  C   UNL     1      12.495  13.221  -3.852  1.00  0.00     0.134 A 
ATOM     61  F   UNL     1      12.285  12.172  -7.323  1.00  0.00    -0.206 F 
ATOM     62  C   UNL     1      14.111  12.165  -5.849  1.00  0.00     0.040 A 
ATOM     63  C   UNL     1      13.844  12.968  -3.596  1.00  0.00     0.040 A 
ATOM     64  F   UNL     1      11.751  13.731  -2.859  1.00  0.00    -0.206 F 
ATOM     65  C   UNL     1      14.655  12.433  -4.594  1.00  0.00     0.006 A 
ENDBRANCH  44  58
BRANCH  45  66
ATOM     66  C   UNL     1       2.246  14.688  -6.664  1.00  0.00     0.057 A 
ATOM     67  C   UNL     1       1.786  15.273  -7.849  1.00  0.00     0.134 A 
ATOM     68  C   UNL     1       1.295  14.373  -5.687  1.00  0.00     0.134 A 
ATOM     69  F   UNL     1       2.652  15.616  -8.813  1.00  0.00    -0.206 F 
ATOM     70  C   UNL     1       0.432  15.551  -8.049  1.00  0.00     0.040 A 
ATOM     71  C   UNL     1      -0.064  14.623  -5.883  1.00  0.00     0.040 A 
ATOM     72  F   UNL     1       1.673  13.808  -4.531  1.00  0.00    -0.206 F 
ATOM     73  C   UNL     1      -0.498  15.220  -7.065  1.00  0.00     0.006 A 
ENDBRANCH  45  66
BRANCH  57  74
ATOM     74  C   UNL     1       7.765  18.822  -5.730  1.00  0.00     0.057 A 
ATOM     75  C   UNL     1       7.329  19.577  -4.634  1.00  0.00     0.134 A 
ATOM     76  C   UNL     1       8.387  19.508  -6.782  1.00  0.00     0.134 A 
ATOM     77  F   UNL     1       6.712  18.983  -3.602  1.00  0.00    -0.206 F 
ATOM     78  C   UNL     1       7.490  20.964  -4.593  1.00  0.00     0.040 A 
ATOM     79  C   UNL     1       8.575  20.890  -6.742  1.00  0.00     0.040 A 
ATOM     80  F   UNL     1       8.832  18.844  -7.859  1.00  0.00    -0.206 F 
ATOM     81  C   UNL     1       8.121  21.623  -5.647  1.00  0.00     0.006 A 
ENDBRANCH  57  74
ENDBRANCH  31  32
ENDBRANCH  23  26
ENDBRANCH  21  22
ENDBRANCH   1  21
TORSDOF 13
