REMARK SMILES CC(C)[C@H](NC(=O)[C@H]1CC(=O)N(c2ccc(F)cc2)C1)C(=O)N1CCC[C@@H]1C(=O)NCCCNC(=O)c1ccc(-c2c3nc(c(-c4c(F)cccc4F)c4ccc([nH]4)c(-c4c(F)cccc4F)c4nc(c(-c5c(F)cccc5F)c5ccc2[nH]5)C=C4)C=C3)cc1
REMARK SMILES IDX 28 1 29 2 30 3 27 5 23 6 24 7 25 8 26 9 21 10 22 11 4 12
REMARK SMILES IDX 2 13 1 14 3 15 5 16 6 17 7 19 8 20 9 21 20 22 10 23 12 24
REMARK SMILES IDX 11 25 13 26 14 27 19 28 15 29 18 30 16 31 17 32 31 33 32 34
REMARK SMILES IDX 33 35 34 36 35 37 36 39 37 40 38 41 90 42 39 43 89 44 40 45
REMARK SMILES IDX 41 46 42 47 83 48 43 49 88 50 82 51 84 52 44 53 87 54 81 55
REMARK SMILES IDX 80 56 45 58 71 59 54 60 70 61 55 62 58 63 69 64 85 65 56 66
REMARK SMILES IDX 57 67 68 69 86 70 59 71 46 72 47 73 52 74 48 75 49 76 51 77
REMARK SMILES IDX 53 78 50 79 72 80 73 81 78 82 74 83 75 84 77 85 79 86 76 87
REMARK SMILES IDX 60 88 61 89 66 90 62 91 63 92 65 93 67 94 64 95
REMARK H PARENT 30 4 5 18 34 38 84 57 58 68
REMARK Flexibility Score: inf
ROOT
ATOM      1  C   UNL     1      -1.425   3.185  -0.998  1.00  0.00     0.242 C 
ATOM      2  O   UNL     1      -0.627   4.123  -1.093  1.00  0.00    -0.273 OA
ATOM      3  N   UNL     1      -2.695   3.502  -0.616  1.00  0.00    -0.354 N 
ATOM      4  H   UNL     1      -2.882   4.468  -0.574  1.00  0.00     0.163 HD
ENDROOT
BRANCH   1   5
ATOM      5  C   UNL     1      -0.942   1.728  -1.113  1.00  0.00     0.174 C 
ATOM      6  N   UNL     1      -1.890   0.786  -1.725  1.00  0.00    -0.329 N 
ATOM      7  C   UNL     1      -1.827  -0.469  -0.996  1.00  0.00     0.120 C 
ATOM      8  C   UNL     1      -1.502  -0.071   0.429  1.00  0.00     0.024 C 
ATOM      9  C   UNL     1      -0.619   1.159   0.277  1.00  0.00     0.037 C 
BRANCH   6  10
ATOM     10  C   UNL     1      -2.059   0.804  -3.108  1.00  0.00     0.246 C 
ATOM     11  O   UNL     1      -1.129   1.122  -3.853  1.00  0.00    -0.272 OA
BRANCH  10  12
ATOM     12  C   UNL     1      -3.526   0.720  -3.666  1.00  0.00     0.174 C 
BRANCH  12  13
ATOM     13  C   UNL     1      -4.126   2.135  -3.901  1.00  0.00     0.015 C 
ATOM     14  C   UNL     1      -3.164   3.281  -4.230  1.00  0.00     0.010 C 
ATOM     15  C   UNL     1      -5.194   2.110  -5.005  1.00  0.00     0.010 C 
ENDBRANCH  12  13
BRANCH  12  16
ATOM     16  N   UNL     1      -4.399  -0.136  -2.800  1.00  0.00    -0.344 N 
ATOM     17  C   UNL     1      -5.589  -0.696  -3.170  1.00  0.00     0.226 C 
ATOM     18  H   UNL     1      -4.088  -0.310  -1.882  1.00  0.00     0.164 HD
ATOM     19  O   UNL     1      -5.531  -1.798  -3.724  1.00  0.00    -0.275 OA
BRANCH  17  20
ATOM     20  C   UNL     1      -6.913  -0.194  -2.590  1.00  0.00     0.107 C 
ATOM     21  C   UNL     1      -7.137   1.286  -2.304  1.00  0.00     0.116 C 
ATOM     22  C   UNL     1      -8.055  -0.606  -3.525  1.00  0.00     0.139 C 
ATOM     23  C   UNL     1      -8.399   1.674  -3.027  1.00  0.00     0.227 C 
ATOM     24  N   UNL     1      -8.934   0.525  -3.585  1.00  0.00    -0.312 N 
ATOM     25  O   UNL     1      -8.852   2.799  -3.058  1.00  0.00    -0.274 OA
BRANCH  24  26
ATOM     26  C   UNL     1     -10.197   0.495  -4.189  1.00  0.00     0.044 A 
ATOM     27  C   UNL     1     -10.470   1.298  -5.301  1.00  0.00     0.029 A 
ATOM     28  C   UNL     1     -11.227  -0.224  -3.572  1.00  0.00     0.029 A 
ATOM     29  C   UNL     1     -11.772   1.390  -5.793  1.00  0.00     0.041 A 
ATOM     30  C   UNL     1     -12.537  -0.096  -4.040  1.00  0.00     0.041 A 
ATOM     31  C   UNL     1     -12.796   0.709  -5.144  1.00  0.00     0.123 A 
ATOM     32  F   UNL     1     -14.057   0.848  -5.575  1.00  0.00    -0.207 F 
ENDBRANCH  24  26
ENDBRANCH  17  20
ENDBRANCH  12  16
ENDBRANCH  10  12
ENDBRANCH   6  10
ENDBRANCH   1   5
BRANCH   3  33
ATOM     33  C   UNL     1      -3.814   2.655  -0.261  1.00  0.00     0.117 C 
BRANCH  33  34
ATOM     34  C   UNL     1      -4.286   2.893   1.162  1.00  0.00     0.042 C 
BRANCH  34  35
ATOM     35  C   UNL     1      -5.046   4.204   1.309  1.00  0.00     0.118 C 
BRANCH  35  36
ATOM     36  N   UNL     1      -6.278   4.221   0.525  1.00  0.00    -0.352 N 
ATOM     37  C   UNL     1      -7.589   4.216   0.928  1.00  0.00     0.251 C 
ATOM     38  H   UNL     1      -6.146   4.239  -0.451  1.00  0.00     0.163 HD
ATOM     39  O   UNL     1      -8.472   3.945   0.123  1.00  0.00    -0.269 OA
BRANCH  37  40
ATOM     40  C   UNL     1      -7.939   4.510   2.330  1.00  0.00     0.039 A 
ATOM     41  C   UNL     1      -8.990   3.808   2.925  1.00  0.00     0.014 A 
ATOM     42  C   UNL     1      -7.244   5.480   3.053  1.00  0.00     0.014 A 
ATOM     43  C   UNL     1      -9.281   4.016   4.273  1.00  0.00     0.010 A 
ATOM     44  C   UNL     1      -7.463   5.611   4.417  1.00  0.00     0.010 A 
ATOM     45  C   UNL     1      -8.483   4.880   5.040  1.00  0.00    -0.014 A 
BRANCH  45  46
ATOM     46  C   UNL     1      -8.689   5.033   6.499  1.00  0.00     0.031 A 
ATOM     47  C   UNL     1      -9.044   6.376   7.071  1.00  0.00     0.074 A 
ATOM     48  C   UNL     1      -8.472   3.980   7.310  1.00  0.00     0.049 A 
ATOM     49  N   UNL     1      -9.162   6.732   8.324  1.00  0.00    -0.248 NA
ATOM     50  C   UNL     1      -9.262   7.472   6.112  1.00  0.00     0.031 C 
ATOM     51  C   UNL     1      -8.072   2.641   6.871  1.00  0.00     0.029 A 
ATOM     52  N   UNL     1      -8.551   3.871   8.675  1.00  0.00    -0.354 N 
ATOM     53  C   UNL     1      -9.448   8.090   8.303  1.00  0.00     0.074 A 
ATOM     54  C   UNL     1      -9.430   8.509   6.920  1.00  0.00     0.031 C 
ATOM     55  C   UNL     1      -7.976   1.838   7.941  1.00  0.00     0.029 A 
ATOM     56  C   UNL     1      -8.263   2.613   9.144  1.00  0.00     0.049 A 
ATOM     57  H   UNL     1      -8.791   4.623   9.262  1.00  0.00     0.167 HD
ATOM     58  C   UNL     1      -9.730   8.907   9.344  1.00  0.00     0.037 A 
ATOM     59  C   UNL     1      -8.231   2.138  10.403  1.00  0.00     0.037 A 
ATOM     60  C   UNL     1      -9.786   8.474  10.714  1.00  0.00     0.049 A 
ATOM     61  C   UNL     1      -8.556   3.063  11.540  1.00  0.00     0.074 A 
ATOM     62  C   UNL     1     -10.120   9.211  11.836  1.00  0.00     0.029 A 
ATOM     63  N   UNL     1      -9.507   7.186  11.147  1.00  0.00    -0.354 N 
ATOM     64  N   UNL     1      -8.873   4.335  11.503  1.00  0.00    -0.248 NA
ATOM     65  C   UNL     1      -8.523   2.491  12.893  1.00  0.00     0.031 C 
ATOM     66  C   UNL     1     -10.005   8.380  12.953  1.00  0.00     0.029 A 
ATOM     67  C   UNL     1      -9.647   7.112  12.522  1.00  0.00     0.049 A 
ATOM     68  H   UNL     1      -9.248   6.437  10.563  1.00  0.00     0.167 HD
ATOM     69  C   UNL     1      -9.100   4.709  12.820  1.00  0.00     0.074 A 
ATOM     70  C   UNL     1      -8.895   3.527  13.632  1.00  0.00     0.031 C 
ATOM     71  C   UNL     1      -9.447   5.923  13.311  1.00  0.00     0.037 A 
BRANCH  58  72
ATOM     72  C   UNL     1     -10.024  10.347   9.042  1.00  0.00     0.057 A 
ATOM     73  C   UNL     1      -9.141  11.358   9.443  1.00  0.00     0.134 A 
ATOM     74  C   UNL     1     -11.209  10.739   8.405  1.00  0.00     0.134 A 
ATOM     75  F   UNL     1      -7.990  11.053  10.060  1.00  0.00    -0.206 F 
ATOM     76  C   UNL     1      -9.433  12.707   9.231  1.00  0.00     0.040 A 
ATOM     77  C   UNL     1     -11.499  12.082   8.164  1.00  0.00     0.040 A 
ATOM     78  F   UNL     1     -12.090   9.819   7.984  1.00  0.00    -0.206 F 
ATOM     79  C   UNL     1     -10.613  13.072   8.587  1.00  0.00     0.006 A 
ENDBRANCH  58  72
BRANCH  59  80
ATOM     80  C   UNL     1      -7.921   0.706  10.640  1.00  0.00     0.057 A 
ATOM     81  C   UNL     1      -6.638   0.187  10.436  1.00  0.00     0.134 A 
ATOM     82  C   UNL     1      -8.921  -0.185  11.046  1.00  0.00     0.134 A 
ATOM     83  F   UNL     1      -5.639   0.987  10.035  1.00  0.00    -0.206 F 
ATOM     84  C   UNL     1      -6.362  -1.170  10.612  1.00  0.00     0.040 A 
ATOM     85  C   UNL     1      -8.655  -1.540  11.247  1.00  0.00     0.040 A 
ATOM     86  F   UNL     1     -10.168   0.256  11.270  1.00  0.00    -0.206 F 
ATOM     87  C   UNL     1      -7.373  -2.038  11.023  1.00  0.00     0.006 A 
ENDBRANCH  59  80
BRANCH  71  88
ATOM     88  C   UNL     1      -9.655   6.039  14.791  1.00  0.00     0.057 A 
ATOM     89  C   UNL     1     -10.940   6.229  15.316  1.00  0.00     0.134 A 
ATOM     90  C   UNL     1      -8.580   6.049  15.687  1.00  0.00     0.134 A 
ATOM     91  F   UNL     1     -12.011   6.241  14.508  1.00  0.00    -0.206 F 
ATOM     92  C   UNL     1     -11.146   6.442  16.679  1.00  0.00     0.040 A 
ATOM     93  C   UNL     1      -8.776   6.236  17.056  1.00  0.00     0.040 A 
ATOM     94  F   UNL     1      -7.326   5.862  15.247  1.00  0.00    -0.206 F 
ATOM     95  C   UNL     1     -10.062   6.444  17.553  1.00  0.00     0.006 A 
ENDBRANCH  71  88
ENDBRANCH  45  46
ENDBRANCH  37  40
ENDBRANCH  35  36
ENDBRANCH  34  35
ENDBRANCH  33  34
ENDBRANCH   3  33
TORSDOF 16
