REMARK SMILES C[C@@H](C(=O)NCCCNC(=O)c1ccc(-c2c3nc(c(-c4c(F)cccc4F)c4ccc([nH]4)c(-c4c(F)cccc4F)c4nc(c(-c5c(F)cccc5F)c5ccc2[nH]5)C=C4)C=C3)cc1)c1ccccc1-c1ccn(C(F)F)c(=O)c1
REMARK SMILES IDX 6 1 5 2 3 3 4 4 2 6 1 7 66 8 67 9 71 10 68 11 70 12 69 13
REMARK SMILES IDX 72 14 73 15 81 16 74 17 79 18 75 19 80 20 76 21 77 22 78 23
REMARK SMILES IDX 7 24 8 25 9 26 10 27 11 29 12 30 13 31 65 32 14 33 64 34
REMARK SMILES IDX 15 35 16 36 17 37 58 38 18 39 63 40 57 41 59 42 19 43 62 44
REMARK SMILES IDX 56 45 55 46 20 48 46 49 29 50 45 51 30 52 33 53 44 54 60 55
REMARK SMILES IDX 31 56 32 57 43 59 61 60 34 61 21 62 22 63 27 64 23 65 24 66
REMARK SMILES IDX 26 67 28 68 25 69 47 70 48 71 53 72 49 73 50 74 52 75 54 76
REMARK SMILES IDX 51 77 35 78 36 79 41 80 37 81 38 82 40 83 42 84 39 85
REMARK H PARENT 5 5 9 28 59 47 33 58
REMARK Flexibility Score: inf
ROOT
ATOM      1  C   UNL     1       3.381  -2.060  -0.009  1.00  0.00     0.117 C 
ENDROOT
BRANCH   1   2
ATOM      2  N   UNL     1       2.370  -2.273   1.010  1.00  0.00    -0.356 N 
ATOM      3  C   UNL     1       1.107  -1.763   1.104  1.00  0.00     0.227 C 
ATOM      4  O   UNL     1       0.553  -1.843   2.203  1.00  0.00    -0.274 OA
ATOM      5  H   UNL     1       2.634  -2.876   1.742  1.00  0.00     0.163 HD
BRANCH   3   6
ATOM      6  C   UNL     1       0.437  -1.150  -0.132  1.00  0.00     0.106 C 
ATOM      7  C   UNL     1       0.897   0.311  -0.243  1.00  0.00     0.023 C 
BRANCH   6   8
ATOM      8  C   UNL     1      -1.086  -1.357  -0.111  1.00  0.00    -0.028 A 
ATOM      9  C   UNL     1      -1.958  -0.259   0.042  1.00  0.00     0.005 A 
ATOM     10  C   UNL     1      -1.662  -2.649  -0.238  1.00  0.00    -0.014 A 
ATOM     11  C   UNL     1      -3.344  -0.425   0.071  1.00  0.00     0.000 A 
ATOM     12  C   UNL     1      -3.061  -2.798  -0.183  1.00  0.00     0.009 A 
ATOM     13  C   UNL     1      -3.896  -1.694  -0.033  1.00  0.00     0.001 A 
BRANCH  10  14
ATOM     14  C   UNL     1      -0.869  -3.882  -0.450  1.00  0.00    -0.011 A 
ATOM     15  C   UNL     1      -0.195  -4.592   0.619  1.00  0.00     0.027 A 
ATOM     16  C   UNL     1      -0.810  -4.380  -1.698  1.00  0.00     0.080 A 
ATOM     17  C   UNL     1       0.572  -5.656   0.353  1.00  0.00     0.095 A 
ATOM     18  C   UNL     1      -0.020  -5.606  -1.998  1.00  0.00     0.255 A 
ATOM     19  N   UNL     1       0.691  -6.142  -0.935  1.00  0.00    -0.258 N 
ATOM     20  O   UNL     1      -0.031  -6.043  -3.143  1.00  0.00    -0.269 OA
BRANCH  19  21
ATOM     21  C   UNL     1       1.516  -7.289  -1.211  1.00  0.00     0.451 C 
ATOM     22  F   UNL     1       0.761  -8.363  -1.543  1.00  0.00    -0.185 F 
ATOM     23  F   UNL     1       2.373  -7.044  -2.233  1.00  0.00    -0.185 F 
ENDBRANCH  19  21
ENDBRANCH  10  14
ENDBRANCH   6   8
ENDBRANCH   3   6
ENDBRANCH   1   2
BRANCH   1  24
ATOM     24  C   UNL     1       4.425  -1.055   0.478  1.00  0.00     0.042 C 
BRANCH  24  25
ATOM     25  C   UNL     1       5.254  -1.553   1.658  1.00  0.00     0.118 C 
BRANCH  25  26
ATOM     26  N   UNL     1       6.155  -2.631   1.288  1.00  0.00    -0.352 N 
ATOM     27  C   UNL     1       7.473  -2.815   1.621  1.00  0.00     0.251 C 
ATOM     28  H   UNL     1       5.763  -3.330   0.717  1.00  0.00     0.163 HD
ATOM     29  O   UNL     1       8.113  -3.709   1.077  1.00  0.00    -0.269 OA
BRANCH  27  30
ATOM     30  C   UNL     1       8.134  -1.939   2.615  1.00  0.00     0.039 A 
ATOM     31  C   UNL     1       9.449  -1.532   2.371  1.00  0.00     0.014 A 
ATOM     32  C   UNL     1       7.499  -1.568   3.804  1.00  0.00     0.014 A 
ATOM     33  C   UNL     1      10.119  -0.742   3.306  1.00  0.00     0.010 A 
ATOM     34  C   UNL     1       8.146  -0.726   4.708  1.00  0.00     0.010 A 
ATOM     35  C   UNL     1       9.471  -0.326   4.479  1.00  0.00    -0.014 A 
BRANCH  35  36
ATOM     36  C   UNL     1      10.191   0.476   5.499  1.00  0.00     0.031 A 
ATOM     37  C   UNL     1      10.497  -0.119   6.847  1.00  0.00     0.074 A 
ATOM     38  C   UNL     1      10.548   1.745   5.227  1.00  0.00     0.049 A 
ATOM     39  N   UNL     1      11.101   0.424   7.874  1.00  0.00    -0.248 NA
ATOM     40  C   UNL     1      10.042  -1.499   7.079  1.00  0.00     0.031 C 
ATOM     41  C   UNL     1      10.266   2.454   3.979  1.00  0.00     0.029 A 
ATOM     42  N   UNL     1      11.223   2.665   5.989  1.00  0.00    -0.354 N 
ATOM     43  C   UNL     1      11.086  -0.541   8.874  1.00  0.00     0.074 A 
ATOM     44  C   UNL     1      10.364  -1.681   8.351  1.00  0.00     0.031 C 
ATOM     45  C   UNL     1      10.781   3.693   4.053  1.00  0.00     0.029 A 
ATOM     46  C   UNL     1      11.410   3.870   5.359  1.00  0.00     0.049 A 
ATOM     47  H   UNL     1      11.542   2.478   6.902  1.00  0.00     0.167 HD
ATOM     48  C   UNL     1      11.644  -0.495  10.107  1.00  0.00     0.037 A 
ATOM     49  C   UNL     1      12.025   4.989   5.784  1.00  0.00     0.037 A 
ATOM     50  C   UNL     1      12.383   0.628  10.620  1.00  0.00     0.049 A 
ATOM     51  C   UNL     1      12.670   5.006   7.142  1.00  0.00     0.074 A 
ATOM     52  C   UNL     1      13.018   0.760  11.843  1.00  0.00     0.029 A 
ATOM     53  N   UNL     1      12.591   1.813   9.931  1.00  0.00    -0.354 N 
ATOM     54  N   UNL     1      12.695   4.066   8.056  1.00  0.00    -0.248 NA
ATOM     55  C   UNL     1      13.388   6.231   7.519  1.00  0.00     0.031 C 
ATOM     56  C   UNL     1      13.590   2.037  11.903  1.00  0.00     0.029 A 
ATOM     57  C   UNL     1      13.343   2.683  10.703  1.00  0.00     0.049 A 
ATOM     58  H   UNL     1      12.254   2.008   9.027  1.00  0.00     0.167 HD
ATOM     59  C   UNL     1      13.452   4.575   9.103  1.00  0.00     0.074 A 
ATOM     60  C   UNL     1      13.878   5.901   8.705  1.00  0.00     0.031 C 
ATOM     61  C   UNL     1      13.767   3.995  10.287  1.00  0.00     0.037 A 
BRANCH  48  62
ATOM     62  C   UNL     1      11.480  -1.706  10.979  1.00  0.00     0.057 A 
ATOM     63  C   UNL     1      12.147  -2.908  10.702  1.00  0.00     0.134 A 
ATOM     64  C   UNL     1      10.654  -1.672  12.109  1.00  0.00     0.134 A 
ATOM     65  F   UNL     1      12.941  -3.011   9.625  1.00  0.00    -0.206 F 
ATOM     66  C   UNL     1      11.973  -4.040  11.498  1.00  0.00     0.040 A 
ATOM     67  C   UNL     1      10.493  -2.791  12.929  1.00  0.00     0.040 A 
ATOM     68  F   UNL     1       9.990  -0.553  12.435  1.00  0.00    -0.206 F 
ATOM     69  C   UNL     1      11.147  -3.982  12.619  1.00  0.00     0.006 A 
ENDBRANCH  48  62
BRANCH  49  70
ATOM     70  C   UNL     1      12.098   6.173   4.894  1.00  0.00     0.057 A 
ATOM     71  C   UNL     1      13.300   6.541   4.278  1.00  0.00     0.134 A 
ATOM     72  C   UNL     1      10.970   6.958   4.631  1.00  0.00     0.134 A 
ATOM     73  F   UNL     1      14.418   5.835   4.505  1.00  0.00    -0.206 F 
ATOM     74  C   UNL     1      13.382   7.658   3.445  1.00  0.00     0.040 A 
ATOM     75  C   UNL     1      11.033   8.065   3.784  1.00  0.00     0.040 A 
ATOM     76  F   UNL     1       9.787   6.651   5.184  1.00  0.00    -0.206 F 
ATOM     77  C   UNL     1      12.244   8.421   3.193  1.00  0.00     0.006 A 
ENDBRANCH  49  70
BRANCH  61  78
ATOM     78  C   UNL     1      14.644   4.777  11.219  1.00  0.00     0.057 A 
ATOM     79  C   UNL     1      14.166   5.883  11.933  1.00  0.00     0.134 A 
ATOM     80  C   UNL     1      15.977   4.399  11.425  1.00  0.00     0.134 A 
ATOM     81  F   UNL     1      12.902   6.303  11.770  1.00  0.00    -0.206 F 
ATOM     82  C   UNL     1      14.990   6.601  12.801  1.00  0.00     0.040 A 
ATOM     83  C   UNL     1      16.804   5.095  12.308  1.00  0.00     0.040 A 
ATOM     84  F   UNL     1      16.494   3.344  10.778  1.00  0.00    -0.206 F 
ATOM     85  C   UNL     1      16.312   6.204  12.994  1.00  0.00     0.006 A 
ENDBRANCH  61  78
ENDBRANCH  35  36
ENDBRANCH  27  30
ENDBRANCH  25  26
ENDBRANCH  24  25
ENDBRANCH   1  24
TORSDOF 13
