REMARK SMILES COCc1cc(C)nc2sc3c(c12)N[C@H](c1ccccc1C(=O)NCCCNC(=O)c1ccc(-c2c4nc(c(-c5c(F)cccc5F)c5ccc([nH]5)c(-c5c(F)cccc5F)c5nc(c(-c6c(F)cccc6F)c6ccc2[nH]6)C=C5)C=C4)cc1)n1c-3nc2ccccc21
REMARK SMILES IDX 25 1 24 2 22 3 23 4 21 6 16 7 17 8 18 9 20 10 19 11 15 12
REMARK SMILES IDX 4 13 5 14 13 15 6 16 9 17 12 18 7 19 8 20 10 21 11 22 14 23
REMARK SMILES IDX 86 24 85 26 87 27 93 28 88 29 92 30 89 31 91 32 90 33 3 34
REMARK SMILES IDX 2 35 1 36 26 37 27 38 28 39 29 40 30 42 31 43 32 44 84 45
REMARK SMILES IDX 33 46 83 47 34 48 35 49 36 50 77 51 37 52 82 53 76 54 78 55
REMARK SMILES IDX 38 56 81 57 75 58 74 59 39 61 65 62 48 63 64 64 49 65 52 66
REMARK SMILES IDX 63 67 79 68 50 69 51 70 62 72 80 73 53 74 40 75 41 76 46 77
REMARK SMILES IDX 42 78 43 79 45 80 47 81 44 82 66 83 67 84 72 85 68 86 69 87
REMARK SMILES IDX 71 88 73 89 70 90 54 91 55 92 60 93 56 94 57 95 59 96 61 97
REMARK SMILES IDX 58 98
REMARK H PARENT 24 5 14 25 28 41 78 60 52 71
REMARK Flexibility Score: inf
ROOT
ATOM      1  C   UNL     1      -5.673   2.156  -5.218  1.00  0.00     0.118 C 
ENDROOT
BRANCH   1   2
ATOM      2  N   UNL     1      -6.993   2.252  -5.774  1.00  0.00    -0.352 N 
ATOM      3  C   UNL     1      -7.615   1.480  -6.721  1.00  0.00     0.251 C 
ATOM      4  O   UNL     1      -8.783   1.773  -6.993  1.00  0.00    -0.269 OA
ATOM      5  H   UNL     1      -7.538   2.991  -5.419  1.00  0.00     0.163 HD
BRANCH   3   6
ATOM      6  C   UNL     1      -6.926   0.426  -7.540  1.00  0.00     0.046 A 
ATOM      7  C   UNL     1      -5.976  -0.558  -7.170  1.00  0.00     0.008 A 
ATOM      8  C   UNL     1      -5.358  -1.266  -8.252  1.00  0.00     0.008 A 
ATOM      9  C   UNL     1      -5.754  -1.128  -9.592  1.00  0.00     0.000 A 
ATOM     10  C   UNL     1      -7.369   0.479  -8.897  1.00  0.00     0.014 A 
ATOM     11  C   UNL     1      -6.806  -0.293  -9.909  1.00  0.00     0.001 A 
BRANCH   7  12
ATOM     12  C   UNL     1      -5.617  -1.097  -5.761  1.00  0.00     0.215 C 
ATOM     13  C   UNL     1      -1.429   0.465  -3.173  1.00  0.00    -0.008 A 
ATOM     14  C   UNL     1      -1.479   1.809  -2.593  1.00  0.00     0.030 A 
ATOM     15  C   UNL     1      -2.650  -0.234  -3.126  1.00  0.00     0.041 A 
ATOM     16  C   UNL     1      -2.402   2.409  -1.633  1.00  0.00     0.039 A 
ATOM     17  C   UNL     1      -3.256   0.138  -1.938  1.00  0.00     0.126 A 
ATOM     18  C   UNL     1      -3.805  -0.733  -3.952  1.00  0.00     0.068 A 
ATOM     19  C   UNL     1      -2.313   4.211  -0.493  1.00  0.00     0.067 C 
ATOM     20  N   UNL     1      -3.129   1.287  -1.271  1.00  0.00    -0.242 NA
ATOM     21  S   UNL     1      -4.308  -1.088  -1.442  1.00  0.00    -0.110 S 
ATOM     22  C   UNL     1      -4.807  -1.103  -3.068  1.00  0.00     0.096 A 
ATOM     23  N   UNL     1      -4.156  -0.703  -5.307  1.00  0.00    -0.359 N 
ATOM     24  C   UNL     1      -6.182  -1.027  -3.381  1.00  0.00     0.155 A 
ATOM     25  H   UNL     1      -3.489  -0.434  -5.980  1.00  0.00     0.163 HD
ATOM     26  N   UNL     1      -6.663  -1.021  -4.681  1.00  0.00    -0.298 N 
ATOM     27  N   UNL     1      -6.986  -0.402  -2.561  1.00  0.00    -0.227 NA
ATOM     28  C   UNL     1      -8.008  -0.689  -4.550  1.00  0.00     0.071 A 
ATOM     29  C   UNL     1      -8.004  -0.003  -3.335  1.00  0.00     0.089 A 
ATOM     30  C   UNL     1      -9.252  -0.814  -5.193  1.00  0.00     0.029 A 
ATOM     31  C   UNL     1      -9.012   0.898  -3.001  1.00  0.00     0.030 A 
ATOM     32  C   UNL     1     -10.387  -0.256  -4.522  1.00  0.00     0.002 A 
ATOM     33  C   UNL     1     -10.273   0.597  -3.434  1.00  0.00     0.002 A 
BRANCH  13  34
ATOM     34  C   UNL     1      -0.028  -0.089  -2.653  1.00  0.00     0.196 C 
BRANCH  34  35
ATOM     35  O   UNL     1      -0.114  -1.188  -1.747  1.00  0.00    -0.380 OA
ATOM     36  C   UNL     1       0.361  -0.856  -0.433  1.00  0.00     0.195 C 
ENDBRANCH  34  35
ENDBRANCH  13  34
ENDBRANCH   7  12
ENDBRANCH   3   6
ENDBRANCH   1   2
BRANCH   1  37
ATOM     37  C   UNL     1      -5.351   3.054  -4.025  1.00  0.00     0.042 C 
BRANCH  37  38
ATOM     38  C   UNL     1      -6.285   3.088  -2.768  1.00  0.00     0.118 C 
BRANCH  38  39
ATOM     39  N   UNL     1      -6.084   2.243  -1.541  1.00  0.00    -0.352 N 
ATOM     40  C   UNL     1      -5.318   2.282  -0.348  1.00  0.00     0.251 C 
ATOM     41  H   UNL     1      -6.642   1.433  -1.576  1.00  0.00     0.163 HD
ATOM     42  O   UNL     1      -5.650   1.612   0.627  1.00  0.00    -0.269 OA
BRANCH  40  43
ATOM     43  C   UNL     1      -4.005   3.028  -0.301  1.00  0.00     0.039 A 
ATOM     44  C   UNL     1      -3.894   4.037  -1.784  1.00  0.00     0.014 A 
ATOM     45  C   UNL     1      -2.414   2.466   0.488  1.00  0.00     0.014 A 
ATOM     46  C   UNL     1      -2.388   4.434  -2.593  1.00  0.00     0.010 A 
ATOM     47  C   UNL     1      -0.799   2.907  -0.339  1.00  0.00     0.010 A 
ATOM     48  C   UNL     1      -0.827   3.956  -1.869  1.00  0.00    -0.014 A 
BRANCH  48  49
ATOM     49  C   UNL     1       0.281   4.494  -2.711  1.00  0.00     0.031 A 
ATOM     50  C   UNL     1       1.466   4.657  -1.857  1.00  0.00     0.074 A 
ATOM     51  C   UNL     1       0.414   4.323  -4.068  1.00  0.00     0.049 A 
ATOM     52  N   UNL     1       2.244   3.635  -1.709  1.00  0.00    -0.248 NA
ATOM     53  C   UNL     1       1.569   5.646  -0.788  1.00  0.00     0.031 C 
ATOM     54  C   UNL     1      -0.084   3.197  -4.889  1.00  0.00     0.029 A 
ATOM     55  N   UNL     1       1.189   5.033  -4.993  1.00  0.00    -0.354 N 
ATOM     56  C   UNL     1       2.901   3.786  -0.509  1.00  0.00     0.074 A 
ATOM     57  C   UNL     1       2.468   5.061   0.023  1.00  0.00     0.031 C 
ATOM     58  C   UNL     1       0.584   3.122  -6.048  1.00  0.00     0.029 A 
ATOM     59  C   UNL     1       1.367   4.320  -6.203  1.00  0.00     0.049 A 
ATOM     60  H   UNL     1       1.567   5.926  -4.821  1.00  0.00     0.167 HD
ATOM     61  C   UNL     1       3.721   2.812  -0.035  1.00  0.00     0.037 A 
ATOM     62  C   UNL     1       2.483   4.337  -6.976  1.00  0.00     0.037 A 
ATOM     63  C   UNL     1       3.853   1.583  -0.802  1.00  0.00     0.049 A 
ATOM     64  C   UNL     1       3.455   3.534  -6.157  1.00  0.00     0.074 A 
ATOM     65  C   UNL     1       4.178   0.258  -0.590  1.00  0.00     0.029 A 
ATOM     66  N   UNL     1       3.592   1.653  -2.142  1.00  0.00    -0.354 N 
ATOM     67  N   UNL     1       3.562   2.229  -6.145  1.00  0.00    -0.248 NA
ATOM     68  C   UNL     1       4.130   4.217  -5.049  1.00  0.00     0.031 C 
ATOM     69  C   UNL     1       4.265  -0.376  -1.881  1.00  0.00     0.029 A 
ATOM     70  C   UNL     1       4.066   0.592  -2.852  1.00  0.00     0.049 A 
ATOM     71  H   UNL     1       3.107   2.403  -2.556  1.00  0.00     0.167 HD
ATOM     72  C   UNL     1       4.116   1.921  -4.901  1.00  0.00     0.074 A 
ATOM     73  C   UNL     1       4.530   3.186  -4.317  1.00  0.00     0.031 C 
ATOM     74  C   UNL     1       4.032   0.695  -4.295  1.00  0.00     0.037 A 
BRANCH  61  75
ATOM     75  C   UNL     1       4.683   3.087   1.049  1.00  0.00     0.057 A 
ATOM     76  C   UNL     1       4.415   2.975   2.410  1.00  0.00     0.134 A 
ATOM     77  C   UNL     1       6.007   3.332   0.654  1.00  0.00     0.134 A 
ATOM     78  F   UNL     1       3.164   2.776   2.849  1.00  0.00    -0.206 F 
ATOM     79  C   UNL     1       5.453   3.036   3.347  1.00  0.00     0.040 A 
ATOM     80  C   UNL     1       7.048   3.379   1.573  1.00  0.00     0.040 A 
ATOM     81  F   UNL     1       6.303   3.497  -0.645  1.00  0.00    -0.206 F 
ATOM     82  C   UNL     1       6.774   3.211   2.926  1.00  0.00     0.006 A 
ENDBRANCH  61  75
BRANCH  62  83
ATOM     83  C   UNL     1       2.767   5.635  -7.642  1.00  0.00     0.057 A 
ATOM     84  C   UNL     1       3.946   6.373  -7.532  1.00  0.00     0.134 A 
ATOM     85  C   UNL     1       1.763   6.197  -8.460  1.00  0.00     0.134 A 
ATOM     86  F   UNL     1       5.023   5.879  -6.912  1.00  0.00    -0.206 F 
ATOM     87  C   UNL     1       4.061   7.664  -8.059  1.00  0.00     0.040 A 
ATOM     88  C   UNL     1       1.875   7.472  -9.019  1.00  0.00     0.040 A 
ATOM     89  F   UNL     1       0.639   5.510  -8.724  1.00  0.00    -0.206 F 
ATOM     90  C   UNL     1       3.016   8.228  -8.784  1.00  0.00     0.006 A 
ENDBRANCH  62  83
BRANCH  74  91
ATOM     91  C   UNL     1       3.795  -0.479  -5.184  1.00  0.00     0.057 A 
ATOM     92  C   UNL     1       2.816  -1.448  -4.946  1.00  0.00     0.134 A 
ATOM     93  C   UNL     1       4.612  -0.691  -6.300  1.00  0.00     0.134 A 
ATOM     94  F   UNL     1       2.140  -1.471  -3.796  1.00  0.00    -0.206 F 
ATOM     95  C   UNL     1       2.548  -2.480  -5.848  1.00  0.00     0.040 A 
ATOM     96  C   UNL     1       4.395  -1.748  -7.186  1.00  0.00     0.040 A 
ATOM     97  F   UNL     1       5.675   0.098  -6.523  1.00  0.00    -0.206 F 
ATOM     98  C   UNL     1       3.338  -2.628  -6.981  1.00  0.00     0.006 A 
ENDBRANCH  74  91
ENDBRANCH  48  49
ENDBRANCH  40  43
ENDBRANCH  38  39
ENDBRANCH  37  38
ENDBRANCH   1  37
TORSDOF 13
