REMARK SMILES O=C(NCCCNC(=O)[C@H]1CC[C@@H]2CCCC[C@H]2N1C(=O)N1CCSCC1)c1ccc(-c2c3nc(c(-c4c(F)cccc4F)c4ccc([nH]4)c(-c4c(F)cccc4F)c4nc(c(-c5c(F)cccc5F)c5ccc2[nH]5)C=C4)C=C3)cc1
REMARK SMILES IDX 4 1 3 2 1 3 2 4 28 6 29 7 81 8 30 9 80 10 31 11 32 12 33 13
REMARK SMILES IDX 74 14 34 15 79 16 73 17 75 18 35 19 78 20 72 21 71 22 36 24
REMARK SMILES IDX 62 25 45 26 61 27 46 28 49 29 60 30 76 31 47 32 48 33 59 35
REMARK SMILES IDX 77 36 50 37 37 38 38 39 43 40 39 41 40 42 42 43 44 44 41 45
REMARK SMILES IDX 63 46 64 47 69 48 65 49 66 50 68 51 70 52 67 53 51 54 52 55
REMARK SMILES IDX 57 56 53 57 54 58 56 59 58 60 55 61 5 62 6 63 7 64 8 65 9 67
REMARK SMILES IDX 10 68 11 69 19 70 12 71 18 72 13 73 17 74 14 75 16 76 15 77
REMARK SMILES IDX 20 78 21 79 22 80 23 81 27 82 24 83 26 84 25 85
REMARK H PARENT 3 5 75 23 49 34 7 66
REMARK Flexibility Score: inf
ROOT
ATOM      1  C   UNL     1       6.461  -6.373   6.141  1.00  0.00     0.118 C 
ENDROOT
BRANCH   1   2
ATOM      2  N   UNL     1       6.185  -7.758   6.497  1.00  0.00    -0.352 N 
ATOM      3  O   UNL     1       5.858  -9.482   7.932  1.00  0.00    -0.269 OA
ATOM      4  C   UNL     1       6.024  -8.281   7.759  1.00  0.00     0.251 C 
ATOM      5  H   UNL     1       6.105  -8.393   5.749  1.00  0.00     0.163 HD
BRANCH   4   6
ATOM      6  C   UNL     1       6.118  -7.358   8.906  1.00  0.00     0.039 A 
ATOM      7  C   UNL     1       5.335  -6.201   8.933  1.00  0.00     0.014 A 
ATOM      8  C   UNL     1       7.085  -7.595   9.884  1.00  0.00     0.014 A 
ATOM      9  C   UNL     1       5.630  -5.204   9.852  1.00  0.00     0.010 A 
ATOM     10  C   UNL     1       7.323  -6.624  10.857  1.00  0.00     0.010 A 
ATOM     11  C   UNL     1       6.628  -5.405  10.821  1.00  0.00    -0.014 A 
BRANCH  11  12
ATOM     12  C   UNL     1       6.905  -4.338  11.810  1.00  0.00     0.031 A 
ATOM     13  C   UNL     1       8.221  -3.615  11.826  1.00  0.00     0.074 A 
ATOM     14  C   UNL     1       5.936  -4.011  12.684  1.00  0.00     0.049 A 
ATOM     15  N   UNL     1       8.630  -2.670  12.634  1.00  0.00    -0.248 NA
ATOM     16  C   UNL     1       9.211  -4.005  10.810  1.00  0.00     0.031 C 
ATOM     17  C   UNL     1       4.619  -4.647  12.756  1.00  0.00     0.029 A 
ATOM     18  N   UNL     1       5.899  -3.054  13.663  1.00  0.00    -0.354 N 
ATOM     19  C   UNL     1       9.931  -2.373  12.247  1.00  0.00     0.074 A 
ATOM     20  C   UNL     1      10.248  -3.245  11.136  1.00  0.00     0.031 C 
ATOM     21  C   UNL     1       3.886  -4.033  13.695  1.00  0.00     0.029 A 
ATOM     22  C   UNL     1       4.701  -3.004  14.330  1.00  0.00     0.049 A 
ATOM     23  H   UNL     1       6.657  -2.460  13.868  1.00  0.00     0.167 HD
ATOM     24  C   UNL     1      10.778  -1.456  12.773  1.00  0.00     0.037 A 
ATOM     25  C   UNL     1       4.306  -2.227  15.353  1.00  0.00     0.037 A 
ATOM     26  C   UNL     1      10.443  -0.573  13.861  1.00  0.00     0.049 A 
ATOM     27  C   UNL     1       5.265  -1.227  15.920  1.00  0.00     0.074 A 
ATOM     28  C   UNL     1      11.218   0.417  14.441  1.00  0.00     0.029 A 
ATOM     29  N   UNL     1       9.230  -0.576  14.534  1.00  0.00    -0.354 N 
ATOM     30  N   UNL     1       6.489  -0.954  15.540  1.00  0.00    -0.248 NA
ATOM     31  C   UNL     1       4.794  -0.436  17.063  1.00  0.00     0.031 C 
ATOM     32  C   UNL     1      10.485   0.992  15.486  1.00  0.00     0.029 A 
ATOM     33  C   UNL     1       9.242   0.382  15.535  1.00  0.00     0.049 A 
ATOM     34  H   UNL     1       8.473  -1.171  14.331  1.00  0.00     0.167 HD
ATOM     35  C   UNL     1       6.937   0.042  16.395  1.00  0.00     0.074 A 
ATOM     36  C   UNL     1       5.843   0.339  17.299  1.00  0.00     0.031 C 
ATOM     37  C   UNL     1       8.146   0.652  16.430  1.00  0.00     0.037 A 
BRANCH  24  38
ATOM     38  C   UNL     1      12.159  -1.375  12.192  1.00  0.00     0.057 A 
ATOM     39  C   UNL     1      12.406  -0.791  10.944  1.00  0.00     0.134 A 
ATOM     40  C   UNL     1      13.261  -1.855  12.911  1.00  0.00     0.134 A 
ATOM     41  F   UNL     1      11.393  -0.323  10.199  1.00  0.00    -0.206 F 
ATOM     42  C   UNL     1      13.699  -0.703  10.422  1.00  0.00     0.040 A 
ATOM     43  C   UNL     1      14.560  -1.756  12.409  1.00  0.00     0.040 A 
ATOM     44  F   UNL     1      13.094  -2.422  14.115  1.00  0.00    -0.206 F 
ATOM     45  C   UNL     1      14.782  -1.182  11.159  1.00  0.00     0.006 A 
ENDBRANCH  24  38
BRANCH  25  46
ATOM     46  C   UNL     1       2.935  -2.380  15.892  1.00  0.00     0.057 A 
ATOM     47  C   UNL     1       1.951  -1.422  15.636  1.00  0.00     0.134 A 
ATOM     48  C   UNL     1       2.564  -3.514  16.625  1.00  0.00     0.134 A 
ATOM     49  F   UNL     1       2.253  -0.310  14.949  1.00  0.00    -0.206 F 
ATOM     50  C   UNL     1       0.641  -1.585  16.088  1.00  0.00     0.040 A 
ATOM     51  C   UNL     1       1.254  -3.701  17.065  1.00  0.00     0.040 A 
ATOM     52  F   UNL     1       3.464  -4.472  16.891  1.00  0.00    -0.206 F 
ATOM     53  C   UNL     1       0.288  -2.732  16.797  1.00  0.00     0.006 A 
ENDBRANCH  25  46
BRANCH  37  54
ATOM     54  C   UNL     1       8.336   1.703  17.480  1.00  0.00     0.057 A 
ATOM     55  C   UNL     1       8.547   1.366  18.822  1.00  0.00     0.134 A 
ATOM     56  C   UNL     1       8.321   3.062  17.143  1.00  0.00     0.134 A 
ATOM     57  F   UNL     1       8.556   0.081  19.207  1.00  0.00    -0.206 F 
ATOM     58  C   UNL     1       8.717   2.347  19.799  1.00  0.00     0.040 A 
ATOM     59  C   UNL     1       8.508   4.051  18.108  1.00  0.00     0.040 A 
ATOM     60  F   UNL     1       8.126   3.446  15.873  1.00  0.00    -0.206 F 
ATOM     61  C   UNL     1       8.701   3.695  19.441  1.00  0.00     0.006 A 
ENDBRANCH  37  54
ENDBRANCH  11  12
ENDBRANCH   4   6
ENDBRANCH   1   2
BRANCH   1  62
ATOM     62  C   UNL     1       7.381  -6.215   4.942  1.00  0.00     0.042 C 
BRANCH  62  63
ATOM     63  C   UNL     1       6.793  -6.750   3.650  1.00  0.00     0.117 C 
BRANCH  63  64
ATOM     64  N   UNL     1       5.605  -6.023   3.248  1.00  0.00    -0.354 N 
ATOM     65  C   UNL     1       5.199  -5.685   1.993  1.00  0.00     0.242 C 
ATOM     66  H   UNL     1       5.013  -5.735   3.981  1.00  0.00     0.163 HD
ATOM     67  O   UNL     1       4.176  -4.997   1.893  1.00  0.00    -0.273 OA
BRANCH  65  68
ATOM     68  C   UNL     1       6.081  -5.947   0.756  1.00  0.00     0.176 C 
ATOM     69  C   UNL     1       7.095  -4.776   0.847  1.00  0.00     0.036 C 
ATOM     70  N   UNL     1       6.704  -7.293   0.572  1.00  0.00    -0.309 N 
ATOM     71  C   UNL     1       8.284  -4.868  -0.078  1.00  0.00     0.008 C 
ATOM     72  C   UNL     1       7.877  -7.317  -0.381  1.00  0.00     0.091 C 
ATOM     73  C   UNL     1       8.924  -6.249   0.021  1.00  0.00     0.012 C 
ATOM     74  C   UNL     1       8.572  -8.676  -0.629  1.00  0.00     0.025 C 
ATOM     75  C   UNL     1      10.202  -6.247  -0.832  1.00  0.00     0.006 C 
ATOM     76  C   UNL     1       9.785  -8.586  -1.547  1.00  0.00     0.002 C 
ATOM     77  C   UNL     1      10.814  -7.628  -0.980  1.00  0.00     0.000 C 
BRANCH  70  78
ATOM     78  C   UNL     1       6.073  -8.500   0.909  1.00  0.00     0.321 C 
ATOM     79  O   UNL     1       6.618  -9.597   0.788  1.00  0.00    -0.248 OA
ATOM     80  N   UNL     1       4.846  -8.466   1.564  1.00  0.00    -0.323 N 
ATOM     81  C   UNL     1       4.659  -9.557   2.539  1.00  0.00     0.132 C 
ATOM     82  C   UNL     1       3.629  -8.115   0.820  1.00  0.00     0.132 C 
ATOM     83  C   UNL     1       3.629  -9.262   3.623  1.00  0.00     0.091 C 
ATOM     84  C   UNL     1       2.431  -7.733   1.702  1.00  0.00     0.091 C 
ATOM     85  S   UNL     1       1.980  -9.028   2.902  1.00  0.00    -0.158 SA
ENDBRANCH  70  78
ENDBRANCH  65  68
ENDBRANCH  63  64
ENDBRANCH  62  63
ENDBRANCH   1  62
TORSDOF 11
