REMARK SMILES Nc1cc(C(=O)NCCCNC(=O)c2ccc(-c3c4nc(c(-c5c(F)cccc5F)c5ccc([nH]5)c(-c5c(F)cccc5F)c5nc(c(-c6c(F)cccc6F)c6ccc3[nH]6)C=C5)C=C4)cc2)ccc1N1CC2(CCOCC2)C1
REMARK SMILES IDX 9 1 8 2 7 3 5 4 6 5 4 7 2 8 3 9 70 10 69 11 68 12 1 13 71 16
REMARK SMILES IDX 72 17 79 18 73 19 74 20 78 21 75 22 77 23 76 24 10 25 11 26
REMARK SMILES IDX 12 27 13 29 14 30 15 31 67 32 16 33 66 34 17 35 18 36 19 37
REMARK SMILES IDX 60 38 20 39 65 40 59 41 61 42 21 43 64 44 58 45 57 46 22 48
REMARK SMILES IDX 48 49 31 50 47 51 32 52 35 53 46 54 62 55 33 56 34 57 45 59
REMARK SMILES IDX 63 60 36 61 23 62 24 63 29 64 25 65 26 66 28 67 30 68 27 69
REMARK SMILES IDX 49 70 50 71 55 72 51 73 52 74 54 75 56 76 53 77 37 78 38 79
REMARK SMILES IDX 43 80 39 81 40 82 42 83 44 84 41 85
REMARK H PARENT 7 6 1 14 1 15 11 28 61 47 35 58
REMARK Flexibility Score: inf
ROOT
ATOM      1  C   UNL     1      -5.063  -1.110  -0.619  1.00  0.00     0.042 C 
ENDROOT
BRANCH   1   2
ATOM      2  C   UNL     1      -4.205  -1.492   0.587  1.00  0.00     0.118 C 
BRANCH   2   3
ATOM      3  N   UNL     1      -3.178  -2.440   0.207  1.00  0.00    -0.352 N 
ATOM      4  C   UNL     1      -1.868  -2.308  -0.166  1.00  0.00     0.251 C 
ATOM      5  O   UNL     1      -1.277  -3.351  -0.455  1.00  0.00    -0.269 OA
ATOM      6  H   UNL     1      -3.488  -3.374   0.219  1.00  0.00     0.163 HD
BRANCH   4   7
ATOM      7  C   UNL     1      -1.118  -1.019  -0.194  1.00  0.00     0.041 A 
ATOM      8  C   UNL     1       1.112  -0.004  -0.129  1.00  0.00     0.056 A 
ATOM      9  C   UNL     1       0.280  -1.128  -0.131  1.00  0.00     0.041 A 
ATOM     10  C   UNL     1       0.534   1.284  -0.129  1.00  0.00     0.060 A 
ATOM     11  C   UNL     1      -0.858   1.397  -0.212  1.00  0.00     0.029 A 
ATOM     12  C   UNL     1      -1.673   0.258  -0.285  1.00  0.00     0.016 A 
BRANCH   8  13
ATOM     13  N   UNL     1       2.481  -0.190   0.059  1.00  0.00    -0.397 N 
ATOM     14  H   UNL     1       2.859  -1.099   0.054  1.00  0.00     0.156 HD
ATOM     15  H   UNL     1       3.069   0.587   0.198  1.00  0.00     0.156 HD
ENDBRANCH   8  13
BRANCH  10  16
ATOM     16  N   UNL     1       1.337   2.424  -0.012  1.00  0.00    -0.369 N 
ATOM     17  C   UNL     1       2.306   2.987  -0.890  1.00  0.00     0.125 C 
ATOM     18  C   UNL     1       1.237   3.588   0.804  1.00  0.00     0.125 C 
ATOM     19  C   UNL     1       2.655   3.947   0.281  1.00  0.00     0.010 C 
ATOM     20  C   UNL     1       2.894   5.410  -0.078  1.00  0.00     0.039 C 
ATOM     21  C   UNL     1       3.792   3.439   1.188  1.00  0.00     0.039 C 
ATOM     22  C   UNL     1       4.279   5.540  -0.707  1.00  0.00     0.161 C 
ATOM     23  C   UNL     1       5.122   3.670   0.481  1.00  0.00     0.161 C 
ATOM     24  O   UNL     1       5.286   5.058   0.187  1.00  0.00    -0.381 OA
ENDBRANCH  10  16
ENDBRANCH   4   7
ENDBRANCH   2   3
ENDBRANCH   1   2
BRANCH   1  25
ATOM     25  C   UNL     1      -5.999  -2.232  -1.069  1.00  0.00     0.118 C 
BRANCH  25  26
ATOM     26  N   UNL     1      -7.059  -2.474  -0.099  1.00  0.00    -0.352 N 
ATOM     27  C   UNL     1      -8.420  -2.386  -0.237  1.00  0.00     0.251 C 
ATOM     28  H   UNL     1      -6.749  -2.742   0.796  1.00  0.00     0.163 HD
ATOM     29  O   UNL     1      -9.130  -2.391   0.764  1.00  0.00    -0.269 OA
BRANCH  27  30
ATOM     30  C   UNL     1      -9.042  -2.285  -1.575  1.00  0.00     0.039 A 
ATOM     31  C   UNL     1     -10.142  -1.437  -1.742  1.00  0.00     0.014 A 
ATOM     32  C   UNL     1      -8.595  -3.067  -2.644  1.00  0.00     0.014 A 
ATOM     33  C   UNL     1     -10.762  -1.339  -2.989  1.00  0.00     0.010 A 
ATOM     34  C   UNL     1      -9.174  -2.922  -3.903  1.00  0.00     0.010 A 
ATOM     35  C   UNL     1     -10.268  -2.062  -4.086  1.00  0.00    -0.014 A 
BRANCH  35  36
ATOM     36  C   UNL     1     -10.886  -1.939  -5.429  1.00  0.00     0.031 A 
ATOM     37  C   UNL     1     -11.574  -3.119  -6.058  1.00  0.00     0.074 A 
ATOM     38  C   UNL     1     -10.773  -0.781  -6.109  1.00  0.00     0.049 A 
ATOM     39  N   UNL     1     -12.098  -3.231  -7.252  1.00  0.00    -0.248 NA
ATOM     40  C   UNL     1     -11.662  -4.343  -5.246  1.00  0.00     0.031 C 
ATOM     41  C   UNL     1     -10.097   0.422  -5.622  1.00  0.00     0.029 A 
ATOM     42  N   UNL     1     -11.213  -0.432  -7.360  1.00  0.00    -0.354 N 
ATOM     43  C   UNL     1     -12.560  -4.538  -7.341  1.00  0.00     0.074 A 
ATOM     44  C   UNL     1     -12.216  -5.193  -6.098  1.00  0.00     0.031 C 
ATOM     45  C   UNL     1     -10.183   1.383  -6.556  1.00  0.00     0.029 A 
ATOM     46  C   UNL     1     -10.887   0.853  -7.719  1.00  0.00     0.049 A 
ATOM     47  H   UNL     1     -11.715  -1.045  -7.945  1.00  0.00     0.167 HD
ATOM     48  C   UNL     1     -13.228  -5.132  -8.359  1.00  0.00     0.037 A 
ATOM     49  C   UNL     1     -11.122   1.524  -8.862  1.00  0.00     0.037 A 
ATOM     50  C   UNL     1     -13.593  -4.470  -9.584  1.00  0.00     0.049 A 
ATOM     51  C   UNL     1     -11.864   0.843  -9.976  1.00  0.00     0.074 A 
ATOM     52  C   UNL     1     -14.318  -4.969 -10.652  1.00  0.00     0.029 A 
ATOM     53  N   UNL     1     -13.261  -3.161  -9.902  1.00  0.00    -0.354 N 
ATOM     54  N   UNL     1     -12.342  -0.377 -10.025  1.00  0.00    -0.248 NA
ATOM     55  C   UNL     1     -12.103   1.632 -11.193  1.00  0.00     0.031 C 
ATOM     56  C   UNL     1     -14.394  -3.973 -11.632  1.00  0.00     0.029 A 
ATOM     57  C   UNL     1     -13.753  -2.841 -11.156  1.00  0.00     0.049 A 
ATOM     58  H   UNL     1     -12.752  -2.551  -9.322  1.00  0.00     0.167 HD
ATOM     59  C   UNL     1     -12.960  -0.493 -11.263  1.00  0.00     0.074 A 
ATOM     60  C   UNL     1     -12.807   0.784 -11.929  1.00  0.00     0.031 C 
ATOM     61  C   UNL     1     -13.598  -1.562 -11.800  1.00  0.00     0.037 A 
BRANCH  48  62
ATOM     62  C   UNL     1     -13.610  -6.574  -8.187  1.00  0.00     0.057 A 
ATOM     63  C   UNL     1     -14.617  -6.968  -7.296  1.00  0.00     0.134 A 
ATOM     64  C   UNL     1     -12.988  -7.575  -8.943  1.00  0.00     0.134 A 
ATOM     65  F   UNL     1     -15.244  -6.060  -6.534  1.00  0.00    -0.206 F 
ATOM     66  C   UNL     1     -14.973  -8.309  -7.144  1.00  0.00     0.040 A 
ATOM     67  C   UNL     1     -13.353  -8.917  -8.818  1.00  0.00     0.040 A 
ATOM     68  F   UNL     1     -12.021  -7.266  -9.819  1.00  0.00    -0.206 F 
ATOM     69  C   UNL     1     -14.344  -9.288  -7.911  1.00  0.00     0.006 A 
ENDBRANCH  48  62
BRANCH  49  70
ATOM     70  C   UNL     1     -10.672   2.932  -9.000  1.00  0.00     0.057 A 
ATOM     71  C   UNL     1     -11.594   3.984  -9.004  1.00  0.00     0.134 A 
ATOM     72  C   UNL     1      -9.317   3.259  -9.131  1.00  0.00     0.134 A 
ATOM     73  F   UNL     1     -12.907   3.731  -8.900  1.00  0.00    -0.206 F 
ATOM     74  C   UNL     1     -11.188   5.311  -9.151  1.00  0.00     0.040 A 
ATOM     75  C   UNL     1      -8.895   4.583  -9.255  1.00  0.00     0.040 A 
ATOM     76  F   UNL     1      -8.384   2.296  -9.126  1.00  0.00    -0.206 F 
ATOM     77  C   UNL     1      -9.833   5.614  -9.272  1.00  0.00     0.006 A 
ENDBRANCH  49  70
BRANCH  61  78
ATOM     78  C   UNL     1     -14.207  -1.383 -13.159  1.00  0.00     0.057 A 
ATOM     79  C   UNL     1     -13.422  -1.325 -14.317  1.00  0.00     0.134 A 
ATOM     80  C   UNL     1     -15.597  -1.305 -13.311  1.00  0.00     0.134 A 
ATOM     81  F   UNL     1     -12.084  -1.380 -14.236  1.00  0.00    -0.206 F 
ATOM     82  C   UNL     1     -13.999  -1.176 -15.579  1.00  0.00     0.040 A 
ATOM     83  C   UNL     1     -16.186  -1.179 -14.570  1.00  0.00     0.040 A 
ATOM     84  F   UNL     1     -16.404  -1.361 -12.241  1.00  0.00    -0.206 F 
ATOM     85  C   UNL     1     -15.385  -1.109 -15.708  1.00  0.00     0.006 A 
ENDBRANCH  61  78
ENDBRANCH  35  36
ENDBRANCH  27  30
ENDBRANCH  25  26
ENDBRANCH   1  25
TORSDOF 12
