REMARK SMILES O=C(NCCCNC(=O)c1ccccc1NCCCO)c1ccc(-c2c3nc(c(-c4c(F)cccc4F)c4ccc([nH]4)c(-c4c(F)cccc4F)c4nc(c(-c5c(F)cccc5F)c5ccc2[nH]5)C=C4)C=C3)cc1
REMARK SMILES IDX 7 1 8 2 9 3 6 5 5 6 4 7 3 8 1 9 2 10 21 12 22 13 74 14 23 15
REMARK SMILES IDX 73 16 24 17 25 18 26 19 67 20 27 21 72 22 66 23 68 24 28 25
REMARK SMILES IDX 71 26 65 27 64 28 29 30 55 31 38 32 54 33 39 34 42 35 53 36
REMARK SMILES IDX 69 37 40 38 41 39 52 41 70 42 43 43 30 44 31 45 36 46 32 47
REMARK SMILES IDX 33 48 35 49 37 50 34 51 56 52 57 53 62 54 58 55 59 56 61 57
REMARK SMILES IDX 63 58 60 59 44 60 45 61 50 62 46 63 47 64 49 65 51 66 48 67
REMARK SMILES IDX 10 68 11 69 15 70 12 71 14 72 13 73 16 74 17 76 18 77 19 78
REMARK SMILES IDX 20 79
REMARK H PARENT 7 4 3 11 68 29 42 40 16 75 20 80
REMARK Flexibility Score: inf
ROOT
ATOM      1  N   UNL     1       5.289   3.965  -1.760  1.00  0.00    -0.352 N 
ATOM      2  C   UNL     1       5.762   5.136  -2.297  1.00  0.00     0.253 C 
ATOM      3  O   UNL     1       6.040   6.076  -1.558  1.00  0.00    -0.269 OA
ATOM      4  H   UNL     1       5.205   3.942  -0.779  1.00  0.00     0.163 HD
ENDROOT
BRANCH   1   5
ATOM      5  C   UNL     1       4.897   2.758  -2.462  1.00  0.00     0.118 C 
BRANCH   5   6
ATOM      6  C   UNL     1       5.293   1.477  -1.759  1.00  0.00     0.042 C 
BRANCH   6   7
ATOM      7  C   UNL     1       4.707   1.337  -0.365  1.00  0.00     0.118 C 
BRANCH   7   8
ATOM      8  N   UNL     1       3.259   1.154  -0.352  1.00  0.00    -0.352 N 
ATOM      9  O   UNL     1       1.283   0.077  -0.271  1.00  0.00    -0.269 OA
ATOM     10  C   UNL     1       2.491   0.042  -0.082  1.00  0.00     0.251 C 
ATOM     11  H   UNL     1       2.743   1.963  -0.575  1.00  0.00     0.163 HD
BRANCH  10  12
ATOM     12  C   UNL     1       3.129  -1.203   0.404  1.00  0.00     0.039 A 
ATOM     13  C   UNL     1       4.169  -1.151   1.327  1.00  0.00     0.014 A 
ATOM     14  C   UNL     1       2.686  -2.443  -0.069  1.00  0.00     0.014 A 
ATOM     15  C   UNL     1       4.914  -2.289   1.592  1.00  0.00     0.010 A 
ATOM     16  C   UNL     1       3.348  -3.615   0.319  1.00  0.00     0.010 A 
ATOM     17  C   UNL     1       4.498  -3.543   1.117  1.00  0.00    -0.014 A 
BRANCH  17  18
ATOM     18  C   UNL     1       5.259  -4.744   1.551  1.00  0.00     0.031 A 
ATOM     19  C   UNL     1       5.965  -5.631   0.564  1.00  0.00     0.074 A 
ATOM     20  C   UNL     1       5.375  -4.976   2.874  1.00  0.00     0.049 A 
ATOM     21  N   UNL     1       6.727  -6.671   0.797  1.00  0.00    -0.248 NA
ATOM     22  C   UNL     1       5.795  -5.325  -0.865  1.00  0.00     0.031 C 
ATOM     23  C   UNL     1       4.720  -4.190   3.926  1.00  0.00     0.029 A 
ATOM     24  N   UNL     1       6.113  -5.899   3.567  1.00  0.00    -0.354 N 
ATOM     25  C   UNL     1       7.107  -7.155  -0.449  1.00  0.00     0.074 A 
ATOM     26  C   UNL     1       6.477  -6.308  -1.438  1.00  0.00     0.031 C 
ATOM     27  C   UNL     1       5.151  -4.608   5.123  1.00  0.00     0.029 A 
ATOM     28  C   UNL     1       6.044  -5.742   4.930  1.00  0.00     0.049 A 
ATOM     29  H   UNL     1       6.641  -6.607   3.130  1.00  0.00     0.167 HD
ATOM     30  C   UNL     1       7.912  -8.207  -0.736  1.00  0.00     0.037 A 
ATOM     31  C   UNL     1       6.622  -6.442   5.923  1.00  0.00     0.037 A 
ATOM     32  C   UNL     1       8.555  -9.033   0.255  1.00  0.00     0.049 A 
ATOM     33  C   UNL     1       7.506  -7.599   5.571  1.00  0.00     0.074 A 
ATOM     34  C   UNL     1       9.402 -10.111   0.061  1.00  0.00     0.029 A 
ATOM     35  N   UNL     1       8.425  -8.870   1.626  1.00  0.00    -0.354 N 
ATOM     36  N   UNL     1       7.858  -8.036   4.387  1.00  0.00    -0.248 NA
ATOM     37  C   UNL     1       8.062  -8.367   6.691  1.00  0.00     0.031 C 
ATOM     38  C   UNL     1       9.757 -10.621   1.315  1.00  0.00     0.029 A 
ATOM     39  C   UNL     1       9.164  -9.836   2.290  1.00  0.00     0.049 A 
ATOM     40  H   UNL     1       7.888  -8.170   2.063  1.00  0.00     0.167 HD
ATOM     41  C   UNL     1       8.676  -9.132   4.618  1.00  0.00     0.074 A 
ATOM     42  C   UNL     1       8.797  -9.268   6.055  1.00  0.00     0.031 C 
ATOM     43  C   UNL     1       9.264  -9.960   3.721  1.00  0.00     0.037 A 
BRANCH  30  44
ATOM     44  C   UNL     1       8.141  -8.539  -2.182  1.00  0.00     0.057 A 
ATOM     45  C   UNL     1       8.975  -7.764  -2.996  1.00  0.00     0.134 A 
ATOM     46  C   UNL     1       7.574  -9.689  -2.748  1.00  0.00     0.134 A 
ATOM     47  F   UNL     1       9.540  -6.644  -2.520  1.00  0.00    -0.206 F 
ATOM     48  C   UNL     1       9.230  -8.114  -4.324  1.00  0.00     0.040 A 
ATOM     49  C   UNL     1       7.837 -10.061  -4.067  1.00  0.00     0.040 A 
ATOM     50  F   UNL     1       6.770 -10.480  -2.021  1.00  0.00    -0.206 F 
ATOM     51  C   UNL     1       8.667  -9.271  -4.860  1.00  0.00     0.006 A 
ENDBRANCH  30  44
BRANCH  31  52
ATOM     52  C   UNL     1       6.360  -6.076   7.337  1.00  0.00     0.057 A 
ATOM     53  C   UNL     1       7.367  -5.545   8.149  1.00  0.00     0.134 A 
ATOM     54  C   UNL     1       5.091  -6.243   7.905  1.00  0.00     0.134 A 
ATOM     55  F   UNL     1       8.606  -5.376   7.667  1.00  0.00    -0.206 F 
ATOM     56  C   UNL     1       7.125  -5.206   9.482  1.00  0.00     0.040 A 
ATOM     57  C   UNL     1       4.828  -5.882   9.226  1.00  0.00     0.040 A 
ATOM     58  F   UNL     1       4.081  -6.739   7.175  1.00  0.00    -0.206 F 
ATOM     59  C   UNL     1       5.850  -5.368  10.021  1.00  0.00     0.006 A 
ENDBRANCH  31  52
BRANCH  43  60
ATOM     60  C   UNL     1      10.092 -11.075   4.282  1.00  0.00     0.057 A 
ATOM     61  C   UNL     1       9.503 -12.188   4.894  1.00  0.00     0.134 A 
ATOM     62  C   UNL     1      11.489 -11.035   4.209  1.00  0.00     0.134 A 
ATOM     63  F   UNL     1       8.169 -12.275   5.010  1.00  0.00    -0.206 F 
ATOM     64  C   UNL     1      10.278 -13.211   5.443  1.00  0.00     0.040 A 
ATOM     65  C   UNL     1      12.274 -12.063   4.732  1.00  0.00     0.040 A 
ATOM     66  F   UNL     1      12.113  -9.998   3.630  1.00  0.00    -0.206 F 
ATOM     67  C   UNL     1      11.668 -13.151   5.359  1.00  0.00     0.006 A 
ENDBRANCH  43  60
ENDBRANCH  17  18
ENDBRANCH  10  12
ENDBRANCH   7   8
ENDBRANCH   6   7
ENDBRANCH   5   6
ENDBRANCH   1   5
BRANCH   2  68
ATOM     68  C   UNL     1       6.006   5.233  -3.753  1.00  0.00     0.062 A 
ATOM     69  C   UNL     1       7.340   5.502  -4.106  1.00  0.00     0.016 A 
ATOM     70  C   UNL     1       4.993   5.044  -4.726  1.00  0.00     0.047 A 
ATOM     71  C   UNL     1       7.712   5.539  -5.442  1.00  0.00     0.001 A 
ATOM     72  C   UNL     1       5.418   5.050  -6.062  1.00  0.00     0.026 A 
ATOM     73  C   UNL     1       6.752   5.300  -6.418  1.00  0.00     0.002 A 
BRANCH  70  74
ATOM     74  N   UNL     1       3.673   4.809  -4.364  1.00  0.00    -0.384 N 
ATOM     75  H   UNL     1       3.458   4.904  -3.407  1.00  0.00     0.160 HD
BRANCH  74  76
ATOM     76  C   UNL     1       2.570   4.437  -5.240  1.00  0.00     0.115 C 
BRANCH  76  77
ATOM     77  C   UNL     1       2.244   2.943  -5.131  1.00  0.00     0.049 C 
BRANCH  77  78
ATOM     78  C   UNL     1       1.321   2.594  -3.967  1.00  0.00     0.158 C 
BRANCH  78  79
ATOM     79  O   UNL     1       0.123   3.353  -4.047  1.00  0.00    -0.396 OA
ATOM     80  H   UNL     1       0.336   4.298  -4.005  1.00  0.00     0.210 HD
ENDBRANCH  78  79
ENDBRANCH  77  78
ENDBRANCH  76  77
ENDBRANCH  74  76
ENDBRANCH  70  74
ENDBRANCH   2  68
TORSDOF 15
