REMARK SMILES CC1(C)S[C@H](c2ccc(-c3cccc([N+](=O)[O-])c3)o2)[NH2+][C@@H]1C(=O)NCCCNC(=O)c1ccc(-c2c3nc(c(-c4c(F)cccc4F)c4ccc([nH]4)c(-c4c(F)cccc4F)c4nc(c(-c5c(F)cccc5F)c5ccc2[nH]5)C=C4)C=C3)cc1
REMARK SMILES IDX 25 1 24 2 22 3 23 4 21 6 1 7 2 8 3 9 4 10 5 11 20 12 6 15
REMARK SMILES IDX 7 16 19 17 8 18 9 19 10 20 11 21 18 22 12 23 14 24 13 25
REMARK SMILES IDX 15 26 16 27 17 28 26 29 27 30 28 31 29 32 30 34 31 35 32 36
REMARK SMILES IDX 84 37 33 38 83 39 34 40 35 41 36 42 77 43 37 44 82 45 76 46
REMARK SMILES IDX 78 47 38 48 81 49 75 50 74 51 39 53 65 54 48 55 64 56 49 57
REMARK SMILES IDX 52 58 63 59 79 60 50 61 51 62 62 64 80 65 53 66 40 67 41 68
REMARK SMILES IDX 46 69 42 70 43 71 45 72 47 73 44 74 66 75 67 76 72 77 68 78
REMARK SMILES IDX 69 79 71 80 73 81 70 82 54 83 55 84 60 85 56 86 57 87 59 88
REMARK SMILES IDX 61 89 58 90
REMARK H PARENT 24 5 20 13 20 14 28 33 78 52 52 63
REMARK Flexibility Score: inf
ROOT
ATOM      1  C   UNL     1      -2.304   2.838  -1.677  1.00  0.00     0.118 C 
ENDROOT
BRANCH   1   2
ATOM      2  N   UNL     1      -1.222   2.305  -2.482  1.00  0.00    -0.351 N 
ATOM      3  C   UNL     1      -0.304   1.357  -2.099  1.00  0.00     0.279 C 
ATOM      4  O   UNL     1       0.430   0.905  -2.976  1.00  0.00    -0.268 OA
ATOM      5  H   UNL     1      -1.136   2.660  -3.396  1.00  0.00     0.163 HD
BRANCH   3   6
ATOM      6  C   UNL     1      -0.176   1.026  -0.588  1.00  0.00     0.289 C 
ATOM      7  C   UNL     1       1.275   0.262   1.337  1.00  0.00     0.030 C 
ATOM      8  C   UNL     1       0.890  -0.000  -0.136  1.00  0.00     0.078 C 
ATOM      9  C   UNL     1       2.177  -0.075  -0.957  1.00  0.00     0.030 C 
ATOM     10  S   UNL     1       0.013  -1.597  -0.219  1.00  0.00    -0.078 SA
ATOM     11  C   UNL     1      -1.631  -0.851  -0.202  1.00  0.00     0.311 C 
ATOM     12  N   UNL     1      -1.496   0.600  -0.023  1.00  0.00    -0.317 N 
ATOM     13  H   UNL     1      -1.535   0.829   0.970  1.00  0.00     0.348 HD
ATOM     14  H   UNL     1      -2.255   1.083  -0.502  1.00  0.00     0.348 HD
BRANCH  11  15
ATOM     15  C   UNL     1      -2.475  -1.291  -1.358  1.00  0.00     0.172 A 
ATOM     16  C   UNL     1      -3.228  -2.438  -1.536  1.00  0.00     0.054 A 
ATOM     17  O   UNL     1      -2.618  -0.483  -2.458  1.00  0.00    -0.454 OA
ATOM     18  C   UNL     1      -3.875  -2.317  -2.784  1.00  0.00     0.051 A 
ATOM     19  C   UNL     1      -3.477  -1.110  -3.318  1.00  0.00     0.134 A 
BRANCH  19  20
ATOM     20  C   UNL     1      -3.829  -0.404  -4.543  1.00  0.00     0.024 A 
ATOM     21  C   UNL     1      -2.866   0.285  -5.294  1.00  0.00     0.012 A 
ATOM     22  C   UNL     1      -5.157  -0.423  -4.996  1.00  0.00     0.097 A 
ATOM     23  C   UNL     1      -3.219   0.949  -6.476  1.00  0.00     0.008 A 
ATOM     24  C   UNL     1      -5.508   0.256  -6.171  1.00  0.00     0.270 A 
ATOM     25  C   UNL     1      -4.543   0.942  -6.917  1.00  0.00     0.085 A 
BRANCH  24  26
ATOM     26  N   UNL     1      -6.911   0.273  -6.605  1.00  0.00     0.062 N 
ATOM     27  O   UNL     1      -7.235   1.109  -7.463  1.00  0.00    -0.258 OA
ATOM     28  O   UNL     1      -7.675  -0.576  -6.123  1.00  0.00    -0.258 OA
ENDBRANCH  24  26
ENDBRANCH  19  20
ENDBRANCH  11  15
ENDBRANCH   3   6
ENDBRANCH   1   2
BRANCH   1  29
ATOM     29  C   UNL     1      -2.920   4.104  -2.244  1.00  0.00     0.042 C 
BRANCH  29  30
ATOM     30  C   UNL     1      -3.546   3.949  -3.620  1.00  0.00     0.118 C 
BRANCH  30  31
ATOM     31  N   UNL     1      -4.652   3.005  -3.671  1.00  0.00    -0.352 N 
ATOM     32  C   UNL     1      -5.862   3.106  -4.320  1.00  0.00     0.251 C 
ATOM     33  H   UNL     1      -4.515   2.171  -3.167  1.00  0.00     0.163 HD
ATOM     34  O   UNL     1      -6.711   2.235  -4.171  1.00  0.00    -0.269 OA
BRANCH  32  35
ATOM     35  C   UNL     1      -6.165   4.291  -5.154  1.00  0.00     0.039 A 
ATOM     36  C   UNL     1      -7.438   4.856  -5.053  1.00  0.00     0.014 A 
ATOM     37  C   UNL     1      -5.193   4.895  -5.953  1.00  0.00     0.014 A 
ATOM     38  C   UNL     1      -7.681   6.107  -5.618  1.00  0.00     0.010 A 
ATOM     39  C   UNL     1      -5.400   6.186  -6.424  1.00  0.00     0.010 A 
ATOM     40  C   UNL     1      -6.634   6.819  -6.225  1.00  0.00    -0.014 A 
BRANCH  40  41
ATOM     41  C   UNL     1      -6.792   8.255  -6.563  1.00  0.00     0.031 A 
ATOM     42  C   UNL     1      -6.654   8.732  -7.978  1.00  0.00     0.074 A 
ATOM     43  C   UNL     1      -6.979   9.139  -5.561  1.00  0.00     0.049 A 
ATOM     44  N   UNL     1      -6.724   9.952  -8.445  1.00  0.00    -0.248 NA
ATOM     45  C   UNL     1      -6.367   7.711  -8.998  1.00  0.00     0.031 C 
ATOM     46  C   UNL     1      -7.044   8.802  -4.135  1.00  0.00     0.029 A 
ATOM     47  N   UNL     1      -7.149  10.500  -5.583  1.00  0.00    -0.354 N 
ATOM     48  C   UNL     1      -6.482   9.846  -9.808  1.00  0.00     0.074 A 
ATOM     49  C   UNL     1      -6.202   8.454 -10.082  1.00  0.00     0.031 C 
ATOM     50  C   UNL     1      -7.287   9.916  -3.428  1.00  0.00     0.029 A 
ATOM     51  C   UNL     1      -7.357  11.050  -4.341  1.00  0.00     0.049 A 
ATOM     52  H   UNL     1      -7.125  11.032  -6.411  1.00  0.00     0.167 HD
ATOM     53  C   UNL     1      -6.518  10.819 -10.749  1.00  0.00     0.037 A 
ATOM     54  C   UNL     1      -7.587  12.326  -3.980  1.00  0.00     0.037 A 
ATOM     55  C   UNL     1      -6.821  12.198 -10.471  1.00  0.00     0.049 A 
ATOM     56  C   UNL     1      -7.647  13.382  -5.046  1.00  0.00     0.074 A 
ATOM     57  C   UNL     1      -6.939  13.253 -11.359  1.00  0.00     0.029 A 
ATOM     58  N   UNL     1      -7.056  12.713  -9.204  1.00  0.00    -0.354 N 
ATOM     59  N   UNL     1      -7.491  13.255  -6.341  1.00  0.00    -0.248 NA
ATOM     60  C   UNL     1      -7.922  14.755  -4.603  1.00  0.00     0.031 C 
ATOM     61  C   UNL     1      -7.213  14.413 -10.626  1.00  0.00     0.029 A 
ATOM     62  C   UNL     1      -7.305  14.073  -9.285  1.00  0.00     0.049 A 
ATOM     63  H   UNL     1      -7.047  12.189  -8.371  1.00  0.00     0.167 HD
ATOM     64  C   UNL     1      -7.672  14.524  -6.871  1.00  0.00     0.074 A 
ATOM     65  C   UNL     1      -7.965  15.404  -5.758  1.00  0.00     0.031 C 
ATOM     66  C   UNL     1      -7.600  14.928  -8.163  1.00  0.00     0.037 A 
BRANCH  53  67
ATOM     67  C   UNL     1      -6.237  10.415 -12.167  1.00  0.00     0.057 A 
ATOM     68  C   UNL     1      -7.141   9.636 -12.902  1.00  0.00     0.134 A 
ATOM     69  C   UNL     1      -5.061  10.819 -12.810  1.00  0.00     0.134 A 
ATOM     70  F   UNL     1      -8.280   9.204 -12.339  1.00  0.00    -0.206 F 
ATOM     71  C   UNL     1      -6.872   9.248 -14.216  1.00  0.00     0.040 A 
ATOM     72  C   UNL     1      -4.794  10.460 -14.133  1.00  0.00     0.040 A 
ATOM     73  F   UNL     1      -4.155  11.569 -12.167  1.00  0.00    -0.206 F 
ATOM     74  C   UNL     1      -5.697   9.666 -14.836  1.00  0.00     0.006 A 
ENDBRANCH  53  67
BRANCH  54  75
ATOM     75  C   UNL     1      -7.821  12.666  -2.554  1.00  0.00     0.057 A 
ATOM     76  C   UNL     1      -9.093  13.040  -2.104  1.00  0.00     0.134 A 
ATOM     77  C   UNL     1      -6.789  12.626  -1.609  1.00  0.00     0.134 A 
ATOM     78  F   UNL     1     -10.119  13.112  -2.965  1.00  0.00    -0.206 F 
ATOM     79  C   UNL     1      -9.327  13.378  -0.770  1.00  0.00     0.040 A 
ATOM     80  C   UNL     1      -7.014  12.939  -0.267  1.00  0.00     0.040 A 
ATOM     81  F   UNL     1      -5.550  12.265  -1.974  1.00  0.00    -0.206 F 
ATOM     82  C   UNL     1      -8.286  13.324   0.154  1.00  0.00     0.006 A 
ENDBRANCH  54  75
BRANCH  66  83
ATOM     83  C   UNL     1      -7.869  16.376  -8.439  1.00  0.00     0.057 A 
ATOM     84  C   UNL     1      -6.941  17.373  -8.114  1.00  0.00     0.134 A 
ATOM     85  C   UNL     1      -9.056  16.772  -9.066  1.00  0.00     0.134 A 
ATOM     86  F   UNL     1      -5.792  17.057  -7.498  1.00  0.00    -0.206 F 
ATOM     87  C   UNL     1      -7.194  18.718  -8.384  1.00  0.00     0.040 A 
ATOM     88  C   UNL     1      -9.310  18.111  -9.364  1.00  0.00     0.040 A 
ATOM     89  F   UNL     1      -9.983  15.864  -9.408  1.00  0.00    -0.206 F 
ATOM     90  C   UNL     1      -8.380  19.089  -9.018  1.00  0.00     0.006 A 
ENDBRANCH  66  83
ENDBRANCH  40  41
ENDBRANCH  32  35
ENDBRANCH  30  31
ENDBRANCH  29  30
ENDBRANCH   1  29
TORSDOF 13
