REMARK SMILES O=C(CCN1C(=O)S/C(=C\c2ccc(F)cc2)C1=O)Nc1ccc(O)cc1C(=O)NCCCNC(=O)c1ccc(-c2c3nc(c(-c4c(F)cccc4F)c4ccc([nH]4)c(-c4c(F)cccc4F)c4nc(c(-c5c(F)cccc5F)c5ccc2[nH]5)C=C4)C=C3)cc1
REMARK SMILES IDX 28 1 29 2 30 3 27 5 21 6 22 7 23 8 26 9 24 10 20 11 1 12
REMARK SMILES IDX 2 13 3 15 4 16 5 17 6 18 18 19 7 20 8 21 9 22 19 23 10 24
REMARK SMILES IDX 11 25 12 26 17 27 13 28 16 29 14 30 15 31 25 32 31 34 32 35
REMARK SMILES IDX 33 36 34 37 35 38 36 40 37 41 38 42 90 43 39 44 89 45 40 46
REMARK SMILES IDX 41 47 42 48 83 49 43 50 88 51 82 52 84 53 44 54 87 55 81 56
REMARK SMILES IDX 80 57 45 59 71 60 54 61 70 62 55 63 58 64 69 65 85 66 56 67
REMARK SMILES IDX 57 68 68 70 86 71 59 72 46 73 47 74 52 75 48 76 49 77 51 78
REMARK SMILES IDX 53 79 50 80 72 81 73 82 78 83 74 84 75 85 77 86 79 87 76 88
REMARK SMILES IDX 60 89 61 90 66 91 62 92 63 93 65 94 67 95 64 96
REMARK H PARENT 30 4 20 14 25 33 34 39 84 58 58 69
REMARK Flexibility Score: inf
ROOT
ATOM      1  C   UNL     1       3.595   1.941   3.062  1.00  0.00     0.253 C 
ATOM      2  O   UNL     1       4.420   2.107   3.959  1.00  0.00    -0.269 OA
ATOM      3  N   UNL     1       3.736   2.644   1.877  1.00  0.00    -0.352 N 
ATOM      4  H   UNL     1       4.434   3.338   1.880  1.00  0.00     0.163 HD
ENDROOT
BRANCH   1   5
ATOM      5  C   UNL     1       2.473   0.993   3.317  1.00  0.00     0.067 A 
ATOM      6  C   UNL     1       2.098  -0.055   2.457  1.00  0.00     0.054 A 
ATOM      7  C   UNL     1       0.971  -0.834   2.775  1.00  0.00     0.031 A 
ATOM      8  C   UNL     1       0.279  -0.643   3.973  1.00  0.00     0.048 A 
ATOM      9  C   UNL     1       1.787   1.159   4.534  1.00  0.00     0.062 A 
ATOM     10  C   UNL     1       0.711   0.336   4.856  1.00  0.00     0.116 A 
BRANCH   6  11
ATOM     11  N   UNL     1       2.907  -0.413   1.355  1.00  0.00    -0.325 N 
ATOM     12  O   UNL     1       1.233  -0.982  -0.126  1.00  0.00    -0.275 OA
ATOM     13  C   UNL     1       2.427  -0.911   0.163  1.00  0.00     0.226 C 
ATOM     14  H   UNL     1       3.880  -0.299   1.445  1.00  0.00     0.169 HD
BRANCH  13  15
ATOM     15  C   UNL     1       3.470  -1.400  -0.822  1.00  0.00     0.122 C 
BRANCH  15  16
ATOM     16  C   UNL     1       4.742  -0.575  -0.984  1.00  0.00     0.140 C 
BRANCH  16  17
ATOM     17  N   UNL     1       5.763  -0.654   0.059  1.00  0.00    -0.268 N 
ATOM     18  C   UNL     1       6.431   0.458   0.504  1.00  0.00     0.293 C 
ATOM     19  C   UNL     1       6.204  -1.817   0.648  1.00  0.00     0.268 C 
ATOM     20  O   UNL     1       5.971   1.567   0.703  1.00  0.00    -0.261 OA
ATOM     21  S   UNL     1       7.995   0.015   1.111  1.00  0.00    -0.022 SA
ATOM     22  C   UNL     1       7.270  -1.458   1.626  1.00  0.00     0.083 C 
ATOM     23  O   UNL     1       5.758  -2.942   0.490  1.00  0.00    -0.268 OA
ATOM     24  C   UNL     1       7.290  -1.932   2.878  1.00  0.00     0.029 C 
BRANCH  24  25
ATOM     25  C   UNL     1       7.986  -1.186   3.937  1.00  0.00    -0.024 A 
ATOM     26  C   UNL     1       7.266  -0.258   4.708  1.00  0.00     0.011 A 
ATOM     27  C   UNL     1       9.380  -1.250   4.052  1.00  0.00     0.011 A 
ATOM     28  C   UNL     1       7.936   0.588   5.593  1.00  0.00     0.040 A 
ATOM     29  C   UNL     1      10.046  -0.399   4.935  1.00  0.00     0.040 A 
ATOM     30  C   UNL     1       9.319   0.509   5.699  1.00  0.00     0.123 A 
ATOM     31  F   UNL     1       9.966   1.332   6.534  1.00  0.00    -0.207 F 
ENDBRANCH  24  25
ENDBRANCH  16  17
ENDBRANCH  15  16
ENDBRANCH  13  15
ENDBRANCH   6  11
BRANCH  10  32
ATOM     32  O   UNL     1       0.103   0.515   6.062  1.00  0.00    -0.508 OA
ATOM     33  H   UNL     1      -0.623  -0.024   6.306  1.00  0.00     0.293 HD
ENDBRANCH  10  32
ENDBRANCH   1   5
BRANCH   3  34
ATOM     34  C   UNL     1       3.005   2.509   0.631  1.00  0.00     0.118 C 
BRANCH  34  35
ATOM     35  C   UNL     1       3.101   3.623  -0.410  1.00  0.00     0.042 C 
BRANCH  35  36
ATOM     36  C   UNL     1       4.396   3.942  -1.186  1.00  0.00     0.118 C 
BRANCH  36  37
ATOM     37  N   UNL     1       5.423   2.916  -1.288  1.00  0.00    -0.352 N 
ATOM     38  C   UNL     1       6.163   2.387  -2.324  1.00  0.00     0.251 C 
ATOM     39  H   UNL     1       5.637   2.506  -0.419  1.00  0.00     0.163 HD
ATOM     40  O   UNL     1       6.938   1.450  -2.142  1.00  0.00    -0.269 OA
BRANCH  38  41
ATOM     41  C   UNL     1       5.974   2.892  -3.685  1.00  0.00     0.039 A 
ATOM     42  C   UNL     1       5.824   1.996  -4.750  1.00  0.00     0.014 A 
ATOM     43  C   UNL     1       5.845   4.260  -3.870  1.00  0.00     0.014 A 
ATOM     44  C   UNL     1       5.352   2.471  -5.971  1.00  0.00     0.010 A 
ATOM     45  C   UNL     1       5.259   4.709  -5.032  1.00  0.00     0.010 A 
ATOM     46  C   UNL     1       4.971   3.815  -6.077  1.00  0.00    -0.014 A 
BRANCH  46  47
ATOM     47  C   UNL     1       4.195   4.354  -7.214  1.00  0.00     0.031 A 
ATOM     48  C   UNL     1       4.721   5.561  -7.930  1.00  0.00     0.074 A 
ATOM     49  C   UNL     1       2.940   3.908  -7.419  1.00  0.00     0.049 A 
ATOM     50  N   UNL     1       4.088   6.410  -8.691  1.00  0.00    -0.248 NA
ATOM     51  C   UNL     1       6.135   5.902  -7.685  1.00  0.00     0.031 C 
ATOM     52  C   UNL     1       2.306   2.787  -6.717  1.00  0.00     0.029 A 
ATOM     53  N   UNL     1       1.953   4.373  -8.249  1.00  0.00    -0.354 N 
ATOM     54  C   UNL     1       5.009   7.411  -8.972  1.00  0.00     0.074 A 
ATOM     55  C   UNL     1       6.222   7.095  -8.252  1.00  0.00     0.031 C 
ATOM     56  C   UNL     1       1.048   2.642  -7.158  1.00  0.00     0.029 A 
ATOM     57  C   UNL     1       0.765   3.692  -8.128  1.00  0.00     0.049 A 
ATOM     58  H   UNL     1       2.083   5.125  -8.872  1.00  0.00     0.167 HD
ATOM     59  C   UNL     1       4.854   8.483  -9.780  1.00  0.00     0.037 A 
ATOM     60  C   UNL     1      -0.425   3.908  -8.719  1.00  0.00     0.037 A 
ATOM     61  C   UNL     1       3.656   8.734 -10.534  1.00  0.00     0.049 A 
ATOM     62  C   UNL     1      -0.557   5.075  -9.655  1.00  0.00     0.074 A 
ATOM     63  C   UNL     1       3.419   9.724 -11.467  1.00  0.00     0.029 A 
ATOM     64  N   UNL     1       2.499   7.971 -10.447  1.00  0.00    -0.354 N 
ATOM     65  N   UNL     1       0.338   5.983  -9.966  1.00  0.00    -0.248 NA
ATOM     66  C   UNL     1      -1.856   5.257 -10.315  1.00  0.00     0.031 C 
ATOM     67  C   UNL     1       2.106   9.580 -11.924  1.00  0.00     0.029 A 
ATOM     68  C   UNL     1       1.539   8.477 -11.302  1.00  0.00     0.049 A 
ATOM     69  H   UNL     1       2.381   7.188  -9.863  1.00  0.00     0.167 HD
ATOM     70  C   UNL     1      -0.281   6.834 -10.870  1.00  0.00     0.074 A 
ATOM     71  C   UNL     1      -1.625   6.325 -11.067  1.00  0.00     0.031 C 
ATOM     72  C   UNL     1       0.214   7.939 -11.478  1.00  0.00     0.037 A 
BRANCH  59  73
ATOM     73  C   UNL     1       6.009   9.430  -9.918  1.00  0.00     0.057 A 
ATOM     74  C   UNL     1       5.922  10.743  -9.439  1.00  0.00     0.134 A 
ATOM     75  C   UNL     1       7.196   9.055 -10.562  1.00  0.00     0.134 A 
ATOM     76  F   UNL     1       4.815  11.170  -8.814  1.00  0.00    -0.206 F 
ATOM     77  C   UNL     1       6.972  11.649  -9.601  1.00  0.00     0.040 A 
ATOM     78  C   UNL     1       8.263   9.942 -10.703  1.00  0.00     0.040 A 
ATOM     79  F   UNL     1       7.350   7.807 -11.030  1.00  0.00    -0.206 F 
ATOM     80  C   UNL     1       8.149  11.248 -10.230  1.00  0.00     0.006 A 
ENDBRANCH  59  73
BRANCH  60  81
ATOM     81  C   UNL     1      -1.552   2.974  -8.473  1.00  0.00     0.057 A 
ATOM     82  C   UNL     1      -2.217   2.915  -7.241  1.00  0.00     0.134 A 
ATOM     83  C   UNL     1      -1.952   2.069  -9.463  1.00  0.00     0.134 A 
ATOM     84  F   UNL     1      -1.872   3.744  -6.245  1.00  0.00    -0.206 F 
ATOM     85  C   UNL     1      -3.225   1.979  -6.998  1.00  0.00     0.040 A 
ATOM     86  C   UNL     1      -2.973   1.143  -9.242  1.00  0.00     0.040 A 
ATOM     87  F   UNL     1      -1.361   2.084 -10.666  1.00  0.00    -0.206 F 
ATOM     88  C   UNL     1      -3.607   1.090  -8.002  1.00  0.00     0.006 A 
ENDBRANCH  60  81
BRANCH  72  89
ATOM     89  C   UNL     1      -0.690   8.670 -12.422  1.00  0.00     0.057 A 
ATOM     90  C   UNL     1      -0.458   8.631 -13.802  1.00  0.00     0.134 A 
ATOM     91  C   UNL     1      -1.712   9.502 -11.953  1.00  0.00     0.134 A 
ATOM     92  F   UNL     1       0.517   7.861 -14.308  1.00  0.00    -0.206 F 
ATOM     93  C   UNL     1      -1.196   9.419 -14.684  1.00  0.00     0.040 A 
ATOM     94  C   UNL     1      -2.473  10.277 -12.827  1.00  0.00     0.040 A 
ATOM     95  F   UNL     1      -1.985   9.571 -10.641  1.00  0.00    -0.206 F 
ATOM     96  C   UNL     1      -2.206  10.247 -14.196  1.00  0.00     0.006 A 
ENDBRANCH  72  89
ENDBRANCH  46  47
ENDBRANCH  38  41
ENDBRANCH  36  37
ENDBRANCH  35  36
ENDBRANCH  34  35
ENDBRANCH   3  34
TORSDOF 16
