REMARK SMILES O=C(NCCCNC(=O)[C@@H](NC(=O)c1cscn1)c1ccccc1C(F)(F)F)c1ccc(-c2c3nc(c(-c4c(F)cccc4F)c4ccc([nH]4)c(-c4c(F)cccc4F)c4nc(c(-c5c(F)cccc5F)c5ccc2[nH]5)C=C4)C=C3)cc1
REMARK SMILES IDX 5 1 4 2 3 3 1 4 2 5 29 7 30 8 82 9 31 10 81 11 32 12 33 13
REMARK SMILES IDX 34 14 75 15 35 16 80 17 74 18 76 19 36 20 79 21 73 22 72 23
REMARK SMILES IDX 37 25 63 26 46 27 62 28 47 29 50 30 61 31 77 32 48 33 49 34
REMARK SMILES IDX 60 36 78 37 51 38 38 39 39 40 44 41 40 42 41 43 43 44 45 45
REMARK SMILES IDX 42 46 64 47 65 48 70 49 66 50 67 51 69 52 71 53 68 54 52 55
REMARK SMILES IDX 53 56 58 57 54 58 55 59 57 60 59 61 56 62 6 63 7 64 8 65
REMARK SMILES IDX 9 67 10 68 11 69 12 70 13 72 14 73 15 74 18 75 16 76 17 77
REMARK SMILES IDX 19 78 20 79 24 80 21 81 23 82 22 83 25 84 26 85 27 86 28 87
REMARK H PARENT 3 6 76 24 50 35 7 66 11 71
REMARK Flexibility Score: inf
ROOT
ATOM      1  C   UNL     1       4.795   1.874  -1.713  1.00  0.00     0.042 C 
ENDROOT
BRANCH   1   2
ATOM      2  C   UNL     1       4.337   1.585  -0.297  1.00  0.00     0.118 C 
BRANCH   2   3
ATOM      3  N   UNL     1       2.917   1.257  -0.215  1.00  0.00    -0.352 N 
ATOM      4  O   UNL     1       1.072  -0.006   0.052  1.00  0.00    -0.269 OA
ATOM      5  C   UNL     1       2.285   0.107   0.209  1.00  0.00     0.251 C 
ATOM      6  H   UNL     1       2.312   1.974  -0.511  1.00  0.00     0.163 HD
BRANCH   5   7
ATOM      7  C   UNL     1       3.051  -0.999   0.834  1.00  0.00     0.039 A 
ATOM      8  C   UNL     1       4.151  -0.734   1.643  1.00  0.00     0.014 A 
ATOM      9  C   UNL     1       2.655  -2.328   0.634  1.00  0.00     0.014 A 
ATOM     10  C   UNL     1       4.972  -1.768   2.060  1.00  0.00     0.010 A 
ATOM     11  C   UNL     1       3.397  -3.378   1.197  1.00  0.00     0.010 A 
ATOM     12  C   UNL     1       4.582  -3.107   1.892  1.00  0.00    -0.014 A 
BRANCH  12  13
ATOM     13  C   UNL     1       5.404  -4.152   2.560  1.00  0.00     0.031 A 
ATOM     14  C   UNL     1       6.100  -5.236   1.787  1.00  0.00     0.074 A 
ATOM     15  C   UNL     1       5.595  -4.040   3.892  1.00  0.00     0.049 A 
ATOM     16  N   UNL     1       6.926  -6.153   2.228  1.00  0.00    -0.248 NA
ATOM     17  C   UNL     1       5.834  -5.317   0.343  1.00  0.00     0.031 C 
ATOM     18  C   UNL     1       4.947  -3.043   4.752  1.00  0.00     0.029 A 
ATOM     19  N   UNL     1       6.425  -4.717   4.748  1.00  0.00    -0.354 N 
ATOM     20  C   UNL     1       7.262  -6.929   1.126  1.00  0.00     0.074 A 
ATOM     21  C   UNL     1       6.534  -6.390  -0.003  1.00  0.00     0.031 C 
ATOM     22  C   UNL     1       5.479  -3.102   5.978  1.00  0.00     0.029 A 
ATOM     23  C   UNL     1       6.433  -4.201   6.022  1.00  0.00     0.049 A 
ATOM     24  H   UNL     1       6.963  -5.496   4.476  1.00  0.00     0.167 HD
ATOM     25  C   UNL     1       8.104  -7.989   1.066  1.00  0.00     0.037 A 
ATOM     26  C   UNL     1       7.119  -4.576   7.117  1.00  0.00     0.037 A 
ATOM     27  C   UNL     1       8.839  -8.508   2.194  1.00  0.00     0.049 A 
ATOM     28  C   UNL     1       8.052  -5.743   7.012  1.00  0.00     0.074 A 
ATOM     29  C   UNL     1       9.716  -9.578   2.235  1.00  0.00     0.029 A 
ATOM     30  N   UNL     1       8.789  -7.986   3.479  1.00  0.00    -0.354 N 
ATOM     31  N   UNL     1       8.352  -6.466   5.961  1.00  0.00    -0.248 NA
ATOM     32  C   UNL     1       8.731  -6.156   8.246  1.00  0.00     0.031 C 
ATOM     33  C   UNL     1      10.171  -9.724   3.550  1.00  0.00     0.029 A 
ATOM     34  C   UNL     1       9.611  -8.719   4.321  1.00  0.00     0.049 A 
ATOM     35  H   UNL     1       8.248  -7.210   3.752  1.00  0.00     0.167 HD
ATOM     36  C   UNL     1       9.247  -7.426   6.407  1.00  0.00     0.074 A 
ATOM     37  C   UNL     1       9.476  -7.162   7.814  1.00  0.00     0.031 C 
ATOM     38  C   UNL     1       9.814  -8.446   5.720  1.00  0.00     0.037 A 
BRANCH  25  39
ATOM     39  C   UNL     1       8.274  -8.674  -0.259  1.00  0.00     0.057 A 
ATOM     40  C   UNL     1       9.012  -8.097  -1.300  1.00  0.00     0.134 A 
ATOM     41  C   UNL     1       7.748  -9.955  -0.475  1.00  0.00     0.134 A 
ATOM     42  F   UNL     1       9.534  -6.869  -1.163  1.00  0.00    -0.206 F 
ATOM     43  C   UNL     1       9.212  -8.764  -2.511  1.00  0.00     0.040 A 
ATOM     44  C   UNL     1       7.960 -10.641  -1.673  1.00  0.00     0.040 A 
ATOM     45  F   UNL     1       7.037 -10.569   0.483  1.00  0.00    -0.206 F 
ATOM     46  C   UNL     1       8.692 -10.044  -2.696  1.00  0.00     0.006 A 
ENDBRANCH  25  39
BRANCH  26  47
ATOM     47  C   UNL     1       6.918  -3.860   8.402  1.00  0.00     0.057 A 
ATOM     48  C   UNL     1       7.939  -3.102   8.984  1.00  0.00     0.134 A 
ATOM     49  C   UNL     1       5.691  -3.914   9.076  1.00  0.00     0.134 A 
ATOM     50  F   UNL     1       9.142  -3.024   8.397  1.00  0.00    -0.206 F 
ATOM     51  C   UNL     1       7.753  -2.437  10.198  1.00  0.00     0.040 A 
ATOM     52  C   UNL     1       5.480  -3.227  10.271  1.00  0.00     0.040 A 
ATOM     53  F   UNL     1       4.668  -4.615   8.566  1.00  0.00    -0.206 F 
ATOM     54  C   UNL     1       6.517  -2.493  10.840  1.00  0.00     0.006 A 
ENDBRANCH  26  47
BRANCH  38  55
ATOM     55  C   UNL     1      10.736  -9.339   6.493  1.00  0.00     0.057 A 
ATOM     56  C   UNL     1      10.250 -10.250   7.441  1.00  0.00     0.134 A 
ATOM     57  C   UNL     1      12.120  -9.282   6.297  1.00  0.00     0.134 A 
ATOM     58  F   UNL     1       8.934 -10.338   7.687  1.00  0.00    -0.206 F 
ATOM     59  C   UNL     1      11.112 -11.049   8.192  1.00  0.00     0.040 A 
ATOM     60  C   UNL     1      12.991 -10.094   7.024  1.00  0.00     0.040 A 
ATOM     61  F   UNL     1      12.648  -8.435   5.401  1.00  0.00    -0.206 F 
ATOM     62  C   UNL     1      12.488 -10.974   7.981  1.00  0.00     0.006 A 
ENDBRANCH  38  55
ENDBRANCH  12  13
ENDBRANCH   5   7
ENDBRANCH   2   3
ENDBRANCH   1   2
BRANCH   1  63
ATOM     63  C   UNL     1       4.364   3.245  -2.215  1.00  0.00     0.117 C 
BRANCH  63  64
ATOM     64  N   UNL     1       5.516   4.049  -2.585  1.00  0.00    -0.354 N 
ATOM     65  C   UNL     1       6.199   4.241  -3.744  1.00  0.00     0.247 C 
ATOM     66  H   UNL     1       5.881   4.568  -1.833  1.00  0.00     0.163 HD
ATOM     67  O   UNL     1       7.267   4.859  -3.616  1.00  0.00    -0.272 OA
BRANCH  65  68
ATOM     68  C   UNL     1       5.832   3.645  -5.134  1.00  0.00     0.203 C 
BRANCH  68  69
ATOM     69  N   UNL     1       6.736   2.543  -5.437  1.00  0.00    -0.335 N 
ATOM     70  C   UNL     1       6.976   1.870  -6.611  1.00  0.00     0.271 C 
ATOM     71  H   UNL     1       7.266   2.227  -4.670  1.00  0.00     0.165 HD
ATOM     72  O   UNL     1       7.881   1.044  -6.636  1.00  0.00    -0.267 OA
BRANCH  70  73
ATOM     73  C   UNL     1       6.075   2.065  -7.751  1.00  0.00     0.139 A 
ATOM     74  C   UNL     1       5.665   1.010  -8.551  1.00  0.00     0.100 A 
ATOM     75  N   UNL     1       5.517   3.294  -8.097  1.00  0.00    -0.240 NA
ATOM     76  S   UNL     1       4.480   1.532  -9.671  1.00  0.00    -0.130 S 
ATOM     77  C   UNL     1       4.652   3.127  -9.073  1.00  0.00     0.176 A 
ENDBRANCH  70  73
ENDBRANCH  68  69
BRANCH  68  78
ATOM     78  C   UNL     1       4.345   3.483  -5.426  1.00  0.00    -0.004 A 
ATOM     79  C   UNL     1       3.678   4.693  -5.756  1.00  0.00     0.007 A 
ATOM     80  C   UNL     1       3.596   2.281  -5.451  1.00  0.00     0.061 A 
ATOM     81  C   UNL     1       2.342   4.721  -6.146  1.00  0.00     0.000 A 
ATOM     82  C   UNL     1       2.242   2.338  -5.862  1.00  0.00     0.013 A 
ATOM     83  C   UNL     1       1.625   3.538  -6.210  1.00  0.00     0.001 A 
BRANCH  80  84
ATOM     84  C   UNL     1       4.096   0.902  -5.066  1.00  0.00     0.416 C 
ATOM     85  F   UNL     1       3.198   0.254  -4.265  1.00  0.00    -0.166 F 
ATOM     86  F   UNL     1       4.276   0.083  -6.136  1.00  0.00    -0.166 F 
ATOM     87  F   UNL     1       5.259   0.874  -4.367  1.00  0.00    -0.166 F 
ENDBRANCH  80  84
ENDBRANCH  68  78
ENDBRANCH  65  68
ENDBRANCH  63  64
ENDBRANCH   1  63
TORSDOF 14
