REMARK SMILES O=C(C[C@H]1C[N@H+](Cc2ccncc2)CCO1)NCCCNC(=O)c1ccc(-c2c3nc(c(-c4c(F)cccc4F)c4ccc([nH]4)c(-c4c(F)cccc4F)c4nc(c(-c5c(F)cccc5F)c5ccc2[nH]5)C=C4)C=C3)cc1
REMARK SMILES IDX 18 1 17 2 1 3 2 4 3 6 4 7 5 8 16 9 6 10 15 11 14 12 7 14
REMARK SMILES IDX 8 15 9 16 13 17 10 18 12 19 11 20 19 21 20 22 21 23 22 24
REMARK SMILES IDX 23 26 24 27 25 28 77 29 26 30 76 31 27 32 28 33 29 34 70 35
REMARK SMILES IDX 30 36 75 37 69 38 71 39 31 40 74 41 68 42 67 43 32 45 58 46
REMARK SMILES IDX 41 47 57 48 42 49 45 50 56 51 72 52 43 53 44 54 55 56 73 57
REMARK SMILES IDX 46 58 33 59 34 60 39 61 35 62 36 63 38 64 40 65 37 66 59 67
REMARK SMILES IDX 60 68 65 69 61 70 62 71 64 72 66 73 63 74 47 75 48 76 53 77
REMARK SMILES IDX 49 78 50 79 52 80 54 81 51 82
REMARK H PARENT 17 5 6 13 21 25 71 44 45 55
REMARK Flexibility Score: inf
ROOT
ATOM      1  C   UNL     1       5.747   5.171   2.427  1.00  0.00     0.117 C 
ENDROOT
BRANCH   1   2
ATOM      2  N   UNL     1       4.781   4.612   1.512  1.00  0.00    -0.356 N 
ATOM      3  O   UNL     1       6.253   3.671   0.038  1.00  0.00    -0.275 OA
ATOM      4  C   UNL     1       5.128   3.734   0.520  1.00  0.00     0.222 C 
ATOM      5  H   UNL     1       3.836   4.872   1.604  1.00  0.00     0.163 HD
BRANCH   4   6
ATOM      6  C   UNL     1       3.970   2.926  -0.013  1.00  0.00     0.138 C 
BRANCH   6   7
ATOM      7  C   UNL     1       3.241   2.021   0.999  1.00  0.00     0.182 C 
ATOM      8  C   UNL     1       4.101   0.848   1.495  1.00  0.00     0.295 C 
ATOM      9  O   UNL     1       2.530   2.725   2.040  1.00  0.00    -0.366 OA
ATOM     10  N   UNL     1       4.911   1.287   2.629  1.00  0.00    -0.327 N 
ATOM     11  C   UNL     1       3.110   2.735   3.358  1.00  0.00     0.222 C 
ATOM     12  C   UNL     1       4.005   1.546   3.740  1.00  0.00     0.291 C 
ATOM     13  H   UNL     1       5.392   2.159   2.409  1.00  0.00     0.348 HD
BRANCH  10  14
ATOM     14  C   UNL     1       6.050   0.425   2.911  1.00  0.00     0.299 C 
BRANCH  14  15
ATOM     15  C   UNL     1       7.231   0.924   2.105  1.00  0.00     0.009 A 
ATOM     16  C   UNL     1       7.978   2.016   2.562  1.00  0.00     0.029 A 
ATOM     17  C   UNL     1       7.505   0.432   0.826  1.00  0.00     0.029 A 
ATOM     18  C   UNL     1       8.942   2.566   1.730  1.00  0.00     0.111 A 
ATOM     19  C   UNL     1       8.491   1.052   0.070  1.00  0.00     0.111 A 
ATOM     20  N   UNL     1       9.234   2.093   0.502  1.00  0.00    -0.265 NA
ENDBRANCH  14  15
ENDBRANCH  10  14
ENDBRANCH   6   7
ENDBRANCH   4   6
ENDBRANCH   1   2
BRANCH   1  21
ATOM     21  C   UNL     1       6.609   6.276   1.853  1.00  0.00     0.042 C 
BRANCH  21  22
ATOM     22  C   UNL     1       5.812   7.387   1.193  1.00  0.00     0.118 C 
BRANCH  22  23
ATOM     23  N   UNL     1       4.792   7.970   2.063  1.00  0.00    -0.352 N 
ATOM     24  C   UNL     1       4.550   9.289   2.354  1.00  0.00     0.251 C 
ATOM     25  H   UNL     1       4.194   7.324   2.502  1.00  0.00     0.163 HD
ATOM     26  O   UNL     1       3.718   9.605   3.199  1.00  0.00    -0.269 OA
BRANCH  24  27
ATOM     27  C   UNL     1       5.334  10.320   1.654  1.00  0.00     0.039 A 
ATOM     28  C   UNL     1       5.977  11.312   2.396  1.00  0.00     0.014 A 
ATOM     29  C   UNL     1       5.493  10.245   0.269  1.00  0.00     0.014 A 
ATOM     30  C   UNL     1       6.858  12.181   1.753  1.00  0.00     0.010 A 
ATOM     31  C   UNL     1       6.442  11.042  -0.350  1.00  0.00     0.010 A 
ATOM     32  C   UNL     1       7.129  12.021   0.384  1.00  0.00    -0.014 A 
BRANCH  32  33
ATOM     33  C   UNL     1       8.110  12.877  -0.322  1.00  0.00     0.031 A 
ATOM     34  C   UNL     1       7.644  13.746  -1.455  1.00  0.00     0.074 A 
ATOM     35  C   UNL     1       9.418  12.795  -0.014  1.00  0.00     0.049 A 
ATOM     36  N   UNL     1       8.346  14.465  -2.291  1.00  0.00    -0.248 NA
ATOM     37  C   UNL     1       6.193  13.773  -1.710  1.00  0.00     0.031 C 
ATOM     38  C   UNL     1       9.997  11.935   1.021  1.00  0.00     0.029 A 
ATOM     39  N   UNL     1      10.503  13.434  -0.557  1.00  0.00    -0.354 N 
ATOM     40  C   UNL     1       7.429  14.996  -3.188  1.00  0.00     0.074 A 
ATOM     41  C   UNL     1       6.129  14.476  -2.830  1.00  0.00     0.031 C 
ATOM     42  C   UNL     1      11.326  12.120   1.054  1.00  0.00     0.029 A 
ATOM     43  C   UNL     1      11.697  13.082   0.022  1.00  0.00     0.049 A 
ATOM     44  H   UNL     1      10.432  14.085  -1.293  1.00  0.00     0.167 HD
ATOM     45  C   UNL     1       7.647  15.865  -4.202  1.00  0.00     0.037 A 
ATOM     46  C   UNL     1      12.949  13.490  -0.256  1.00  0.00     0.037 A 
ATOM     47  C   UNL     1       8.934  16.421  -4.516  1.00  0.00     0.049 A 
ATOM     48  C   UNL     1      13.162  14.486  -1.361  1.00  0.00     0.074 A 
ATOM     49  C   UNL     1       9.255  17.374  -5.465  1.00  0.00     0.029 A 
ATOM     50  N   UNL     1      10.115  16.076  -3.875  1.00  0.00    -0.354 N 
ATOM     51  N   UNL     1      12.278  15.037  -2.158  1.00  0.00    -0.248 NA
ATOM     52  C   UNL     1      14.544  14.921  -1.604  1.00  0.00     0.031 C 
ATOM     53  C   UNL     1      10.637  17.587  -5.416  1.00  0.00     0.029 A 
ATOM     54  C   UNL     1      11.170  16.790  -4.416  1.00  0.00     0.049 A 
ATOM     55  H   UNL     1      10.191  15.421  -3.144  1.00  0.00     0.167 HD
ATOM     56  C   UNL     1      12.992  15.895  -2.983  1.00  0.00     0.074 A 
ATOM     57  C   UNL     1      14.380  15.804  -2.579  1.00  0.00     0.031 C 
ATOM     58  C   UNL     1      12.541  16.684  -3.988  1.00  0.00     0.037 A 
BRANCH  45  59
ATOM     59  C   UNL     1       6.462  16.271  -5.025  1.00  0.00     0.057 A 
ATOM     60  C   UNL     1       5.454  17.097  -4.509  1.00  0.00     0.134 A 
ATOM     61  C   UNL     1       6.325  15.835  -6.348  1.00  0.00     0.134 A 
ATOM     62  F   UNL     1       5.517  17.535  -3.242  1.00  0.00    -0.206 F 
ATOM     63  C   UNL     1       4.337  17.449  -5.268  1.00  0.00     0.040 A 
ATOM     64  C   UNL     1       5.225  16.202  -7.127  1.00  0.00     0.040 A 
ATOM     65  F   UNL     1       7.254  15.043  -6.905  1.00  0.00    -0.206 F 
ATOM     66  C   UNL     1       4.223  17.004  -6.584  1.00  0.00     0.006 A 
ENDBRANCH  45  59
BRANCH  46  67
ATOM     67  C   UNL     1      14.092  12.984   0.543  1.00  0.00     0.057 A 
ATOM     68  C   UNL     1      14.747  13.813   1.462  1.00  0.00     0.134 A 
ATOM     69  C   UNL     1      14.558  11.671   0.412  1.00  0.00     0.134 A 
ATOM     70  F   UNL     1      14.356  15.087   1.619  1.00  0.00    -0.206 F 
ATOM     71  C   UNL     1      15.834  13.361   2.211  1.00  0.00     0.040 A 
ATOM     72  C   UNL     1      15.632  11.199   1.170  1.00  0.00     0.040 A 
ATOM     73  F   UNL     1      13.969  10.826  -0.446  1.00  0.00    -0.206 F 
ATOM     74  C   UNL     1      16.277  12.048   2.068  1.00  0.00     0.006 A 
ENDBRANCH  46  67
BRANCH  58  75
ATOM     75  C   UNL     1      13.556  17.525  -4.701  1.00  0.00     0.057 A 
ATOM     76  C   UNL     1      14.449  16.970  -5.625  1.00  0.00     0.134 A 
ATOM     77  C   UNL     1      13.606  18.909  -4.495  1.00  0.00     0.134 A 
ATOM     78  F   UNL     1      14.457  15.649  -5.854  1.00  0.00    -0.206 F 
ATOM     79  C   UNL     1      15.370  17.763  -6.310  1.00  0.00     0.040 A 
ATOM     80  C   UNL     1      14.507  19.715  -5.190  1.00  0.00     0.040 A 
ATOM     81  F   UNL     1      12.770  19.500  -3.627  1.00  0.00    -0.206 F 
ATOM     82  C   UNL     1      15.395  19.141  -6.098  1.00  0.00     0.006 A 
ENDBRANCH  58  75
ENDBRANCH  32  33
ENDBRANCH  24  27
ENDBRANCH  22  23
ENDBRANCH  21  22
ENDBRANCH   1  21
TORSDOF 13
