REMARK SMILES COc1cc2cc(C(=O)NCCCNC(=O)c3ccc(-c4c5nc(c(-c6c(F)cccc6F)c6ccc([nH]6)c(-c6c(F)cccc6F)c6nc(c(-c7c(F)cccc7F)c7ccc4[nH]7)C=C6)C=C5)cc3)n(Cc3ccccc3)c2c(OC)c1OC
REMARK SMILES IDX 12 1 11 2 10 3 8 4 9 5 7 7 3 8 4 9 83 10 5 11 80 12 6 13
REMARK SMILES IDX 79 14 71 15 2 16 1 17 84 18 85 19 81 20 82 21 72 22 73 23
REMARK SMILES IDX 74 24 78 25 75 26 77 27 76 28 13 29 14 30 15 31 16 33 17 34
REMARK SMILES IDX 18 35 70 36 19 37 69 38 20 39 21 40 22 41 63 42 23 43 68 44
REMARK SMILES IDX 62 45 64 46 24 47 67 48 61 49 60 50 25 52 51 53 34 54 50 55
REMARK SMILES IDX 35 56 38 57 49 58 65 59 36 60 37 61 48 63 66 64 39 65 26 66
REMARK SMILES IDX 27 67 32 68 28 69 29 70 31 71 33 72 30 73 52 74 53 75 58 76
REMARK SMILES IDX 54 77 55 78 57 79 59 80 56 81 40 82 41 83 46 84 42 85 43 86
REMARK SMILES IDX 45 87 47 88 44 89
REMARK H PARENT 10 6 14 32 64 51 38 62
REMARK Flexibility Score: inf
ROOT
ATOM      1  C   UNL     1       2.746  -5.648  -8.506  1.00  0.00     0.042 C 
ENDROOT
BRANCH   1   2
ATOM      2  C   UNL     1       1.691  -4.570  -8.233  1.00  0.00     0.118 C 
BRANCH   2   3
ATOM      3  N   UNL     1       0.486  -5.119  -7.645  1.00  0.00    -0.351 N 
ATOM      4  C   UNL     1      -0.159  -4.994  -6.456  1.00  0.00     0.267 C 
ATOM      5  O   UNL     1      -1.266  -5.556  -6.426  1.00  0.00    -0.268 OA
ATOM      6  H   UNL     1       0.021  -5.734  -8.258  1.00  0.00     0.163 HD
BRANCH   4   7
ATOM      7  C   UNL     1       0.314  -4.240  -5.312  1.00  0.00     0.108 A 
ATOM      8  C   UNL     1       0.767  -1.640  -1.490  1.00  0.00     0.165 A 
ATOM      9  C   UNL     1      -0.220  -2.288  -2.234  1.00  0.00     0.061 A 
ATOM     10  C   UNL     1       2.118  -1.685  -1.873  1.00  0.00     0.205 A 
ATOM     11  C   UNL     1       0.155  -3.005  -3.381  1.00  0.00     0.008 A 
ATOM     12  C   UNL     1       2.513  -2.391  -3.033  1.00  0.00     0.189 A 
ATOM     13  C   UNL     1      -0.567  -3.677  -4.389  1.00  0.00     0.042 A 
ATOM     14  C   UNL     1       1.499  -3.112  -3.719  1.00  0.00     0.096 A 
ATOM     15  N   UNL     1       1.566  -4.087  -4.731  1.00  0.00    -0.329 N 
BRANCH   8  16
ATOM     16  O   UNL     1       0.349  -1.014  -0.341  1.00  0.00    -0.493 OA
ATOM     17  C   UNL     1       0.342   0.406  -0.478  1.00  0.00     0.278 C 
ENDBRANCH   8  16
BRANCH  10  18
ATOM     18  O   UNL     1       3.053  -0.965  -1.165  1.00  0.00    -0.490 OA
ATOM     19  C   UNL     1       3.198  -1.414   0.184  1.00  0.00     0.278 C 
ENDBRANCH  10  18
BRANCH  12  20
ATOM     20  O   UNL     1       3.757  -2.416  -3.600  1.00  0.00    -0.491 OA
ATOM     21  C   UNL     1       4.884  -2.073  -2.811  1.00  0.00     0.278 C 
ENDBRANCH  12  20
BRANCH  15  22
ATOM     22  C   UNL     1       2.803  -4.836  -4.974  1.00  0.00     0.158 C 
BRANCH  22  23
ATOM     23  C   UNL     1       2.788  -6.351  -5.015  1.00  0.00    -0.028 A 
ATOM     24  C   UNL     1       1.663  -7.173  -4.904  1.00  0.00     0.005 A 
ATOM     25  C   UNL     1       4.041  -6.978  -5.199  1.00  0.00     0.005 A 
ATOM     26  C   UNL     1       1.770  -8.558  -5.070  1.00  0.00     0.000 A 
ATOM     27  C   UNL     1       4.153  -8.361  -5.339  1.00  0.00     0.000 A 
ATOM     28  C   UNL     1       3.010  -9.151  -5.295  1.00  0.00     0.000 A 
ENDBRANCH  22  23
ENDBRANCH  15  22
ENDBRANCH   4   7
ENDBRANCH   2   3
ENDBRANCH   1   2
BRANCH   1  29
ATOM     29  C   UNL     1       2.262  -6.847  -9.325  1.00  0.00     0.118 C 
BRANCH  29  30
ATOM     30  N   UNL     1       2.435  -6.689 -10.753  1.00  0.00    -0.352 N 
ATOM     31  C   UNL     1       3.526  -6.726 -11.582  1.00  0.00     0.251 C 
ATOM     32  H   UNL     1       1.591  -6.518 -11.230  1.00  0.00     0.163 HD
ATOM     33  O   UNL     1       3.300  -6.612 -12.787  1.00  0.00    -0.269 OA
BRANCH  31  34
ATOM     34  C   UNL     1       4.946  -6.846 -11.127  1.00  0.00     0.039 A 
ATOM     35  C   UNL     1       5.380  -7.314  -9.885  1.00  0.00     0.014 A 
ATOM     36  C   UNL     1       5.923  -6.468 -12.065  1.00  0.00     0.014 A 
ATOM     37  C   UNL     1       6.744  -7.342  -9.564  1.00  0.00     0.010 A 
ATOM     38  C   UNL     1       7.284  -6.523 -11.760  1.00  0.00     0.010 A 
ATOM     39  C   UNL     1       7.704  -6.929 -10.492  1.00  0.00    -0.014 A 
BRANCH  39  40
ATOM     40  C   UNL     1       9.125  -6.966 -10.111  1.00  0.00     0.031 A 
ATOM     41  C   UNL     1       9.759  -8.286  -9.803  1.00  0.00     0.074 A 
ATOM     42  C   UNL     1       9.953  -5.904 -10.203  1.00  0.00     0.049 A 
ATOM     43  N   UNL     1      10.468  -8.615  -8.765  1.00  0.00    -0.248 NA
ATOM     44  C   UNL     1       9.633  -9.356 -10.801  1.00  0.00     0.031 C 
ATOM     45  C   UNL     1       9.667  -4.591 -10.783  1.00  0.00     0.029 A 
ATOM     46  N   UNL     1      11.285  -5.828  -9.889  1.00  0.00    -0.354 N 
ATOM     47  C   UNL     1      11.002  -9.874  -9.037  1.00  0.00     0.074 A 
ATOM     48  C   UNL     1      10.418 -10.304 -10.284  1.00  0.00     0.031 C 
ATOM     49  C   UNL     1      10.830  -3.932 -10.975  1.00  0.00     0.029 A 
ATOM     50  C   UNL     1      11.921  -4.719 -10.421  1.00  0.00     0.049 A 
ATOM     51  H   UNL     1      11.747  -6.499  -9.337  1.00  0.00     0.167 HD
ATOM     52  C   UNL     1      11.994 -10.445  -8.298  1.00  0.00     0.037 A 
ATOM     53  C   UNL     1      13.249  -4.463 -10.459  1.00  0.00     0.037 A 
ATOM     54  C   UNL     1      12.181  -9.824  -7.018  1.00  0.00     0.049 A 
ATOM     55  C   UNL     1      13.938  -5.313  -9.463  1.00  0.00     0.074 A 
ATOM     56  C   UNL     1      11.387  -9.587  -5.913  1.00  0.00     0.029 A 
ATOM     57  N   UNL     1      13.342  -9.132  -6.781  1.00  0.00    -0.354 N 
ATOM     58  N   UNL     1      13.929  -5.113  -8.177  1.00  0.00    -0.248 NA
ATOM     59  C   UNL     1      14.458  -6.604  -9.891  1.00  0.00     0.031 C 
ATOM     60  C   UNL     1      11.914  -8.406  -5.312  1.00  0.00     0.029 A 
ATOM     61  C   UNL     1      12.976  -7.992  -6.114  1.00  0.00     0.049 A 
ATOM     62  H   UNL     1      14.254  -9.400  -7.038  1.00  0.00     0.167 HD
ATOM     63  C   UNL     1      14.061  -6.376  -7.624  1.00  0.00     0.074 A 
ATOM     64  C   UNL     1      14.534  -7.220  -8.711  1.00  0.00     0.031 C 
ATOM     65  C   UNL     1      13.493  -6.682  -6.422  1.00  0.00     0.037 A 
BRANCH  52  66
ATOM     66  C   UNL     1      12.977 -11.454  -8.826  1.00  0.00     0.057 A 
ATOM     67  C   UNL     1      13.453 -11.435 -10.150  1.00  0.00     0.134 A 
ATOM     68  C   UNL     1      13.670 -12.302  -7.944  1.00  0.00     0.134 A 
ATOM     69  F   UNL     1      12.952 -10.586 -11.060  1.00  0.00    -0.206 F 
ATOM     70  C   UNL     1      14.527 -12.224 -10.576  1.00  0.00     0.040 A 
ATOM     71  C   UNL     1      14.773 -13.065  -8.348  1.00  0.00     0.040 A 
ATOM     72  F   UNL     1      13.336 -12.364  -6.646  1.00  0.00    -0.206 F 
ATOM     73  C   UNL     1      15.203 -13.029  -9.670  1.00  0.00     0.006 A 
ENDBRANCH  52  66
BRANCH  53  74
ATOM     74  C   UNL     1      13.994  -3.582 -11.381  1.00  0.00     0.057 A 
ATOM     75  C   UNL     1      13.602  -3.424 -12.722  1.00  0.00     0.134 A 
ATOM     76  C   UNL     1      15.230  -3.025 -11.029  1.00  0.00     0.134 A 
ATOM     77  F   UNL     1      12.489  -4.007 -13.190  1.00  0.00    -0.206 F 
ATOM     78  C   UNL     1      14.375  -2.722 -13.650  1.00  0.00     0.040 A 
ATOM     79  C   UNL     1      16.022  -2.333 -11.952  1.00  0.00     0.040 A 
ATOM     80  F   UNL     1      15.720  -3.174  -9.790  1.00  0.00    -0.206 F 
ATOM     81  C   UNL     1      15.594  -2.177 -13.267  1.00  0.00     0.006 A 
ENDBRANCH  53  74
BRANCH  65  82
ATOM     82  C   UNL     1      13.053  -5.549  -5.547  1.00  0.00     0.057 A 
ATOM     83  C   UNL     1      13.577  -5.440  -4.255  1.00  0.00     0.134 A 
ATOM     84  C   UNL     1      12.039  -4.648  -5.905  1.00  0.00     0.134 A 
ATOM     85  F   UNL     1      14.503  -6.311  -3.823  1.00  0.00    -0.206 F 
ATOM     86  C   UNL     1      13.135  -4.459  -3.364  1.00  0.00     0.040 A 
ATOM     87  C   UNL     1      11.611  -3.643  -5.035  1.00  0.00     0.040 A 
ATOM     88  F   UNL     1      11.404  -4.753  -7.081  1.00  0.00    -0.206 F 
ATOM     89  C   UNL     1      12.159  -3.547  -3.758  1.00  0.00     0.006 A 
ENDBRANCH  65  82
ENDBRANCH  39  40
ENDBRANCH  31  34
ENDBRANCH  29  30
ENDBRANCH   1  29
TORSDOF 15
