REMARK SMILES C[C@H]1[C@H](C(=O)NCCCNC(=O)c2ccc(-c3c4nc(c(-c5c(F)cccc5F)c5ccc([nH]5)c(-c5c(F)cccc5F)c5nc(c(-c6c(F)cccc6F)c6ccc3[nH]6)C=C5)C=C4)cc2)CC[N@@H+]1CC(=O)N1CCCC1
REMARK SMILES IDX 8 1 7 2 6 3 4 4 5 5 3 7 1 8 2 9 69 10 67 11 68 12 70 14
REMARK SMILES IDX 71 15 72 16 73 17 74 18 77 19 75 20 76 21 9 22 10 23 11 24
REMARK SMILES IDX 12 26 13 27 14 28 66 29 15 30 65 31 16 32 17 33 18 34 59 35
REMARK SMILES IDX 19 36 64 37 58 38 60 39 20 40 63 41 57 42 56 43 21 45 47 46
REMARK SMILES IDX 30 47 46 48 31 49 34 50 45 51 61 52 32 53 33 54 44 56 62 57
REMARK SMILES IDX 35 58 22 59 23 60 28 61 24 62 25 63 27 64 29 65 26 66 48 67
REMARK SMILES IDX 49 68 54 69 50 70 51 71 53 72 55 73 52 74 36 75 37 76 42 77
REMARK SMILES IDX 38 78 39 79 41 80 43 81 40 82
REMARK H PARENT 6 6 69 13 10 25 60 44 34 55
REMARK Flexibility Score: inf
ROOT
ATOM      1  C   UNL     1      -2.314   0.079   4.351  1.00  0.00     0.042 C 
ENDROOT
BRANCH   1   2
ATOM      2  C   UNL     1      -2.661   0.718   2.967  1.00  0.00     0.117 C 
BRANCH   2   3
ATOM      3  N   UNL     1      -1.767   1.706   2.357  1.00  0.00    -0.356 N 
ATOM      4  C   UNL     1      -1.313   2.008   1.109  1.00  0.00     0.229 C 
ATOM      5  O   UNL     1      -0.876   3.173   1.021  1.00  0.00    -0.275 OA
ATOM      6  H   UNL     1      -1.394   2.318   3.032  1.00  0.00     0.163 HD
BRANCH   4   7
ATOM      7  C   UNL     1      -1.160   1.136  -0.159  1.00  0.00     0.142 C 
ATOM      8  C   UNL     1       0.919   0.970  -1.731  1.00  0.00     0.076 C 
ATOM      9  C   UNL     1       0.293   0.663  -0.366  1.00  0.00     0.194 C 
ATOM     10  N   UNL     1       0.298  -0.803  -0.259  1.00  0.00    -0.324 N 
ATOM     11  C   UNL     1      -2.006  -0.090  -0.387  1.00  0.00     0.081 C 
ATOM     12  C   UNL     1      -1.084  -1.284  -0.180  1.00  0.00     0.263 C 
ATOM     13  H   UNL     1       0.709  -1.196  -1.106  1.00  0.00     0.348 HD
BRANCH  10  14
ATOM     14  C   UNL     1       1.200  -1.317   0.797  1.00  0.00     0.364 C 
BRANCH  14  15
ATOM     15  C   UNL     1       0.905  -0.655   2.151  1.00  0.00     0.277 C 
ATOM     16  O   UNL     1      -0.064  -1.007   2.786  1.00  0.00    -0.268 OA
ATOM     17  N   UNL     1       1.686   0.424   2.533  1.00  0.00    -0.338 N 
ATOM     18  C   UNL     1       3.035   0.748   2.121  1.00  0.00     0.119 C 
ATOM     19  C   UNL     1       1.168   1.454   3.397  1.00  0.00     0.119 C 
ATOM     20  C   UNL     1       3.469   1.893   3.042  1.00  0.00     0.023 C 
ATOM     21  C   UNL     1       2.374   2.020   4.096  1.00  0.00     0.023 C 
ENDBRANCH  14  15
ENDBRANCH  10  14
ENDBRANCH   4   7
ENDBRANCH   2   3
ENDBRANCH   1   2
BRANCH   1  22
ATOM     22  C   UNL     1      -1.673   0.896   5.489  1.00  0.00     0.118 C 
BRANCH  22  23
ATOM     23  N   UNL     1      -2.548   1.016   6.651  1.00  0.00    -0.352 N 
ATOM     24  C   UNL     1      -2.454   0.528   7.934  1.00  0.00     0.251 C 
ATOM     25  H   UNL     1      -3.359   1.548   6.486  1.00  0.00     0.163 HD
ATOM     26  O   UNL     1      -3.445   0.616   8.661  1.00  0.00    -0.269 OA
BRANCH  24  27
ATOM     27  C   UNL     1      -1.225  -0.093   8.500  1.00  0.00     0.039 A 
ATOM     28  C   UNL     1      -1.381  -1.207   9.339  1.00  0.00     0.014 A 
ATOM     29  C   UNL     1       0.042   0.486   8.380  1.00  0.00     0.014 A 
ATOM     30  C   UNL     1      -0.289  -1.740  10.038  1.00  0.00     0.010 A 
ATOM     31  C   UNL     1       1.146  -0.072   9.056  1.00  0.00     0.010 A 
ATOM     32  C   UNL     1       0.992  -1.179   9.910  1.00  0.00    -0.014 A 
BRANCH  32  33
ATOM     33  C   UNL     1       2.129  -1.734  10.708  1.00  0.00     0.031 A 
ATOM     34  C   UNL     1       2.748  -0.941  11.834  1.00  0.00     0.074 A 
ATOM     35  C   UNL     1       2.595  -2.974  10.454  1.00  0.00     0.049 A 
ATOM     36  N   UNL     1       3.679  -1.296  12.688  1.00  0.00    -0.248 NA
ATOM     37  C   UNL     1       2.270   0.437  12.014  1.00  0.00     0.031 C 
ATOM     38  C   UNL     1       2.124  -3.844   9.376  1.00  0.00     0.029 A 
ATOM     39  N   UNL     1       3.558  -3.724  11.088  1.00  0.00    -0.354 N 
ATOM     40  C   UNL     1       3.891  -0.191  13.507  1.00  0.00     0.074 A 
ATOM     41  C   UNL     1       3.037   0.865  13.007  1.00  0.00     0.031 C 
ATOM     42  C   UNL     1       2.776  -5.017   9.441  1.00  0.00     0.029 A 
ATOM     43  C   UNL     1       3.724  -4.980  10.552  1.00  0.00     0.049 A 
ATOM     44  H   UNL     1       4.080  -3.393  11.855  1.00  0.00     0.167 HD
ATOM     45  C   UNL     1       4.699  -0.069  14.590  1.00  0.00     0.037 A 
ATOM     46  C   UNL     1       4.538  -5.992  10.915  1.00  0.00     0.037 A 
ATOM     47  C   UNL     1       5.548  -1.118  15.099  1.00  0.00     0.049 A 
ATOM     48  C   UNL     1       5.427  -5.836  12.119  1.00  0.00     0.074 A 
ATOM     49  C   UNL     1       6.370  -1.101  16.213  1.00  0.00     0.029 A 
ATOM     50  N   UNL     1       5.687  -2.372  14.523  1.00  0.00    -0.354 N 
ATOM     51  N   UNL     1       5.559  -4.809  12.923  1.00  0.00    -0.248 NA
ATOM     52  C   UNL     1       6.270  -6.988  12.476  1.00  0.00     0.031 C 
ATOM     53  C   UNL     1       7.040  -2.327  16.286  1.00  0.00     0.029 A 
ATOM     54  C   UNL     1       6.597  -3.128  15.246  1.00  0.00     0.049 A 
ATOM     55  H   UNL     1       5.209  -2.679  13.719  1.00  0.00     0.167 HD
ATOM     56  C   UNL     1       6.480  -5.197  13.889  1.00  0.00     0.074 A 
ATOM     57  C   UNL     1       6.856  -6.561  13.585  1.00  0.00     0.031 C 
ATOM     58  C   UNL     1       6.971  -4.484  14.934  1.00  0.00     0.037 A 
BRANCH  45  59
ATOM     59  C   UNL     1       4.701   1.254  15.306  1.00  0.00     0.057 A 
ATOM     60  C   UNL     1       3.594   1.694  16.045  1.00  0.00     0.134 A 
ATOM     61  C   UNL     1       5.828   2.085  15.283  1.00  0.00     0.134 A 
ATOM     62  F   UNL     1       2.479   0.950  16.107  1.00  0.00    -0.206 F 
ATOM     63  C   UNL     1       3.594   2.925  16.704  1.00  0.00     0.040 A 
ATOM     64  C   UNL     1       5.851   3.306  15.961  1.00  0.00     0.040 A 
ATOM     65  F   UNL     1       6.929   1.723  14.607  1.00  0.00    -0.206 F 
ATOM     66  C   UNL     1       4.728   3.733  16.667  1.00  0.00     0.006 A 
ENDBRANCH  45  59
BRANCH  46  67
ATOM     67  C   UNL     1       4.531  -7.263  10.142  1.00  0.00     0.057 A 
ATOM     68  C   UNL     1       4.019  -8.446  10.690  1.00  0.00     0.134 A 
ATOM     69  C   UNL     1       5.044  -7.327   8.841  1.00  0.00     0.134 A 
ATOM     70  F   UNL     1       3.535  -8.457  11.940  1.00  0.00    -0.206 F 
ATOM     71  C   UNL     1       4.033  -9.648   9.979  1.00  0.00     0.040 A 
ATOM     72  C   UNL     1       5.040  -8.515   8.109  1.00  0.00     0.040 A 
ATOM     73  F   UNL     1       5.548  -6.229   8.258  1.00  0.00    -0.206 F 
ATOM     74  C   UNL     1       4.539  -9.683   8.681  1.00  0.00     0.006 A 
ENDBRANCH  46  67
BRANCH  58  75
ATOM     75  C   UNL     1       7.955  -5.174  15.835  1.00  0.00     0.057 A 
ATOM     76  C   UNL     1       9.260  -5.468  15.418  1.00  0.00     0.134 A 
ATOM     77  C   UNL     1       7.602  -5.527  17.143  1.00  0.00     0.134 A 
ATOM     78  F   UNL     1       9.660  -5.168  14.173  1.00  0.00    -0.206 F 
ATOM     79  C   UNL     1      10.168  -6.115  16.259  1.00  0.00     0.040 A 
ATOM     80  C   UNL     1       8.509  -6.149  18.003  1.00  0.00     0.040 A 
ATOM     81  F   UNL     1       6.372  -5.266  17.612  1.00  0.00    -0.206 F 
ATOM     82  C   UNL     1       9.794  -6.452  17.558  1.00  0.00     0.006 A 
ENDBRANCH  58  75
ENDBRANCH  32  33
ENDBRANCH  24  27
ENDBRANCH  22  23
ENDBRANCH   1  22
TORSDOF 12
