REMARK SMILES CC[C@H](C)CN(CC)c1nc(C(=O)NCCCNC(=O)c2ccc(-c3c4nc(c(-c5c(F)cccc5F)c5ccc([nH]5)c(-c5c(F)cccc5F)c5nc(c(-c6c(F)cccc6F)c6ccc3[nH]6)C=C5)C=C4)cc2)cc2ccccc12
REMARK SMILES IDX 15 1 14 2 12 3 13 4 11 6 9 7 10 8 81 9 76 10 80 11 75 12
REMARK SMILES IDX 77 13 79 14 78 15 6 16 5 17 3 18 4 19 2 20 1 21 7 22 8 23
REMARK SMILES IDX 16 24 17 25 18 26 19 27 20 29 21 30 22 31 74 32 23 33 73 34
REMARK SMILES IDX 24 35 25 36 26 37 67 38 27 39 72 40 66 41 68 42 28 43 71 44
REMARK SMILES IDX 65 45 64 46 29 48 55 49 38 50 54 51 39 52 42 53 53 54 69 55
REMARK SMILES IDX 40 56 41 57 52 59 70 60 43 61 30 62 31 63 36 64 32 65 33 66
REMARK SMILES IDX 35 67 37 68 34 69 56 70 57 71 62 72 58 73 59 74 61 75 63 76
REMARK SMILES IDX 60 77 44 78 45 79 50 80 46 81 47 82 49 83 51 84 48 85
REMARK H PARENT 14 5 18 28 68 47 42 58
REMARK Flexibility Score: inf
ROOT
ATOM      1  C   UNL     1      -0.160   4.475   6.186  1.00  0.00     0.118 C 
ENDROOT
BRANCH   1   2
ATOM      2  N   UNL     1      -0.278   3.205   6.864  1.00  0.00    -0.351 N 
ATOM      3  C   UNL     1      -0.142   1.927   6.381  1.00  0.00     0.269 C 
ATOM      4  O   UNL     1      -0.361   1.012   7.181  1.00  0.00    -0.268 OA
ATOM      5  H   UNL     1      -0.489   3.265   7.823  1.00  0.00     0.163 HD
BRANCH   3   6
ATOM      6  C   UNL     1       0.277   1.600   4.974  1.00  0.00     0.131 A 
ATOM      7  C   UNL     1       1.223   2.228   2.936  1.00  0.00     0.137 A 
ATOM      8  N   UNL     1       0.721   2.579   4.142  1.00  0.00    -0.225 NA
ATOM      9  C   UNL     1       1.424   0.859   2.606  1.00  0.00     0.024 A 
ATOM     10  C   UNL     1       0.807  -0.118   3.410  1.00  0.00    -0.012 A 
ATOM     11  C   UNL     1       2.196   0.396   1.519  1.00  0.00     0.012 A 
ATOM     12  C   UNL     1       0.234   0.263   4.614  1.00  0.00     0.043 A 
ATOM     13  C   UNL     1       0.782  -1.462   3.000  1.00  0.00     0.009 A 
ATOM     14  C   UNL     1       2.168  -0.937   1.110  1.00  0.00     0.001 A 
ATOM     15  C   UNL     1       1.424  -1.860   1.830  1.00  0.00     0.001 A 
BRANCH   7  16
ATOM     16  N   UNL     1       1.438   3.233   1.977  1.00  0.00    -0.356 N 
BRANCH  16  17
ATOM     17  C   UNL     1       0.370   3.469   0.963  1.00  0.00     0.121 C 
BRANCH  17  18
ATOM     18  C   UNL     1       0.331   2.387  -0.142  1.00  0.00     0.005 C 
ATOM     19  C   UNL     1      -0.817   1.397   0.099  1.00  0.00     0.009 C 
BRANCH  18  20
ATOM     20  C   UNL     1       0.276   2.916  -1.590  1.00  0.00     0.002 C 
ATOM     21  C   UNL     1       0.991   1.946  -2.538  1.00  0.00     0.004 C 
ENDBRANCH  18  20
ENDBRANCH  17  18
ENDBRANCH  16  17
BRANCH  16  22
ATOM     22  C   UNL     1       2.244   4.394   2.371  1.00  0.00     0.114 C 
ATOM     23  C   UNL     1       1.518   5.415   3.233  1.00  0.00     0.027 C 
ENDBRANCH  16  22
ENDBRANCH   7  16
ENDBRANCH   3   6
ENDBRANCH   1   2
BRANCH   1  24
ATOM     24  C   UNL     1      -1.389   5.345   6.358  1.00  0.00     0.042 C 
BRANCH  24  25
ATOM     25  C   UNL     1      -1.627   5.797   7.786  1.00  0.00     0.118 C 
BRANCH  25  26
ATOM     26  N   UNL     1      -0.590   6.697   8.277  1.00  0.00    -0.352 N 
ATOM     27  C   UNL     1      -0.650   8.033   8.592  1.00  0.00     0.251 C 
ATOM     28  H   UNL     1       0.294   6.282   8.402  1.00  0.00     0.163 HD
ATOM     29  O   UNL     1       0.386   8.656   8.816  1.00  0.00    -0.269 OA
BRANCH  27  30
ATOM     30  C   UNL     1      -1.951   8.733   8.630  1.00  0.00     0.039 A 
ATOM     31  C   UNL     1      -2.044  10.026   8.109  1.00  0.00     0.014 A 
ATOM     32  C   UNL     1      -3.082   8.118   9.169  1.00  0.00     0.014 A 
ATOM     33  C   UNL     1      -3.286  10.661   8.052  1.00  0.00     0.010 A 
ATOM     34  C   UNL     1      -4.332   8.699   9.002  1.00  0.00     0.010 A 
ATOM     35  C   UNL     1      -4.449   9.983   8.453  1.00  0.00    -0.014 A 
BRANCH  35  36
ATOM     36  C   UNL     1      -5.794  10.598   8.321  1.00  0.00     0.031 A 
ATOM     37  C   UNL     1      -6.647  10.811   9.543  1.00  0.00     0.074 A 
ATOM     38  C   UNL     1      -6.277  10.895   7.099  1.00  0.00     0.049 A 
ATOM     39  N   UNL     1      -7.875  11.257   9.627  1.00  0.00    -0.248 NA
ATOM     40  C   UNL     1      -6.055  10.443  10.839  1.00  0.00     0.031 C 
ATOM     41  C   UNL     1      -5.571  10.685   5.833  1.00  0.00     0.029 A 
ATOM     42  N   UNL     1      -7.482  11.431   6.720  1.00  0.00    -0.354 N 
ATOM     43  C   UNL     1      -8.203  11.206  10.976  1.00  0.00     0.074 A 
ATOM     44  C   UNL     1      -7.073  10.623  11.665  1.00  0.00     0.031 C 
ATOM     45  C   UNL     1      -6.342  11.116   4.822  1.00  0.00     0.029 A 
ATOM     46  C   UNL     1      -7.613  11.588   5.361  1.00  0.00     0.049 A 
ATOM     47  H   UNL     1      -8.187  11.679   7.361  1.00  0.00     0.167 HD
ATOM     48  C   UNL     1      -9.332  11.631  11.590  1.00  0.00     0.037 A 
ATOM     49  C   UNL     1      -8.644  12.053   4.631  1.00  0.00     0.037 A 
ATOM     50  C   UNL     1     -10.444  12.232  10.903  1.00  0.00     0.049 A 
ATOM     51  C   UNL     1      -9.893  12.508   5.335  1.00  0.00     0.074 A 
ATOM     52  C   UNL     1     -11.609  12.752  11.440  1.00  0.00     0.029 A 
ATOM     53  N   UNL     1     -10.532  12.388   9.528  1.00  0.00    -0.354 N 
ATOM     54  N   UNL     1     -10.161  12.522   6.618  1.00  0.00    -0.248 NA
ATOM     55  C   UNL     1     -10.980  13.019   4.489  1.00  0.00     0.031 C 
ATOM     56  C   UNL     1     -12.425  13.173  10.385  1.00  0.00     0.029 A 
ATOM     57  C   UNL     1     -11.743  12.972   9.195  1.00  0.00     0.049 A 
ATOM     58  H   UNL     1      -9.836  12.122   8.884  1.00  0.00     0.167 HD
ATOM     59  C   UNL     1     -11.432  13.069   6.736  1.00  0.00     0.074 A 
ATOM     60  C   UNL     1     -11.875  13.388   5.395  1.00  0.00     0.031 C 
ATOM     61  C   UNL     1     -12.166  13.289   7.855  1.00  0.00     0.037 A 
BRANCH  48  62
ATOM     62  C   UNL     1      -9.415  11.463  13.081  1.00  0.00     0.057 A 
ATOM     63  C   UNL     1      -8.604  12.198  13.957  1.00  0.00     0.134 A 
ATOM     64  C   UNL     1     -10.335  10.573  13.650  1.00  0.00     0.134 A 
ATOM     65  F   UNL     1      -7.693  13.059  13.480  1.00  0.00    -0.206 F 
ATOM     66  C   UNL     1      -8.683  12.030  15.341  1.00  0.00     0.040 A 
ATOM     67  C   UNL     1     -10.445  10.421  15.033  1.00  0.00     0.040 A 
ATOM     68  F   UNL     1     -11.147   9.841  12.872  1.00  0.00    -0.206 F 
ATOM     69  C   UNL     1      -9.612  11.145  15.883  1.00  0.00     0.006 A 
ENDBRANCH  48  62
BRANCH  49  70
ATOM     70  C   UNL     1      -8.533  12.132   3.152  1.00  0.00     0.057 A 
ATOM     71  C   UNL     1      -8.471  13.368   2.497  1.00  0.00     0.134 A 
ATOM     72  C   UNL     1      -8.493  10.980   2.357  1.00  0.00     0.134 A 
ATOM     73  F   UNL     1      -8.523  14.508   3.202  1.00  0.00    -0.206 F 
ATOM     74  C   UNL     1      -8.395  13.458   1.106  1.00  0.00     0.040 A 
ATOM     75  C   UNL     1      -8.389  11.054   0.967  1.00  0.00     0.040 A 
ATOM     76  F   UNL     1      -8.539   9.765   2.922  1.00  0.00    -0.206 F 
ATOM     77  C   UNL     1      -8.348  12.297   0.337  1.00  0.00     0.006 A 
ENDBRANCH  49  70
BRANCH  61  78
ATOM     78  C   UNL     1     -13.508  13.941   7.681  1.00  0.00     0.057 A 
ATOM     79  C   UNL     1     -14.592  13.269   7.103  1.00  0.00     0.134 A 
ATOM     80  C   UNL     1     -13.726  15.248   8.136  1.00  0.00     0.134 A 
ATOM     81  F   UNL     1     -14.447  12.020   6.635  1.00  0.00    -0.206 F 
ATOM     82  C   UNL     1     -15.838  13.881   6.962  1.00  0.00     0.040 A 
ATOM     83  C   UNL     1     -14.975  15.860   8.030  1.00  0.00     0.040 A 
ATOM     84  F   UNL     1     -12.733  15.946   8.709  1.00  0.00    -0.206 F 
ATOM     85  C   UNL     1     -16.034  15.178   7.434  1.00  0.00     0.006 A 
ENDBRANCH  61  78
ENDBRANCH  35  36
ENDBRANCH  27  30
ENDBRANCH  25  26
ENDBRANCH  24  25
ENDBRANCH   1  24
TORSDOF 15
