REMARK SMILES CCc1nc(NCC2CC2)nc(OCC(=O)NCCCNC(=O)c2ccc(-c3c4nc(c(-c5c(F)cccc5F)c5ccc([nH]5)c(-c5c(F)cccc5F)c5nc(c(-c6c(F)cccc6F)c6ccc3[nH]6)C=C5)C=C4)cc2)c1C
REMARK SMILES IDX 15 1 16 2 17 3 14 5 13 6 12 7 3 8 4 9 78 10 5 11 79 12 11 13
REMARK SMILES IDX 2 14 1 15 6 16 7 18 8 19 9 20 10 21 18 22 19 23 20 24 21 25
REMARK SMILES IDX 22 26 23 28 24 29 25 30 77 31 26 32 76 33 27 34 28 35 29 36
REMARK SMILES IDX 70 37 30 38 75 39 69 40 71 41 31 42 74 43 68 44 67 45 32 47
REMARK SMILES IDX 58 48 41 49 57 50 42 51 45 52 56 53 72 54 43 55 44 56 55 58
REMARK SMILES IDX 73 59 46 60 33 61 34 62 39 63 35 64 36 65 38 66 40 67 37 68
REMARK SMILES IDX 59 69 60 70 65 71 61 72 62 73 64 74 66 75 63 76 47 77 48 78
REMARK SMILES IDX 53 79 49 80 50 81 52 82 54 83 51 84
REMARK H PARENT 17 4 6 17 21 27 71 46 45 57
REMARK Flexibility Score: inf
ROOT
ATOM      1  C   UNL     1       4.050   1.071  -3.699  1.00  0.00     0.258 C 
ATOM      2  O   UNL     1       4.006  -0.078  -3.256  1.00  0.00    -0.271 OA
ATOM      3  N   UNL     1       5.201   1.782  -3.540  1.00  0.00    -0.353 N 
ATOM      4  H   UNL     1       5.896   1.353  -2.990  1.00  0.00     0.163 HD
ENDROOT
BRANCH   1   5
ATOM      5  C   UNL     1       2.875   1.690  -4.459  1.00  0.00     0.331 C 
BRANCH   5   6
ATOM      6  O   UNL     1       2.201   2.800  -3.925  1.00  0.00    -0.467 OA
BRANCH   6   7
ATOM      7  C   UNL     1       1.664   2.873  -2.682  1.00  0.00     0.221 A 
ATOM      8  C   UNL     1       0.775   2.289  -0.582  1.00  0.00     0.052 A 
ATOM      9  N   UNL     1       0.606   3.602  -0.307  1.00  0.00    -0.218 NA
ATOM     10  C   UNL     1       1.249   1.855  -1.826  1.00  0.00     0.033 A 
ATOM     11  C   UNL     1       0.921   4.502  -1.230  1.00  0.00     0.226 A 
ATOM     12  C   UNL     1       1.231   0.403  -2.161  1.00  0.00     0.052 C 
ATOM     13  N   UNL     1       1.486   4.178  -2.386  1.00  0.00    -0.177 NA
BRANCH   8  14
ATOM     14  C   UNL     1       0.275   1.435   0.565  1.00  0.00     0.053 C 
ATOM     15  C   UNL     1       0.803   0.028   0.804  1.00  0.00     0.011 C 
ENDBRANCH   8  14
BRANCH  11  16
ATOM     16  N   UNL     1       0.630   5.821  -1.038  1.00  0.00    -0.354 N 
ATOM     17  H   UNL     1       0.898   6.462  -1.735  1.00  0.00     0.163 HD
BRANCH  16  18
ATOM     18  C   UNL     1      -0.045   6.324   0.125  1.00  0.00     0.119 C 
BRANCH  18  19
ATOM     19  C   UNL     1       0.834   7.257   0.913  1.00  0.00     0.008 C 
ATOM     20  C   UNL     1       2.138   7.829   0.397  1.00  0.00     0.006 C 
ATOM     21  C   UNL     1       0.932   8.713   0.515  1.00  0.00     0.006 C 
ENDBRANCH  18  19
ENDBRANCH  16  18
ENDBRANCH  11  16
ENDBRANCH   6   7
ENDBRANCH   5   6
ENDBRANCH   1   5
BRANCH   3  22
ATOM     22  C   UNL     1       5.538   3.087  -4.076  1.00  0.00     0.117 C 
BRANCH  22  23
ATOM     23  C   UNL     1       5.652   4.152  -2.996  1.00  0.00     0.042 C 
BRANCH  23  24
ATOM     24  C   UNL     1       6.682   3.842  -1.916  1.00  0.00     0.118 C 
BRANCH  24  25
ATOM     25  N   UNL     1       8.023   3.622  -2.447  1.00  0.00    -0.352 N 
ATOM     26  C   UNL     1       9.182   4.334  -2.272  1.00  0.00     0.251 C 
ATOM     27  H   UNL     1       8.111   2.832  -3.028  1.00  0.00     0.163 HD
ATOM     28  O   UNL     1      10.166   4.076  -2.964  1.00  0.00    -0.269 OA
BRANCH  26  29
ATOM     29  C   UNL     1       9.254   5.420  -1.274  1.00  0.00     0.039 A 
ATOM     30  C   UNL     1       9.927   6.600  -1.603  1.00  0.00     0.014 A 
ATOM     31  C   UNL     1       8.677   5.275  -0.010  1.00  0.00     0.014 A 
ATOM     32  C   UNL     1       9.957   7.657  -0.692  1.00  0.00     0.010 A 
ATOM     33  C   UNL     1       8.623   6.361   0.856  1.00  0.00     0.010 A 
ATOM     34  C   UNL     1       9.270   7.561   0.529  1.00  0.00    -0.014 A 
BRANCH  34  35
ATOM     35  C   UNL     1       9.219   8.703   1.477  1.00  0.00     0.031 A 
ATOM     36  C   UNL     1       9.810   8.574   2.854  1.00  0.00     0.074 A 
ATOM     37  C   UNL     1       8.588   9.837   1.119  1.00  0.00     0.049 A 
ATOM     38  N   UNL     1       9.832   9.445   3.830  1.00  0.00    -0.248 NA
ATOM     39  C   UNL     1      10.432   7.283   3.188  1.00  0.00     0.031 C 
ATOM     40  C   UNL     1       7.932  10.070  -0.169  1.00  0.00     0.029 A 
ATOM     41  N   UNL     1       8.395  11.008   1.806  1.00  0.00    -0.354 N 
ATOM     42  C   UNL     1      10.459   8.806   4.892  1.00  0.00     0.074 A 
ATOM     43  C   UNL     1      10.734   7.451   4.465  1.00  0.00     0.031 C 
ATOM     44  C   UNL     1       7.448  11.321  -0.195  1.00  0.00     0.029 A 
ATOM     45  C   UNL     1       7.720  11.964   1.087  1.00  0.00     0.049 A 
ATOM     46  H   UNL     1       8.710  11.150   2.728  1.00  0.00     0.167 HD
ATOM     47  C   UNL     1      10.803   9.307   6.103  1.00  0.00     0.037 A 
ATOM     48  C   UNL     1       7.364  13.218   1.422  1.00  0.00     0.037 A 
ATOM     49  C   UNL     1      10.531  10.657   6.522  1.00  0.00     0.049 A 
ATOM     50  C   UNL     1       7.723  13.744   2.783  1.00  0.00     0.074 A 
ATOM     51  C   UNL     1      10.878  11.280   7.707  1.00  0.00     0.029 A 
ATOM     52  N   UNL     1       9.833  11.591   5.769  1.00  0.00    -0.354 N 
ATOM     53  N   UNL     1       8.380  13.153   3.752  1.00  0.00    -0.248 NA
ATOM     54  C   UNL     1       7.292  15.113   3.095  1.00  0.00     0.031 C 
ATOM     55  C   UNL     1      10.342  12.573   7.695  1.00  0.00     0.029 A 
ATOM     56  C   UNL     1       9.713  12.777   6.477  1.00  0.00     0.049 A 
ATOM     57  H   UNL     1       9.476  11.435   4.865  1.00  0.00     0.167 HD
ATOM     58  C   UNL     1       8.471  14.088   4.776  1.00  0.00     0.074 A 
ATOM     59  C   UNL     1       7.810  15.288   4.303  1.00  0.00     0.031 C 
ATOM     60  C   UNL     1       9.052  13.964   5.995  1.00  0.00     0.037 A 
BRANCH  47  61
ATOM     61  C   UNL     1      11.504   8.378   7.054  1.00  0.00     0.057 A 
ATOM     62  C   UNL     1      12.795   7.891   6.800  1.00  0.00     0.134 A 
ATOM     63  C   UNL     1      10.882   7.956   8.236  1.00  0.00     0.134 A 
ATOM     64  F   UNL     1      13.447   8.246   5.682  1.00  0.00    -0.206 F 
ATOM     65  C   UNL     1      13.419   6.983   7.657  1.00  0.00     0.040 A 
ATOM     66  C   UNL     1      11.509   7.075   9.119  1.00  0.00     0.040 A 
ATOM     67  F   UNL     1       9.651   8.388   8.551  1.00  0.00    -0.206 F 
ATOM     68  C   UNL     1      12.776   6.576   8.824  1.00  0.00     0.006 A 
ENDBRANCH  47  61
BRANCH  48  69
ATOM     69  C   UNL     1       6.668  14.077   0.431  1.00  0.00     0.057 A 
ATOM     70  C   UNL     1       7.321  15.170  -0.152  1.00  0.00     0.134 A 
ATOM     71  C   UNL     1       5.350  13.826   0.032  1.00  0.00     0.134 A 
ATOM     72  F   UNL     1       8.579  15.472   0.203  1.00  0.00    -0.206 F 
ATOM     73  C   UNL     1       6.686  15.989  -1.086  1.00  0.00     0.040 A 
ATOM     74  C   UNL     1       4.711  14.621  -0.921  1.00  0.00     0.040 A 
ATOM     75  F   UNL     1       4.672  12.790   0.547  1.00  0.00    -0.206 F 
ATOM     76  C   UNL     1       5.378  15.710  -1.478  1.00  0.00     0.006 A 
ENDBRANCH  48  69
BRANCH  60  77
ATOM     77  C   UNL     1       9.032  15.170   6.891  1.00  0.00     0.057 A 
ATOM     78  C   UNL     1       7.854  15.627   7.496  1.00  0.00     0.134 A 
ATOM     79  C   UNL     1      10.216  15.860   7.180  1.00  0.00     0.134 A 
ATOM     80  F   UNL     1       6.683  15.020   7.251  1.00  0.00    -0.206 F 
ATOM     81  C   UNL     1       7.851  16.742   8.336  1.00  0.00     0.040 A 
ATOM     82  C   UNL     1      10.231  16.957   8.043  1.00  0.00     0.040 A 
ATOM     83  F   UNL     1      11.382  15.471   6.642  1.00  0.00    -0.206 F 
ATOM     84  C   UNL     1       9.044  17.405   8.618  1.00  0.00     0.006 A 
ENDBRANCH  60  77
ENDBRANCH  34  35
ENDBRANCH  26  29
ENDBRANCH  24  25
ENDBRANCH  23  24
ENDBRANCH  22  23
ENDBRANCH   3  22
TORSDOF 16
