REMARK SMILES C[C@H]1CC[C@](C#N)([C@H](O)C(=O)NCCCNC(=O)c2ccc(-c3c4nc(c(-c5c(F)cccc5F)c5ccc([nH]5)c(-c5c(F)cccc5F)c5nc(c(-c6c(F)cccc6F)c6ccc3[nH]6)C=C5)C=C4)cc2)C1
REMARK SMILES IDX 14 1 13 2 12 3 10 4 11 5 8 7 5 8 1 9 2 10 3 11 73 12 4 13
REMARK SMILES IDX 6 14 7 15 9 16 15 18 16 19 17 20 18 22 19 23 20 24 72 25
REMARK SMILES IDX 21 26 71 27 22 28 23 29 24 30 65 31 25 32 70 33 64 34 66 35
REMARK SMILES IDX 26 36 69 37 63 38 62 39 27 41 53 42 36 43 52 44 37 45 40 46
REMARK SMILES IDX 51 47 67 48 38 49 39 50 50 52 68 53 41 54 28 55 29 56 34 57
REMARK SMILES IDX 30 58 31 59 33 60 35 61 32 62 54 63 55 64 60 65 56 66 57 67
REMARK SMILES IDX 59 68 61 69 58 70 42 71 43 72 48 73 44 74 45 75 47 76 49 77
REMARK SMILES IDX 46 78
REMARK H PARENT 12 6 9 17 16 21 66 40 40 51
REMARK Flexibility Score: inf
ROOT
ATOM      1  C   UNL     1      -5.429   3.773   2.990  1.00  0.00     0.042 C 
ENDROOT
BRANCH   1   2
ATOM      2  C   UNL     1      -4.018   3.688   2.466  1.00  0.00     0.117 C 
BRANCH   2   3
ATOM      3  N   UNL     1      -3.201   2.682   3.104  1.00  0.00    -0.354 N 
ATOM      4  C   UNL     1      -2.401   1.758   2.495  1.00  0.00     0.250 C 
ATOM      5  O   UNL     1      -1.725   1.008   3.203  1.00  0.00    -0.272 OA
ATOM      6  H   UNL     1      -3.223   2.661   4.088  1.00  0.00     0.163 HD
BRANCH   4   7
ATOM      7  C   UNL     1      -2.344   1.651   0.947  1.00  0.00     0.223 C 
BRANCH   7   8
ATOM      8  C   UNL     1      -1.771   2.881   0.179  1.00  0.00     0.092 C 
ATOM      9  C   UNL     1      -1.652   5.811  -1.260  1.00  0.00     0.008 C 
ATOM     10  C   UNL     1      -1.999   4.399  -1.746  1.00  0.00    -0.013 C 
ATOM     11  C   UNL     1      -0.787   3.498  -2.005  1.00  0.00     0.005 C 
ATOM     12  C   UNL     1      -2.806   3.624  -0.709  1.00  0.00     0.029 C 
ATOM     13  C   UNL     1      -0.763   2.431  -0.900  1.00  0.00     0.026 C 
BRANCH   8  14
ATOM     14  C   UNL     1      -1.071   3.798   1.107  1.00  0.00     0.072 C 
ATOM     15  N   UNL     1      -0.533   4.525   1.838  1.00  0.00    -0.198 NA
ENDBRANCH   8  14
ENDBRANCH   7   8
BRANCH   7  16
ATOM     16  O   UNL     1      -3.619   1.266   0.419  1.00  0.00    -0.382 OA
ATOM     17  H   UNL     1      -4.265   1.970   0.587  1.00  0.00     0.211 HD
ENDBRANCH   7  16
ENDBRANCH   4   7
ENDBRANCH   2   3
ENDBRANCH   1   2
BRANCH   1  18
ATOM     18  C   UNL     1      -5.513   4.256   4.420  1.00  0.00     0.118 C 
BRANCH  18  19
ATOM     19  N   UNL     1      -5.058   5.631   4.588  1.00  0.00    -0.352 N 
ATOM     20  C   UNL     1      -5.755   6.749   4.981  1.00  0.00     0.251 C 
ATOM     21  H   UNL     1      -4.105   5.782   4.391  1.00  0.00     0.163 HD
ATOM     22  O   UNL     1      -5.239   7.859   4.902  1.00  0.00    -0.269 OA
BRANCH  20  23
ATOM     23  C   UNL     1      -7.145   6.614   5.463  1.00  0.00     0.039 A 
ATOM     24  C   UNL     1      -8.102   7.545   5.055  1.00  0.00     0.014 A 
ATOM     25  C   UNL     1      -7.513   5.549   6.288  1.00  0.00     0.014 A 
ATOM     26  C   UNL     1      -9.439   7.354   5.404  1.00  0.00     0.010 A 
ATOM     27  C   UNL     1      -8.855   5.287   6.516  1.00  0.00     0.010 A 
ATOM     28  C   UNL     1      -9.834   6.194   6.091  1.00  0.00    -0.014 A 
BRANCH  28  29
ATOM     29  C   UNL     1     -11.261   5.918   6.391  1.00  0.00     0.031 A 
ATOM     30  C   UNL     1     -11.712   5.758   7.818  1.00  0.00     0.074 A 
ATOM     31  C   UNL     1     -12.135   5.749   5.380  1.00  0.00     0.049 A 
ATOM     32  N   UNL     1     -12.899   5.459   8.280  1.00  0.00    -0.248 NA
ATOM     33  C   UNL     1     -10.688   5.924   8.863  1.00  0.00     0.031 C 
ATOM     34  C   UNL     1     -11.809   5.826   3.955  1.00  0.00     0.029 A 
ATOM     35  N   UNL     1     -13.479   5.472   5.398  1.00  0.00    -0.354 N 
ATOM     36  C   UNL     1     -12.759   5.392   9.661  1.00  0.00     0.074 A 
ATOM     37  C   UNL     1     -11.361   5.608   9.957  1.00  0.00     0.031 C 
ATOM     38  C   UNL     1     -12.928   5.640   3.237  1.00  0.00     0.029 A 
ATOM     39  C   UNL     1     -14.039   5.378   4.146  1.00  0.00     0.049 A 
ATOM     40  H   UNL     1     -13.994   5.352   6.228  1.00  0.00     0.167 HD
ATOM     41  C   UNL     1     -13.714   5.199  10.600  1.00  0.00     0.037 A 
ATOM     42  C   UNL     1     -15.302   5.101   3.774  1.00  0.00     0.037 A 
ATOM     43  C   UNL     1     -15.107   4.996  10.300  1.00  0.00     0.049 A 
ATOM     44  C   UNL     1     -16.340   4.857   4.836  1.00  0.00     0.074 A 
ATOM     45  C   UNL     1     -16.163   4.843  11.179  1.00  0.00     0.029 A 
ATOM     46  N   UNL     1     -15.634   4.907   9.020  1.00  0.00    -0.354 N 
ATOM     47  N   UNL     1     -16.209   4.872   6.141  1.00  0.00    -0.248 NA
ATOM     48  C   UNL     1     -17.703   4.563   4.373  1.00  0.00     0.031 C 
ATOM     49  C   UNL     1     -17.318   4.592  10.433  1.00  0.00     0.029 A 
ATOM     50  C   UNL     1     -16.996   4.665   9.087  1.00  0.00     0.049 A 
ATOM     51  H   UNL     1     -15.117   5.001   8.187  1.00  0.00     0.167 HD
ATOM     52  C   UNL     1     -17.476   4.624   6.654  1.00  0.00     0.074 A 
ATOM     53  C   UNL     1     -18.363   4.479   5.519  1.00  0.00     0.031 C 
ATOM     54  C   UNL     1     -17.869   4.527   7.948  1.00  0.00     0.037 A 
BRANCH  41  55
ATOM     55  C   UNL     1     -13.281   5.192  12.040  1.00  0.00     0.057 A 
ATOM     56  C   UNL     1     -12.799   6.344  12.678  1.00  0.00     0.134 A 
ATOM     57  C   UNL     1     -13.373   4.023  12.806  1.00  0.00     0.134 A 
ATOM     58  F   UNL     1     -12.674   7.495  12.000  1.00  0.00    -0.206 F 
ATOM     59  C   UNL     1     -12.394   6.325  14.013  1.00  0.00     0.040 A 
ATOM     60  C   UNL     1     -13.004   4.001  14.153  1.00  0.00     0.040 A 
ATOM     61  F   UNL     1     -13.830   2.885  12.264  1.00  0.00    -0.206 F 
ATOM     62  C   UNL     1     -12.504   5.152  14.757  1.00  0.00     0.006 A 
ENDBRANCH  41  55
BRANCH  42  63
ATOM     63  C   UNL     1     -15.662   5.051   2.333  1.00  0.00     0.057 A 
ATOM     64  C   UNL     1     -16.523   6.000   1.767  1.00  0.00     0.134 A 
ATOM     65  C   UNL     1     -15.169   4.048   1.489  1.00  0.00     0.134 A 
ATOM     66  F   UNL     1     -17.042   6.977   2.525  1.00  0.00    -0.206 F 
ATOM     67  C   UNL     1     -16.901   5.939   0.425  1.00  0.00     0.040 A 
ATOM     68  C   UNL     1     -15.513   3.993   0.138  1.00  0.00     0.040 A 
ATOM     69  F   UNL     1     -14.333   3.113   1.964  1.00  0.00    -0.206 F 
ATOM     70  C   UNL     1     -16.391   4.934  -0.396  1.00  0.00     0.006 A 
ENDBRANCH  42  63
BRANCH  54  71
ATOM     71  C   UNL     1     -19.331   4.296   8.210  1.00  0.00     0.057 A 
ATOM     72  C   UNL     1     -19.962   3.084   7.903  1.00  0.00     0.134 A 
ATOM     73  C   UNL     1     -20.109   5.293   8.815  1.00  0.00     0.134 A 
ATOM     74  F   UNL     1     -19.279   2.091   7.312  1.00  0.00    -0.206 F 
ATOM     75  C   UNL     1     -21.319   2.882   8.160  1.00  0.00     0.040 A 
ATOM     76  C   UNL     1     -21.457   5.090   9.110  1.00  0.00     0.040 A 
ATOM     77  F   UNL     1     -19.566   6.474   9.147  1.00  0.00    -0.206 F 
ATOM     78  C   UNL     1     -22.068   3.885   8.773  1.00  0.00     0.006 A 
ENDBRANCH  54  71
ENDBRANCH  28  29
ENDBRANCH  20  23
ENDBRANCH  18  19
ENDBRANCH   1  18
TORSDOF 13
