REMARK SMILES O=C(NCCCNC(=O)c1cccc(N[C@H]2CCCC[C@@H]2O)c1)c1ccc(-c2c3nc(c(-c4c(F)cccc4F)c4ccc([nH]4)c(-c4c(F)cccc4F)c4nc(c(-c5c(F)cccc5F)c5ccc2[nH]5)C=C4)C=C3)cc1
REMARK SMILES IDX 5 1 4 2 3 3 1 4 2 5 24 7 25 8 77 9 26 10 76 11 27 12 28 13
REMARK SMILES IDX 29 14 70 15 30 16 75 17 69 18 71 19 31 20 74 21 68 22 67 23
REMARK SMILES IDX 32 25 58 26 41 27 57 28 42 29 45 30 56 31 72 32 43 33 44 34
REMARK SMILES IDX 55 36 73 37 46 38 33 39 34 40 39 41 35 42 36 43 38 44 40 45
REMARK SMILES IDX 37 46 59 47 60 48 65 49 61 50 62 51 64 52 66 53 63 54 47 55
REMARK SMILES IDX 48 56 53 57 49 58 50 59 52 60 54 61 51 62 6 63 7 64 8 65
REMARK SMILES IDX 9 67 10 68 11 69 23 70 12 71 14 72 13 73 15 74 16 76 17 77
REMARK SMILES IDX 21 78 18 79 20 80 19 81 22 82
REMARK H PARENT 3 6 71 24 45 35 7 66 15 75 22 83
REMARK Flexibility Score: inf
ROOT
ATOM      1  C   UNL     1       4.969  -1.444  -2.095  1.00  0.00     0.042 C 
ENDROOT
BRANCH   1   2
ATOM      2  C   UNL     1       4.603  -0.145  -1.396  1.00  0.00     0.118 C 
BRANCH   2   3
ATOM      3  N   UNL     1       3.169  -0.004  -1.176  1.00  0.00    -0.352 N 
ATOM      4  O   UNL     1       1.220  -0.036  -0.046  1.00  0.00    -0.269 OA
ATOM      5  C   UNL     1       2.447   0.014  -0.008  1.00  0.00     0.251 C 
ATOM      6  H   UNL     1       2.632   0.092  -1.996  1.00  0.00     0.163 HD
BRANCH   5   7
ATOM      7  C   UNL     1       3.142   0.073   1.294  1.00  0.00     0.039 A 
ATOM      8  C   UNL     1       4.251   0.901   1.473  1.00  0.00     0.014 A 
ATOM      9  C   UNL     1       2.667  -0.697   2.361  1.00  0.00     0.014 A 
ATOM     10  C   UNL     1       4.985   0.829   2.648  1.00  0.00     0.010 A 
ATOM     11  C   UNL     1       3.342  -0.681   3.584  1.00  0.00     0.010 A 
ATOM     12  C   UNL     1       4.526   0.057   3.727  1.00  0.00    -0.014 A 
BRANCH  12  13
ATOM     13  C   UNL     1       5.264   0.110   5.013  1.00  0.00     0.031 A 
ATOM     14  C   UNL     1       5.915  -1.112   5.594  1.00  0.00     0.074 A 
ATOM     15  C   UNL     1       5.364   1.297   5.644  1.00  0.00     0.049 A 
ATOM     16  N   UNL     1       6.607  -1.227   6.701  1.00  0.00    -0.248 NA
ATOM     17  C   UNL     1       5.767  -2.370   4.847  1.00  0.00     0.031 C 
ATOM     18  C   UNL     1       4.760   2.550   5.181  1.00  0.00     0.029 A 
ATOM     19  N   UNL     1       6.020   1.652   6.794  1.00  0.00    -0.354 N 
ATOM     20  C   UNL     1       6.958  -2.567   6.794  1.00  0.00     0.074 A 
ATOM     21  C   UNL     1       6.383  -3.233   5.644  1.00  0.00     0.031 C 
ATOM     22  C   UNL     1       5.112   3.542   6.009  1.00  0.00     0.029 A 
ATOM     23  C   UNL     1       5.905   2.986   7.098  1.00  0.00     0.049 A 
ATOM     24  H   UNL     1       6.524   1.013   7.347  1.00  0.00     0.167 HD
ATOM     25  C   UNL     1       7.698  -3.181   7.749  1.00  0.00     0.037 A 
ATOM     26  C   UNL     1       6.366   3.686   8.150  1.00  0.00     0.037 A 
ATOM     27  C   UNL     1       8.279  -2.506   8.883  1.00  0.00     0.049 A 
ATOM     28  C   UNL     1       7.162   2.976   9.203  1.00  0.00     0.074 A 
ATOM     29  C   UNL     1       9.081  -3.033   9.881  1.00  0.00     0.029 A 
ATOM     30  N   UNL     1       8.117  -1.159   9.172  1.00  0.00    -0.354 N 
ATOM     31  N   UNL     1       7.517   1.715   9.258  1.00  0.00    -0.248 NA
ATOM     32  C   UNL     1       7.618   3.782  10.342  1.00  0.00     0.031 C 
ATOM     33  C   UNL     1       9.359  -2.017  10.802  1.00  0.00     0.029 A 
ATOM     34  C   UNL     1       8.779  -0.844  10.349  1.00  0.00     0.049 A 
ATOM     35  H   UNL     1       7.606  -0.521   8.623  1.00  0.00     0.167 HD
ATOM     36  C   UNL     1       8.251   1.579  10.427  1.00  0.00     0.074 A 
ATOM     37  C   UNL     1       8.309   2.891  11.039  1.00  0.00     0.031 C 
ATOM     38  C   UNL     1       8.824   0.467  10.947  1.00  0.00     0.037 A 
BRANCH  25  39
ATOM     39  C   UNL     1       7.907  -4.664   7.627  1.00  0.00     0.057 A 
ATOM     40  C   UNL     1       8.742  -5.220   6.650  1.00  0.00     0.134 A 
ATOM     41  C   UNL     1       7.305  -5.544   8.537  1.00  0.00     0.134 A 
ATOM     42  F   UNL     1       9.342  -4.436   5.742  1.00  0.00    -0.206 F 
ATOM     43  C   UNL     1       8.956  -6.598   6.570  1.00  0.00     0.040 A 
ATOM     44  C   UNL     1       7.531  -6.920   8.483  1.00  0.00     0.040 A 
ATOM     45  F   UNL     1       6.500  -5.079   9.504  1.00  0.00    -0.206 F 
ATOM     46  C   UNL     1       8.355  -7.452   7.493  1.00  0.00     0.006 A 
ENDBRANCH  25  39
BRANCH  26  47
ATOM     47  C   UNL     1       6.068   5.136   8.255  1.00  0.00     0.057 A 
ATOM     48  C   UNL     1       7.075   6.096   8.117  1.00  0.00     0.134 A 
ATOM     49  C   UNL     1       4.763   5.595   8.477  1.00  0.00     0.134 A 
ATOM     50  F   UNL     1       8.346   5.718   7.918  1.00  0.00    -0.206 F 
ATOM     51  C   UNL     1       6.799   7.461   8.208  1.00  0.00     0.040 A 
ATOM     52  C   UNL     1       4.468   6.956   8.541  1.00  0.00     0.040 A 
ATOM     53  F   UNL     1       3.751   4.724   8.607  1.00  0.00    -0.206 F 
ATOM     54  C   UNL     1       5.490   7.894   8.413  1.00  0.00     0.006 A 
ENDBRANCH  26  47
BRANCH  38  55
ATOM     55  C   UNL     1       9.585   0.630  12.230  1.00  0.00     0.057 A 
ATOM     56  C   UNL     1       8.937   0.859  13.450  1.00  0.00     0.134 A 
ATOM     57  C   UNL     1      10.982   0.535  12.246  1.00  0.00     0.134 A 
ATOM     58  F   UNL     1       7.601   0.977  13.500  1.00  0.00    -0.206 F 
ATOM     59  C   UNL     1       9.654   1.012  14.638  1.00  0.00     0.040 A 
ATOM     60  C   UNL     1      11.708   0.659  13.432  1.00  0.00     0.040 A 
ATOM     61  F   UNL     1      11.664   0.311  11.113  1.00  0.00    -0.206 F 
ATOM     62  C   UNL     1      11.043   0.905  14.631  1.00  0.00     0.006 A 
ENDBRANCH  38  55
ENDBRANCH  12  13
ENDBRANCH   5   7
ENDBRANCH   2   3
ENDBRANCH   1   2
BRANCH   1  63
ATOM     63  C   UNL     1       4.389  -1.570  -3.494  1.00  0.00     0.118 C 
BRANCH  63  64
ATOM     64  N   UNL     1       4.839  -0.502  -4.376  1.00  0.00    -0.352 N 
ATOM     65  C   UNL     1       5.763  -0.522  -5.390  1.00  0.00     0.251 C 
ATOM     66  H   UNL     1       4.413   0.371  -4.220  1.00  0.00     0.163 HD
ATOM     67  O   UNL     1       6.176   0.535  -5.858  1.00  0.00    -0.269 OA
BRANCH  65  68
ATOM     68  C   UNL     1       6.272  -1.806  -5.911  1.00  0.00     0.041 A 
ATOM     69  C   UNL     1       7.633  -1.938  -6.172  1.00  0.00     0.014 A 
ATOM     70  C   UNL     1       5.397  -2.867  -6.175  1.00  0.00     0.039 A 
ATOM     71  C   UNL     1       8.114  -3.151  -6.646  1.00  0.00     0.003 A 
ATOM     72  C   UNL     1       5.867  -4.121  -6.573  1.00  0.00     0.035 A 
ATOM     73  C   UNL     1       7.237  -4.228  -6.836  1.00  0.00     0.026 A 
BRANCH  72  74
ATOM     74  N   UNL     1       4.944  -5.139  -6.712  1.00  0.00    -0.380 N 
ATOM     75  H   UNL     1       4.013  -4.905  -6.493  1.00  0.00     0.160 HD
BRANCH  74  76
ATOM     76  C   UNL     1       5.168  -6.521  -7.141  1.00  0.00     0.107 C 
ATOM     77  C   UNL     1       5.578  -6.560  -8.618  1.00  0.00     0.027 C 
ATOM     78  C   UNL     1       6.080  -7.312  -6.164  1.00  0.00     0.136 C 
ATOM     79  C   UNL     1       6.002  -7.948  -9.077  1.00  0.00     0.002 C 
ATOM     80  C   UNL     1       6.493  -8.670  -6.730  1.00  0.00     0.034 C 
ATOM     81  C   UNL     1       7.047  -8.545  -8.143  1.00  0.00     0.003 C 
BRANCH  78  82
ATOM     82  O   UNL     1       5.426  -7.529  -4.904  1.00  0.00    -0.391 OA
ATOM     83  H   UNL     1       4.635  -8.074  -5.040  1.00  0.00     0.211 HD
ENDBRANCH  78  82
ENDBRANCH  74  76
ENDBRANCH  72  74
ENDBRANCH  65  68
ENDBRANCH  63  64
ENDBRANCH   1  63
TORSDOF 13
