REMARK SMILES CCN(CC)S(=O)(=O)c1ccc(F)c(C(=O)N2CCC[C@H]2C(=O)NCCCNC(=O)c2ccc(-c3c4nc(c(-c5c(F)cccc5F)c5ccc([nH]5)c(-c5c(F)cccc5F)c5nc(c(-c6c(F)cccc6F)c6ccc3[nH]6)C=C5)C=C4)cc2)c1
REMARK SMILES IDX 22 1 23 2 24 3 21 5 17 6 18 7 19 8 20 9 15 10 16 11 14 12
REMARK SMILES IDX 9 13 10 14 85 15 11 16 12 17 13 18 6 19 7 20 8 21 3 22 2 23
REMARK SMILES IDX 1 24 4 25 5 26 25 27 26 28 27 29 28 30 29 31 30 33 31 34
REMARK SMILES IDX 32 35 84 36 33 37 83 38 34 39 35 40 36 41 77 42 37 43 82 44
REMARK SMILES IDX 76 45 78 46 38 47 81 48 75 49 74 50 39 52 65 53 48 54 64 55
REMARK SMILES IDX 49 56 52 57 63 58 79 59 50 60 51 61 62 63 80 64 53 65 40 66
REMARK SMILES IDX 41 67 46 68 42 69 43 70 45 71 47 72 44 73 66 74 67 75 72 76
REMARK SMILES IDX 68 77 69 78 71 79 73 80 70 81 54 82 55 83 60 84 56 85 57 86
REMARK SMILES IDX 59 87 61 88 58 89
REMARK H PARENT 24 4 28 32 78 51 52 62
REMARK Flexibility Score: inf
ROOT
ATOM      1  C   UNL     1       2.385  -8.262  -5.053  1.00  0.00     0.242 C 
ATOM      2  O   UNL     1       2.768  -9.422  -5.229  1.00  0.00    -0.273 OA
ATOM      3  N   UNL     1       1.530  -8.056  -4.008  1.00  0.00    -0.354 N 
ATOM      4  H   UNL     1       1.122  -8.866  -3.626  1.00  0.00     0.163 HD
ENDROOT
BRANCH   1   5
ATOM      5  C   UNL     1       2.811  -7.081  -5.970  1.00  0.00     0.174 C 
ATOM      6  N   UNL     1       3.920  -6.262  -5.467  1.00  0.00    -0.327 N 
ATOM      7  C   UNL     1       5.173  -6.703  -6.028  1.00  0.00     0.121 C 
ATOM      8  C   UNL     1       4.787  -7.083  -7.442  1.00  0.00     0.024 C 
ATOM      9  C   UNL     1       3.367  -7.641  -7.305  1.00  0.00     0.037 C 
BRANCH   6  10
ATOM     10  C   UNL     1       3.867  -5.398  -4.404  1.00  0.00     0.257 C 
ATOM     11  O   UNL     1       3.886  -5.793  -3.243  1.00  0.00    -0.269 OA
BRANCH  10  12
ATOM     12  C   UNL     1       3.789  -3.931  -4.673  1.00  0.00     0.077 A 
ATOM     13  C   UNL     1       3.413  -1.686  -3.803  1.00  0.00     0.083 A 
ATOM     14  C   UNL     1       3.811  -1.135  -5.024  1.00  0.00     0.025 A 
ATOM     15  C   UNL     1       3.418  -3.076  -3.615  1.00  0.00     0.038 A 
ATOM     16  C   UNL     1       4.143  -1.978  -6.081  1.00  0.00     0.041 A 
ATOM     17  C   UNL     1       4.119  -3.362  -5.907  1.00  0.00     0.136 A 
ATOM     18  F   UNL     1       4.457  -4.108  -6.965  1.00  0.00    -0.206 F 
BRANCH  13  19
ATOM     19  S   UNL     1       3.036  -0.590  -2.444  1.00  0.00     0.243 S 
ATOM     20  O   UNL     1       3.605   0.702  -2.751  1.00  0.00    -0.207 OA
ATOM     21  O   UNL     1       3.415  -1.291  -1.234  1.00  0.00    -0.207 OA
BRANCH  19  22
ATOM     22  N   UNL     1       1.327  -0.434  -2.471  1.00  0.00    -0.198 NA
BRANCH  22  23
ATOM     23  C   UNL     1       0.759   0.428  -1.379  1.00  0.00     0.099 C 
ATOM     24  C   UNL     1       0.976  -0.131   0.014  1.00  0.00     0.022 C 
ENDBRANCH  22  23
BRANCH  22  25
ATOM     25  C   UNL     1       0.672  -0.139  -3.782  1.00  0.00     0.099 C 
ATOM     26  C   UNL     1       0.947   1.251  -4.332  1.00  0.00     0.022 C 
ENDBRANCH  22  25
ENDBRANCH  19  22
ENDBRANCH  13  19
ENDBRANCH  10  12
ENDBRANCH   6  10
ENDBRANCH   1   5
BRANCH   3  27
ATOM     27  C   UNL     1       1.145  -6.806  -3.388  1.00  0.00     0.117 C 
BRANCH  27  28
ATOM     28  C   UNL     1      -0.277  -6.806  -2.858  1.00  0.00     0.042 C 
BRANCH  28  29
ATOM     29  C   UNL     1      -0.532  -7.831  -1.761  1.00  0.00     0.118 C 
BRANCH  29  30
ATOM     30  N   UNL     1       0.266  -7.617  -0.558  1.00  0.00    -0.352 N 
ATOM     31  C   UNL     1      -0.112  -7.281   0.721  1.00  0.00     0.251 C 
ATOM     32  H   UNL     1       1.236  -7.731  -0.683  1.00  0.00     0.163 HD
ATOM     33  O   UNL     1       0.737  -7.038   1.573  1.00  0.00    -0.269 OA
BRANCH  31  34
ATOM     34  C   UNL     1      -1.543  -7.169   1.069  1.00  0.00     0.039 A 
ATOM     35  C   UNL     1      -1.972  -6.074   1.824  1.00  0.00     0.014 A 
ATOM     36  C   UNL     1      -2.464  -8.125   0.639  1.00  0.00     0.014 A 
ATOM     37  C   UNL     1      -3.336  -5.886   2.057  1.00  0.00     0.010 A 
ATOM     38  C   UNL     1      -3.825  -7.882   0.779  1.00  0.00     0.010 A 
ATOM     39  C   UNL     1      -4.277  -6.757   1.485  1.00  0.00    -0.014 A 
BRANCH  39  40
ATOM     40  C   UNL     1      -5.738  -6.518   1.600  1.00  0.00     0.031 A 
ATOM     41  C   UNL     1      -6.616  -7.542   2.262  1.00  0.00     0.074 A 
ATOM     42  C   UNL     1      -6.284  -5.425   1.031  1.00  0.00     0.049 A 
ATOM     43  N   UNL     1      -7.921  -7.584   2.341  1.00  0.00    -0.248 NA
ATOM     44  C   UNL     1      -5.940  -8.689   2.892  1.00  0.00     0.031 C 
ATOM     45  C   UNL     1      -5.544  -4.377   0.323  1.00  0.00     0.029 A 
ATOM     46  N   UNL     1      -7.593  -5.018   0.947  1.00  0.00    -0.354 N 
ATOM     47  C   UNL     1      -8.220  -8.766   3.005  1.00  0.00     0.074 A 
ATOM     48  C   UNL     1      -6.967  -9.440   3.261  1.00  0.00     0.031 C 
ATOM     49  C   UNL     1      -6.405  -3.436  -0.095  1.00  0.00     0.029 A 
ATOM     50  C   UNL     1      -7.761  -3.834   0.271  1.00  0.00     0.049 A 
ATOM     51  H   UNL     1      -8.341  -5.528   1.335  1.00  0.00     0.167 HD
ATOM     52  C   UNL     1      -9.430  -9.235   3.390  1.00  0.00     0.037 A 
ATOM     53  C   UNL     1      -8.881  -3.150  -0.030  1.00  0.00     0.037 A 
ATOM     54  C   UNL     1     -10.671  -8.541   3.173  1.00  0.00     0.049 A 
ATOM     55  C   UNL     1     -10.213  -3.694   0.403  1.00  0.00     0.074 A 
ATOM     56  C   UNL     1     -11.941  -8.905   3.582  1.00  0.00     0.029 A 
ATOM     57  N   UNL     1     -10.795  -7.338   2.495  1.00  0.00    -0.354 N 
ATOM     58  N   UNL     1     -10.477  -4.793   1.066  1.00  0.00    -0.248 NA
ATOM     59  C   UNL     1     -11.403  -2.908   0.045  1.00  0.00     0.031 C 
ATOM     60  C   UNL     1     -12.841  -7.942   3.117  1.00  0.00     0.029 A 
ATOM     61  C   UNL     1     -12.124  -6.955   2.458  1.00  0.00     0.049 A 
ATOM     62  H   UNL     1     -10.049  -6.832   2.099  1.00  0.00     0.167 HD
ATOM     63  C   UNL     1     -11.857  -4.820   1.225  1.00  0.00     0.074 A 
ATOM     64  C   UNL     1     -12.375  -3.623   0.597  1.00  0.00     0.031 C 
ATOM     65  C   UNL     1     -12.622  -5.755   1.837  1.00  0.00     0.037 A 
BRANCH  52  66
ATOM     66  C   UNL     1      -9.473 -10.551   4.108  1.00  0.00     0.057 A 
ATOM     67  C   UNL     1     -10.042 -11.679   3.503  1.00  0.00     0.134 A 
ATOM     68  C   UNL     1      -9.006 -10.688   5.422  1.00  0.00     0.134 A 
ATOM     69  F   UNL     1     -10.514 -11.615   2.249  1.00  0.00    -0.206 F 
ATOM     70  C   UNL     1     -10.155 -12.892   4.184  1.00  0.00     0.040 A 
ATOM     71  C   UNL     1      -9.090 -11.902   6.103  1.00  0.00     0.040 A 
ATOM     72  F   UNL     1      -8.438  -9.648   6.053  1.00  0.00    -0.206 F 
ATOM     73  C   UNL     1      -9.675 -13.007   5.487  1.00  0.00     0.006 A 
ENDBRANCH  52  66
BRANCH  53  74
ATOM     74  C   UNL     1      -8.783  -1.858  -0.754  1.00  0.00     0.057 A 
ATOM     75  C   UNL     1      -8.413  -1.795  -2.103  1.00  0.00     0.134 A 
ATOM     76  C   UNL     1      -9.031  -0.647  -0.097  1.00  0.00     0.134 A 
ATOM     77  F   UNL     1      -8.153  -2.919  -2.787  1.00  0.00    -0.206 F 
ATOM     78  C   UNL     1      -8.279  -0.575  -2.769  1.00  0.00     0.040 A 
ATOM     79  C   UNL     1      -8.922   0.579  -0.756  1.00  0.00     0.040 A 
ATOM     80  F   UNL     1      -9.405  -0.643   1.190  1.00  0.00    -0.206 F 
ATOM     81  C   UNL     1      -8.538   0.617  -2.095  1.00  0.00     0.006 A 
ENDBRANCH  53  74
BRANCH  65  82
ATOM     82  C   UNL     1     -14.102  -5.522   1.886  1.00  0.00     0.057 A 
ATOM     83  C   UNL     1     -14.733  -5.201   3.095  1.00  0.00     0.134 A 
ATOM     84  C   UNL     1     -14.913  -5.713   0.761  1.00  0.00     0.134 A 
ATOM     85  F   UNL     1     -14.012  -5.016   4.211  1.00  0.00    -0.206 F 
ATOM     86  C   UNL     1     -16.121  -5.099   3.188  1.00  0.00     0.040 A 
ATOM     87  C   UNL     1     -16.301  -5.591   0.836  1.00  0.00     0.040 A 
ATOM     88  F   UNL     1     -14.367  -6.012  -0.428  1.00  0.00    -0.206 F 
ATOM     89  C   UNL     1     -16.909  -5.295   2.056  1.00  0.00     0.006 A 
ENDBRANCH  65  82
ENDBRANCH  39  40
ENDBRANCH  31  34
ENDBRANCH  29  30
ENDBRANCH  28  29
ENDBRANCH  27  28
ENDBRANCH   3  27
TORSDOF 16
