REMARK SMILES C[C@H]([NH2+]Cc1cc(C(=O)NCCCNC(=O)c2ccc(-c3c4nc(c(-c5c(F)cccc5F)c5ccc([nH]5)c(-c5c(F)cccc5F)c5nc(c(-c6c(F)cccc6F)c6ccc3[nH]6)C=C5)C=C4)cc2)cs1)c1ccsc1
REMARK SMILES IDX 11 1 10 2 8 3 9 4 7 6 5 7 6 8 72 9 71 10 4 11 3 12 2 15 1 16
REMARK SMILES IDX 73 17 74 18 77 19 75 20 76 21 12 22 13 23 14 24 15 25 16 27
REMARK SMILES IDX 17 28 18 29 70 30 19 31 69 32 20 33 21 34 22 35 63 36 23 37
REMARK SMILES IDX 68 38 62 39 64 40 24 41 67 42 61 43 60 44 25 46 51 47 34 48
REMARK SMILES IDX 50 49 35 50 38 51 49 52 65 53 36 54 37 55 48 57 66 58 39 59
REMARK SMILES IDX 26 60 27 61 32 62 28 63 29 64 31 65 33 66 30 67 52 68 53 69
REMARK SMILES IDX 58 70 54 71 55 72 57 73 59 74 56 75 40 76 41 77 46 78 42 79
REMARK SMILES IDX 43 80 45 81 47 82 44 83
REMARK H PARENT 10 5 3 13 3 14 14 26 64 45 38 56
REMARK Flexibility Score: inf
ROOT
ATOM      1  C   UNL     1       1.177   3.920   3.197  1.00  0.00     0.118 C 
ENDROOT
BRANCH   1   2
ATOM      2  N   UNL     1       1.865   3.380   4.352  1.00  0.00    -0.352 N 
ATOM      3  C   UNL     1       2.701   2.299   4.489  1.00  0.00     0.252 C 
ATOM      4  O   UNL     1       3.234   2.142   5.588  1.00  0.00    -0.269 OA
ATOM      5  H   UNL     1       1.706   3.876   5.187  1.00  0.00     0.163 HD
BRANCH   3   6
ATOM      6  C   UNL     1       2.990   1.407   3.364  1.00  0.00     0.051 A 
ATOM      7  C   UNL     1       2.865   0.292   1.287  1.00  0.00     0.059 A 
ATOM      8  C   UNL     1       2.217   1.111   2.193  1.00  0.00     0.035 A 
ATOM      9  S   UNL     1       4.355  -0.258   1.916  1.00  0.00    -0.142 S 
ATOM     10  C   UNL     1       4.153   0.652   3.346  1.00  0.00     0.079 A 
BRANCH   7  11
ATOM     11  C   UNL     1       2.438  -0.092  -0.101  1.00  0.00     0.308 C 
BRANCH  11  12
ATOM     12  N   UNL     1       0.983  -0.212  -0.178  1.00  0.00    -0.336 N 
ATOM     13  H   UNL     1       0.702  -1.060   0.314  1.00  0.00     0.347 HD
ATOM     14  H   UNL     1       0.588   0.628   0.245  1.00  0.00     0.347 HD
BRANCH  12  15
ATOM     15  C   UNL     1       0.481  -0.283  -1.552  1.00  0.00     0.211 C 
ATOM     16  C   UNL     1       0.975  -1.512  -2.321  1.00  0.00     0.081 C 
BRANCH  15  17
ATOM     17  C   UNL     1      -1.030  -0.216  -1.449  1.00  0.00     0.020 A 
ATOM     18  C   UNL     1      -1.774   1.016  -1.453  1.00  0.00     0.021 A 
ATOM     19  C   UNL     1      -1.893  -1.293  -1.324  1.00  0.00     0.074 A 
ATOM     20  C   UNL     1      -3.134   0.824  -1.348  1.00  0.00     0.065 A 
ATOM     21  S   UNL     1      -3.537  -0.831  -1.240  1.00  0.00    -0.152 S 
ENDBRANCH  15  17
ENDBRANCH  12  15
ENDBRANCH  11  12
ENDBRANCH   7  11
ENDBRANCH   3   6
ENDBRANCH   1   2
BRANCH   1  22
ATOM     22  C   UNL     1      -0.295   3.509   3.179  1.00  0.00     0.042 C 
BRANCH  22  23
ATOM     23  C   UNL     1      -1.149   4.285   4.180  1.00  0.00     0.118 C 
BRANCH  23  24
ATOM     24  N   UNL     1      -1.283   5.687   3.811  1.00  0.00    -0.352 N 
ATOM     25  C   UNL     1      -2.404   6.453   3.624  1.00  0.00     0.251 C 
ATOM     26  H   UNL     1      -0.431   6.161   3.674  1.00  0.00     0.163 HD
ATOM     27  O   UNL     1      -2.295   7.561   3.105  1.00  0.00    -0.269 OA
BRANCH  25  28
ATOM     28  C   UNL     1      -3.740   5.966   4.033  1.00  0.00     0.039 A 
ATOM     29  C   UNL     1      -4.838   6.272   3.223  1.00  0.00     0.014 A 
ATOM     30  C   UNL     1      -3.930   5.274   5.232  1.00  0.00     0.014 A 
ATOM     31  C   UNL     1      -6.117   5.854   3.594  1.00  0.00     0.010 A 
ATOM     32  C   UNL     1      -5.197   4.798   5.568  1.00  0.00     0.010 A 
ATOM     33  C   UNL     1      -6.304   5.094   4.760  1.00  0.00    -0.014 A 
BRANCH  33  34
ATOM     34  C   UNL     1      -7.654   4.619   5.154  1.00  0.00     0.031 A 
ATOM     35  C   UNL     1      -8.298   5.130   6.414  1.00  0.00     0.074 A 
ATOM     36  C   UNL     1      -8.278   3.691   4.404  1.00  0.00     0.049 A 
ATOM     37  N   UNL     1      -9.441   4.790   6.956  1.00  0.00    -0.248 NA
ATOM     38  C   UNL     1      -7.548   6.139   7.178  1.00  0.00     0.031 C 
ATOM     39  C   UNL     1      -7.738   3.085   3.185  1.00  0.00     0.029 A 
ATOM     40  N   UNL     1      -9.499   3.087   4.563  1.00  0.00    -0.354 N 
ATOM     41  C   UNL     1      -9.540   5.532   8.126  1.00  0.00     0.074 A 
ATOM     42  C   UNL     1      -8.319   6.300   8.243  1.00  0.00     0.031 C 
ATOM     43  C   UNL     1      -8.632   2.210   2.698  1.00  0.00     0.029 A 
ATOM     44  C   UNL     1      -9.790   2.168   3.584  1.00  0.00     0.049 A 
ATOM     45  H   UNL     1     -10.110   3.293   5.307  1.00  0.00     0.167 HD
ATOM     46  C   UNL     1     -10.564   5.587   9.011  1.00  0.00     0.037 A 
ATOM     47  C   UNL     1     -10.867   1.376   3.425  1.00  0.00     0.037 A 
ATOM     48  C   UNL     1     -11.786   4.836   8.882  1.00  0.00     0.049 A 
ATOM     49  C   UNL     1     -11.992   1.459   4.418  1.00  0.00     0.074 A 
ATOM     50  C   UNL     1     -12.899   4.849   9.704  1.00  0.00     0.029 A 
ATOM     51  N   UNL     1     -12.055   3.938   7.859  1.00  0.00    -0.354 N 
ATOM     52  N   UNL     1     -12.095   2.205   5.491  1.00  0.00    -0.248 NA
ATOM     53  C   UNL     1     -13.156   0.597   4.171  1.00  0.00     0.031 C 
ATOM     54  C   UNL     1     -13.829   3.935   9.197  1.00  0.00     0.029 A 
ATOM     55  C   UNL     1     -13.313   3.385   8.035  1.00  0.00     0.049 A 
ATOM     56  H   UNL     1     -11.443   3.726   7.118  1.00  0.00     0.167 HD
ATOM     57  C   UNL     1     -13.343   1.925   6.031  1.00  0.00     0.074 A 
ATOM     58  C   UNL     1     -13.967   0.951   5.158  1.00  0.00     0.031 C 
ATOM     59  C   UNL     1     -13.922   2.427   7.149  1.00  0.00     0.037 A 
BRANCH  46  60
ATOM     60  C   UNL     1     -10.407   6.499  10.193  1.00  0.00     0.057 A 
ATOM     61  C   UNL     1     -10.433   7.893  10.055  1.00  0.00     0.134 A 
ATOM     62  C   UNL     1     -10.256   5.981  11.486  1.00  0.00     0.134 A 
ATOM     63  F   UNL     1     -10.562   8.454   8.843  1.00  0.00    -0.206 F 
ATOM     64  C   UNL     1     -10.287   8.740  11.155  1.00  0.00     0.040 A 
ATOM     65  C   UNL     1     -10.136   6.818  12.597  1.00  0.00     0.040 A 
ATOM     66  F   UNL     1     -10.230   4.656  11.691  1.00  0.00    -0.206 F 
ATOM     67  C   UNL     1     -10.144   8.201  12.433  1.00  0.00     0.006 A 
ENDBRANCH  46  60
BRANCH  47  68
ATOM     68  C   UNL     1     -10.946   0.453   2.265  1.00  0.00     0.057 A 
ATOM     69  C   UNL     1     -11.847   0.684   1.219  1.00  0.00     0.134 A 
ATOM     70  C   UNL     1     -10.134  -0.683   2.178  1.00  0.00     0.134 A 
ATOM     71  F   UNL     1     -12.664   1.747   1.254  1.00  0.00    -0.206 F 
ATOM     72  C   UNL     1     -11.955  -0.194   0.140  1.00  0.00     0.040 A 
ATOM     73  C   UNL     1     -10.213  -1.556   1.093  1.00  0.00     0.040 A 
ATOM     74  F   UNL     1      -9.244  -0.955   3.144  1.00  0.00    -0.206 F 
ATOM     75  C   UNL     1     -11.132  -1.317   0.073  1.00  0.00     0.006 A 
ENDBRANCH  47  68
BRANCH  59  76
ATOM     76  C   UNL     1     -15.313   1.963   7.465  1.00  0.00     0.057 A 
ATOM     77  C   UNL     1     -15.573   0.673   7.941  1.00  0.00     0.134 A 
ATOM     78  C   UNL     1     -16.403   2.830   7.313  1.00  0.00     0.134 A 
ATOM     79  F   UNL     1     -14.575  -0.210   8.095  1.00  0.00    -0.206 F 
ATOM     80  C   UNL     1     -16.872   0.252   8.232  1.00  0.00     0.040 A 
ATOM     81  C   UNL     1     -17.702   2.430   7.625  1.00  0.00     0.040 A 
ATOM     82  F   UNL     1     -16.221   4.083   6.869  1.00  0.00    -0.206 F 
ATOM     83  C   UNL     1     -17.940   1.134   8.079  1.00  0.00     0.006 A 
ENDBRANCH  59  76
ENDBRANCH  33  34
ENDBRANCH  25  28
ENDBRANCH  23  24
ENDBRANCH  22  23
ENDBRANCH   1  22
TORSDOF 14
