REMARK SMILES O=C(C[C@H]1C[C@H]2CC[C@@H](C1)[N@H+]2[C@@H]1CCCSC1)NCCCNC(=O)c1ccc(-c2c3nc(c(-c4c(F)cccc4F)c4ccc([nH]4)c(-c4c(F)cccc4F)c4nc(c(-c5c(F)cccc5F)c5ccc2[nH]5)C=C4)C=C3)cc1
REMARK SMILES IDX 20 1 19 2 18 3 1 4 2 5 3 7 4 8 5 9 10 10 6 11 9 12 7 13
REMARK SMILES IDX 11 14 8 15 12 17 13 18 17 19 14 20 16 21 15 22 21 23 22 24
REMARK SMILES IDX 23 25 24 27 25 28 26 29 78 30 27 31 77 32 28 33 29 34 30 35
REMARK SMILES IDX 71 36 31 37 76 38 70 39 72 40 32 41 75 42 69 43 68 44 33 46
REMARK SMILES IDX 59 47 42 48 58 49 43 50 46 51 57 52 73 53 44 54 45 55 56 57
REMARK SMILES IDX 74 58 47 59 34 60 35 61 40 62 36 63 37 64 39 65 41 66 38 67
REMARK SMILES IDX 60 68 61 69 66 70 62 71 63 72 65 73 67 74 64 75 48 76 49 77
REMARK SMILES IDX 54 78 50 79 51 80 53 81 55 82 52 83
REMARK H PARENT 18 6 11 16 22 26 72 45 46 56
REMARK Flexibility Score: inf
ROOT
ATOM      1  C   UNL     1       1.968  -3.068   2.522  1.00  0.00     0.042 C 
ENDROOT
BRANCH   1   2
ATOM      2  C   UNL     1       1.319  -1.842   1.885  1.00  0.00     0.117 C 
BRANCH   2   3
ATOM      3  N   UNL     1       1.935  -1.419   0.638  1.00  0.00    -0.356 N 
ATOM      4  O   UNL     1       0.684   0.496   0.480  1.00  0.00    -0.275 OA
ATOM      5  C   UNL     1       1.593  -0.213   0.061  1.00  0.00     0.220 C 
ATOM      6  H   UNL     1       2.601  -1.998   0.202  1.00  0.00     0.163 HD
BRANCH   5   7
ATOM      7  C   UNL     1       2.448   0.195  -1.124  1.00  0.00     0.104 C 
BRANCH   7   8
ATOM      8  C   UNL     1       3.706   1.036  -0.798  1.00  0.00     0.010 C 
ATOM      9  C   UNL     1       3.415   2.466  -0.278  1.00  0.00     0.069 C 
ATOM     10  C   UNL     1       4.791   0.270  -0.011  1.00  0.00     0.069 C 
ATOM     11  C   UNL     1       3.965   2.806   1.122  1.00  0.00     0.185 C 
ATOM     12  C   UNL     1       5.113   0.807   1.389  1.00  0.00     0.185 C 
ATOM     13  C   UNL     1       3.181   2.051   2.196  1.00  0.00     0.071 C 
ATOM     14  N   UNL     1       5.278   2.240   1.373  1.00  0.00    -0.327 N 
ATOM     15  C   UNL     1       3.949   0.744   2.370  1.00  0.00     0.071 C 
ATOM     16  H   UNL     1       5.660   2.577   2.257  1.00  0.00     0.348 HD
BRANCH  14  17
ATOM     17  C   UNL     1       6.530   2.916   1.079  1.00  0.00     0.194 C 
ATOM     18  C   UNL     1       6.681   3.342  -0.388  1.00  0.00     0.067 C 
ATOM     19  C   UNL     1       7.738   2.091   1.587  1.00  0.00     0.134 C 
ATOM     20  C   UNL     1       7.990   4.080  -0.681  1.00  0.00     0.017 C 
ATOM     21  S   UNL     1       9.342   2.918   1.396  1.00  0.00    -0.156 SA
ATOM     22  C   UNL     1       9.230   3.254  -0.377  1.00  0.00     0.070 C 
ENDBRANCH  14  17
ENDBRANCH   7   8
ENDBRANCH   5   7
ENDBRANCH   2   3
ENDBRANCH   1   2
BRANCH   1  23
ATOM     23  C   UNL     1       3.463  -2.978   2.829  1.00  0.00     0.118 C 
BRANCH  23  24
ATOM     24  N   UNL     1       3.809  -2.174   3.992  1.00  0.00    -0.352 N 
ATOM     25  C   UNL     1       4.699  -2.419   5.017  1.00  0.00     0.251 C 
ATOM     26  H   UNL     1       3.330  -1.317   4.058  1.00  0.00     0.163 HD
ATOM     27  O   UNL     1       4.886  -1.568   5.878  1.00  0.00    -0.269 OA
BRANCH  25  28
ATOM     28  C   UNL     1       5.355  -3.740   5.144  1.00  0.00     0.039 A 
ATOM     29  C   UNL     1       5.291  -4.380   6.387  1.00  0.00     0.014 A 
ATOM     30  C   UNL     1       5.964  -4.380   4.063  1.00  0.00     0.014 A 
ATOM     31  C   UNL     1       5.711  -5.705   6.511  1.00  0.00     0.010 A 
ATOM     32  C   UNL     1       6.317  -5.725   4.169  1.00  0.00     0.010 A 
ATOM     33  C   UNL     1       6.158  -6.411   5.384  1.00  0.00    -0.014 A 
BRANCH  33  34
ATOM     34  C   UNL     1       6.380  -7.880   5.441  1.00  0.00     0.031 A 
ATOM     35  C   UNL     1       7.744  -8.462   5.213  1.00  0.00     0.074 A 
ATOM     36  C   UNL     1       5.322  -8.697   5.620  1.00  0.00     0.049 A 
ATOM     37  N   UNL     1       8.103  -9.719   5.141  1.00  0.00    -0.248 NA
ATOM     38  C   UNL     1       8.845  -7.508   5.015  1.00  0.00     0.031 C 
ATOM     39  C   UNL     1       3.936  -8.262   5.805  1.00  0.00     0.029 A 
ATOM     40  N   UNL     1       5.245 -10.068   5.663  1.00  0.00    -0.354 N 
ATOM     41  C   UNL     1       9.466  -9.708   4.876  1.00  0.00     0.074 A 
ATOM     42  C   UNL     1       9.861  -8.320   4.759  1.00  0.00     0.031 C 
ATOM     43  C   UNL     1       3.151  -9.340   5.962  1.00  0.00     0.029 A 
ATOM     44  C   UNL     1       3.968 -10.543   5.850  1.00  0.00     0.049 A 
ATOM     45  H   UNL     1       6.029 -10.655   5.569  1.00  0.00     0.167 HD
ATOM     46  C   UNL     1      10.313 -10.758   4.760  1.00  0.00     0.037 A 
ATOM     47  C   UNL     1       3.504 -11.805   5.915  1.00  0.00     0.037 A 
ATOM     48  C   UNL     1       9.925 -12.137   4.901  1.00  0.00     0.049 A 
ATOM     49  C   UNL     1       4.466 -12.952   5.784  1.00  0.00     0.074 A 
ATOM     50  C   UNL     1      10.725 -13.267   4.854  1.00  0.00     0.029 A 
ATOM     51  N   UNL     1       8.628 -12.576   5.115  1.00  0.00    -0.354 N 
ATOM     52  N   UNL     1       5.762 -12.924   5.593  1.00  0.00    -0.248 NA
ATOM     53  C   UNL     1       3.901 -14.306   5.881  1.00  0.00     0.031 C 
ATOM     54  C   UNL     1       9.906 -14.391   5.005  1.00  0.00     0.029 A 
ATOM     55  C   UNL     1       8.602 -13.960   5.186  1.00  0.00     0.049 A 
ATOM     56  H   UNL     1       7.841 -11.991   5.204  1.00  0.00     0.167 HD
ATOM     57  C   UNL     1       6.172 -14.250   5.577  1.00  0.00     0.074 A 
ATOM     58  C   UNL     1       4.989 -15.058   5.784  1.00  0.00     0.031 C 
ATOM     59  C   UNL     1       7.419 -14.752   5.406  1.00  0.00     0.037 A 
BRANCH  46  60
ATOM     60  C   UNL     1      11.752 -10.453   4.467  1.00  0.00     0.057 A 
ATOM     61  C   UNL     1      12.597  -9.890   5.432  1.00  0.00     0.134 A 
ATOM     62  C   UNL     1      12.309 -10.757   3.218  1.00  0.00     0.134 A 
ATOM     63  F   UNL     1      12.122  -9.565   6.644  1.00  0.00    -0.206 F 
ATOM     64  C   UNL     1      13.938  -9.617   5.158  1.00  0.00     0.040 A 
ATOM     65  C   UNL     1      13.655 -10.512   2.941  1.00  0.00     0.040 A 
ATOM     66  F   UNL     1      11.557 -11.304   2.252  1.00  0.00    -0.206 F 
ATOM     67  C   UNL     1      14.472  -9.935   3.911  1.00  0.00     0.006 A 
ENDBRANCH  46  60
BRANCH  47  68
ATOM     68  C   UNL     1       2.058 -12.054   6.138  1.00  0.00     0.057 A 
ATOM     69  C   UNL     1       1.594 -12.556   7.359  1.00  0.00     0.134 A 
ATOM     70  C   UNL     1       1.109 -11.803   5.140  1.00  0.00     0.134 A 
ATOM     71  F   UNL     1       2.458 -12.834   8.346  1.00  0.00    -0.206 F 
ATOM     72  C   UNL     1       0.240 -12.817   7.575  1.00  0.00     0.040 A 
ATOM     73  C   UNL     1      -0.251 -12.038   5.350  1.00  0.00     0.040 A 
ATOM     74  F   UNL     1       1.490 -11.315   3.950  1.00  0.00    -0.206 F 
ATOM     75  C   UNL     1      -0.687 -12.553   6.569  1.00  0.00     0.006 A 
ENDBRANCH  47  68
BRANCH  59  76
ATOM     76  C   UNL     1       7.576 -16.241   5.476  1.00  0.00     0.057 A 
ATOM     77  C   UNL     1       7.159 -17.078   4.434  1.00  0.00     0.134 A 
ATOM     78  C   UNL     1       8.192 -16.840   6.582  1.00  0.00     0.134 A 
ATOM     79  F   UNL     1       6.549 -16.567   3.354  1.00  0.00    -0.206 F 
ATOM     80  C   UNL     1       7.334 -18.462   4.498  1.00  0.00     0.040 A 
ATOM     81  C   UNL     1       8.393 -18.219   6.647  1.00  0.00     0.040 A 
ATOM     82  F   UNL     1       8.620 -16.092   7.611  1.00  0.00    -0.206 F 
ATOM     83  C   UNL     1       7.960 -19.034   5.604  1.00  0.00     0.006 A 
ENDBRANCH  59  76
ENDBRANCH  33  34
ENDBRANCH  25  28
ENDBRANCH  23  24
ENDBRANCH   1  23
TORSDOF 12
