REMARK SMILES [NH3+][C@H](C(=O)NCCCNC(=O)c1ccc(-c2c3nc(c(-c4c(F)cccc4F)c4ccc([nH]4)c(-c4c(F)cccc4F)c4nc(c(-c5c(F)cccc5F)c5ccc2[nH]5)C=C4)C=C3)cc1)c1cc2[nH]ccc2cc1O
REMARK SMILES IDX 7 1 6 2 5 3 3 4 4 5 2 7 1 8 66 12 67 13 74 14 68 15 73 16
REMARK SMILES IDX 69 17 72 18 70 19 71 21 75 22 8 24 9 25 10 26 11 28 12 29
REMARK SMILES IDX 13 30 65 31 14 32 64 33 15 34 16 35 17 36 58 37 18 38 63 39
REMARK SMILES IDX 57 40 59 41 19 42 62 43 56 44 55 45 20 47 46 48 29 49 45 50
REMARK SMILES IDX 30 51 33 52 44 53 60 54 31 55 32 56 43 58 61 59 34 60 21 61
REMARK SMILES IDX 22 62 27 63 23 64 24 65 26 66 28 67 25 68 47 69 48 70 53 71
REMARK SMILES IDX 49 72 50 73 52 74 54 75 51 76 35 77 36 78 41 79 37 80 38 81
REMARK SMILES IDX 40 82 42 83 39 84
REMARK H PARENT 5 6 1 9 1 10 1 11 69 20 75 23 9 27 59 46 33 57
REMARK Flexibility Score: inf
ROOT
ATOM      1  C   UNL     1       1.615  -0.773  -3.402  1.00  0.00     0.042 C 
ENDROOT
BRANCH   1   2
ATOM      2  C   UNL     1       0.689  -1.008  -2.220  1.00  0.00     0.118 C 
BRANCH   2   3
ATOM      3  N   UNL     1       1.397  -0.973  -0.950  1.00  0.00    -0.351 N 
ATOM      4  C   UNL     1       1.384  -0.058   0.058  1.00  0.00     0.283 C 
ATOM      5  O   UNL     1       1.987  -0.375   1.089  1.00  0.00    -0.268 OA
ATOM      6  H   UNL     1       1.988  -1.744  -0.792  1.00  0.00     0.163 HD
BRANCH   4   7
ATOM      7  C   UNL     1       0.647   1.289  -0.039  1.00  0.00     0.306 C 
BRANCH   7   8
ATOM      8  N   UNL     1       1.054   2.040  -1.253  1.00  0.00    -0.343 N 
ATOM      9  H   UNL     1       0.550   2.926  -1.289  1.00  0.00     0.345 HD
ATOM     10  H   UNL     1       0.834   1.490  -2.083  1.00  0.00     0.345 HD
ATOM     11  H   UNL     1       2.057   2.221  -1.221  1.00  0.00     0.345 HD
ENDBRANCH   7   8
BRANCH   7  12
ATOM     12  C   UNL     1      -0.870   1.294   0.121  1.00  0.00     0.063 A 
ATOM     13  C   UNL     1      -1.443   2.568   0.354  1.00  0.00     0.041 A 
ATOM     14  C   UNL     1      -1.739   0.212  -0.065  1.00  0.00     0.126 A 
ATOM     15  C   UNL     1      -2.825   2.728   0.221  1.00  0.00     0.046 A 
ATOM     16  C   UNL     1      -3.119   0.390  -0.234  1.00  0.00     0.057 A 
ATOM     17  N   UNL     1      -3.609   3.850   0.351  1.00  0.00    -0.361 N 
ATOM     18  C   UNL     1      -3.666   1.678  -0.133  1.00  0.00     0.003 A 
ATOM     19  C   UNL     1      -4.889   3.575  -0.052  1.00  0.00     0.083 A 
ATOM     20  H   UNL     1      -3.296   4.722   0.685  1.00  0.00     0.166 HD
ATOM     21  C   UNL     1      -4.959   2.231  -0.340  1.00  0.00     0.028 A 
BRANCH  14  22
ATOM     22  O   UNL     1      -1.343  -1.095  -0.125  1.00  0.00    -0.507 OA
ATOM     23  H   UNL     1      -0.438  -1.315  -0.022  1.00  0.00     0.293 HD
ENDBRANCH  14  22
ENDBRANCH   7  12
ENDBRANCH   4   7
ENDBRANCH   2   3
ENDBRANCH   1   2
BRANCH   1  24
ATOM     24  C   UNL     1       2.780  -1.751  -3.474  1.00  0.00     0.118 C 
BRANCH  24  25
ATOM     25  N   UNL     1       2.358  -3.130  -3.676  1.00  0.00    -0.352 N 
ATOM     26  C   UNL     1       2.673  -4.010  -4.684  1.00  0.00     0.251 C 
ATOM     27  H   UNL     1       1.754  -3.486  -2.985  1.00  0.00     0.163 HD
ATOM     28  O   UNL     1       2.093  -5.085  -4.760  1.00  0.00    -0.269 OA
BRANCH  26  29
ATOM     29  C   UNL     1       3.685  -3.642  -5.698  1.00  0.00     0.039 A 
ATOM     30  C   UNL     1       3.412  -3.906  -7.042  1.00  0.00     0.014 A 
ATOM     31  C   UNL     1       4.888  -3.031  -5.334  1.00  0.00     0.014 A 
ATOM     32  C   UNL     1       4.306  -3.480  -8.025  1.00  0.00     0.010 A 
ATOM     33  C   UNL     1       5.734  -2.528  -6.319  1.00  0.00     0.010 A 
ATOM     34  C   UNL     1       5.449  -2.741  -7.675  1.00  0.00    -0.014 A 
BRANCH  34  35
ATOM     35  C   UNL     1       6.335  -2.161  -8.717  1.00  0.00     0.031 A 
ATOM     36  C   UNL     1       7.775  -2.583  -8.816  1.00  0.00     0.074 A 
ATOM     37  C   UNL     1       5.854  -1.202  -9.534  1.00  0.00     0.049 A 
ATOM     38  N   UNL     1       8.710  -2.144  -9.620  1.00  0.00    -0.248 NA
ATOM     39  C   UNL     1       8.232  -3.618  -7.875  1.00  0.00     0.031 C 
ATOM     40  C   UNL     1       4.489  -0.670  -9.505  1.00  0.00     0.029 A 
ATOM     41  N   UNL     1       6.460  -0.498 -10.544  1.00  0.00    -0.354 N 
ATOM     42  C   UNL     1       9.862  -2.839  -9.277  1.00  0.00     0.074 A 
ATOM     43  C   UNL     1       9.525  -3.692  -8.158  1.00  0.00     0.031 C 
ATOM     44  C   UNL     1       4.356   0.256 -10.468  1.00  0.00     0.029 A 
ATOM     45  C   UNL     1       5.635   0.418 -11.152  1.00  0.00     0.049 A 
ATOM     46  H   UNL     1       7.399  -0.636 -10.809  1.00  0.00     0.167 HD
ATOM     47  C   UNL     1      11.085  -2.785  -9.856  1.00  0.00     0.037 A 
ATOM     48  C   UNL     1       5.883   1.300 -12.139  1.00  0.00     0.037 A 
ATOM     49  C   UNL     1      11.412  -1.952 -10.983  1.00  0.00     0.049 A 
ATOM     50  C   UNL     1       7.258   1.351 -12.747  1.00  0.00     0.074 A 
ATOM     51  C   UNL     1      12.606  -1.878 -11.680  1.00  0.00     0.029 A 
ATOM     52  N   UNL     1      10.547  -1.043 -11.574  1.00  0.00    -0.354 N 
ATOM     53  N   UNL     1       8.315   0.629 -12.464  1.00  0.00    -0.248 NA
ATOM     54  C   UNL     1       7.473   2.336 -13.816  1.00  0.00     0.031 C 
ATOM     55  C   UNL     1      12.482  -0.884 -12.655  1.00  0.00     0.029 A 
ATOM     56  C   UNL     1      11.192  -0.382 -12.606  1.00  0.00     0.049 A 
ATOM     57  H   UNL     1       9.614  -0.891 -11.300  1.00  0.00     0.167 HD
ATOM     58  C   UNL     1       9.309   1.052 -13.338  1.00  0.00     0.074 A 
ATOM     59  C   UNL     1       8.722   2.077 -14.174  1.00  0.00     0.031 C 
ATOM     60  C   UNL     1      10.593   0.631 -13.437  1.00  0.00     0.037 A 
BRANCH  47  61
ATOM     61  C   UNL     1      12.169  -3.655  -9.288  1.00  0.00     0.057 A 
ATOM     62  C   UNL     1      12.159  -5.047  -9.445  1.00  0.00     0.134 A 
ATOM     63  C   UNL     1      13.274  -3.087  -8.640  1.00  0.00     0.134 A 
ATOM     64  F   UNL     1      11.126  -5.656 -10.046  1.00  0.00    -0.206 F 
ATOM     65  C   UNL     1      13.200  -5.844  -8.966  1.00  0.00     0.040 A 
ATOM     66  C   UNL     1      14.334  -3.870  -8.181  1.00  0.00     0.040 A 
ATOM     67  F   UNL     1      13.351  -1.760  -8.461  1.00  0.00    -0.206 F 
ATOM     68  C   UNL     1      14.298  -5.254  -8.341  1.00  0.00     0.006 A 
ENDBRANCH  47  61
BRANCH  48  69
ATOM     69  C   UNL     1       4.812   2.212 -12.620  1.00  0.00     0.057 A 
ATOM     70  C   UNL     1       4.294   2.101 -13.916  1.00  0.00     0.134 A 
ATOM     71  C   UNL     1       4.309   3.240 -11.814  1.00  0.00     0.134 A 
ATOM     72  F   UNL     1       4.748   1.149 -14.745  1.00  0.00    -0.206 F 
ATOM     73  C   UNL     1       3.342   2.998 -14.405  1.00  0.00     0.040 A 
ATOM     74  C   UNL     1       3.334   4.125 -12.278  1.00  0.00     0.040 A 
ATOM     75  F   UNL     1       4.756   3.397 -10.559  1.00  0.00    -0.206 F 
ATOM     76  C   UNL     1       2.857   4.012 -13.582  1.00  0.00     0.006 A 
ENDBRANCH  48  69
BRANCH  60  77
ATOM     77  C   UNL     1      11.439   1.252 -14.511  1.00  0.00     0.057 A 
ATOM     78  C   UNL     1      11.873   2.581 -14.438  1.00  0.00     0.134 A 
ATOM     79  C   UNL     1      11.852   0.497 -15.617  1.00  0.00     0.134 A 
ATOM     80  F   UNL     1      11.503   3.362 -13.412  1.00  0.00    -0.206 F 
ATOM     81  C   UNL     1      12.664   3.146 -15.440  1.00  0.00     0.040 A 
ATOM     82  C   UNL     1      12.668   1.041 -16.609  1.00  0.00     0.040 A 
ATOM     83  F   UNL     1      11.481  -0.786 -15.744  1.00  0.00    -0.206 F 
ATOM     84  C   UNL     1      13.070   2.373 -16.526  1.00  0.00     0.006 A 
ENDBRANCH  60  77
ENDBRANCH  34  35
ENDBRANCH  26  29
ENDBRANCH  24  25
ENDBRANCH   1  24
TORSDOF 13
