REMARK SMILES [NH3+]C1(C(=O)N2[C@@H](C(=O)NCCCNC(=O)c3ccc(-c4c5nc(c(-c6c(F)cccc6F)c6ccc([nH]6)c(-c6c(F)cccc6F)c6nc(c(-c7c(F)cccc7F)c7ccc4[nH]7)C=C6)C=C5)cc3)CC[C@@H]3CCCC[C@@H]32)CC1
REMARK SMILES IDX 10 1 9 2 7 3 8 4 6 6 5 7 77 8 70 9 72 10 76 11 71 12 73 13
REMARK SMILES IDX 75 14 74 15 3 16 4 17 2 18 78 19 79 20 1 21 11 25 12 26
REMARK SMILES IDX 13 27 14 28 15 30 16 31 17 32 69 33 18 34 68 35 19 36 20 37
REMARK SMILES IDX 21 38 62 39 22 40 67 41 61 42 63 43 23 44 66 45 60 46 59 47
REMARK SMILES IDX 24 49 50 50 33 51 49 52 34 53 37 54 48 55 64 56 35 57 36 58
REMARK SMILES IDX 47 60 65 61 38 62 25 63 26 64 31 65 27 66 28 67 30 68 32 69
REMARK SMILES IDX 29 70 51 71 52 72 57 73 53 74 54 75 56 76 58 77 55 78 39 79
REMARK SMILES IDX 40 80 45 81 41 82 42 83 44 84 46 85 43 86
REMARK H PARENT 9 5 1 22 1 23 1 24 13 29 63 48 37 59
REMARK Flexibility Score: inf
ROOT
ATOM      1  C   UNL     1       3.922  -0.169   2.541  1.00  0.00     0.117 C 
ENDROOT
BRANCH   1   2
ATOM      2  N   UNL     1       3.366  -1.506   2.580  1.00  0.00    -0.354 N 
ATOM      3  C   UNL     1       2.424  -2.025   3.406  1.00  0.00     0.242 C 
ATOM      4  O   UNL     1       2.384  -3.256   3.513  1.00  0.00    -0.273 OA
ATOM      5  H   UNL     1       3.725  -2.129   1.907  1.00  0.00     0.163 HD
BRANCH   3   6
ATOM      6  C   UNL     1       1.539  -1.136   4.298  1.00  0.00     0.175 C 
ATOM      7  N   UNL     1       0.972   0.114   3.723  1.00  0.00    -0.322 N 
ATOM      8  C   UNL     1       0.375   1.058   4.695  1.00  0.00     0.089 C 
ATOM      9  C   UNL     1       2.412  -0.846   5.549  1.00  0.00     0.036 C 
ATOM     10  C   UNL     1       1.349   1.405   5.815  1.00  0.00     0.012 C 
ATOM     11  C   UNL     1      -0.977   0.521   5.214  1.00  0.00     0.025 C 
ATOM     12  C   UNL     1       1.804   0.137   6.538  1.00  0.00     0.008 C 
ATOM     13  C   UNL     1       0.682   2.423   6.742  1.00  0.00     0.006 C 
ATOM     14  C   UNL     1      -1.520   1.123   6.515  1.00  0.00     0.002 C 
ATOM     15  C   UNL     1      -0.543   1.851   7.437  1.00  0.00     0.000 C 
BRANCH   7  16
ATOM     16  C   UNL     1       0.559   0.336   2.399  1.00  0.00     0.284 C 
ATOM     17  O   UNL     1       0.266   1.472   2.017  1.00  0.00    -0.268 OA
BRANCH  16  18
ATOM     18  C   UNL     1       0.456  -0.751   1.345  1.00  0.00     0.174 C 
ATOM     19  C   UNL     1      -0.975  -1.248   1.146  1.00  0.00     0.086 C 
ATOM     20  C   UNL     1       0.101  -2.202   1.533  1.00  0.00     0.086 C 
BRANCH  18  21
ATOM     21  N   UNL     1       1.152  -0.373   0.078  1.00  0.00    -0.345 N 
ATOM     22  H   UNL     1       1.334   0.631   0.076  1.00  0.00     0.345 HD
ATOM     23  H   UNL     1       0.562  -0.613  -0.719  1.00  0.00     0.345 HD
ATOM     24  H   UNL     1       2.036  -0.879   0.011  1.00  0.00     0.345 HD
ENDBRANCH  18  21
ENDBRANCH  16  18
ENDBRANCH   7  16
ENDBRANCH   3   6
ENDBRANCH   1   2
BRANCH   1  25
ATOM     25  C   UNL     1       5.352  -0.167   3.062  1.00  0.00     0.042 C 
BRANCH  25  26
ATOM     26  C   UNL     1       6.291  -1.053   2.254  1.00  0.00     0.118 C 
BRANCH  26  27
ATOM     27  N   UNL     1       6.394  -0.632   0.864  1.00  0.00    -0.352 N 
ATOM     28  C   UNL     1       7.497  -0.220   0.164  1.00  0.00     0.251 C 
ATOM     29  H   UNL     1       5.552  -0.645   0.354  1.00  0.00     0.163 HD
ATOM     30  O   UNL     1       7.365   0.310  -0.940  1.00  0.00    -0.269 OA
BRANCH  28  31
ATOM     31  C   UNL     1       8.841  -0.396   0.745  1.00  0.00     0.039 A 
ATOM     32  C   UNL     1       9.762   0.648   0.653  1.00  0.00     0.014 A 
ATOM     33  C   UNL     1       9.187  -1.590   1.385  1.00  0.00     0.014 A 
ATOM     34  C   UNL     1      11.011   0.517   1.260  1.00  0.00     0.010 A 
ATOM     35  C   UNL     1      10.394  -1.683   2.066  1.00  0.00     0.010 A 
ATOM     36  C   UNL     1      11.323  -0.634   2.003  1.00  0.00    -0.014 A 
BRANCH  36  37
ATOM     37  C   UNL     1      12.622  -0.768   2.706  1.00  0.00     0.031 A 
ATOM     38  C   UNL     1      13.577  -1.863   2.316  1.00  0.00     0.074 A 
ATOM     39  C   UNL     1      12.917   0.060   3.727  1.00  0.00     0.049 A 
ATOM     40  N   UNL     1      14.720  -2.195   2.859  1.00  0.00    -0.248 NA
ATOM     41  C   UNL     1      13.183  -2.715   1.181  1.00  0.00     0.031 C 
ATOM     42  C   UNL     1      12.052   1.132   4.228  1.00  0.00     0.029 A 
ATOM     43  N   UNL     1      14.023   0.123   4.536  1.00  0.00    -0.354 N 
ATOM     44  C   UNL     1      15.179  -3.287   2.134  1.00  0.00     0.074 A 
ATOM     45  C   UNL     1      14.161  -3.608   1.159  1.00  0.00     0.031 C 
ATOM     46  C   UNL     1      12.670   1.757   5.243  1.00  0.00     0.029 A 
ATOM     47  C   UNL     1      13.952   1.107   5.492  1.00  0.00     0.049 A 
ATOM     48  H   UNL     1      14.796  -0.479   4.439  1.00  0.00     0.167 HD
ATOM     49  C   UNL     1      16.358  -3.943   2.247  1.00  0.00     0.037 A 
ATOM     50  C   UNL     1      14.819   1.437   6.468  1.00  0.00     0.037 A 
ATOM     51  C   UNL     1      17.376  -3.613   3.209  1.00  0.00     0.049 A 
ATOM     52  C   UNL     1      16.108   0.671   6.590  1.00  0.00     0.074 A 
ATOM     53  C   UNL     1      18.613  -4.205   3.392  1.00  0.00     0.029 A 
ATOM     54  N   UNL     1      17.274  -2.597   4.147  1.00  0.00    -0.354 N 
ATOM     55  N   UNL     1      16.550  -0.327   5.863  1.00  0.00    -0.248 NA
ATOM     56  C   UNL     1      17.024   1.082   7.664  1.00  0.00     0.031 C 
ATOM     57  C   UNL     1      19.246  -3.570   4.464  1.00  0.00     0.029 A 
ATOM     58  C   UNL     1      18.424  -2.551   4.917  1.00  0.00     0.049 A 
ATOM     59  H   UNL     1      16.500  -1.997   4.250  1.00  0.00     0.167 HD
ATOM     60  C   UNL     1      17.806  -0.638   6.368  1.00  0.00     0.074 A 
ATOM     61  C   UNL     1      18.063   0.288   7.451  1.00  0.00     0.031 C 
ATOM     62  C   UNL     1      18.669  -1.606   5.976  1.00  0.00     0.037 A 
BRANCH  49  63
ATOM     63  C   UNL     1      16.621  -5.068   1.289  1.00  0.00     0.057 A 
ATOM     64  C   UNL     1      16.866  -4.829  -0.070  1.00  0.00     0.134 A 
ATOM     65  C   UNL     1      16.684  -6.394   1.733  1.00  0.00     0.134 A 
ATOM     66  F   UNL     1      16.807  -3.582  -0.562  1.00  0.00    -0.206 F 
ATOM     67  C   UNL     1      17.147  -5.869  -0.956  1.00  0.00     0.040 A 
ATOM     68  C   UNL     1      16.991  -7.441   0.862  1.00  0.00     0.040 A 
ATOM     69  F   UNL     1      16.465  -6.693   3.022  1.00  0.00    -0.206 F 
ATOM     70  C   UNL     1      17.219  -7.180  -0.488  1.00  0.00     0.006 A 
ENDBRANCH  49  63
BRANCH  50  71
ATOM     71  C   UNL     1      14.509   2.544   7.411  1.00  0.00     0.057 A 
ATOM     72  C   UNL     1      15.263   3.723   7.419  1.00  0.00     0.134 A 
ATOM     73  C   UNL     1      13.483   2.430   8.358  1.00  0.00     0.134 A 
ATOM     74  F   UNL     1      16.270   3.886   6.548  1.00  0.00    -0.206 F 
ATOM     75  C   UNL     1      15.037   4.732   8.357  1.00  0.00     0.040 A 
ATOM     76  C   UNL     1      13.226   3.444   9.282  1.00  0.00     0.040 A 
ATOM     77  F   UNL     1      12.716   1.331   8.398  1.00  0.00    -0.206 F 
ATOM     78  C   UNL     1      14.013   4.593   9.292  1.00  0.00     0.006 A 
ENDBRANCH  50  71
BRANCH  62  79
ATOM     79  C   UNL     1      19.990  -1.678   6.685  1.00  0.00     0.057 A 
ATOM     80  C   UNL     1      20.099  -2.129   8.006  1.00  0.00     0.134 A 
ATOM     81  C   UNL     1      21.172  -1.322   6.022  1.00  0.00     0.134 A 
ATOM     82  F   UNL     1      19.003  -2.473   8.700  1.00  0.00    -0.206 F 
ATOM     83  C   UNL     1      21.334  -2.199   8.652  1.00  0.00     0.040 A 
ATOM     84  C   UNL     1      22.415  -1.415   6.648  1.00  0.00     0.040 A 
ATOM     85  F   UNL     1      21.138  -0.891   4.752  1.00  0.00    -0.206 F 
ATOM     86  C   UNL     1      22.498  -1.847   7.970  1.00  0.00     0.006 A 
ENDBRANCH  62  79
ENDBRANCH  36  37
ENDBRANCH  28  31
ENDBRANCH  26  27
ENDBRANCH  25  26
ENDBRANCH   1  25
TORSDOF 13
