REMARK SMILES CNC(=O)NC1=[NH+]N=CN[C@@H]1C(=O)NCCCNC(=O)c1ccc(-c2c3nc(c(-c4c(F)cccc4F)c4ccc([nH]4)c(-c4c(F)cccc4F)c4nc(c(-c5c(F)cccc5F)c5ccc2[nH]5)C=C4)C=C3)cc1
REMARK SMILES IDX 17 1 16 2 15 3 14 4 12 5 13 6 11 8 1 9 2 10 3 11 4 13 5 14
REMARK SMILES IDX 6 15 7 17 8 18 10 20 9 21 18 23 19 24 20 26 21 27 22 28
REMARK SMILES IDX 74 29 23 30 73 31 24 32 25 33 26 34 67 35 27 36 72 37 66 38
REMARK SMILES IDX 68 39 28 40 71 41 65 42 64 43 29 45 55 46 38 47 54 48 39 49
REMARK SMILES IDX 42 50 53 51 69 52 40 53 41 54 52 56 70 57 43 58 30 59 31 60
REMARK SMILES IDX 36 61 32 62 33 63 35 64 37 65 34 66 56 67 57 68 62 69 58 70
REMARK SMILES IDX 59 71 61 72 63 73 60 74 44 75 45 76 50 77 46 78 47 79 49 80
REMARK SMILES IDX 51 81 48 82
REMARK H PARENT 14 7 2 12 5 16 7 19 10 22 18 25 68 44 42 55
REMARK Flexibility Score: inf
ROOT
ATOM      1  C   UNL     1      -3.332   2.662   5.290  1.00  0.00     0.118 C 
ENDROOT
BRANCH   1   2
ATOM      2  C   UNL     1      -1.980   2.013   5.014  1.00  0.00     0.042 C 
BRANCH   2   3
ATOM      3  C   UNL     1      -2.082   0.706   4.238  1.00  0.00     0.117 C 
BRANCH   3   4
ATOM      4  N   UNL     1      -2.543   0.908   2.878  1.00  0.00    -0.354 N 
ATOM      5  C   UNL     1      -1.852   0.978   1.706  1.00  0.00     0.255 C 
ATOM      6  O   UNL     1      -2.511   1.257   0.696  1.00  0.00    -0.272 OA
ATOM      7  H   UNL     1      -3.518   1.012   2.786  1.00  0.00     0.163 HD
BRANCH   5   8
ATOM      8  C   UNL     1      -0.327   0.811   1.606  1.00  0.00     0.287 C 
ATOM      9  C   UNL     1       1.755  -0.567  -0.597  1.00  0.00     0.147 C 
ATOM     10  N   UNL     1       0.480  -1.237  -0.780  1.00  0.00    -0.321 N 
ATOM     11  C   UNL     1      -0.290  -1.881   0.136  1.00  0.00     0.406 C 
ATOM     12  H   UNL     1       0.124  -1.223  -1.698  1.00  0.00     0.167 HD
ATOM     13  O   UNL     1      -1.167  -2.657  -0.229  1.00  0.00    -0.221 OA
ATOM     14  N   UNL     1      -0.018  -1.681   1.458  1.00  0.00    -0.191 N 
ATOM     15  C   UNL     1       0.207  -0.514   2.141  1.00  0.00     0.309 C 
ATOM     16  H   UNL     1       0.024  -2.499   2.003  1.00  0.00     0.317 HD
ATOM     17  N   UNL     1       0.925  -0.640   3.217  1.00  0.00    -0.148 N 
ATOM     18  N   UNL     1       1.382   0.519   3.875  1.00  0.00    -0.077 NA
ATOM     19  H   UNL     1       1.147  -1.533   3.567  1.00  0.00     0.342 HD
ATOM     20  N   UNL     1       0.353   1.919   2.259  1.00  0.00    -0.352 N 
ATOM     21  C   UNL     1       1.117   1.670   3.351  1.00  0.00     0.241 C 
ATOM     22  H   UNL     1       0.259   2.835   1.913  1.00  0.00     0.163 HD
ENDBRANCH   5   8
ENDBRANCH   3   4
ENDBRANCH   2   3
ENDBRANCH   1   2
BRANCH   1  23
ATOM     23  N   UNL     1      -4.207   1.809   6.083  1.00  0.00    -0.352 N 
ATOM     24  C   UNL     1      -4.766   2.015   7.318  1.00  0.00     0.251 C 
ATOM     25  H   UNL     1      -4.432   0.946   5.666  1.00  0.00     0.163 HD
ATOM     26  O   UNL     1      -5.293   1.080   7.911  1.00  0.00    -0.269 OA
BRANCH  24  27
ATOM     27  C   UNL     1      -4.735   3.356   7.936  1.00  0.00     0.039 A 
ATOM     28  C   UNL     1      -4.500   3.460   9.309  1.00  0.00     0.014 A 
ATOM     29  C   UNL     1      -4.976   4.503   7.175  1.00  0.00     0.014 A 
ATOM     30  C   UNL     1      -4.455   4.719   9.908  1.00  0.00     0.010 A 
ATOM     31  C   UNL     1      -4.844   5.759   7.756  1.00  0.00     0.010 A 
ATOM     32  C   UNL     1      -4.596   5.880   9.130  1.00  0.00    -0.014 A 
BRANCH  32  33
ATOM     33  C   UNL     1      -4.502   7.228   9.742  1.00  0.00     0.031 A 
ATOM     34  C   UNL     1      -5.691   8.149   9.725  1.00  0.00     0.074 A 
ATOM     35  C   UNL     1      -3.330   7.639  10.261  1.00  0.00     0.049 A 
ATOM     36  N   UNL     1      -5.790   9.377  10.165  1.00  0.00    -0.248 NA
ATOM     37  C   UNL     1      -6.922   7.633   9.105  1.00  0.00     0.031 C 
ATOM     38  C   UNL     1      -2.094   6.855  10.286  1.00  0.00     0.029 A 
ATOM     39  N   UNL     1      -2.985   8.822  10.864  1.00  0.00    -0.354 N 
ATOM     40  C   UNL     1      -7.085   9.783   9.864  1.00  0.00     0.074 A 
ATOM     41  C   UNL     1      -7.714   8.694   9.150  1.00  0.00     0.031 C 
ATOM     42  C   UNL     1      -1.135   7.565  10.901  1.00  0.00     0.029 A 
ATOM     43  C   UNL     1      -1.676   8.866  11.279  1.00  0.00     0.049 A 
ATOM     44  H   UNL     1      -3.615   9.568  10.987  1.00  0.00     0.167 HD
ATOM     45  C   UNL     1      -7.701  10.946  10.179  1.00  0.00     0.037 A 
ATOM     46  C   UNL     1      -0.991   9.849  11.893  1.00  0.00     0.037 A 
ATOM     47  C   UNL     1      -7.077  12.015  10.913  1.00  0.00     0.049 A 
ATOM     48  C   UNL     1      -1.698  11.131  12.230  1.00  0.00     0.074 A 
ATOM     49  C   UNL     1      -7.633  13.209  11.338  1.00  0.00     0.029 A 
ATOM     50  N   UNL     1      -5.754  12.018  11.329  1.00  0.00    -0.354 N 
ATOM     51  N   UNL     1      -2.945  11.473  12.006  1.00  0.00    -0.248 NA
ATOM     52  C   UNL     1      -0.906  12.163  12.914  1.00  0.00     0.031 C 
ATOM     53  C   UNL     1      -6.632  13.954  11.971  1.00  0.00     0.029 A 
ATOM     54  C   UNL     1      -5.468  13.204  11.985  1.00  0.00     0.049 A 
ATOM     55  H   UNL     1      -5.113  11.285  11.180  1.00  0.00     0.167 HD
ATOM     56  C   UNL     1      -3.093  12.745  12.542  1.00  0.00     0.074 A 
ATOM     57  C   UNL     1      -1.815  13.106  13.118  1.00  0.00     0.031 C 
ATOM     58  C   UNL     1      -4.189  13.544  12.555  1.00  0.00     0.037 A 
BRANCH  45  59
ATOM     59  C   UNL     1      -9.126  11.118   9.735  1.00  0.00     0.057 A 
ATOM     60  C   UNL     1     -10.172  10.375  10.301  1.00  0.00     0.134 A 
ATOM     61  C   UNL     1      -9.462  12.056   8.752  1.00  0.00     0.134 A 
ATOM     62  F   UNL     1      -9.918   9.450  11.239  1.00  0.00    -0.206 F 
ATOM     63  C   UNL     1     -11.494  10.539   9.884  1.00  0.00     0.040 A 
ATOM     64  C   UNL     1     -10.784  12.250   8.348  1.00  0.00     0.040 A 
ATOM     65  F   UNL     1      -8.512  12.806   8.172  1.00  0.00    -0.206 F 
ATOM     66  C   UNL     1     -11.804  11.485   8.910  1.00  0.00     0.006 A 
ENDBRANCH  45  59
BRANCH  46  67
ATOM     67  C   UNL     1       0.436   9.648  12.252  1.00  0.00     0.057 A 
ATOM     68  C   UNL     1       0.833   9.527  13.589  1.00  0.00     0.134 A 
ATOM     69  C   UNL     1       1.435   9.579  11.274  1.00  0.00     0.134 A 
ATOM     70  F   UNL     1      -0.076   9.602  14.572  1.00  0.00    -0.206 F 
ATOM     71  C   UNL     1       2.174   9.366  13.942  1.00  0.00     0.040 A 
ATOM     72  C   UNL     1       2.776   9.392  11.611  1.00  0.00     0.040 A 
ATOM     73  F   UNL     1       1.119   9.678   9.974  1.00  0.00    -0.206 F 
ATOM     74  C   UNL     1       3.150   9.293  12.950  1.00  0.00     0.006 A 
ENDBRANCH  46  67
BRANCH  58  75
ATOM     75  C   UNL     1      -4.057  14.873  13.239  1.00  0.00     0.057 A 
ATOM     76  C   UNL     1      -3.311  15.920  12.683  1.00  0.00     0.134 A 
ATOM     77  C   UNL     1      -4.716  15.119  14.450  1.00  0.00     0.134 A 
ATOM     78  F   UNL     1      -2.646  15.744  11.531  1.00  0.00    -0.206 F 
ATOM     79  C   UNL     1      -3.203  17.156  13.322  1.00  0.00     0.040 A 
ATOM     80  C   UNL     1      -4.639  16.360  15.084  1.00  0.00     0.040 A 
ATOM     81  F   UNL     1      -5.455  14.162  15.031  1.00  0.00    -0.206 F 
ATOM     82  C   UNL     1      -3.874  17.380  14.522  1.00  0.00     0.006 A 
ENDBRANCH  58  75
ENDBRANCH  32  33
ENDBRANCH  24  27
ENDBRANCH   1  23
TORSDOF 10
