REMARK SMILES CCN(CCOC)C(=O)c1cccn1CC(=O)NCCCNC(=O)c1ccc(-c2c3nc(c(-c4c(F)cccc4F)c4ccc([nH]4)c(-c4c(F)cccc4F)c4nc(c(-c5c(F)cccc5F)c5ccc2[nH]5)C=C4)C=C3)cc1
REMARK SMILES IDX 16 1 17 2 18 3 15 5 14 6 10 7 11 8 12 9 13 10 8 11 9 12 3 13
REMARK SMILES IDX 2 14 1 15 4 16 5 17 6 18 7 19 19 20 20 21 21 22 22 23 23 24
REMARK SMILES IDX 24 26 25 27 26 28 78 29 27 30 77 31 28 32 29 33 30 34 71 35
REMARK SMILES IDX 31 36 76 37 70 38 72 39 32 40 75 41 69 42 68 43 33 45 59 46
REMARK SMILES IDX 42 47 58 48 43 49 46 50 57 51 73 52 44 53 45 54 56 56 74 57
REMARK SMILES IDX 47 58 34 59 35 60 40 61 36 62 37 63 39 64 41 65 38 66 60 67
REMARK SMILES IDX 61 68 66 69 62 70 63 71 65 72 67 73 64 74 48 75 49 76 54 77
REMARK SMILES IDX 50 78 51 79 53 80 55 81 52 82
REMARK H PARENT 18 4 22 25 72 44 46 55
REMARK Flexibility Score: inf
ROOT
ATOM      1  C   UNL     1       4.523  -4.206   1.741  1.00  0.00     0.239 C 
ATOM      2  O   UNL     1       5.441  -4.794   2.318  1.00  0.00    -0.273 OA
ATOM      3  N   UNL     1       3.300  -4.165   2.353  1.00  0.00    -0.354 N 
ATOM      4  H   UNL     1       3.244  -4.620   3.225  1.00  0.00     0.163 HD
ENDROOT
BRANCH   1   5
ATOM      5  C   UNL     1       4.734  -3.523   0.401  1.00  0.00     0.222 C 
BRANCH   5   6
ATOM      6  N   UNL     1       4.096  -4.254  -0.687  1.00  0.00    -0.334 N 
ATOM      7  C   UNL     1       3.044  -3.823  -1.494  1.00  0.00     0.107 A 
ATOM      8  C   UNL     1       2.699  -4.938  -2.252  1.00  0.00     0.033 A 
ATOM      9  C   UNL     1       3.572  -6.007  -1.950  1.00  0.00     0.020 A 
ATOM     10  C   UNL     1       4.453  -5.543  -1.011  1.00  0.00     0.087 A 
BRANCH   7  11
ATOM     11  C   UNL     1       2.542  -2.447  -1.493  1.00  0.00     0.270 C 
ATOM     12  O   UNL     1       3.336  -1.515  -1.350  1.00  0.00    -0.267 OA
BRANCH  11  13
ATOM     13  N   UNL     1       1.167  -2.156  -1.578  1.00  0.00    -0.335 N 
BRANCH  13  14
ATOM     14  C   UNL     1       0.758  -0.749  -1.443  1.00  0.00     0.116 C 
ATOM     15  C   UNL     1       0.951  -0.182  -0.041  1.00  0.00     0.027 C 
ENDBRANCH  13  14
BRANCH  13  16
ATOM     16  C   UNL     1       0.111  -3.089  -1.986  1.00  0.00     0.148 C 
BRANCH  16  17
ATOM     17  C   UNL     1      -0.245  -2.993  -3.484  1.00  0.00     0.181 C 
BRANCH  17  18
ATOM     18  O   UNL     1       0.794  -3.468  -4.337  1.00  0.00    -0.383 OA
ATOM     19  C   UNL     1       1.750  -2.482  -4.710  1.00  0.00     0.194 C 
ENDBRANCH  17  18
ENDBRANCH  16  17
ENDBRANCH  13  16
ENDBRANCH  11  13
ENDBRANCH   7  11
ENDBRANCH   5   6
ENDBRANCH   1   5
BRANCH   3  20
ATOM     20  C   UNL     1       2.075  -3.541   1.891  1.00  0.00     0.117 C 
BRANCH  20  21
ATOM     21  C   UNL     1       1.126  -4.537   1.220  1.00  0.00     0.042 C 
BRANCH  21  22
ATOM     22  C   UNL     1       0.352  -5.386   2.215  1.00  0.00     0.118 C 
BRANCH  22  23
ATOM     23  N   UNL     1      -0.628  -4.576   2.922  1.00  0.00    -0.352 N 
ATOM     24  C   UNL     1      -1.554  -4.941   3.864  1.00  0.00     0.251 C 
ATOM     25  H   UNL     1      -0.626  -3.620   2.687  1.00  0.00     0.163 HD
ATOM     26  O   UNL     1      -2.509  -4.206   4.075  1.00  0.00    -0.269 OA
BRANCH  24  27
ATOM     27  C   UNL     1      -1.424  -6.209   4.607  1.00  0.00     0.039 A 
ATOM     28  C   UNL     1      -2.599  -6.896   4.934  1.00  0.00     0.014 A 
ATOM     29  C   UNL     1      -0.182  -6.682   5.045  1.00  0.00     0.014 A 
ATOM     30  C   UNL     1      -2.524  -8.089   5.640  1.00  0.00     0.010 A 
ATOM     31  C   UNL     1      -0.097  -7.895   5.711  1.00  0.00     0.010 A 
ATOM     32  C   UNL     1      -1.270  -8.600   5.996  1.00  0.00    -0.014 A 
BRANCH  32  33
ATOM     33  C   UNL     1      -1.193  -9.980   6.513  1.00  0.00     0.031 A 
ATOM     34  C   UNL     1      -1.385 -11.005   5.370  1.00  0.00     0.074 A 
ATOM     35  C   UNL     1      -0.996 -10.111   7.862  1.00  0.00     0.049 A 
ATOM     36  N   UNL     1      -1.875 -12.205   5.393  1.00  0.00    -0.248 NA
ATOM     37  C   UNL     1      -1.044 -10.606   3.972  1.00  0.00     0.031 C 
ATOM     38  C   UNL     1      -0.765  -8.980   8.791  1.00  0.00     0.029 A 
ATOM     39  N   UNL     1      -0.944 -11.182   8.732  1.00  0.00    -0.354 N 
ATOM     40  C   UNL     1      -1.718 -12.765   4.101  1.00  0.00     0.074 A 
ATOM     41  C   UNL     1      -1.318 -11.693   3.245  1.00  0.00     0.031 C 
ATOM     42  C   UNL     1      -0.686  -9.408  10.069  1.00  0.00     0.029 A 
ATOM     43  C   UNL     1      -0.852 -10.846  10.113  1.00  0.00     0.049 A 
ATOM     44  H   UNL     1      -0.969 -12.115   8.419  1.00  0.00     0.167 HD
ATOM     45  C   UNL     1      -1.787 -14.110   3.861  1.00  0.00     0.037 A 
ATOM     46  C   UNL     1      -0.957 -11.662  11.212  1.00  0.00     0.037 A 
ATOM     47  C   UNL     1      -2.070 -14.790   5.077  1.00  0.00     0.049 A 
ATOM     48  C   UNL     1      -1.018 -13.021  10.664  1.00  0.00     0.074 A 
ATOM     49  C   UNL     1      -3.206 -14.879   5.835  1.00  0.00     0.029 A 
ATOM     50  N   UNL     1      -0.985 -15.165   5.830  1.00  0.00    -0.354 N 
ATOM     51  N   UNL     1      -0.004 -13.660  10.165  1.00  0.00    -0.248 NA
ATOM     52  C   UNL     1      -2.326 -13.677  10.561  1.00  0.00     0.031 C 
ATOM     53  C   UNL     1      -2.709 -14.812   7.151  1.00  0.00     0.029 A 
ATOM     54  C   UNL     1      -1.316 -14.959   7.143  1.00  0.00     0.049 A 
ATOM     55  H   UNL     1      -0.129 -15.515   5.491  1.00  0.00     0.167 HD
ATOM     56  C   UNL     1      -0.622 -14.610   9.390  1.00  0.00     0.074 A 
ATOM     57  C   UNL     1      -1.954 -14.785   9.928  1.00  0.00     0.031 C 
ATOM     58  C   UNL     1      -0.250 -14.757   8.093  1.00  0.00     0.037 A 
BRANCH  45  59
ATOM     59  C   UNL     1      -1.376 -14.978   2.702  1.00  0.00     0.057 A 
ATOM     60  C   UNL     1      -1.864 -16.309   2.663  1.00  0.00     0.134 A 
ATOM     61  C   UNL     1      -0.271 -14.715   1.889  1.00  0.00     0.134 A 
ATOM     62  F   UNL     1      -2.960 -16.664   3.354  1.00  0.00    -0.206 F 
ATOM     63  C   UNL     1      -1.199 -17.339   1.994  1.00  0.00     0.040 A 
ATOM     64  C   UNL     1       0.376 -15.734   1.172  1.00  0.00     0.040 A 
ATOM     65  F   UNL     1       0.278 -13.495   1.833  1.00  0.00    -0.206 F 
ATOM     66  C   UNL     1      -0.056 -17.055   1.264  1.00  0.00     0.006 A 
ENDBRANCH  45  59
BRANCH  46  67
ATOM     67  C   UNL     1      -1.119 -11.545  12.714  1.00  0.00     0.057 A 
ATOM     68  C   UNL     1      -0.956 -10.389  13.481  1.00  0.00     0.134 A 
ATOM     69  C   UNL     1      -1.545 -12.672  13.477  1.00  0.00     0.134 A 
ATOM     70  F   UNL     1      -0.430  -9.276  12.961  1.00  0.00    -0.206 F 
ATOM     71  C   UNL     1      -1.310 -10.330  14.848  1.00  0.00     0.040 A 
ATOM     72  C   UNL     1      -1.943 -12.618  14.816  1.00  0.00     0.040 A 
ATOM     73  F   UNL     1      -1.599 -13.905  12.956  1.00  0.00    -0.206 F 
ATOM     74  C   UNL     1      -1.847 -11.431  15.507  1.00  0.00     0.006 A 
ENDBRANCH  46  67
BRANCH  58  75
ATOM     75  C   UNL     1       1.167 -14.303   7.790  1.00  0.00     0.057 A 
ATOM     76  C   UNL     1       2.249 -14.913   8.439  1.00  0.00     0.134 A 
ATOM     77  C   UNL     1       1.497 -13.207   6.977  1.00  0.00     0.134 A 
ATOM     78  F   UNL     1       2.045 -15.982   9.224  1.00  0.00    -0.206 F 
ATOM     79  C   UNL     1       3.565 -14.445   8.311  1.00  0.00     0.040 A 
ATOM     80  C   UNL     1       2.808 -12.729   6.831  1.00  0.00     0.040 A 
ATOM     81  F   UNL     1       0.558 -12.552   6.298  1.00  0.00    -0.206 F 
ATOM     82  C   UNL     1       3.849 -13.345   7.509  1.00  0.00     0.006 A 
ENDBRANCH  58  75
ENDBRANCH  32  33
ENDBRANCH  24  27
ENDBRANCH  22  23
ENDBRANCH  21  22
ENDBRANCH  20  21
ENDBRANCH   3  20
TORSDOF 17
