REMARK SMILES Cc1cscc1CNC(=O)CC(C)(C)C(=O)NCCCNC(=O)c1ccc(-c2c3nc(c(-c4c(F)cccc4F)c4ccc([nH]4)c(-c4c(F)cccc4F)c4nc(c(-c5c(F)cccc5F)c5ccc2[nH]5)C=C4)C=C3)cc1
REMARK SMILES IDX 18 1 17 2 15 3 16 4 12 6 13 7 14 8 11 9 9 10 8 11 10 13 7 14
REMARK SMILES IDX 6 15 1 16 2 17 3 18 4 19 5 20 19 21 20 22 21 23 22 24 23 26
REMARK SMILES IDX 24 27 25 28 77 29 26 30 76 31 27 32 28 33 29 34 70 35 30 36
REMARK SMILES IDX 75 37 69 38 71 39 31 40 74 41 68 42 67 43 32 45 58 46 41 47
REMARK SMILES IDX 57 48 42 49 45 50 56 51 72 52 43 53 44 54 55 56 73 57 46 58
REMARK SMILES IDX 33 59 34 60 39 61 35 62 36 63 38 64 40 65 37 66 59 67 60 68
REMARK SMILES IDX 65 69 61 70 62 71 64 72 66 73 63 74 47 75 48 76 53 77 49 78
REMARK SMILES IDX 50 79 52 80 54 81 51 82
REMARK H PARENT 17 5 8 12 21 25 71 44 45 55
REMARK Flexibility Score: inf
ROOT
ATOM      1  C   UNL     1      -3.046   2.625   2.287  1.00  0.00     0.117 C 
ENDROOT
BRANCH   1   2
ATOM      2  N   UNL     1      -2.861   3.397   1.075  1.00  0.00    -0.356 N 
ATOM      3  C   UNL     1      -1.870   4.194   0.612  1.00  0.00     0.226 C 
ATOM      4  O   UNL     1      -2.149   4.791  -0.431  1.00  0.00    -0.274 OA
ATOM      5  H   UNL     1      -3.621   3.325   0.453  1.00  0.00     0.163 HD
BRANCH   3   6
ATOM      6  C   UNL     1      -0.547   4.459   1.359  1.00  0.00     0.052 C 
ATOM      7  C   UNL     1       0.062   3.235   2.061  1.00  0.00     0.022 C 
ATOM      8  C   UNL     1      -0.854   5.509   2.449  1.00  0.00     0.022 C 
BRANCH   6   9
ATOM      9  C   UNL     1       0.514   5.064   0.380  1.00  0.00     0.116 C 
BRANCH   9  10
ATOM     10  C   UNL     1       0.543   4.600  -1.075  1.00  0.00     0.221 C 
ATOM     11  N   UNL     1       0.970   3.366  -1.442  1.00  0.00    -0.352 N 
ATOM     12  H   UNL     1       0.760   3.129  -2.374  1.00  0.00     0.163 HD
ATOM     13  O   UNL     1       0.244   5.375  -1.988  1.00  0.00    -0.275 OA
BRANCH  11  14
ATOM     14  C   UNL     1       1.674   2.338  -0.716  1.00  0.00     0.152 C 
BRANCH  14  15
ATOM     15  C   UNL     1       0.855   1.077  -0.631  1.00  0.00    -0.015 A 
ATOM     16  C   UNL     1       2.839  -0.496   0.019  1.00  0.00     0.045 C 
ATOM     17  C   UNL     1       1.398  -0.219  -0.268  1.00  0.00    -0.035 A 
ATOM     18  C   UNL     1       0.409  -1.185  -0.208  1.00  0.00     0.068 A 
ATOM     19  S   UNL     1      -1.135  -0.581  -0.597  1.00  0.00    -0.152 S 
ATOM     20  C   UNL     1      -0.510   0.982  -0.862  1.00  0.00     0.070 A 
ENDBRANCH  14  15
ENDBRANCH  11  14
ENDBRANCH   9  10
ENDBRANCH   6   9
ENDBRANCH   3   6
ENDBRANCH   1   2
BRANCH   1  21
ATOM     21  C   UNL     1      -4.167   3.184   3.152  1.00  0.00     0.042 C 
BRANCH  21  22
ATOM     22  C   UNL     1      -5.545   3.103   2.508  1.00  0.00     0.118 C 
BRANCH  22  23
ATOM     23  N   UNL     1      -5.964   1.732   2.247  1.00  0.00    -0.352 N 
ATOM     24  C   UNL     1      -6.936   0.965   2.833  1.00  0.00     0.251 C 
ATOM     25  H   UNL     1      -5.465   1.281   1.528  1.00  0.00     0.163 HD
ATOM     26  O   UNL     1      -6.970  -0.246   2.602  1.00  0.00    -0.269 OA
BRANCH  24  27
ATOM     27  C   UNL     1      -7.929   1.559   3.752  1.00  0.00     0.039 A 
ATOM     28  C   UNL     1      -8.342   0.823   4.867  1.00  0.00     0.014 A 
ATOM     29  C   UNL     1      -8.485   2.817   3.509  1.00  0.00     0.014 A 
ATOM     30  C   UNL     1      -9.255   1.377   5.766  1.00  0.00     0.010 A 
ATOM     31  C   UNL     1      -9.311   3.410   4.459  1.00  0.00     0.010 A 
ATOM     32  C   UNL     1      -9.716   2.692   5.593  1.00  0.00    -0.014 A 
BRANCH  32  33
ATOM     33  C   UNL     1     -10.623   3.323   6.586  1.00  0.00     0.031 A 
ATOM     34  C   UNL     1     -12.000   3.776   6.183  1.00  0.00     0.074 A 
ATOM     35  C   UNL     1     -10.185   3.531   7.843  1.00  0.00     0.049 A 
ATOM     36  N   UNL     1     -12.922   4.362   6.906  1.00  0.00    -0.248 NA
ATOM     37  C   UNL     1     -12.384   3.574   4.776  1.00  0.00     0.031 C 
ATOM     38  C   UNL     1      -8.849   3.196   8.341  1.00  0.00     0.029 A 
ATOM     39  N   UNL     1     -10.818   4.074   8.934  1.00  0.00    -0.354 N 
ATOM     40  C   UNL     1     -13.983   4.605   6.042  1.00  0.00     0.074 A 
ATOM     41  C   UNL     1     -13.568   4.165   4.729  1.00  0.00     0.031 C 
ATOM     42  C   UNL     1      -8.775   3.504   9.646  1.00  0.00     0.029 A 
ATOM     43  C   UNL     1     -10.042   4.092  10.068  1.00  0.00     0.049 A 
ATOM     44  H   UNL     1     -11.740   4.418   8.906  1.00  0.00     0.167 HD
ATOM     45  C   UNL     1     -15.204   5.121   6.322  1.00  0.00     0.037 A 
ATOM     46  C   UNL     1     -10.321   4.532  11.309  1.00  0.00     0.037 A 
ATOM     47  C   UNL     1     -15.622   5.537   7.635  1.00  0.00     0.049 A 
ATOM     48  C   UNL     1     -11.685   5.095  11.595  1.00  0.00     0.074 A 
ATOM     49  C   UNL     1     -16.857   6.015   8.036  1.00  0.00     0.029 A 
ATOM     50  N   UNL     1     -14.812   5.527   8.761  1.00  0.00    -0.354 N 
ATOM     51  N   UNL     1     -12.706   5.244  10.786  1.00  0.00    -0.248 NA
ATOM     52  C   UNL     1     -11.939   5.541  12.972  1.00  0.00     0.031 C 
ATOM     53  C   UNL     1     -16.780   6.339   9.395  1.00  0.00     0.029 A 
ATOM     54  C   UNL     1     -15.514   6.012   9.853  1.00  0.00     0.049 A 
ATOM     55  H   UNL     1     -13.877   5.220   8.782  1.00  0.00     0.167 HD
ATOM     56  C   UNL     1     -13.729   5.777  11.558  1.00  0.00     0.074 A 
ATOM     57  C   UNL     1     -13.212   5.903  12.906  1.00  0.00     0.031 C 
ATOM     58  C   UNL     1     -14.984   6.132  11.187  1.00  0.00     0.037 A 
BRANCH  45  59
ATOM     59  C   UNL     1     -16.177   5.257   5.185  1.00  0.00     0.057 A 
ATOM     60  C   UNL     1     -16.753   4.139   4.567  1.00  0.00     0.134 A 
ATOM     61  C   UNL     1     -16.567   6.520   4.723  1.00  0.00     0.134 A 
ATOM     62  F   UNL     1     -16.415   2.899   4.952  1.00  0.00    -0.206 F 
ATOM     63  C   UNL     1     -17.660   4.271   3.513  1.00  0.00     0.040 A 
ATOM     64  C   UNL     1     -17.495   6.666   3.690  1.00  0.00     0.040 A 
ATOM     65  F   UNL     1     -16.060   7.634   5.272  1.00  0.00    -0.206 F 
ATOM     66  C   UNL     1     -18.039   5.538   3.077  1.00  0.00     0.006 A 
ENDBRANCH  45  59
BRANCH  46  67
ATOM     67  C   UNL     1      -9.300   4.429  12.383  1.00  0.00     0.057 A 
ATOM     68  C   UNL     1      -9.463   3.540  13.452  1.00  0.00     0.134 A 
ATOM     69  C   UNL     1      -8.145   5.220  12.373  1.00  0.00     0.134 A 
ATOM     70  F   UNL     1     -10.557   2.768  13.527  1.00  0.00    -0.206 F 
ATOM     71  C   UNL     1      -8.527   3.457  14.484  1.00  0.00     0.040 A 
ATOM     72  C   UNL     1      -7.187   5.128  13.384  1.00  0.00     0.040 A 
ATOM     73  F   UNL     1      -7.924   6.084  11.371  1.00  0.00    -0.206 F 
ATOM     74  C   UNL     1      -7.382   4.250  14.449  1.00  0.00     0.006 A 
ENDBRANCH  46  67
BRANCH  58  75
ATOM     75  C   UNL     1     -15.889   6.662  12.261  1.00  0.00     0.057 A 
ATOM     76  C   UNL     1     -15.691   7.922  12.842  1.00  0.00     0.134 A 
ATOM     77  C   UNL     1     -16.983   5.910  12.706  1.00  0.00     0.134 A 
ATOM     78  F   UNL     1     -14.654   8.687  12.470  1.00  0.00    -0.206 F 
ATOM     79  C   UNL     1     -16.530   8.399  13.850  1.00  0.00     0.040 A 
ATOM     80  C   UNL     1     -17.847   6.390  13.691  1.00  0.00     0.040 A 
ATOM     81  F   UNL     1     -17.237   4.700  12.185  1.00  0.00    -0.206 F 
ATOM     82  C   UNL     1     -17.615   7.635  14.273  1.00  0.00     0.006 A 
ENDBRANCH  58  75
ENDBRANCH  32  33
ENDBRANCH  24  27
ENDBRANCH  22  23
ENDBRANCH  21  22
ENDBRANCH   1  21
TORSDOF 14
