REMARK SMILES CCN(Cc1ccccn1)C(=O)NC(CC)(CC)C(=O)NCCCNC(=O)c1ccc(-c2c3nc(c(-c4c(F)cccc4F)c4ccc([nH]4)c(-c4c(F)cccc4F)c4nc(c(-c5c(F)cccc5F)c5ccc2[nH]5)C=C4)C=C3)cc1
REMARK SMILES IDX 22 1 21 2 19 3 20 4 14 6 13 7 11 8 12 9 3 11 2 12 1 13 4 14
REMARK SMILES IDX 5 15 6 16 10 17 7 18 9 19 8 20 15 21 16 22 17 23 18 24 23 25
REMARK SMILES IDX 24 26 25 27 26 28 27 30 28 31 29 32 81 33 30 34 80 35 31 36
REMARK SMILES IDX 32 37 33 38 74 39 34 40 79 41 73 42 75 43 35 44 78 45 72 46
REMARK SMILES IDX 71 47 36 49 62 50 45 51 61 52 46 53 49 54 60 55 76 56 47 57
REMARK SMILES IDX 48 58 59 60 77 61 50 62 37 63 38 64 43 65 39 66 40 67 42 68
REMARK SMILES IDX 44 69 41 70 63 71 64 72 69 73 65 74 66 75 68 76 70 77 67 78
REMARK SMILES IDX 51 79 52 80 57 81 53 82 54 83 56 84 58 85 55 86
REMARK H PARENT 21 5 13 10 25 29 75 48 49 59
REMARK Flexibility Score: inf
ROOT
ATOM      1  C   UNL     1      -0.029   7.146  -0.578  1.00  0.00     0.117 C 
ENDROOT
BRANCH   1   2
ATOM      2  N   UNL     1      -0.080   5.720  -0.830  1.00  0.00    -0.354 N 
ATOM      3  C   UNL     1       0.819   4.721  -0.647  1.00  0.00     0.245 C 
ATOM      4  O   UNL     1       0.465   3.640  -1.139  1.00  0.00    -0.272 OA
ATOM      5  H   UNL     1      -0.936   5.417  -1.210  1.00  0.00     0.163 HD
BRANCH   3   6
ATOM      6  C   UNL     1       2.232   4.920  -0.024  1.00  0.00     0.120 C 
BRANCH   6   7
ATOM      7  N   UNL     1       2.778   3.609   0.408  1.00  0.00    -0.323 N 
ATOM      8  C   UNL     1       2.460   2.546   1.155  1.00  0.00     0.318 C 
ATOM      9  O   UNL     1       3.421   1.778   1.317  1.00  0.00    -0.249 OA
ATOM     10  H   UNL     1       3.671   3.479   0.014  1.00  0.00     0.166 HD
BRANCH   8  11
ATOM     11  N   UNL     1       1.211   2.197   1.578  1.00  0.00    -0.319 N 
BRANCH  11  12
ATOM     12  C   UNL     1       0.998   0.746   1.666  1.00  0.00     0.118 C 
ATOM     13  C   UNL     1       1.004   0.091   0.284  1.00  0.00     0.027 C 
ENDBRANCH  11  12
BRANCH  11  14
ATOM     14  C   UNL     1       0.017   3.009   1.864  1.00  0.00     0.177 C 
BRANCH  14  15
ATOM     15  C   UNL     1       0.143   4.089   2.918  1.00  0.00     0.060 A 
ATOM     16  C   UNL     1      -0.633   5.247   2.805  1.00  0.00     0.026 A 
ATOM     17  N   UNL     1       0.959   3.879   3.981  1.00  0.00    -0.259 NA
ATOM     18  C   UNL     1      -0.513   6.245   3.769  1.00  0.00     0.004 A 
ATOM     19  C   UNL     1       1.051   4.859   4.906  1.00  0.00     0.111 A 
ATOM     20  C   UNL     1       0.351   6.052   4.838  1.00  0.00     0.020 A 
ENDBRANCH  14  15
ENDBRANCH  11  14
ENDBRANCH   8  11
ENDBRANCH   6   7
BRANCH   6  21
ATOM     21  C   UNL     1       2.367   5.878   1.190  1.00  0.00     0.035 C 
ATOM     22  C   UNL     1       3.743   6.513   1.395  1.00  0.00     0.007 C 
ENDBRANCH   6  21
BRANCH   6  23
ATOM     23  C   UNL     1       3.111   5.430  -1.223  1.00  0.00     0.035 C 
ATOM     24  C   UNL     1       3.026   4.606  -2.510  1.00  0.00     0.007 C 
ENDBRANCH   6  23
ENDBRANCH   3   6
ENDBRANCH   1   2
BRANCH   1  25
ATOM     25  C   UNL     1      -0.831   7.934  -1.602  1.00  0.00     0.042 C 
BRANCH  25  26
ATOM     26  C   UNL     1      -2.318   7.611  -1.632  1.00  0.00     0.118 C 
BRANCH  26  27
ATOM     27  N   UNL     1      -3.058   8.114  -0.484  1.00  0.00    -0.352 N 
ATOM     28  C   UNL     1      -4.271   8.767  -0.492  1.00  0.00     0.251 C 
ATOM     29  H   UNL     1      -2.645   7.971   0.398  1.00  0.00     0.163 HD
ATOM     30  O   UNL     1      -4.758   9.211   0.542  1.00  0.00    -0.269 OA
BRANCH  28  31
ATOM     31  C   UNL     1      -4.950   8.967  -1.789  1.00  0.00     0.039 A 
ATOM     32  C   UNL     1      -5.217  10.268  -2.218  1.00  0.00     0.014 A 
ATOM     33  C   UNL     1      -5.194   7.874  -2.625  1.00  0.00     0.014 A 
ATOM     34  C   UNL     1      -5.645  10.482  -3.529  1.00  0.00     0.010 A 
ATOM     35  C   UNL     1      -5.550   8.096  -3.951  1.00  0.00     0.010 A 
ATOM     36  C   UNL     1      -5.766   9.402  -4.420  1.00  0.00    -0.014 A 
BRANCH  36  37
ATOM     37  C   UNL     1      -6.099   9.614  -5.851  1.00  0.00     0.031 A 
ATOM     38  C   UNL     1      -7.370   9.049  -6.417  1.00  0.00     0.074 A 
ATOM     39  C   UNL     1      -5.220  10.237  -6.661  1.00  0.00     0.049 A 
ATOM     40  N   UNL     1      -7.788   9.032  -7.657  1.00  0.00    -0.248 NA
ATOM     41  C   UNL     1      -8.275   8.383  -5.467  1.00  0.00     0.031 C 
ATOM     42  C   UNL     1      -3.922  10.779  -6.252  1.00  0.00     0.029 A 
ATOM     43  N   UNL     1      -5.282  10.508  -8.006  1.00  0.00    -0.354 N 
ATOM     44  C   UNL     1      -8.984   8.327  -7.640  1.00  0.00     0.074 A 
ATOM     45  C   UNL     1      -9.206   7.900  -6.276  1.00  0.00     0.031 C 
ATOM     46  C   UNL     1      -3.322  11.336  -7.317  1.00  0.00     0.029 A 
ATOM     47  C   UNL     1      -4.176  11.166  -8.488  1.00  0.00     0.049 A 
ATOM     48  H   UNL     1      -6.046  10.254  -8.571  1.00  0.00     0.167 HD
ATOM     49  C   UNL     1      -9.832   8.075  -8.665  1.00  0.00     0.037 A 
ATOM     50  C   UNL     1      -3.884  11.582  -9.735  1.00  0.00     0.037 A 
ATOM     51  C   UNL     1      -9.641   8.544 -10.010  1.00  0.00     0.049 A 
ATOM     52  C   UNL     1      -4.865  11.334 -10.846  1.00  0.00     0.074 A 
ATOM     53  C   UNL     1     -10.484   8.407 -11.099  1.00  0.00     0.029 A 
ATOM     54  N   UNL     1      -8.532   9.251 -10.447  1.00  0.00    -0.354 N 
ATOM     55  N   UNL     1      -6.021  10.718 -10.803  1.00  0.00    -0.248 NA
ATOM     56  C   UNL     1      -4.503  11.843 -12.177  1.00  0.00     0.031 C 
ATOM     57  C   UNL     1      -9.875   9.015 -12.202  1.00  0.00     0.029 A 
ATOM     58  C   UNL     1      -8.665   9.552 -11.792  1.00  0.00     0.049 A 
ATOM     59  H   UNL     1      -7.764   9.501  -9.885  1.00  0.00     0.167 HD
ATOM     60  C   UNL     1      -6.533  10.781 -12.091  1.00  0.00     0.074 A 
ATOM     61  C   UNL     1      -5.568  11.506 -12.892  1.00  0.00     0.031 C 
ATOM     62  C   UNL     1      -7.699  10.283 -12.568  1.00  0.00     0.037 A 
BRANCH  49  63
ATOM     63  C   UNL     1     -11.053   7.262  -8.358  1.00  0.00     0.057 A 
ATOM     64  C   UNL     1     -12.126   7.792  -7.632  1.00  0.00     0.134 A 
ATOM     65  C   UNL     1     -11.161   5.939  -8.804  1.00  0.00     0.134 A 
ATOM     66  F   UNL     1     -12.075   9.048  -7.162  1.00  0.00    -0.206 F 
ATOM     67  C   UNL     1     -13.256   7.027  -7.338  1.00  0.00     0.040 A 
ATOM     68  C   UNL     1     -12.295   5.171  -8.536  1.00  0.00     0.040 A 
ATOM     69  F   UNL     1     -10.168   5.373  -9.506  1.00  0.00    -0.206 F 
ATOM     70  C   UNL     1     -13.344   5.714  -7.795  1.00  0.00     0.006 A 
ENDBRANCH  49  63
BRANCH  50  71
ATOM     71  C   UNL     1      -2.619  12.309  -9.997  1.00  0.00     0.057 A 
ATOM     72  C   UNL     1      -2.620  13.690 -10.227  1.00  0.00     0.134 A 
ATOM     73  C   UNL     1      -1.386  11.648 -10.031  1.00  0.00     0.134 A 
ATOM     74  F   UNL     1      -3.774  14.372 -10.225  1.00  0.00    -0.206 F 
ATOM     75  C   UNL     1      -1.441  14.386 -10.496  1.00  0.00     0.040 A 
ATOM     76  C   UNL     1      -0.197  12.335 -10.281  1.00  0.00     0.040 A 
ATOM     77  F   UNL     1      -1.321  10.326  -9.812  1.00  0.00    -0.206 F 
ATOM     78  C   UNL     1      -0.224  13.708 -10.520  1.00  0.00     0.006 A 
ENDBRANCH  50  71
BRANCH  62  79
ATOM     79  C   UNL     1      -8.007  10.528 -14.013  1.00  0.00     0.057 A 
ATOM     80  C   UNL     1      -7.389   9.792 -15.030  1.00  0.00     0.134 A 
ATOM     81  C   UNL     1      -8.964  11.480 -14.386  1.00  0.00     0.134 A 
ATOM     82  F   UNL     1      -6.454   8.876 -14.735  1.00  0.00    -0.206 F 
ATOM     83  C   UNL     1      -7.705  10.002 -16.373  1.00  0.00     0.040 A 
ATOM     84  C   UNL     1      -9.301  11.686 -15.724  1.00  0.00     0.040 A 
ATOM     85  F   UNL     1      -9.593  12.213 -13.456  1.00  0.00    -0.206 F 
ATOM     86  C   UNL     1      -8.668  10.947 -16.722  1.00  0.00     0.006 A 
ENDBRANCH  62  79
ENDBRANCH  36  37
ENDBRANCH  28  31
ENDBRANCH  26  27
ENDBRANCH  25  26
ENDBRANCH   1  25
TORSDOF 17
