REMARK SMILES O=C(NCCCNC(=O)c1ccc(-c2c3nc(c(-c4c(F)cccc4F)c4ccc([nH]4)c(-c4c(F)cccc4F)c4nc(c(-c5c(F)cccc5F)c5ccc2[nH]5)C=C4)C=C3)cc1)C1=Cc2cc(Cl)ccc2O[C@@H]1C(F)(F)F
REMARK SMILES IDX 5 1 4 2 3 3 1 4 2 5 64 7 65 8 74 9 66 10 73 11 67 12 72 13
REMARK SMILES IDX 68 14 71 15 69 16 70 17 75 18 76 19 77 20 78 21 6 22 7 23
REMARK SMILES IDX 8 24 9 26 10 27 11 28 63 29 12 30 62 31 13 32 14 33 15 34
REMARK SMILES IDX 56 35 16 36 61 37 55 38 57 39 17 40 60 41 54 42 53 43 18 45
REMARK SMILES IDX 44 46 27 47 43 48 28 49 31 50 42 51 58 52 29 53 30 54 41 56
REMARK SMILES IDX 59 57 32 58 19 59 20 60 25 61 21 62 22 63 24 64 26 65 23 66
REMARK SMILES IDX 45 67 46 68 51 69 47 70 48 71 50 72 52 73 49 74 33 75 34 76
REMARK SMILES IDX 39 77 35 78 36 79 38 80 40 81 37 82
REMARK H PARENT 3 6 7 25 57 44 31 55
REMARK Flexibility Score: inf
ROOT
ATOM      1  C   UNL     1       4.249   0.243   2.742  1.00  0.00     0.042 C 
ENDROOT
BRANCH   1   2
ATOM      2  C   UNL     1       3.396  -0.378   1.641  1.00  0.00     0.118 C 
BRANCH   2   3
ATOM      3  N   UNL     1       2.416   0.554   1.080  1.00  0.00    -0.352 N 
ATOM      4  O   UNL     1       1.285   1.660  -0.544  1.00  0.00    -0.270 OA
ATOM      5  C   UNL     1       2.280   1.040  -0.197  1.00  0.00     0.251 C 
ATOM      6  H   UNL     1       1.747   0.887   1.722  1.00  0.00     0.163 HD
BRANCH   5   7
ATOM      7  C   UNL     1       3.361   0.728  -1.147  1.00  0.00     0.067 C 
ATOM      8  C   UNL     1       4.546   1.310  -0.922  1.00  0.00     0.025 C 
ATOM      9  C   UNL     1       3.191  -0.485  -2.007  1.00  0.00     0.314 C 
ATOM     10  C   UNL     1       5.663   0.361  -0.962  1.00  0.00     0.019 A 
ATOM     11  O   UNL     1       4.249  -1.456  -1.812  1.00  0.00    -0.475 OA
ATOM     12  C   UNL     1       6.831   0.718  -0.279  1.00  0.00     0.032 A 
ATOM     13  C   UNL     1       5.424  -0.991  -1.275  1.00  0.00     0.128 A 
ATOM     14  C   UNL     1       7.688  -0.280   0.182  1.00  0.00     0.041 A 
ATOM     15  C   UNL     1       6.311  -1.977  -0.846  1.00  0.00     0.048 A 
ATOM     16  Cl  UNL     1       9.005   0.148   1.203  1.00  0.00    -0.084 Cl
ATOM     17  C   UNL     1       7.425  -1.623  -0.084  1.00  0.00     0.024 A 
BRANCH   9  18
ATOM     18  C   UNL     1       3.067  -0.104  -3.490  1.00  0.00     0.429 C 
ATOM     19  F   UNL     1       2.759  -1.186  -4.246  1.00  0.00    -0.167 F 
ATOM     20  F   UNL     1       2.089   0.808  -3.697  1.00  0.00    -0.167 F 
ATOM     21  F   UNL     1       4.215   0.417  -3.984  1.00  0.00    -0.167 F 
ENDBRANCH   9  18
ENDBRANCH   5   7
ENDBRANCH   2   3
ENDBRANCH   1   2
BRANCH   1  22
ATOM     22  C   UNL     1       4.245  -0.587   4.019  1.00  0.00     0.118 C 
BRANCH  22  23
ATOM     23  N   UNL     1       4.862  -1.901   3.888  1.00  0.00    -0.352 N 
ATOM     24  C   UNL     1       5.674  -2.586   4.766  1.00  0.00     0.251 C 
ATOM     25  H   UNL     1       4.669  -2.371   3.045  1.00  0.00     0.163 HD
ATOM     26  O   UNL     1       6.141  -3.674   4.434  1.00  0.00    -0.269 OA
BRANCH  24  27
ATOM     27  C   UNL     1       6.026  -2.005   6.084  1.00  0.00     0.039 A 
ATOM     28  C   UNL     1       7.316  -2.195   6.591  1.00  0.00     0.014 A 
ATOM     29  C   UNL     1       5.104  -1.259   6.817  1.00  0.00     0.014 A 
ATOM     30  C   UNL     1       7.693  -1.576   7.787  1.00  0.00     0.010 A 
ATOM     31  C   UNL     1       5.520  -0.535   7.927  1.00  0.00     0.010 A 
ATOM     32  C   UNL     1       6.810  -0.706   8.444  1.00  0.00    -0.014 A 
BRANCH  32  33
ATOM     33  C   UNL     1       7.186  -0.003   9.699  1.00  0.00     0.031 A 
ATOM     34  C   UNL     1       6.362  -0.204  10.946  1.00  0.00     0.074 A 
ATOM     35  C   UNL     1       8.211   0.872   9.701  1.00  0.00     0.049 A 
ATOM     36  N   UNL     1       6.469   0.377  12.114  1.00  0.00    -0.248 NA
ATOM     37  C   UNL     1       5.232  -1.144  10.852  1.00  0.00     0.031 C 
ATOM     38  C   UNL     1       9.033   1.223   8.540  1.00  0.00     0.029 A 
ATOM     39  N   UNL     1       8.736   1.630  10.717  1.00  0.00    -0.354 N 
ATOM     40  C   UNL     1       5.402  -0.096  12.869  1.00  0.00     0.074 A 
ATOM     41  C   UNL     1       4.617  -0.948  12.007  1.00  0.00     0.031 C 
ATOM     42  C   UNL     1       9.983   2.093   8.919  1.00  0.00     0.029 A 
ATOM     43  C   UNL     1       9.819   2.385  10.339  1.00  0.00     0.049 A 
ATOM     44  H   UNL     1       8.369   1.633  11.631  1.00  0.00     0.167 HD
ATOM     45  C   UNL     1       5.120   0.124  14.175  1.00  0.00     0.037 A 
ATOM     46  C   UNL     1      10.599   3.210  11.062  1.00  0.00     0.037 A 
ATOM     47  C   UNL     1       5.944   0.916  15.047  1.00  0.00     0.049 A 
ATOM     48  C   UNL     1      10.317   3.378  12.530  1.00  0.00     0.074 A 
ATOM     49  C   UNL     1       5.804   1.136  16.406  1.00  0.00     0.029 A 
ATOM     50  N   UNL     1       7.075   1.609  14.642  1.00  0.00    -0.354 N 
ATOM     51  N   UNL     1       9.351   2.861  13.250  1.00  0.00    -0.248 NA
ATOM     52  C   UNL     1      11.245   4.227  13.288  1.00  0.00     0.031 C 
ATOM     53  C   UNL     1       6.835   1.989  16.816  1.00  0.00     0.029 A 
ATOM     54  C   UNL     1       7.641   2.264  15.722  1.00  0.00     0.049 A 
ATOM     55  H   UNL     1       7.424   1.633  13.721  1.00  0.00     0.167 HD
ATOM     56  C   UNL     1       9.569   3.300  14.550  1.00  0.00     0.074 A 
ATOM     57  C   UNL     1      10.770   4.109  14.519  1.00  0.00     0.031 C 
ATOM     58  C   UNL     1       8.842   3.057  15.668  1.00  0.00     0.037 A 
BRANCH  45  59
ATOM     59  C   UNL     1       3.884  -0.523  14.734  1.00  0.00     0.057 A 
ATOM     60  C   UNL     1       3.777  -1.913  14.885  1.00  0.00     0.134 A 
ATOM     61  C   UNL     1       2.785   0.252  15.125  1.00  0.00     0.134 A 
ATOM     62  F   UNL     1       4.786  -2.717  14.515  1.00  0.00    -0.206 F 
ATOM     63  C   UNL     1       2.610  -2.510  15.366  1.00  0.00     0.040 A 
ATOM     64  C   UNL     1       1.625  -0.331  15.638  1.00  0.00     0.040 A 
ATOM     65  F   UNL     1       2.819   1.589  15.013  1.00  0.00    -0.206 F 
ATOM     66  C   UNL     1       1.531  -1.717  15.749  1.00  0.00     0.006 A 
ENDBRANCH  45  59
BRANCH  46  67
ATOM     67  C   UNL     1      11.756   3.889  10.425  1.00  0.00     0.057 A 
ATOM     68  C   UNL     1      13.069   3.499  10.715  1.00  0.00     0.134 A 
ATOM     69  C   UNL     1      11.582   4.933   9.509  1.00  0.00     0.134 A 
ATOM     70  F   UNL     1      13.301   2.514  11.596  1.00  0.00    -0.206 F 
ATOM     71  C   UNL     1      14.168   4.136  10.136  1.00  0.00     0.040 A 
ATOM     72  C   UNL     1      12.671   5.563   8.904  1.00  0.00     0.040 A 
ATOM     73  F   UNL     1      10.350   5.346   9.179  1.00  0.00    -0.206 F 
ATOM     74  C   UNL     1      13.970   5.168   9.223  1.00  0.00     0.006 A 
ENDBRANCH  46  67
BRANCH  58  75
ATOM     75  C   UNL     1       9.351   3.644  16.951  1.00  0.00     0.057 A 
ATOM     76  C   UNL     1       9.282   5.017  17.216  1.00  0.00     0.134 A 
ATOM     77  C   UNL     1       9.894   2.818  17.943  1.00  0.00     0.134 A 
ATOM     78  F   UNL     1       8.781   5.862  16.301  1.00  0.00    -0.206 F 
ATOM     79  C   UNL     1       9.765   5.553  18.410  1.00  0.00     0.040 A 
ATOM     80  C   UNL     1      10.355   3.338  19.152  1.00  0.00     0.040 A 
ATOM     81  F   UNL     1       9.978   1.492  17.756  1.00  0.00    -0.206 F 
ATOM     82  C   UNL     1      10.299   4.711  19.384  1.00  0.00     0.006 A 
ENDBRANCH  58  75
ENDBRANCH  32  33
ENDBRANCH  24  27
ENDBRANCH  22  23
ENDBRANCH   1  22
TORSDOF 11
