REMARK SMILES CCc1ccc(C[NH+]2CCC(Oc3ccccc3OC)(C(=O)NCCCNC(=O)c3ccc(-c4c5nc(c(-c6c(F)cccc6F)c6ccc([nH]6)c(-c6c(F)cccc6F)c6nc(c(-c7c(F)cccc7F)c7ccc4[nH]7)C=C6)C=C5)cc3)CC2)nc1
REMARK SMILES IDX 24 1 23 2 21 3 22 4 11 6 8 7 9 8 85 9 10 11 84 12 7 13 6 14
REMARK SMILES IDX 3 15 4 16 87 17 5 18 86 19 2 20 1 21 12 22 13 23 14 24 18 25
REMARK SMILES IDX 15 26 17 27 16 28 19 29 20 30 25 31 26 32 27 33 28 34 29 36
REMARK SMILES IDX 30 37 31 38 83 39 32 40 82 41 33 42 34 43 35 44 76 45 36 46
REMARK SMILES IDX 81 47 75 48 77 49 37 50 80 51 74 52 73 53 38 55 64 56 47 57
REMARK SMILES IDX 63 58 48 59 51 60 62 61 78 62 49 63 50 64 61 66 79 67 52 68
REMARK SMILES IDX 39 69 40 70 45 71 41 72 42 73 44 74 46 75 43 76 65 77 66 78
REMARK SMILES IDX 71 79 67 80 68 81 70 82 72 83 69 84 53 85 54 86 59 87 55 88
REMARK SMILES IDX 56 89 58 90 60 91 57 92
REMARK H PARENT 23 5 8 10 27 35 77 54 51 65
REMARK Flexibility Score: inf
ROOT
ATOM      1  C   UNL     1      -4.514  -3.178   5.926  1.00  0.00     0.118 C 
ENDROOT
BRANCH   1   2
ATOM      2  N   UNL     1      -3.654  -3.796   4.926  1.00  0.00    -0.353 N 
ATOM      3  C   UNL     1      -2.535  -4.577   5.044  1.00  0.00     0.264 C 
ATOM      4  O   UNL     1      -2.176  -5.139   4.003  1.00  0.00    -0.270 OA
ATOM      5  H   UNL     1      -3.927  -3.622   3.997  1.00  0.00     0.163 HD
BRANCH   3   6
ATOM      6  C   UNL     1      -1.740  -4.718   6.381  1.00  0.00     0.197 C 
ATOM      7  N   UNL     1       1.087  -4.028   5.854  1.00  0.00    -0.330 N 
ATOM      8  C   UNL     1       0.050  -2.997   5.812  1.00  0.00     0.267 C 
ATOM      9  C   UNL     1       0.556  -5.304   5.355  1.00  0.00     0.267 C 
ATOM     10  H   UNL     1       1.362  -4.159   6.827  1.00  0.00     0.348 HD
ATOM     11  C   UNL     1      -1.088  -3.380   6.741  1.00  0.00     0.120 C 
ATOM     12  C   UNL     1      -0.624  -5.779   6.222  1.00  0.00     0.120 C 
BRANCH   7  13
ATOM     13  C   UNL     1       2.320  -3.613   5.135  1.00  0.00     0.319 C 
BRANCH  13  14
ATOM     14  C   UNL     1       2.113  -2.971   3.772  1.00  0.00     0.095 A 
ATOM     15  C   UNL     1       1.259  -1.824   1.405  1.00  0.00    -0.030 A 
ATOM     16  C   UNL     1       1.655  -1.007   2.463  1.00  0.00     0.007 A 
ATOM     17  C   UNL     1       1.365  -3.200   1.599  1.00  0.00     0.115 A 
ATOM     18  C   UNL     1       2.094  -1.581   3.655  1.00  0.00     0.030 A 
ATOM     19  N   UNL     1       1.790  -3.784   2.740  1.00  0.00    -0.255 NA
BRANCH  15  20
ATOM     20  C   UNL     1       0.637  -1.307   0.135  1.00  0.00     0.034 C 
ATOM     21  C   UNL     1       1.040   0.101  -0.279  1.00  0.00     0.009 C 
ENDBRANCH  15  20
ENDBRANCH  13  14
ENDBRANCH   7  13
BRANCH   6  22
ATOM     22  O   UNL     1      -2.792  -5.026   7.333  1.00  0.00    -0.473 OA
BRANCH  22  23
ATOM     23  C   UNL     1      -2.540  -5.675   8.500  1.00  0.00     0.162 A 
ATOM     24  C   UNL     1      -2.351  -7.059   8.466  1.00  0.00     0.050 A 
ATOM     25  C   UNL     1      -2.745  -5.050   9.738  1.00  0.00     0.160 A 
ATOM     26  C   UNL     1      -2.246  -7.795   9.647  1.00  0.00     0.004 A 
ATOM     27  C   UNL     1      -2.616  -5.783  10.922  1.00  0.00     0.050 A 
ATOM     28  C   UNL     1      -2.350  -7.152  10.877  1.00  0.00     0.004 A 
BRANCH  25  29
ATOM     29  O   UNL     1      -3.317  -3.810   9.870  1.00  0.00    -0.493 OA
ATOM     30  C   UNL     1      -2.418  -2.732   9.668  1.00  0.00     0.278 C 
ENDBRANCH  25  29
ENDBRANCH  22  23
ENDBRANCH   6  22
ENDBRANCH   3   6
ENDBRANCH   1   2
BRANCH   1  31
ATOM     31  C   UNL     1      -4.423  -1.658   5.936  1.00  0.00     0.042 C 
BRANCH  31  32
ATOM     32  C   UNL     1      -4.973  -0.995   4.683  1.00  0.00     0.118 C 
BRANCH  32  33
ATOM     33  N   UNL     1      -6.417  -1.135   4.565  1.00  0.00    -0.352 N 
ATOM     34  C   UNL     1      -7.415  -0.196   4.636  1.00  0.00     0.251 C 
ATOM     35  H   UNL     1      -6.729  -2.056   4.409  1.00  0.00     0.163 HD
ATOM     36  O   UNL     1      -8.584  -0.563   4.711  1.00  0.00    -0.269 OA
BRANCH  34  37
ATOM     37  C   UNL     1      -7.105   1.252   4.638  1.00  0.00     0.039 A 
ATOM     38  C   UNL     1      -7.862   2.099   5.455  1.00  0.00     0.014 A 
ATOM     39  C   UNL     1      -6.118   1.792   3.809  1.00  0.00     0.014 A 
ATOM     40  C   UNL     1      -7.590   3.469   5.484  1.00  0.00     0.010 A 
ATOM     41  C   UNL     1      -5.791   3.143   3.900  1.00  0.00     0.010 A 
ATOM     42  C   UNL     1      -6.530   3.998   4.731  1.00  0.00    -0.014 A 
BRANCH  42  43
ATOM     43  C   UNL     1      -6.187   5.442   4.790  1.00  0.00     0.031 A 
ATOM     44  C   UNL     1      -6.311   6.302   3.562  1.00  0.00     0.074 A 
ATOM     45  C   UNL     1      -5.704   5.967   5.934  1.00  0.00     0.049 A 
ATOM     46  N   UNL     1      -5.989   7.560   3.397  1.00  0.00    -0.248 NA
ATOM     47  C   UNL     1      -6.845   5.656   2.352  1.00  0.00     0.031 C 
ATOM     48  C   UNL     1      -5.495   5.230   7.182  1.00  0.00     0.029 A 
ATOM     49  N   UNL     1      -5.292   7.242   6.228  1.00  0.00    -0.354 N 
ATOM     50  C   UNL     1      -6.264   7.850   2.067  1.00  0.00     0.074 A 
ATOM     51  C   UNL     1      -6.733   6.625   1.456  1.00  0.00     0.031 C 
ATOM     52  C   UNL     1      -5.014   6.070   8.112  1.00  0.00     0.029 A 
ATOM     53  C   UNL     1      -4.845   7.392   7.519  1.00  0.00     0.049 A 
ATOM     54  H   UNL     1      -5.314   7.980   5.577  1.00  0.00     0.167 HD
ATOM     55  C   UNL     1      -6.159   9.034   1.418  1.00  0.00     0.037 A 
ATOM     56  C   UNL     1      -4.346   8.472   8.150  1.00  0.00     0.037 A 
ATOM     57  C   UNL     1      -5.722  10.260   2.034  1.00  0.00     0.049 A 
ATOM     58  C   UNL     1      -4.234   9.773   7.406  1.00  0.00     0.074 A 
ATOM     59  C   UNL     1      -5.641  11.524   1.477  1.00  0.00     0.029 A 
ATOM     60  N   UNL     1      -5.292  10.373   3.347  1.00  0.00    -0.354 N 
ATOM     61  N   UNL     1      -4.556  10.046   6.165  1.00  0.00    -0.248 NA
ATOM     62  C   UNL     1      -3.691  10.917   8.152  1.00  0.00     0.031 C 
ATOM     63  C   UNL     1      -5.123  12.395   2.441  1.00  0.00     0.029 A 
ATOM     64  C   UNL     1      -4.923  11.682   3.612  1.00  0.00     0.049 A 
ATOM     65  H   UNL     1      -5.254   9.633   3.996  1.00  0.00     0.167 HD
ATOM     66  C   UNL     1      -4.280  11.396   5.989  1.00  0.00     0.074 A 
ATOM     67  C   UNL     1      -3.778  11.889   7.254  1.00  0.00     0.031 C 
ATOM     68  C   UNL     1      -4.428  12.158   4.878  1.00  0.00     0.037 A 
BRANCH  55  69
ATOM     69  C   UNL     1      -6.530   9.064  -0.036  1.00  0.00     0.057 A 
ATOM     70  C   UNL     1      -7.859   8.946  -0.462  1.00  0.00     0.134 A 
ATOM     71  C   UNL     1      -5.551   9.251  -1.021  1.00  0.00     0.134 A 
ATOM     72  F   UNL     1      -8.844   8.753   0.429  1.00  0.00    -0.206 F 
ATOM     73  C   UNL     1      -8.200   8.988  -1.815  1.00  0.00     0.040 A 
ATOM     74  C   UNL     1      -5.882   9.321  -2.375  1.00  0.00     0.040 A 
ATOM     75  F   UNL     1      -4.259   9.377  -0.683  1.00  0.00    -0.206 F 
ATOM     76  C   UNL     1      -7.210   9.183  -2.776  1.00  0.00     0.006 A 
ENDBRANCH  55  69
BRANCH  56  77
ATOM     77  C   UNL     1      -3.929   8.374   9.571  1.00  0.00     0.057 A 
ATOM     78  C   UNL     1      -4.660   9.009  10.582  1.00  0.00     0.134 A 
ATOM     79  C   UNL     1      -2.789   7.657   9.953  1.00  0.00     0.134 A 
ATOM     80  F   UNL     1      -5.751   9.727  10.275  1.00  0.00    -0.206 F 
ATOM     81  C   UNL     1      -4.263   8.951  11.918  1.00  0.00     0.040 A 
ATOM     82  C   UNL     1      -2.394   7.570  11.289  1.00  0.00     0.040 A 
ATOM     83  F   UNL     1      -2.049   7.021   9.033  1.00  0.00    -0.206 F 
ATOM     84  C   UNL     1      -3.129   8.225  12.275  1.00  0.00     0.006 A 
ENDBRANCH  56  77
BRANCH  68  85
ATOM     85  C   UNL     1      -4.068  13.610   4.990  1.00  0.00     0.057 A 
ATOM     86  C   UNL     1      -2.736  14.035   5.068  1.00  0.00     0.134 A 
ATOM     87  C   UNL     1      -5.064  14.595   4.983  1.00  0.00     0.134 A 
ATOM     88  F   UNL     1      -1.737  13.141   5.093  1.00  0.00    -0.206 F 
ATOM     89  C   UNL     1      -2.408  15.389   5.157  1.00  0.00     0.040 A 
ATOM     90  C   UNL     1      -4.747  15.952   5.045  1.00  0.00     0.040 A 
ATOM     91  F   UNL     1      -6.359  14.254   4.902  1.00  0.00    -0.206 F 
ATOM     92  C   UNL     1      -3.416  16.352   5.138  1.00  0.00     0.006 A 
ENDBRANCH  68  85
ENDBRANCH  42  43
ENDBRANCH  34  37
ENDBRANCH  32  33
ENDBRANCH  31  32
ENDBRANCH   1  31
TORSDOF 16
