REMARK SMILES O=C(Cc1ccc(NC(=O)Nc2ccc(Br)cc2)cc1)NCCCNC(=O)c1ccc(-c2c3nc(c(-c4c(F)cccc4F)c4ccc([nH]4)c(-c4c(F)cccc4F)c4nc(c(-c5c(F)cccc5F)c5ccc2[nH]5)C=C4)C=C3)cc1
REMARK SMILES IDX 22 1 21 2 1 3 2 4 3 6 4 7 5 8 20 9 6 10 19 11 7 12 8 13 9 14
REMARK SMILES IDX 10 16 11 17 12 19 13 20 18 21 14 22 17 23 15 24 16 25 23 26
REMARK SMILES IDX 24 27 25 28 26 29 27 31 28 32 29 33 81 34 30 35 80 36 31 37
REMARK SMILES IDX 32 38 33 39 74 40 34 41 79 42 73 43 75 44 35 45 78 46 72 47
REMARK SMILES IDX 71 48 36 50 62 51 45 52 61 53 46 54 49 55 60 56 76 57 47 58
REMARK SMILES IDX 48 59 59 61 77 62 50 63 37 64 38 65 43 66 39 67 40 68 42 69
REMARK SMILES IDX 44 70 41 71 63 72 64 73 69 74 65 75 66 76 68 77 70 78 67 79
REMARK SMILES IDX 51 80 52 81 57 82 53 83 54 84 56 85 58 86 55 87
REMARK H PARENT 21 5 8 15 11 18 25 30 75 49 49 60
REMARK Flexibility Score: inf
ROOT
ATOM      1  C   UNL     1       2.145   1.318  -2.007  1.00  0.00     0.117 C 
ENDROOT
BRANCH   1   2
ATOM      2  N   UNL     1       2.988   0.738  -0.984  1.00  0.00    -0.356 N 
ATOM      3  O   UNL     1       1.360  -0.340   0.215  1.00  0.00    -0.275 OA
ATOM      4  C   UNL     1       2.537  -0.030   0.065  1.00  0.00     0.224 C 
ATOM      5  H   UNL     1       3.957   0.906  -1.043  1.00  0.00     0.163 HD
BRANCH   4   6
ATOM      6  C   UNL     1       3.635  -0.411   1.060  1.00  0.00     0.135 C 
BRANCH   6   7
ATOM      7  C   UNL     1       4.534  -1.526   0.576  1.00  0.00    -0.039 A 
ATOM      8  C   UNL     1       4.547  -2.751   1.248  1.00  0.00     0.006 A 
ATOM      9  C   UNL     1       5.345  -1.391  -0.559  1.00  0.00     0.006 A 
ATOM     10  C   UNL     1       5.202  -3.853   0.692  1.00  0.00     0.026 A 
ATOM     11  C   UNL     1       5.940  -2.509  -1.145  1.00  0.00     0.026 A 
ATOM     12  C   UNL     1       5.756  -3.769  -0.582  1.00  0.00     0.042 A 
BRANCH  12  13
ATOM     13  N   UNL     1       6.093  -4.881  -1.372  1.00  0.00    -0.308 N 
ATOM     14  C   UNL     1       5.724  -6.185  -1.336  1.00  0.00     0.323 C 
ATOM     15  H   UNL     1       6.724  -4.671  -2.098  1.00  0.00     0.171 HD
ATOM     16  O   UNL     1       6.439  -7.005  -1.921  1.00  0.00    -0.248 OA
ATOM     17  N   UNL     1       4.635  -6.641  -0.671  1.00  0.00    -0.308 N 
ATOM     18  H   UNL     1       4.707  -7.579  -0.383  1.00  0.00     0.171 HD
BRANCH  17  19
ATOM     19  C   UNL     1       3.422  -6.026  -0.316  1.00  0.00     0.042 A 
ATOM     20  C   UNL     1       2.800  -6.481   0.852  1.00  0.00     0.027 A 
ATOM     21  C   UNL     1       2.866  -4.953  -1.020  1.00  0.00     0.027 A 
ATOM     22  C   UNL     1       1.722  -5.775   1.393  1.00  0.00     0.018 A 
ATOM     23  C   UNL     1       1.772  -4.259  -0.491  1.00  0.00     0.018 A 
ATOM     24  C   UNL     1       1.228  -4.654   0.730  1.00  0.00     0.018 A 
ATOM     25  Br  UNL     1      -0.155  -3.638   1.520  1.00  0.00    -0.051 Br
ENDBRANCH  17  19
ENDBRANCH  12  13
ENDBRANCH   6   7
ENDBRANCH   4   6
ENDBRANCH   1   2
BRANCH   1  26
ATOM     26  C   UNL     1       2.336   2.831  -2.069  1.00  0.00     0.042 C 
BRANCH  26  27
ATOM     27  C   UNL     1       3.782   3.288  -2.258  1.00  0.00     0.118 C 
BRANCH  27  28
ATOM     28  N   UNL     1       4.373   2.850  -3.513  1.00  0.00    -0.352 N 
ATOM     29  C   UNL     1       5.135   3.562  -4.406  1.00  0.00     0.251 C 
ATOM     30  H   UNL     1       4.204   1.911  -3.755  1.00  0.00     0.163 HD
ATOM     31  O   UNL     1       5.450   3.049  -5.480  1.00  0.00    -0.269 OA
BRANCH  29  32
ATOM     32  C   UNL     1       5.555   4.947  -4.103  1.00  0.00     0.039 A 
ATOM     33  C   UNL     1       5.459   5.911  -5.111  1.00  0.00     0.014 A 
ATOM     34  C   UNL     1       6.060   5.299  -2.848  1.00  0.00     0.014 A 
ATOM     35  C   UNL     1       5.821   7.235  -4.846  1.00  0.00     0.010 A 
ATOM     36  C   UNL     1       6.351   6.633  -2.563  1.00  0.00     0.010 A 
ATOM     37  C   UNL     1       6.245   7.613  -3.562  1.00  0.00    -0.014 A 
BRANCH  37  38
ATOM     38  C   UNL     1       6.603   9.024  -3.257  1.00  0.00     0.031 A 
ATOM     39  C   UNL     1       8.014   9.380  -2.871  1.00  0.00     0.074 A 
ATOM     40  C   UNL     1       5.654   9.979  -3.284  1.00  0.00     0.049 A 
ATOM     41  N   UNL     1       8.509  10.542  -2.525  1.00  0.00    -0.248 NA
ATOM     42  C   UNL     1       8.991   8.281  -2.846  1.00  0.00     0.031 C 
ATOM     43  C   UNL     1       4.242   9.762  -3.602  1.00  0.00     0.029 A 
ATOM     44  N   UNL     1       5.734  11.327  -3.032  1.00  0.00    -0.354 N 
ATOM     45  C   UNL     1       9.847  10.310  -2.230  1.00  0.00     0.074 A 
ATOM     46  C   UNL     1      10.072   8.889  -2.382  1.00  0.00     0.031 C 
ATOM     47  C   UNL     1       3.594  10.937  -3.550  1.00  0.00     0.029 A 
ATOM     48  C   UNL     1       4.534  11.984  -3.161  1.00  0.00     0.049 A 
ATOM     49  H   UNL     1       6.572  11.780  -2.783  1.00  0.00     0.167 HD
ATOM     50  C   UNL     1      10.808  11.202  -1.889  1.00  0.00     0.037 A 
ATOM     51  C   UNL     1       4.224  13.282  -2.982  1.00  0.00     0.037 A 
ATOM     52  C   UNL     1      10.591  12.619  -1.761  1.00  0.00     0.049 A 
ATOM     53  C   UNL     1       5.308  14.252  -2.594  1.00  0.00     0.074 A 
ATOM     54  C   UNL     1      11.513  13.610  -1.472  1.00  0.00     0.029 A 
ATOM     55  N   UNL     1       9.364  13.247  -1.914  1.00  0.00    -0.354 N 
ATOM     56  N   UNL     1       6.582  14.028  -2.382  1.00  0.00    -0.248 NA
ATOM     57  C   UNL     1       4.910  15.657  -2.429  1.00  0.00     0.031 C 
ATOM     58  C   UNL     1      10.835  14.832  -1.404  1.00  0.00     0.029 A 
ATOM     59  C   UNL     1       9.501  14.610  -1.705  1.00  0.00     0.049 A 
ATOM     60  H   UNL     1       8.520  12.792  -2.138  1.00  0.00     0.167 HD
ATOM     61  C   UNL     1       7.144  15.266  -2.094  1.00  0.00     0.074 A 
ATOM     62  C   UNL     1       6.073  16.238  -2.170  1.00  0.00     0.031 C 
ATOM     63  C   UNL     1       8.431  15.569  -1.796  1.00  0.00     0.037 A 
BRANCH  50  64
ATOM     64  C   UNL     1      12.188  10.667  -1.631  1.00  0.00     0.057 A 
ATOM     65  C   UNL     1      12.989  10.157  -2.663  1.00  0.00     0.134 A 
ATOM     66  C   UNL     1      12.737  10.690  -0.343  1.00  0.00     0.134 A 
ATOM     67  F   UNL     1      12.521  10.095  -3.919  1.00  0.00    -0.206 F 
ATOM     68  C   UNL     1      14.271   9.662  -2.418  1.00  0.00     0.040 A 
ATOM     69  C   UNL     1      14.029  10.225  -0.090  1.00  0.00     0.040 A 
ATOM     70  F   UNL     1      12.029  11.171   0.691  1.00  0.00    -0.206 F 
ATOM     71  C   UNL     1      14.796   9.702  -1.128  1.00  0.00     0.006 A 
ENDBRANCH  50  64
BRANCH  51  72
ATOM     72  C   UNL     1       2.831  13.752  -3.191  1.00  0.00     0.057 A 
ATOM     73  C   UNL     1       2.502  14.578  -4.273  1.00  0.00     0.134 A 
ATOM     74  C   UNL     1       1.800  13.404  -2.311  1.00  0.00     0.134 A 
ATOM     75  F   UNL     1       3.450  14.963  -5.141  1.00  0.00    -0.206 F 
ATOM     76  C   UNL     1       1.206  15.059  -4.460  1.00  0.00     0.040 A 
ATOM     77  C   UNL     1       0.493  13.855  -2.500  1.00  0.00     0.040 A 
ATOM     78  F   UNL     1       2.048  12.610  -1.259  1.00  0.00    -0.206 F 
ATOM     79  C   UNL     1       0.195  14.694  -3.572  1.00  0.00     0.006 A 
ENDBRANCH  51  72
BRANCH  63  80
ATOM     80  C   UNL     1       8.764  17.017  -1.575  1.00  0.00     0.057 A 
ATOM     81  C   UNL     1       8.348  17.710  -0.432  1.00  0.00     0.134 A 
ATOM     82  C   UNL     1       9.546  17.715  -2.506  1.00  0.00     0.134 A 
ATOM     83  F   UNL     1       7.587  17.105   0.492  1.00  0.00    -0.206 F 
ATOM     84  C   UNL     1       8.675  19.053  -0.235  1.00  0.00     0.040 A 
ATOM     85  C   UNL     1       9.903  19.048  -2.306  1.00  0.00     0.040 A 
ATOM     86  F   UNL     1       9.986  17.107  -3.618  1.00  0.00    -0.206 F 
ATOM     87  C   UNL     1       9.461  19.724  -1.170  1.00  0.00     0.006 A 
ENDBRANCH  63  80
ENDBRANCH  37  38
ENDBRANCH  29  32
ENDBRANCH  27  28
ENDBRANCH  26  27
ENDBRANCH   1  26
TORSDOF 13
