REMARK SMILES CC(C)(C)[N@H+](CCC(=O)NCCCNC(=O)c1ccc(-c2c3nc(c(-c4c(F)cccc4F)c4ccc([nH]4)c(-c4c(F)cccc4F)c4nc(c(-c5c(F)cccc5F)c5ccc2[nH]5)C=C4)C=C3)cc1)Cc1ccccc1C1CC1
REMARK SMILES IDX 8 1 9 2 10 3 7 5 6 6 5 7 2 9 1 10 3 11 4 12 71 13 72 14
REMARK SMILES IDX 73 15 77 16 74 17 76 18 75 19 78 20 79 21 80 22 11 23 12 24
REMARK SMILES IDX 13 25 14 26 15 27 16 29 17 30 18 31 70 32 19 33 69 34 20 35
REMARK SMILES IDX 21 36 22 37 63 38 23 39 68 40 62 41 64 42 24 43 67 44 61 45
REMARK SMILES IDX 60 46 25 48 51 49 34 50 50 51 35 52 38 53 49 54 65 55 36 56
REMARK SMILES IDX 37 57 48 59 66 60 39 61 26 62 27 63 32 64 28 65 29 66 31 67
REMARK SMILES IDX 33 68 30 69 52 70 53 71 58 72 54 73 55 74 57 75 59 76 56 77
REMARK SMILES IDX 40 78 41 79 46 80 42 81 43 82 45 83 47 84 44 85
REMARK H PARENT 10 4 5 8 14 28 64 47 38 58
REMARK Flexibility Score: inf
ROOT
ATOM      1  C   UNL     1       2.107   3.239   3.464  1.00  0.00     0.225 C 
ATOM      2  O   UNL     1       2.597   4.069   4.229  1.00  0.00    -0.275 OA
ATOM      3  N   UNL     1       0.946   2.588   3.814  1.00  0.00    -0.356 N 
ATOM      4  H   UNL     1       0.989   1.685   4.204  1.00  0.00     0.163 HD
ENDROOT
BRANCH   1   5
ATOM      5  C   UNL     1       2.877   2.739   2.259  1.00  0.00     0.161 C 
BRANCH   5   6
ATOM      6  C   UNL     1       2.195   1.703   1.374  1.00  0.00     0.272 C 
BRANCH   6   7
ATOM      7  N   UNL     1       1.578   2.122   0.097  1.00  0.00    -0.327 N 
ATOM      8  H   UNL     1       2.340   2.419  -0.514  1.00  0.00     0.348 HD
BRANCH   7   9
ATOM      9  C   UNL     1       0.936   0.965  -0.627  1.00  0.00     0.089 C 
ATOM     10  C   UNL     1       1.755  -0.359  -0.527  1.00  0.00     0.078 C 
ATOM     11  C   UNL     1       0.861   1.277  -2.137  1.00  0.00     0.078 C 
ATOM     12  C   UNL     1      -0.478   0.628  -0.111  1.00  0.00     0.078 C 
ENDBRANCH   7   9
BRANCH   7  13
ATOM     13  C   UNL     1       0.756   3.372   0.191  1.00  0.00     0.299 C 
BRANCH  13  14
ATOM     14  C   UNL     1       1.497   4.696  -0.050  1.00  0.00     0.010 A 
ATOM     15  C   UNL     1       2.415   4.648  -1.136  1.00  0.00     0.010 A 
ATOM     16  C   UNL     1       1.206   5.968   0.541  1.00  0.00    -0.036 A 
ATOM     17  C   UNL     1       3.000   5.786  -1.684  1.00  0.00     0.001 A 
ATOM     18  C   UNL     1       1.812   7.097  -0.086  1.00  0.00     0.004 A 
ATOM     19  C   UNL     1       2.682   7.022  -1.167  1.00  0.00     0.000 A 
BRANCH  16  20
ATOM     20  C   UNL     1       0.207   6.366   1.652  1.00  0.00     0.020 C 
ATOM     21  C   UNL     1       0.271   6.250   3.160  1.00  0.00     0.009 C 
ATOM     22  C   UNL     1       0.741   7.508   2.564  1.00  0.00     0.009 C 
ENDBRANCH  16  20
ENDBRANCH  13  14
ENDBRANCH   7  13
ENDBRANCH   6   7
ENDBRANCH   5   6
ENDBRANCH   1   5
BRANCH   3  23
ATOM     23  C   UNL     1      -0.346   3.229   3.612  1.00  0.00     0.117 C 
BRANCH  23  24
ATOM     24  C   UNL     1      -1.444   2.262   3.199  1.00  0.00     0.042 C 
BRANCH  24  25
ATOM     25  C   UNL     1      -2.790   2.959   3.052  1.00  0.00     0.118 C 
BRANCH  25  26
ATOM     26  N   UNL     1      -2.956   3.788   1.853  1.00  0.00    -0.352 N 
ATOM     27  C   UNL     1      -4.033   4.621   1.605  1.00  0.00     0.251 C 
ATOM     28  H   UNL     1      -2.247   3.748   1.172  1.00  0.00     0.163 HD
ATOM     29  O   UNL     1      -4.251   5.113   0.506  1.00  0.00    -0.269 OA
BRANCH  27  30
ATOM     30  C   UNL     1      -4.944   4.865   2.741  1.00  0.00     0.039 A 
ATOM     31  C   UNL     1      -6.168   4.196   2.796  1.00  0.00     0.014 A 
ATOM     32  C   UNL     1      -4.413   5.503   3.862  1.00  0.00     0.014 A 
ATOM     33  C   UNL     1      -6.804   4.056   4.030  1.00  0.00     0.010 A 
ATOM     34  C   UNL     1      -4.996   5.268   5.100  1.00  0.00     0.010 A 
ATOM     35  C   UNL     1      -6.182   4.520   5.203  1.00  0.00    -0.014 A 
BRANCH  35  36
ATOM     36  C   UNL     1      -6.729   4.194   6.548  1.00  0.00     0.031 A 
ATOM     37  C   UNL     1      -7.118   5.298   7.490  1.00  0.00     0.074 A 
ATOM     38  C   UNL     1      -6.795   2.909   6.957  1.00  0.00     0.049 A 
ATOM     39  N   UNL     1      -7.583   5.217   8.711  1.00  0.00    -0.248 NA
ATOM     40  C   UNL     1      -6.916   6.677   7.016  1.00  0.00     0.031 C 
ATOM     41  C   UNL     1      -6.359   1.743   6.185  1.00  0.00     0.029 A 
ATOM     42  N   UNL     1      -7.257   2.368   8.133  1.00  0.00    -0.354 N 
ATOM     43  C   UNL     1      -7.709   6.528   9.151  1.00  0.00     0.074 A 
ATOM     44  C   UNL     1      -7.198   7.380   8.101  1.00  0.00     0.031 C 
ATOM     45  C   UNL     1      -6.620   0.625   6.884  1.00  0.00     0.029 A 
ATOM     46  C   UNL     1      -7.218   0.993   8.164  1.00  0.00     0.049 A 
ATOM     47  H   UNL     1      -7.586   2.913   8.883  1.00  0.00     0.167 HD
ATOM     48  C   UNL     1      -8.241   6.989  10.307  1.00  0.00     0.037 A 
ATOM     49  C   UNL     1      -7.635   0.128   9.108  1.00  0.00     0.037 A 
ATOM     50  C   UNL     1      -8.796   6.148  11.331  1.00  0.00     0.049 A 
ATOM     51  C   UNL     1      -8.266   0.662  10.366  1.00  0.00     0.074 A 
ATOM     52  C   UNL     1      -9.437   6.519  12.500  1.00  0.00     0.029 A 
ATOM     53  N   UNL     1      -8.779   4.762  11.304  1.00  0.00    -0.354 N 
ATOM     54  N   UNL     1      -8.477   1.906  10.722  1.00  0.00    -0.248 NA
ATOM     55  C   UNL     1      -8.729  -0.330  11.348  1.00  0.00     0.031 C 
ATOM     56  C   UNL     1      -9.782   5.355  13.196  1.00  0.00     0.029 A 
ATOM     57  C   UNL     1      -9.388   4.261  12.442  1.00  0.00     0.049 A 
ATOM     58  H   UNL     1      -8.392   4.215  10.583  1.00  0.00     0.167 HD
ATOM     59  C   UNL     1      -9.125   1.846  11.949  1.00  0.00     0.074 A 
ATOM     60  C   UNL     1      -9.282   0.443  12.272  1.00  0.00     0.031 C 
ATOM     61  C   UNL     1      -9.551   2.862  12.738  1.00  0.00     0.037 A 
BRANCH  48  62
ATOM     62  C   UNL     1      -8.269   8.476  10.499  1.00  0.00     0.057 A 
ATOM     63  C   UNL     1      -9.109   9.300   9.736  1.00  0.00     0.134 A 
ATOM     64  C   UNL     1      -7.449   9.092  11.451  1.00  0.00     0.134 A 
ATOM     65  F   UNL     1      -9.907   8.771   8.796  1.00  0.00    -0.206 F 
ATOM     66  C   UNL     1      -9.104  10.687   9.886  1.00  0.00     0.040 A 
ATOM     67  C   UNL     1      -7.456  10.477  11.630  1.00  0.00     0.040 A 
ATOM     68  F   UNL     1      -6.625   8.362  12.217  1.00  0.00    -0.206 F 
ATOM     69  C   UNL     1      -8.278  11.278  10.839  1.00  0.00     0.006 A 
ENDBRANCH  48  62
BRANCH  49  70
ATOM     70  C   UNL     1      -7.536  -1.337   8.884  1.00  0.00     0.057 A 
ATOM     71  C   UNL     1      -8.684  -2.106   8.652  1.00  0.00     0.134 A 
ATOM     72  C   UNL     1      -6.309  -2.008   8.922  1.00  0.00     0.134 A 
ATOM     73  F   UNL     1      -9.891  -1.522   8.623  1.00  0.00    -0.206 F 
ATOM     74  C   UNL     1      -8.620  -3.491   8.491  1.00  0.00     0.040 A 
ATOM     75  C   UNL     1      -6.227  -3.391   8.741  1.00  0.00     0.040 A 
ATOM     76  F   UNL     1      -5.172  -1.329   9.132  1.00  0.00    -0.206 F 
ATOM     77  C   UNL     1      -7.386  -4.137   8.533  1.00  0.00     0.006 A 
ENDBRANCH  49  70
BRANCH  61  78
ATOM     78  C   UNL     1     -10.262   2.496  14.007  1.00  0.00     0.057 A 
ATOM     79  C   UNL     1      -9.579   1.983  15.115  1.00  0.00     0.134 A 
ATOM     80  C   UNL     1     -11.641   2.709  14.135  1.00  0.00     0.134 A 
ATOM     81  F   UNL     1      -8.260   1.745  15.050  1.00  0.00    -0.206 F 
ATOM     82  C   UNL     1     -10.245   1.676  16.303  1.00  0.00     0.040 A 
ATOM     83  C   UNL     1     -12.313   2.429  15.325  1.00  0.00     0.040 A 
ATOM     84  F   UNL     1     -12.352   3.207  13.112  1.00  0.00    -0.206 F 
ATOM     85  C   UNL     1     -11.615   1.907  16.412  1.00  0.00     0.006 A 
ENDBRANCH  61  78
ENDBRANCH  35  36
ENDBRANCH  27  30
ENDBRANCH  25  26
ENDBRANCH  24  25
ENDBRANCH  23  24
ENDBRANCH   3  23
TORSDOF 16
