REMARK SMILES COc1cccc(-c2ccc(=O)n(CC(=O)N[C@@H](C(=O)NCCCNC(=O)c3ccc(-c4c5nc(c(-c6c(F)cccc6F)c6ccc([nH]6)c(-c6c(F)cccc6F)c6nc(c(-c7c(F)cccc7F)c7ccc4[nH]7)C=C6)C=C5)cc3)C(C)C)n2)c1
REMARK SMILES IDX 19 1 20 2 21 3 18 5 17 6 15 7 16 8 14 10 13 11 8 12 9 13
REMARK SMILES IDX 85 14 10 15 11 16 12 17 7 18 3 19 4 20 86 21 5 22 6 23 2 24
REMARK SMILES IDX 1 25 82 26 83 27 84 28 22 29 23 30 24 31 25 32 26 33 27 35
REMARK SMILES IDX 28 36 29 37 81 38 30 39 80 40 31 41 32 42 33 43 74 44 34 45
REMARK SMILES IDX 79 46 73 47 75 48 35 49 78 50 72 51 71 52 36 54 62 55 45 56
REMARK SMILES IDX 61 57 46 58 49 59 60 60 76 61 47 62 48 63 59 65 77 66 50 67
REMARK SMILES IDX 37 68 38 69 43 70 39 71 40 72 42 73 44 74 41 75 63 76 64 77
REMARK SMILES IDX 69 78 65 79 66 80 68 81 70 82 67 83 51 84 52 85 57 86 53 87
REMARK SMILES IDX 54 88 56 89 58 90 55 91
REMARK H PARENT 21 4 17 9 25 34 75 53 49 64
REMARK Flexibility Score: inf
ROOT
ATOM      1  C   UNL     1       5.228   1.325  -7.972  1.00  0.00     0.242 C 
ATOM      2  O   UNL     1       4.683   1.219  -9.072  1.00  0.00    -0.273 OA
ATOM      3  N   UNL     1       5.438   2.598  -7.513  1.00  0.00    -0.354 N 
ATOM      4  H   UNL     1       5.269   3.326  -8.155  1.00  0.00     0.163 HD
ENDROOT
BRANCH   1   5
ATOM      5  C   UNL     1       5.610   0.093  -7.084  1.00  0.00     0.173 C 
BRANCH   5   6
ATOM      6  N   UNL     1       7.053   0.162  -6.808  1.00  0.00    -0.342 N 
ATOM      7  C   UNL     1       7.761   0.029  -5.647  1.00  0.00     0.242 C 
ATOM      8  O   UNL     1       8.986   0.161  -5.736  1.00  0.00    -0.273 OA
ATOM      9  H   UNL     1       7.608   0.336  -7.602  1.00  0.00     0.164 HD
BRANCH   7  10
ATOM     10  C   UNL     1       7.104  -0.341  -4.306  1.00  0.00     0.248 C 
BRANCH  10  11
ATOM     11  N   UNL     1       6.260   0.700  -3.723  1.00  0.00    -0.220 N 
ATOM     12  C   UNL     1       4.128   1.433  -3.349  1.00  0.00     0.091 A 
ATOM     13  C   UNL     1       4.582   2.711  -2.775  1.00  0.00     0.036 A 
ATOM     14  N   UNL     1       4.898   0.497  -3.799  1.00  0.00    -0.169 NA
ATOM     15  C   UNL     1       5.901   2.852  -2.635  1.00  0.00     0.075 A 
ATOM     16  C   UNL     1       6.838   1.792  -3.083  1.00  0.00     0.267 A 
ATOM     17  O   UNL     1       8.043   1.964  -2.930  1.00  0.00    -0.268 OA
BRANCH  12  18
ATOM     18  C   UNL     1       2.675   1.223  -3.361  1.00  0.00     0.006 A 
ATOM     19  C   UNL     1       0.745   0.345  -2.224  1.00  0.00     0.119 A 
ATOM     20  C   UNL     1      -0.037   0.690  -3.330  1.00  0.00     0.046 A 
ATOM     21  C   UNL     1       2.113   0.591  -2.250  1.00  0.00     0.056 A 
ATOM     22  C   UNL     1       0.534   1.316  -4.443  1.00  0.00     0.005 A 
ATOM     23  C   UNL     1       1.902   1.589  -4.463  1.00  0.00     0.011 A 
BRANCH  19  24
ATOM     24  O   UNL     1       0.089  -0.266  -1.191  1.00  0.00    -0.497 OA
ATOM     25  C   UNL     1       0.648  -0.026   0.099  1.00  0.00     0.278 C 
ENDBRANCH  19  24
ENDBRANCH  12  18
ENDBRANCH  10  11
ENDBRANCH   7  10
ENDBRANCH   5   6
BRANCH   5  26
ATOM     26  C   UNL     1       5.207  -1.226  -7.796  1.00  0.00     0.015 C 
ATOM     27  C   UNL     1       5.916  -2.466  -7.246  1.00  0.00     0.010 C 
ATOM     28  C   UNL     1       3.689  -1.442  -7.694  1.00  0.00     0.010 C 
ENDBRANCH   5  26
ENDBRANCH   1   5
BRANCH   3  29
ATOM     29  C   UNL     1       5.876   2.992  -6.200  1.00  0.00     0.117 C 
BRANCH  29  30
ATOM     30  C   UNL     1       7.153   3.810  -6.204  1.00  0.00     0.042 C 
BRANCH  30  31
ATOM     31  C   UNL     1       6.879   5.297  -6.335  1.00  0.00     0.118 C 
BRANCH  31  32
ATOM     32  N   UNL     1       6.185   5.843  -5.169  1.00  0.00    -0.352 N 
ATOM     33  C   UNL     1       6.521   6.903  -4.359  1.00  0.00     0.251 C 
ATOM     34  H   UNL     1       5.350   5.381  -4.927  1.00  0.00     0.163 HD
ATOM     35  O   UNL     1       5.907   7.089  -3.317  1.00  0.00    -0.269 OA
BRANCH  33  36
ATOM     36  C   UNL     1       7.637   7.792  -4.747  1.00  0.00     0.039 A 
ATOM     37  C   UNL     1       8.535   8.233  -3.772  1.00  0.00     0.014 A 
ATOM     38  C   UNL     1       7.813   8.161  -6.081  1.00  0.00     0.014 A 
ATOM     39  C   UNL     1       9.659   8.970  -4.154  1.00  0.00     0.010 A 
ATOM     40  C   UNL     1       8.985   8.793  -6.471  1.00  0.00     0.010 A 
ATOM     41  C   UNL     1       9.918   9.211  -5.512  1.00  0.00    -0.014 A 
BRANCH  41  42
ATOM     42  C   UNL     1      11.141   9.915  -5.974  1.00  0.00     0.031 A 
ATOM     43  C   UNL     1      11.009  11.184  -6.773  1.00  0.00     0.074 A 
ATOM     44  C   UNL     1      12.354   9.367  -5.766  1.00  0.00     0.049 A 
ATOM     45  N   UNL     1      11.928  11.863  -7.410  1.00  0.00    -0.248 NA
ATOM     46  C   UNL     1       9.651  11.739  -6.909  1.00  0.00     0.031 C 
ATOM     47  C   UNL     1      12.614   8.117  -5.050  1.00  0.00     0.029 A 
ATOM     48  N   UNL     1      13.601   9.789  -6.157  1.00  0.00    -0.354 N 
ATOM     49  C   UNL     1      11.257  12.902  -8.042  1.00  0.00     0.074 A 
ATOM     50  C   UNL     1       9.848  12.729  -7.766  1.00  0.00     0.031 C 
ATOM     51  C   UNL     1      13.937   7.888  -5.028  1.00  0.00     0.029 A 
ATOM     52  C   UNL     1      14.615   8.947  -5.767  1.00  0.00     0.049 A 
ATOM     53  H   UNL     1      13.754  10.616  -6.668  1.00  0.00     0.167 HD
ATOM     54  C   UNL     1      11.769  13.927  -8.762  1.00  0.00     0.037 A 
ATOM     55  C   UNL     1      15.940   9.018  -5.993  1.00  0.00     0.037 A 
ATOM     56  C   UNL     1      13.174  14.121  -8.998  1.00  0.00     0.049 A 
ATOM     57  C   UNL     1      16.485  10.169  -6.794  1.00  0.00     0.074 A 
ATOM     58  C   UNL     1      13.802  15.152  -9.674  1.00  0.00     0.029 A 
ATOM     59  N   UNL     1      14.171  13.267  -8.551  1.00  0.00    -0.354 N 
ATOM     60  N   UNL     1      15.844  11.169  -7.348  1.00  0.00    -0.248 NA
ATOM     61  C   UNL     1      17.940  10.201  -7.000  1.00  0.00     0.031 C 
ATOM     62  C   UNL     1      15.179  14.907  -9.660  1.00  0.00     0.029 A 
ATOM     63  C   UNL     1      15.410  13.745  -8.941  1.00  0.00     0.049 A 
ATOM     64  H   UNL     1      14.020  12.442  -8.034  1.00  0.00     0.167 HD
ATOM     65  C   UNL     1      16.817  11.968  -7.934  1.00  0.00     0.074 A 
ATOM     66  C   UNL     1      18.093  11.340  -7.662  1.00  0.00     0.031 C 
ATOM     67  C   UNL     1      16.669  13.118  -8.634  1.00  0.00     0.037 A 
BRANCH  54  68
ATOM     68  C   UNL     1      10.802  14.927  -9.325  1.00  0.00     0.057 A 
ATOM     69  C   UNL     1      10.101  15.818  -8.499  1.00  0.00     0.134 A 
ATOM     70  C   UNL     1      10.584  15.020 -10.704  1.00  0.00     0.134 A 
ATOM     71  F   UNL     1      10.253  15.771  -7.167  1.00  0.00    -0.206 F 
ATOM     72  C   UNL     1       9.198  16.744  -9.023  1.00  0.00     0.040 A 
ATOM     73  C   UNL     1       9.705  15.962 -11.243  1.00  0.00     0.040 A 
ATOM     74  F   UNL     1      11.224  14.201 -11.553  1.00  0.00    -0.206 F 
ATOM     75  C   UNL     1       9.004  16.823 -10.400  1.00  0.00     0.006 A 
ENDBRANCH  54  68
BRANCH  55  76
ATOM     76  C   UNL     1      16.854   7.991  -5.432  1.00  0.00     0.057 A 
ATOM     77  C   UNL     1      17.744   8.311  -4.399  1.00  0.00     0.134 A 
ATOM     78  C   UNL     1      16.882   6.681  -5.924  1.00  0.00     0.134 A 
ATOM     79  F   UNL     1      17.777   9.555  -3.900  1.00  0.00    -0.206 F 
ATOM     80  C   UNL     1      18.646   7.374  -3.893  1.00  0.00     0.040 A 
ATOM     81  C   UNL     1      17.761   5.726  -5.409  1.00  0.00     0.040 A 
ATOM     82  F   UNL     1      16.051   6.309  -6.908  1.00  0.00    -0.206 F 
ATOM     83  C   UNL     1      18.653   6.075  -4.396  1.00  0.00     0.006 A 
ENDBRANCH  55  76
BRANCH  67  84
ATOM     84  C   UNL     1      17.918  13.803  -9.103  1.00  0.00     0.057 A 
ATOM     85  C   UNL     1      18.678  13.308 -10.169  1.00  0.00     0.134 A 
ATOM     86  C   UNL     1      18.335  15.000  -8.507  1.00  0.00     0.134 A 
ATOM     87  F   UNL     1      18.337  12.160 -10.773  1.00  0.00    -0.206 F 
ATOM     88  C   UNL     1      19.823  13.971 -10.614  1.00  0.00     0.040 A 
ATOM     89  C   UNL     1      19.462  15.685  -8.960  1.00  0.00     0.040 A 
ATOM     90  F   UNL     1      17.644  15.530  -7.486  1.00  0.00    -0.206 F 
ATOM     91  C   UNL     1      20.213  15.168 -10.014  1.00  0.00     0.006 A 
ENDBRANCH  67  84
ENDBRANCH  41  42
ENDBRANCH  33  36
ENDBRANCH  31  32
ENDBRANCH  30  31
ENDBRANCH  29  30
ENDBRANCH   3  29
TORSDOF 16
