REMARK SMILES C[C@H]1CCC[C@H](C)N1C(=O)[C@H]1[C@@H](C(=O)NCCCNC(=O)c2ccc(-c3c4nc(c(-c5c(F)cccc5F)c5ccc([nH]5)c(-c5c(F)cccc5F)c5nc(c(-c6c(F)cccc6F)c6ccc3[nH]6)C=C5)C=C4)cc2)[C@H]2CC[C@@H]1O2
REMARK SMILES IDX 17 1 16 2 15 3 13 4 14 5 12 7 11 8 79 9 76 10 78 11 80 12
REMARK SMILES IDX 77 13 9 14 1 15 2 16 3 17 8 18 4 19 6 20 5 21 7 22 10 23
REMARK SMILES IDX 18 24 19 25 20 26 21 28 22 29 23 30 75 31 24 32 74 33 25 34
REMARK SMILES IDX 26 35 27 36 68 37 28 38 73 39 67 40 69 41 29 42 72 43 66 44
REMARK SMILES IDX 65 45 30 47 56 48 39 49 55 50 40 51 43 52 54 53 70 54 41 55
REMARK SMILES IDX 42 56 53 58 71 59 44 60 31 61 32 62 37 63 33 64 34 65 36 66
REMARK SMILES IDX 38 67 35 68 57 69 58 70 63 71 59 72 60 73 62 74 64 75 61 76
REMARK SMILES IDX 45 77 46 78 51 79 47 80 48 81 50 82 52 83 49 84
REMARK H PARENT 15 6 19 27 69 46 43 57
REMARK Flexibility Score: inf
ROOT
ATOM      1  C   UNL     1      -6.637   2.985  -1.761  1.00  0.00     0.042 C 
ENDROOT
BRANCH   1   2
ATOM      2  C   UNL     1      -5.544   1.937  -1.915  1.00  0.00     0.117 C 
BRANCH   2   3
ATOM      3  N   UNL     1      -5.957   0.601  -1.521  1.00  0.00    -0.356 N 
ATOM      4  C   UNL     1      -5.340  -0.589  -1.371  1.00  0.00     0.226 C 
ATOM      5  O   UNL     1      -6.090  -1.499  -0.984  1.00  0.00    -0.275 OA
ATOM      6  H   UNL     1      -6.919   0.553  -1.314  1.00  0.00     0.163 HD
BRANCH   4   7
ATOM      7  C   UNL     1      -3.906  -0.955  -1.717  1.00  0.00     0.122 C 
ATOM      8  C   UNL     1      -2.650  -0.120  -1.483  1.00  0.00     0.122 C 
ATOM      9  C   UNL     1      -2.109   0.060  -2.901  1.00  0.00     0.132 C 
ATOM     10  C   UNL     1      -3.725  -1.380  -3.185  1.00  0.00     0.132 C 
ATOM     11  C   UNL     1      -3.015   0.749  -3.920  1.00  0.00     0.035 C 
ATOM     12  O   UNL     1      -2.275  -1.324  -3.346  1.00  0.00    -0.373 OA
ATOM     13  C   UNL     1      -4.109  -0.295  -4.174  1.00  0.00     0.035 C 
BRANCH   8  14
ATOM     14  C   UNL     1      -2.660   1.035  -0.508  1.00  0.00     0.229 C 
ATOM     15  C   UNL     1      -0.485  -0.257   0.988  1.00  0.00     0.031 C 
ATOM     16  C   UNL     1      -1.747   0.247   1.694  1.00  0.00     0.082 C 
ATOM     17  C   UNL     1      -1.354   1.401   2.635  1.00  0.00     0.025 C 
ATOM     18  N   UNL     1      -2.879   0.639   0.817  1.00  0.00    -0.337 N 
ATOM     19  C   UNL     1      -2.551   1.916   3.425  1.00  0.00     0.004 C 
ATOM     20  C   UNL     1      -4.049   1.199   1.512  1.00  0.00     0.082 C 
ATOM     21  C   UNL     1      -3.663   2.333   2.472  1.00  0.00     0.025 C 
ATOM     22  C   UNL     1      -4.867   0.109   2.209  1.00  0.00     0.031 C 
ATOM     23  O   UNL     1      -2.498   2.203  -0.845  1.00  0.00    -0.274 OA
ENDBRANCH   8  14
ENDBRANCH   4   7
ENDBRANCH   2   3
ENDBRANCH   1   2
BRANCH   1  24
ATOM     24  C   UNL     1      -7.238   3.096  -0.368  1.00  0.00     0.118 C 
BRANCH  24  25
ATOM     25  N   UNL     1      -6.472   3.888   0.585  1.00  0.00    -0.352 N 
ATOM     26  C   UNL     1      -6.912   4.882   1.435  1.00  0.00     0.251 C 
ATOM     27  H   UNL     1      -5.509   3.687   0.628  1.00  0.00     0.163 HD
ATOM     28  O   UNL     1      -6.147   5.414   2.232  1.00  0.00    -0.269 OA
BRANCH  26  29
ATOM     29  C   UNL     1      -8.300   5.376   1.297  1.00  0.00     0.039 A 
ATOM     30  C   UNL     1      -8.489   6.728   1.003  1.00  0.00     0.014 A 
ATOM     31  C   UNL     1      -9.375   4.488   1.269  1.00  0.00     0.014 A 
ATOM     32  C   UNL     1      -9.727   7.160   0.527  1.00  0.00     0.010 A 
ATOM     33  C   UNL     1     -10.571   4.897   0.688  1.00  0.00     0.010 A 
ATOM     34  C   UNL     1     -10.749   6.230   0.280  1.00  0.00    -0.014 A 
BRANCH  34  35
ATOM     35  C   UNL     1     -11.985   6.614  -0.452  1.00  0.00     0.031 A 
ATOM     36  C   UNL     1     -13.332   6.418   0.183  1.00  0.00     0.074 A 
ATOM     37  C   UNL     1     -11.902   7.041  -1.730  1.00  0.00     0.049 A 
ATOM     38  N   UNL     1     -14.523   6.580  -0.335  1.00  0.00    -0.248 NA
ATOM     39  C   UNL     1     -13.340   5.928   1.569  1.00  0.00     0.031 C 
ATOM     40  C   UNL     1     -10.663   7.195  -2.498  1.00  0.00     0.029 A 
ATOM     41  N   UNL     1     -12.883   7.415  -2.615  1.00  0.00    -0.354 N 
ATOM     42  C   UNL     1     -15.416   6.176   0.647  1.00  0.00     0.074 A 
ATOM     43  C   UNL     1     -14.630   5.710   1.769  1.00  0.00     0.031 C 
ATOM     44  C   UNL     1     -10.957   7.663  -3.722  1.00  0.00     0.029 A 
ATOM     45  C   UNL     1     -12.403   7.811  -3.840  1.00  0.00     0.049 A 
ATOM     46  H   UNL     1     -13.842   7.400  -2.392  1.00  0.00     0.167 HD
ATOM     47  C   UNL     1     -16.770   6.215   0.631  1.00  0.00     0.037 A 
ATOM     48  C   UNL     1     -13.053   8.247  -4.936  1.00  0.00     0.037 A 
ATOM     49  C   UNL     1     -17.550   6.730  -0.461  1.00  0.00     0.049 A 
ATOM     50  C   UNL     1     -14.552   8.354  -4.905  1.00  0.00     0.074 A 
ATOM     51  C   UNL     1     -18.923   6.882  -0.546  1.00  0.00     0.029 A 
ATOM     52  N   UNL     1     -17.020   7.190  -1.657  1.00  0.00    -0.354 N 
ATOM     53  N   UNL     1     -15.381   8.029  -3.944  1.00  0.00    -0.248 NA
ATOM     54  C   UNL     1     -15.204   8.894  -6.107  1.00  0.00     0.031 C 
ATOM     55  C   UNL     1     -19.225   7.419  -1.803  1.00  0.00     0.029 A 
ATOM     56  C   UNL     1     -18.039   7.626  -2.488  1.00  0.00     0.049 A 
ATOM     57  H   UNL     1     -16.062   7.205  -1.882  1.00  0.00     0.167 HD
ATOM     58  C   UNL     1     -16.649   8.342  -4.415  1.00  0.00     0.074 A 
ATOM     59  C   UNL     1     -16.479   8.896  -5.743  1.00  0.00     0.031 C 
ATOM     60  C   UNL     1     -17.847   8.183  -3.802  1.00  0.00     0.037 A 
BRANCH  47  61
ATOM     61  C   UNL     1     -17.479   5.694   1.846  1.00  0.00     0.057 A 
ATOM     62  C   UNL     1     -17.447   6.380   3.067  1.00  0.00     0.134 A 
ATOM     63  C   UNL     1     -18.185   4.486   1.801  1.00  0.00     0.134 A 
ATOM     64  F   UNL     1     -16.772   7.534   3.181  1.00  0.00    -0.206 F 
ATOM     65  C   UNL     1     -18.056   5.863   4.211  1.00  0.00     0.040 A 
ATOM     66  C   UNL     1     -18.822   3.972   2.931  1.00  0.00     0.040 A 
ATOM     67  F   UNL     1     -18.258   3.781   0.662  1.00  0.00    -0.206 F 
ATOM     68  C   UNL     1     -18.749   4.656   4.144  1.00  0.00     0.006 A 
ENDBRANCH  47  61
BRANCH  48  69
ATOM     69  C   UNL     1     -12.287   8.660  -6.137  1.00  0.00     0.057 A 
ATOM     70  C   UNL     1     -12.144  10.013  -6.466  1.00  0.00     0.134 A 
ATOM     71  C   UNL     1     -11.675   7.723  -6.977  1.00  0.00     0.134 A 
ATOM     72  F   UNL     1     -12.723  10.956  -5.707  1.00  0.00    -0.206 F 
ATOM     73  C   UNL     1     -11.430  10.421  -7.594  1.00  0.00     0.040 A 
ATOM     74  C   UNL     1     -10.942   8.117  -8.098  1.00  0.00     0.040 A 
ATOM     75  F   UNL     1     -11.769   6.412  -6.711  1.00  0.00    -0.206 F 
ATOM     76  C   UNL     1     -10.822   9.470  -8.412  1.00  0.00     0.006 A 
ENDBRANCH  48  69
BRANCH  60  77
ATOM     77  C   UNL     1     -19.063   8.638  -4.550  1.00  0.00     0.057 A 
ATOM     78  C   UNL     1     -19.596   7.892  -5.608  1.00  0.00     0.134 A 
ATOM     79  C   UNL     1     -19.733   9.809  -4.176  1.00  0.00     0.134 A 
ATOM     80  F   UNL     1     -18.990   6.769  -6.021  1.00  0.00    -0.206 F 
ATOM     81  C   UNL     1     -20.749   8.304  -6.278  1.00  0.00     0.040 A 
ATOM     82  C   UNL     1     -20.896  10.220  -4.825  1.00  0.00     0.040 A 
ATOM     83  F   UNL     1     -19.273  10.563  -3.166  1.00  0.00    -0.206 F 
ATOM     84  C   UNL     1     -21.406   9.467  -5.882  1.00  0.00     0.006 A 
ENDBRANCH  60  77
ENDBRANCH  34  35
ENDBRANCH  26  29
ENDBRANCH  24  25
ENDBRANCH   1  24
TORSDOF 11
