REMARK SMILES CCC(CC)(C(=O)NCCCNC(=O)c1ccc(-c2c3nc(c(-c4c(F)cccc4F)c4ccc([nH]4)c(-c4c(F)cccc4F)c4nc(c(-c5c(F)cccc5F)c5ccc2[nH]5)C=C4)C=C3)cc1)n1nnnc1CC[C@@H]1CCCO1
REMARK SMILES IDX 9 1 8 2 6 3 7 4 3 6 2 7 1 8 4 9 5 10 69 11 70 12 73 13 71 14
REMARK SMILES IDX 72 15 74 16 75 17 76 18 77 19 80 20 78 21 79 22 10 23 11 24
REMARK SMILES IDX 12 25 13 26 14 28 15 29 16 30 68 31 17 32 67 33 18 34 19 35
REMARK SMILES IDX 20 36 61 37 21 38 66 39 60 40 62 41 22 42 65 43 59 44 58 45
REMARK SMILES IDX 23 47 49 48 32 49 48 50 33 51 36 52 47 53 63 54 34 55 35 56
REMARK SMILES IDX 46 58 64 59 37 60 24 61 25 62 30 63 26 64 27 65 29 66 31 67
REMARK SMILES IDX 28 68 50 69 51 70 56 71 52 72 53 73 55 74 57 75 54 76 38 77
REMARK SMILES IDX 39 78 44 79 40 80 41 81 43 82 45 83 42 84
REMARK H PARENT 8 5 12 27 62 46 36 57
REMARK Flexibility Score: inf
ROOT
ATOM      1  C   UNL     1      -2.005   1.463  -2.571  1.00  0.00     0.117 C 
ENDROOT
BRANCH   1   2
ATOM      2  N   UNL     1      -0.804   2.023  -3.164  1.00  0.00    -0.354 N 
ATOM      3  C   UNL     1       0.468   1.526  -3.250  1.00  0.00     0.248 C 
ATOM      4  O   UNL     1       1.107   1.925  -4.231  1.00  0.00    -0.272 OA
ATOM      5  H   UNL     1      -0.926   2.911  -3.573  1.00  0.00     0.163 HD
BRANCH   3   6
ATOM      6  C   UNL     1       1.044   0.459  -2.261  1.00  0.00     0.144 C 
BRANCH   6   7
ATOM      7  C   UNL     1       0.633   0.781  -0.787  1.00  0.00     0.037 C 
ATOM      8  C   UNL     1       1.102  -0.198   0.283  1.00  0.00     0.007 C 
ENDBRANCH   6   7
BRANCH   6   9
ATOM      9  C   UNL     1       0.635  -0.944  -2.811  1.00  0.00     0.037 C 
ATOM     10  C   UNL     1      -0.777  -1.264  -3.276  1.00  0.00     0.007 C 
ENDBRANCH   6   9
BRANCH   6  11
ATOM     11  N   UNL     1       2.541   0.600  -2.270  1.00  0.00    -0.214 N 
ATOM     12  N   UNL     1       3.064   1.848  -2.144  1.00  0.00    -0.044 NA
ATOM     13  C   UNL     1       3.579  -0.308  -2.112  1.00  0.00     0.152 A 
ATOM     14  N   UNL     1       4.367   1.695  -2.010  1.00  0.00    -0.024 NA
ATOM     15  N   UNL     1       4.698   0.377  -1.966  1.00  0.00    -0.114 NA
BRANCH  13  16
ATOM     16  C   UNL     1       3.532  -1.790  -2.002  1.00  0.00     0.082 C 
BRANCH  16  17
ATOM     17  C   UNL     1       3.768  -2.518  -3.325  1.00  0.00     0.040 C 
BRANCH  17  18
ATOM     18  C   UNL     1       5.240  -2.536  -3.732  1.00  0.00     0.118 C 
ATOM     19  C   UNL     1       5.686  -1.390  -4.622  1.00  0.00     0.034 C 
ATOM     20  O   UNL     1       5.499  -3.719  -4.514  1.00  0.00    -0.378 OA
ATOM     21  C   UNL     1       6.946  -1.968  -5.217  1.00  0.00     0.031 C 
ATOM     22  C   UNL     1       6.566  -3.420  -5.429  1.00  0.00     0.160 C 
ENDBRANCH  17  18
ENDBRANCH  16  17
ENDBRANCH  13  16
ENDBRANCH   6  11
ENDBRANCH   3   6
ENDBRANCH   1   2
BRANCH   1  23
ATOM     23  C   UNL     1      -2.822   2.457  -1.778  1.00  0.00     0.042 C 
BRANCH  23  24
ATOM     24  C   UNL     1      -3.522   3.484  -2.651  1.00  0.00     0.118 C 
BRANCH  24  25
ATOM     25  N   UNL     1      -4.409   2.876  -3.639  1.00  0.00    -0.352 N 
ATOM     26  C   UNL     1      -5.777   2.884  -3.756  1.00  0.00     0.251 C 
ATOM     27  H   UNL     1      -3.945   2.372  -4.346  1.00  0.00     0.163 HD
ATOM     28  O   UNL     1      -6.318   2.116  -4.544  1.00  0.00    -0.269 OA
BRANCH  26  29
ATOM     29  C   UNL     1      -6.597   3.791  -2.928  1.00  0.00     0.039 A 
ATOM     30  C   UNL     1      -7.849   3.359  -2.483  1.00  0.00     0.014 A 
ATOM     31  C   UNL     1      -6.149   5.072  -2.602  1.00  0.00     0.014 A 
ATOM     32  C   UNL     1      -8.608   4.185  -1.653  1.00  0.00     0.010 A 
ATOM     33  C   UNL     1      -6.840   5.834  -1.671  1.00  0.00     0.010 A 
ATOM     34  C   UNL     1      -8.087   5.409  -1.200  1.00  0.00    -0.014 A 
BRANCH  34  35
ATOM     35  C   UNL     1      -8.842   6.254  -0.244  1.00  0.00     0.031 A 
ATOM     36  C   UNL     1      -9.249   7.654  -0.619  1.00  0.00     0.074 A 
ATOM     37  C   UNL     1      -9.120   5.770   0.982  1.00  0.00     0.049 A 
ATOM     38  N   UNL     1      -9.920   8.532   0.082  1.00  0.00    -0.248 NA
ATOM     39  C   UNL     1      -8.820   8.146  -1.938  1.00  0.00     0.031 C 
ATOM     40  C   UNL     1      -8.704   4.460   1.490  1.00  0.00     0.029 A 
ATOM     41  N   UNL     1      -9.823   6.320   2.023  1.00  0.00    -0.354 N 
ATOM     42  C   UNL     1      -9.983   9.675  -0.706  1.00  0.00     0.074 A 
ATOM     43  C   UNL     1      -9.219   9.408  -1.902  1.00  0.00     0.031 C 
ATOM     44  C   UNL     1      -9.205   4.286   2.723  1.00  0.00     0.029 A 
ATOM     45  C   UNL     1      -9.943   5.484   3.107  1.00  0.00     0.049 A 
ATOM     46  H   UNL     1     -10.205   7.226   1.996  1.00  0.00     0.167 HD
ATOM     47  C   UNL     1     -10.647  10.831  -0.470  1.00  0.00     0.037 A 
ATOM     48  C   UNL     1     -10.587   5.661   4.275  1.00  0.00     0.037 A 
ATOM     49  C   UNL     1     -11.426  11.082   0.714  1.00  0.00     0.049 A 
ATOM     50  C   UNL     1     -11.334   6.945   4.504  1.00  0.00     0.074 A 
ATOM     51  C   UNL     1     -12.190  12.192   1.025  1.00  0.00     0.029 A 
ATOM     52  N   UNL     1     -11.538  10.206   1.783  1.00  0.00    -0.354 N 
ATOM     53  N   UNL     1     -11.458   7.983   3.712  1.00  0.00    -0.248 NA
ATOM     54  C   UNL     1     -12.041   7.075   5.784  1.00  0.00     0.031 C 
ATOM     55  C   UNL     1     -12.725  12.008   2.305  1.00  0.00     0.029 A 
ATOM     56  C   UNL     1     -12.339  10.760   2.767  1.00  0.00     0.049 A 
ATOM     57  H   UNL     1     -11.110   9.320   1.835  1.00  0.00     0.167 HD
ATOM     58  C   UNL     1     -12.272   8.881   4.388  1.00  0.00     0.074 A 
ATOM     59  C   UNL     1     -12.635   8.251   5.641  1.00  0.00     0.031 C 
ATOM     60  C   UNL     1     -12.680  10.118   4.012  1.00  0.00     0.037 A 
BRANCH  47  61
ATOM     61  C   UNL     1     -10.567  11.902  -1.521  1.00  0.00     0.057 A 
ATOM     62  C   UNL     1     -11.174  11.754  -2.776  1.00  0.00     0.134 A 
ATOM     63  C   UNL     1      -9.897  13.106  -1.269  1.00  0.00     0.134 A 
ATOM     64  F   UNL     1     -11.819  10.620  -3.090  1.00  0.00    -0.206 F 
ATOM     65  C   UNL     1     -11.092  12.750  -3.752  1.00  0.00     0.040 A 
ATOM     66  C   UNL     1      -9.835  14.122  -2.225  1.00  0.00     0.040 A 
ATOM     67  F   UNL     1      -9.296  13.318  -0.089  1.00  0.00    -0.206 F 
ATOM     68  C   UNL     1     -10.428  13.942  -3.474  1.00  0.00     0.006 A 
ENDBRANCH  47  61
BRANCH  48  69
ATOM     69  C   UNL     1     -10.588   4.583   5.296  1.00  0.00     0.057 A 
ATOM     70  C   UNL     1     -11.756   3.874   5.598  1.00  0.00     0.134 A 
ATOM     71  C   UNL     1      -9.425   4.237   5.996  1.00  0.00     0.134 A 
ATOM     72  F   UNL     1     -12.905   4.168   4.972  1.00  0.00    -0.206 F 
ATOM     73  C   UNL     1     -11.776   2.877   6.575  1.00  0.00     0.040 A 
ATOM     74  C   UNL     1      -9.424   3.224   6.955  1.00  0.00     0.040 A 
ATOM     75  F   UNL     1      -8.270   4.869   5.744  1.00  0.00    -0.206 F 
ATOM     76  C   UNL     1     -10.605   2.546   7.253  1.00  0.00     0.006 A 
ENDBRANCH  48  69
BRANCH  60  77
ATOM     77  C   UNL     1     -13.579  10.854   4.963  1.00  0.00     0.057 A 
ATOM     78  C   UNL     1     -13.112  11.350   6.187  1.00  0.00     0.134 A 
ATOM     79  C   UNL     1     -14.925  11.076   4.647  1.00  0.00     0.134 A 
ATOM     80  F   UNL     1     -11.835  11.160   6.556  1.00  0.00    -0.206 F 
ATOM     81  C   UNL     1     -13.961  12.005   7.080  1.00  0.00     0.040 A 
ATOM     82  C   UNL     1     -15.776  11.758   5.517  1.00  0.00     0.040 A 
ATOM     83  F   UNL     1     -15.434  10.638   3.485  1.00  0.00    -0.206 F 
ATOM     84  C   UNL     1     -15.297  12.215   6.743  1.00  0.00     0.006 A 
ENDBRANCH  60  77
ENDBRANCH  34  35
ENDBRANCH  26  29
ENDBRANCH  24  25
ENDBRANCH  23  24
ENDBRANCH   1  23
TORSDOF 16
