REMARK SMILES COc1ccc(/C=C/c2ncc(C(=O)NCCCNC(=O)c3ccc(-c4c5nc(c(-c6c(F)cccc6F)c6ccc([nH]6)c(-c6c(F)cccc6F)c6nc(c(-c7c(F)cccc7F)c7ccc4[nH]7)C=C6)C=C5)cc3)s2)cc1O
REMARK SMILES IDX 16 1 15 2 13 3 14 4 12 6 9 7 10 8 76 9 11 10 8 11 7 12 6 13
REMARK SMILES IDX 3 14 4 15 78 16 5 17 77 18 2 19 1 20 79 21 17 23 18 24 19 25
REMARK SMILES IDX 20 26 21 28 22 29 23 30 75 31 24 32 74 33 25 34 26 35 27 36
REMARK SMILES IDX 68 37 28 38 73 39 67 40 69 41 29 42 72 43 66 44 65 45 30 47
REMARK SMILES IDX 56 48 39 49 55 50 40 51 43 52 54 53 70 54 41 55 42 56 53 58
REMARK SMILES IDX 71 59 44 60 31 61 32 62 37 63 33 64 34 65 36 66 38 67 35 68
REMARK SMILES IDX 57 69 58 70 63 71 59 72 60 73 62 74 64 75 61 76 45 77 46 78
REMARK SMILES IDX 51 79 47 80 48 81 50 82 52 83 49 84
REMARK H PARENT 15 5 79 22 19 27 69 46 43 57
REMARK Flexibility Score: inf
ROOT
ATOM      1  C   UNL     1      -3.127  -9.605   8.494  1.00  0.00     0.118 C 
ENDROOT
BRANCH   1   2
ATOM      2  N   UNL     1      -4.079  -8.612   8.956  1.00  0.00    -0.351 N 
ATOM      3  C   UNL     1      -4.178  -7.258   8.740  1.00  0.00     0.263 C 
ATOM      4  O   UNL     1      -5.177  -6.725   9.227  1.00  0.00    -0.268 OA
ATOM      5  H   UNL     1      -4.787  -8.977   9.534  1.00  0.00     0.163 HD
BRANCH   3   6
ATOM      6  C   UNL     1      -3.189  -6.537   7.967  1.00  0.00     0.112 A 
ATOM      7  C   UNL     1      -2.090  -4.906   6.498  1.00  0.00     0.116 A 
ATOM      8  N   UNL     1      -1.246  -5.860   6.845  1.00  0.00    -0.244 NA
ATOM      9  S   UNL     1      -3.652  -5.057   7.215  1.00  0.00    -0.109 S 
ATOM     10  C   UNL     1      -1.853  -6.754   7.708  1.00  0.00     0.137 A 
BRANCH   7  11
ATOM     11  C   UNL     1      -1.828  -3.813   5.623  1.00  0.00     0.040 C 
ATOM     12  C   UNL     1      -0.914  -3.932   4.647  1.00  0.00     0.011 C 
BRANCH  12  13
ATOM     13  C   UNL     1      -0.536  -2.867   3.705  1.00  0.00    -0.022 A 
ATOM     14  C   UNL     1       0.462  -0.911   1.921  1.00  0.00     0.160 A 
ATOM     15  C   UNL     1      -0.017  -0.549   3.182  1.00  0.00     0.051 A 
ATOM     16  C   UNL     1       0.450  -2.261   1.567  1.00  0.00     0.158 A 
ATOM     17  C   UNL     1      -0.506  -1.516   4.070  1.00  0.00     0.012 A 
ATOM     18  C   UNL     1      -0.065  -3.227   2.436  1.00  0.00     0.058 A 
BRANCH  14  19
ATOM     19  O   UNL     1       0.979   0.119   1.186  1.00  0.00    -0.493 OA
ATOM     20  C   UNL     1       0.778   0.066  -0.223  1.00  0.00     0.278 C 
ENDBRANCH  14  19
BRANCH  16  21
ATOM     21  O   UNL     1       1.017  -2.733   0.417  1.00  0.00    -0.504 OA
ATOM     22  H   UNL     1       1.380  -2.134  -0.205  1.00  0.00     0.293 HD
ENDBRANCH  16  21
ENDBRANCH  12  13
ENDBRANCH   7  11
ENDBRANCH   3   6
ENDBRANCH   1   2
BRANCH   1  23
ATOM     23  C   UNL     1      -2.143  -9.993   9.597  1.00  0.00     0.042 C 
BRANCH  23  24
ATOM     24  C   UNL     1      -2.776 -10.809  10.725  1.00  0.00     0.118 C 
BRANCH  24  25
ATOM     25  N   UNL     1      -3.179 -12.138  10.286  1.00  0.00    -0.352 N 
ATOM     26  C   UNL     1      -2.837 -13.375  10.771  1.00  0.00     0.251 C 
ATOM     27  H   UNL     1      -3.795 -12.151   9.518  1.00  0.00     0.163 HD
ATOM     28  O   UNL     1      -3.132 -14.377  10.126  1.00  0.00    -0.269 OA
BRANCH  26  29
ATOM     29  C   UNL     1      -2.111 -13.520  12.053  1.00  0.00     0.039 A 
ATOM     30  C   UNL     1      -1.099 -14.481  12.143  1.00  0.00     0.014 A 
ATOM     31  C   UNL     1      -2.461 -12.768  13.178  1.00  0.00     0.014 A 
ATOM     32  C   UNL     1      -0.405 -14.654  13.343  1.00  0.00     0.010 A 
ATOM     33  C   UNL     1      -1.730 -12.902  14.358  1.00  0.00     0.010 A 
ATOM     34  C   UNL     1      -0.699 -13.848  14.454  1.00  0.00    -0.014 A 
BRANCH  34  35
ATOM     35  C   UNL     1       0.060 -13.983  15.722  1.00  0.00     0.031 A 
ATOM     36  C   UNL     1      -0.622 -14.476  16.968  1.00  0.00     0.074 A 
ATOM     37  C   UNL     1       1.350 -13.597  15.769  1.00  0.00     0.049 A 
ATOM     38  N   UNL     1      -0.149 -14.580  18.184  1.00  0.00    -0.248 NA
ATOM     39  C   UNL     1      -2.029 -14.882  16.833  1.00  0.00     0.031 C 
ATOM     40  C   UNL     1       2.114 -13.061  14.641  1.00  0.00     0.029 A 
ATOM     41  N   UNL     1       2.241 -13.581  16.813  1.00  0.00    -0.354 N 
ATOM     42  C   UNL     1      -1.204 -15.039  18.962  1.00  0.00     0.074 A 
ATOM     43  C   UNL     1      -2.351 -15.160  18.088  1.00  0.00     0.031 C 
ATOM     44  C   UNL     1       3.362 -12.781  15.050  1.00  0.00     0.029 A 
ATOM     45  C   UNL     1       3.476 -13.087  16.473  1.00  0.00     0.049 A 
ATOM     46  H   UNL     1       2.016 -13.894  17.718  1.00  0.00     0.167 HD
ATOM     47  C   UNL     1      -1.211 -15.347  20.281  1.00  0.00     0.037 A 
ATOM     48  C   UNL     1       4.575 -12.894  17.225  1.00  0.00     0.037 A 
ATOM     49  C   UNL     1      -0.061 -15.259  21.143  1.00  0.00     0.049 A 
ATOM     50  C   UNL     1       4.548 -13.262  18.681  1.00  0.00     0.074 A 
ATOM     51  C   UNL     1       0.047 -15.614  22.476  1.00  0.00     0.029 A 
ATOM     52  N   UNL     1       1.181 -14.784  20.753  1.00  0.00    -0.354 N 
ATOM     53  N   UNL     1       3.560 -13.751  19.390  1.00  0.00    -0.248 NA
ATOM     54  C   UNL     1       5.790 -13.057  19.440  1.00  0.00     0.031 C 
ATOM     55  C   UNL     1       1.348 -15.324  22.902  1.00  0.00     0.029 A 
ATOM     56  C   UNL     1       2.059 -14.821  21.825  1.00  0.00     0.049 A 
ATOM     57  H   UNL     1       1.407 -14.466  19.849  1.00  0.00     0.167 HD
ATOM     58  C   UNL     1       4.065 -13.931  20.671  1.00  0.00     0.074 A 
ATOM     59  C   UNL     1       5.451 -13.511  20.638  1.00  0.00     0.031 C 
ATOM     60  C   UNL     1       3.436 -14.403  21.774  1.00  0.00     0.037 A 
BRANCH  47  61
ATOM     61  C   UNL     1      -2.509 -15.809  20.874  1.00  0.00     0.057 A 
ATOM     62  C   UNL     1      -3.038 -17.076  20.596  1.00  0.00     0.134 A 
ATOM     63  C   UNL     1      -3.225 -14.989  21.756  1.00  0.00     0.134 A 
ATOM     64  F   UNL     1      -2.406 -17.905  19.750  1.00  0.00    -0.206 F 
ATOM     65  C   UNL     1      -4.244 -17.502  21.153  1.00  0.00     0.040 A 
ATOM     66  C   UNL     1      -4.421 -15.414  22.337  1.00  0.00     0.040 A 
ATOM     67  F   UNL     1      -2.772 -13.767  22.069  1.00  0.00    -0.206 F 
ATOM     68  C   UNL     1      -4.937 -16.671  22.031  1.00  0.00     0.006 A 
ENDBRANCH  47  61
BRANCH  48  69
ATOM     69  C   UNL     1       5.805 -12.345  16.605  1.00  0.00     0.057 A 
ATOM     70  C   UNL     1       6.916 -13.162  16.366  1.00  0.00     0.134 A 
ATOM     71  C   UNL     1       5.897 -11.000  16.230  1.00  0.00     0.134 A 
ATOM     72  F   UNL     1       6.891 -14.455  16.722  1.00  0.00    -0.206 F 
ATOM     73  C   UNL     1       8.082 -12.659  15.787  1.00  0.00     0.040 A 
ATOM     74  C   UNL     1       7.049 -10.488  15.631  1.00  0.00     0.040 A 
ATOM     75  F   UNL     1       4.863 -10.170  16.426  1.00  0.00    -0.206 F 
ATOM     76  C   UNL     1       8.148 -11.318  15.413  1.00  0.00     0.006 A 
ENDBRANCH  48  69
BRANCH  60  77
ATOM     77  C   UNL     1       4.249 -14.515  23.029  1.00  0.00     0.057 A 
ATOM     78  C   UNL     1       4.594 -13.388  23.784  1.00  0.00     0.134 A 
ATOM     79  C   UNL     1       4.662 -15.766  23.502  1.00  0.00     0.134 A 
ATOM     80  F   UNL     1       4.240 -12.160  23.375  1.00  0.00    -0.206 F 
ATOM     81  C   UNL     1       5.338 -13.501  24.960  1.00  0.00     0.040 A 
ATOM     82  C   UNL     1       5.387 -15.893  24.687  1.00  0.00     0.040 A 
ATOM     83  F   UNL     1       4.358 -16.885  22.826  1.00  0.00    -0.206 F 
ATOM     84  C   UNL     1       5.731 -14.757  25.418  1.00  0.00     0.006 A 
ENDBRANCH  60  77
ENDBRANCH  34  35
ENDBRANCH  26  29
ENDBRANCH  24  25
ENDBRANCH  23  24
ENDBRANCH   1  23
TORSDOF 14
