REMARK SMILES O=C(CN(CC(F)(F)F)S(=O)(=O)c1cccc(F)c1)NCCCNC(=O)c1ccc(-c2c3nc(c(-c4c(F)cccc4F)c4ccc([nH]4)c(-c4c(F)cccc4F)c4nc(c(-c5c(F)cccc5F)c5ccc2[nH]5)C=C4)C=C3)cc1
REMARK SMILES IDX 21 1 20 2 1 3 2 4 3 6 4 7 5 8 6 9 7 10 8 11 9 12 10 13 11 14
REMARK SMILES IDX 12 15 13 16 14 17 19 18 15 19 17 20 16 21 18 22 22 23 23 24
REMARK SMILES IDX 24 25 25 26 26 28 27 29 28 30 80 31 29 32 79 33 30 34 31 35
REMARK SMILES IDX 32 36 73 37 33 38 78 39 72 40 74 41 34 42 77 43 71 44 70 45
REMARK SMILES IDX 35 47 61 48 44 49 60 50 45 51 48 52 59 53 75 54 46 55 47 56
REMARK SMILES IDX 58 58 76 59 49 60 36 61 37 62 42 63 38 64 39 65 41 66 43 67
REMARK SMILES IDX 40 68 62 69 63 70 68 71 64 72 65 73 67 74 69 75 66 76 50 77
REMARK SMILES IDX 51 78 56 79 52 80 53 81 55 82 57 83 54 84
REMARK H PARENT 20 5 24 27 74 46 48 57
REMARK Flexibility Score: inf
ROOT
ATOM      1  C   UNL     1       2.128   2.540   0.480  1.00  0.00     0.117 C 
ENDROOT
BRANCH   1   2
ATOM      2  N   UNL     1       2.722   1.285   0.067  1.00  0.00    -0.355 N 
ATOM      3  O   UNL     1       0.963  -0.006   0.771  1.00  0.00    -0.274 OA
ATOM      4  C   UNL     1       2.019   0.102   0.152  1.00  0.00     0.235 C 
ATOM      5  H   UNL     1       3.643   1.276  -0.281  1.00  0.00     0.163 HD
BRANCH   4   6
ATOM      6  C   UNL     1       2.702  -1.102  -0.471  1.00  0.00     0.202 C 
BRANCH   6   7
ATOM      7  N   UNL     1       3.534  -0.858  -1.711  1.00  0.00    -0.179 NA
BRANCH   7   8
ATOM      8  C   UNL     1       4.490  -2.029  -1.934  1.00  0.00     0.218 C 
BRANCH   8   9
ATOM      9  C   UNL     1       3.912  -3.430  -2.213  1.00  0.00     0.402 C 
ATOM     10  F   UNL     1       3.413  -3.555  -3.454  1.00  0.00    -0.170 F 
ATOM     11  F   UNL     1       4.906  -4.348  -2.103  1.00  0.00    -0.170 F 
ATOM     12  F   UNL     1       2.962  -3.776  -1.321  1.00  0.00    -0.170 F 
ENDBRANCH   8   9
ENDBRANCH   7   8
BRANCH   7  13
ATOM     13  S   UNL     1       2.560  -0.403  -3.057  1.00  0.00     0.243 S 
ATOM     14  O   UNL     1       1.796  -1.564  -3.456  1.00  0.00    -0.207 OA
ATOM     15  O   UNL     1       1.902   0.834  -2.713  1.00  0.00    -0.207 OA
BRANCH  13  16
ATOM     16  C   UNL     1       3.721  -0.022  -4.353  1.00  0.00     0.085 A 
ATOM     17  C   UNL     1       4.092   1.311  -4.582  1.00  0.00     0.022 A 
ATOM     18  C   UNL     1       4.160  -1.028  -5.216  1.00  0.00     0.061 A 
ATOM     19  C   UNL     1       4.934   1.626  -5.653  1.00  0.00     0.004 A 
ATOM     20  C   UNL     1       5.019  -0.702  -6.258  1.00  0.00     0.124 A 
ATOM     21  C   UNL     1       5.409   0.613  -6.485  1.00  0.00     0.039 A 
ATOM     22  F   UNL     1       5.472  -1.672  -7.062  1.00  0.00    -0.207 F 
ENDBRANCH  13  16
ENDBRANCH   7  13
ENDBRANCH   6   7
ENDBRANCH   4   6
ENDBRANCH   1   2
BRANCH   1  23
ATOM     23  C   UNL     1       2.404   2.896   1.937  1.00  0.00     0.042 C 
BRANCH  23  24
ATOM     24  C   UNL     1       3.876   3.129   2.266  1.00  0.00     0.118 C 
BRANCH  24  25
ATOM     25  N   UNL     1       4.463   4.235   1.522  1.00  0.00    -0.352 N 
ATOM     26  C   UNL     1       5.146   5.346   1.951  1.00  0.00     0.251 C 
ATOM     27  H   UNL     1       4.351   4.176   0.546  1.00  0.00     0.163 HD
ATOM     28  O   UNL     1       5.444   6.217   1.137  1.00  0.00    -0.269 OA
BRANCH  26  29
ATOM     29  C   UNL     1       5.511   5.525   3.374  1.00  0.00     0.039 A 
ATOM     30  C   UNL     1       5.387   6.800   3.937  1.00  0.00     0.014 A 
ATOM     31  C   UNL     1       6.014   4.473   4.145  1.00  0.00     0.014 A 
ATOM     32  C   UNL     1       5.701   7.004   5.284  1.00  0.00     0.010 A 
ATOM     33  C   UNL     1       6.266   4.663   5.504  1.00  0.00     0.010 A 
ATOM     34  C   UNL     1       6.108   5.929   6.088  1.00  0.00    -0.014 A 
BRANCH  34  35
ATOM     35  C   UNL     1       6.356   6.109   7.542  1.00  0.00     0.031 A 
ATOM     36  C   UNL     1       7.734   5.919   8.113  1.00  0.00     0.074 A 
ATOM     37  C   UNL     1       5.324   6.389   8.362  1.00  0.00     0.049 A 
ATOM     38  N   UNL     1       8.122   5.959   9.362  1.00  0.00    -0.248 NA
ATOM     39  C   UNL     1       8.813   5.628   7.157  1.00  0.00     0.031 C 
ATOM     40  C   UNL     1       3.933   6.565   7.941  1.00  0.00     0.029 A 
ATOM     41  N   UNL     1       5.284   6.569   9.723  1.00  0.00    -0.354 N 
ATOM     42  C   UNL     1       9.483   5.685   9.344  1.00  0.00     0.074 A 
ATOM     43  C   UNL     1       9.847   5.440   7.965  1.00  0.00     0.031 C 
ATOM     44  C   UNL     1       3.182   6.852   9.015  1.00  0.00     0.029 A 
ATOM     45  C   UNL     1       4.028   6.843  10.205  1.00  0.00     0.049 A 
ATOM     46  H   UNL     1       6.081   6.506  10.298  1.00  0.00     0.167 HD
ATOM     47  C   UNL     1      10.355   5.660  10.381  1.00  0.00     0.037 A 
ATOM     48  C   UNL     1       3.601   7.058  11.464  1.00  0.00     0.037 A 
ATOM     49  C   UNL     1      10.001   5.933  11.749  1.00  0.00     0.049 A 
ATOM     50  C   UNL     1       4.586   7.019  12.598  1.00  0.00     0.074 A 
ATOM     51  C   UNL     1      10.828   5.979  12.858  1.00  0.00     0.029 A 
ATOM     52  N   UNL     1       8.719   6.211  12.194  1.00  0.00    -0.354 N 
ATOM     53  N   UNL     1       5.877   6.794  12.560  1.00  0.00    -0.248 NA
ATOM     54  C   UNL     1       4.057   7.263  13.948  1.00  0.00     0.031 C 
ATOM     55  C   UNL     1      10.041   6.250  13.981  1.00  0.00     0.029 A 
ATOM     56  C   UNL     1       8.730   6.415  13.565  1.00  0.00     0.049 A 
ATOM     57  H   UNL     1       7.919   6.257  11.622  1.00  0.00     0.167 HD
ATOM     58  C   UNL     1       6.318   6.890  13.873  1.00  0.00     0.074 A 
ATOM     59  C   UNL     1       5.159   7.204  14.683  1.00  0.00     0.031 C 
ATOM     60  C   UNL     1       7.572   6.732  14.360  1.00  0.00     0.037 A 
BRANCH  47  61
ATOM     61  C   UNL     1      11.788   5.338  10.077  1.00  0.00     0.057 A 
ATOM     62  C   UNL     1      12.353   4.125  10.490  1.00  0.00     0.134 A 
ATOM     63  C   UNL     1      12.627   6.258   9.435  1.00  0.00     0.134 A 
ATOM     64  F   UNL     1      11.607   3.203  11.117  1.00  0.00    -0.206 F 
ATOM     65  C   UNL     1      13.704   3.842  10.282  1.00  0.00     0.040 A 
ATOM     66  C   UNL     1      13.973   5.976   9.200  1.00  0.00     0.040 A 
ATOM     67  F   UNL     1      12.144   7.433   9.006  1.00  0.00    -0.206 F 
ATOM     68  C   UNL     1      14.518   4.768   9.633  1.00  0.00     0.006 A 
ENDBRANCH  47  61
BRANCH  48  69
ATOM     69  C   UNL     1       2.170   7.362  11.712  1.00  0.00     0.057 A 
ATOM     70  C   UNL     1       1.179   6.381  11.588  1.00  0.00     0.134 A 
ATOM     71  C   UNL     1       1.761   8.655  12.056  1.00  0.00     0.134 A 
ATOM     72  F   UNL     1       1.509   5.124  11.255  1.00  0.00    -0.206 F 
ATOM     73  C   UNL     1      -0.170   6.679  11.783  1.00  0.00     0.040 A 
ATOM     74  C   UNL     1       0.418   8.963  12.274  1.00  0.00     0.040 A 
ATOM     75  F   UNL     1       2.668   9.632  12.206  1.00  0.00    -0.206 F 
ATOM     76  C   UNL     1      -0.553   7.973  12.130  1.00  0.00     0.006 A 
ENDBRANCH  48  69
BRANCH  60  77
ATOM     77  C   UNL     1       7.771   6.916  15.835  1.00  0.00     0.057 A 
ATOM     78  C   UNL     1       8.439   8.044  16.328  1.00  0.00     0.134 A 
ATOM     79  C   UNL     1       7.367   5.945  16.758  1.00  0.00     0.134 A 
ATOM     80  F   UNL     1       8.860   9.006  15.494  1.00  0.00    -0.206 F 
ATOM     81  C   UNL     1       8.709   8.194  17.689  1.00  0.00     0.040 A 
ATOM     82  C   UNL     1       7.612   6.094  18.124  1.00  0.00     0.040 A 
ATOM     83  F   UNL     1       6.714   4.847  16.349  1.00  0.00    -0.206 F 
ATOM     84  C   UNL     1       8.294   7.217  18.592  1.00  0.00     0.006 A 
ENDBRANCH  60  77
ENDBRANCH  34  35
ENDBRANCH  26  29
ENDBRANCH  24  25
ENDBRANCH  23  24
ENDBRANCH   1  23
TORSDOF 15
