REMARK SMILES Cc1cc(C)c2c(=O)n(CCCC(=O)NCCCNC(=O)c3ccc(-c4c5nc(c(-c6c(F)cccc6F)c6ccc([nH]6)c(-c6c(F)cccc6F)c6nc(c(-c7c(F)cccc7F)c7ccc4[nH]7)C=C6)C=C5)cc3)sc2n1
REMARK SMILES IDX 16 1 15 2 13 3 14 4 12 6 11 7 10 8 9 9 1 10 2 11 3 12 78 13
REMARK SMILES IDX 4 14 77 15 5 16 6 17 76 18 7 19 8 20 17 21 18 22 19 23 20 24
REMARK SMILES IDX 21 26 22 27 23 28 75 29 24 30 74 31 25 32 26 33 27 34 68 35
REMARK SMILES IDX 28 36 73 37 67 38 69 39 29 40 72 41 66 42 65 43 30 45 56 46
REMARK SMILES IDX 39 47 55 48 40 49 43 50 54 51 70 52 41 53 42 54 53 56 71 57
REMARK SMILES IDX 44 58 31 59 32 60 37 61 33 62 34 63 36 64 38 65 35 66 57 67
REMARK SMILES IDX 58 68 63 69 59 70 60 71 62 72 64 73 61 74 45 75 46 76 51 77
REMARK SMILES IDX 47 78 48 79 50 80 52 81 49 82
REMARK H PARENT 15 5 19 25 69 44 43 55
REMARK Flexibility Score: inf
ROOT
ATOM      1  C   UNL     1      -3.034  -0.534   5.552  1.00  0.00     0.117 C 
ENDROOT
BRANCH   1   2
ATOM      2  N   UNL     1      -3.266   0.147   6.814  1.00  0.00    -0.356 N 
ATOM      3  C   UNL     1      -2.389   0.528   7.783  1.00  0.00     0.220 C 
ATOM      4  O   UNL     1      -2.846   0.986   8.831  1.00  0.00    -0.275 OA
ATOM      5  H   UNL     1      -4.208   0.367   6.999  1.00  0.00     0.163 HD
BRANCH   3   6
ATOM      6  C   UNL     1      -0.895   0.465   7.546  1.00  0.00     0.102 C 
BRANCH   6   7
ATOM      7  C   UNL     1      -0.173  -0.837   7.906  1.00  0.00     0.033 C 
BRANCH   7   8
ATOM      8  C   UNL     1      -0.166  -2.019   6.927  1.00  0.00     0.139 C 
BRANCH   8   9
ATOM      9  N   UNL     1       0.317  -1.873   5.564  1.00  0.00    -0.262 N 
ATOM     10  C   UNL     1       1.004  -0.197  -0.274  1.00  0.00     0.067 C 
ATOM     11  C   UNL     1       0.865  -1.015   0.976  1.00  0.00     0.039 A 
ATOM     12  C   UNL     1       0.743  -2.410   0.907  1.00  0.00     0.027 A 
ATOM     13  N   UNL     1       0.926  -0.343   2.150  1.00  0.00    -0.241 NA
ATOM     14  C   UNL     1       0.592  -3.162   2.084  1.00  0.00    -0.033 A 
ATOM     15  C   UNL     1       0.780  -1.089   3.257  1.00  0.00     0.146 A 
ATOM     16  C   UNL     1       0.508  -4.656   2.033  1.00  0.00     0.045 C 
ATOM     17  C   UNL     1       0.549  -2.452   3.278  1.00  0.00     0.081 A 
ATOM     18  S   UNL     1       0.906  -0.418   4.893  1.00  0.00    -0.035 S 
ATOM     19  C   UNL     1       0.225  -2.920   4.644  1.00  0.00     0.270 A 
ATOM     20  O   UNL     1      -0.156  -4.056   4.883  1.00  0.00    -0.268 OA
ENDBRANCH   8   9
ENDBRANCH   7   8
ENDBRANCH   6   7
ENDBRANCH   3   6
ENDBRANCH   1   2
BRANCH   1  21
ATOM     21  C   UNL     1      -3.407  -2.016   5.647  1.00  0.00     0.042 C 
BRANCH  21  22
ATOM     22  C   UNL     1      -4.892  -2.260   5.473  1.00  0.00     0.118 C 
BRANCH  22  23
ATOM     23  N   UNL     1      -5.331  -2.201   4.083  1.00  0.00    -0.352 N 
ATOM     24  C   UNL     1      -6.622  -2.398   3.611  1.00  0.00     0.251 C 
ATOM     25  H   UNL     1      -4.641  -2.001   3.410  1.00  0.00     0.163 HD
ATOM     26  O   UNL     1      -6.845  -2.654   2.449  1.00  0.00    -0.269 OA
BRANCH  24  27
ATOM     27  C   UNL     1      -7.718  -2.314   4.599  1.00  0.00     0.039 A 
ATOM     28  C   UNL     1      -8.665  -3.332   4.706  1.00  0.00     0.014 A 
ATOM     29  C   UNL     1      -7.690  -1.266   5.512  1.00  0.00     0.014 A 
ATOM     30  C   UNL     1      -9.514  -3.341   5.812  1.00  0.00     0.010 A 
ATOM     31  C   UNL     1      -8.406  -1.374   6.681  1.00  0.00     0.010 A 
ATOM     32  C   UNL     1      -9.355  -2.382   6.830  1.00  0.00    -0.014 A 
BRANCH  32  33
ATOM     33  C   UNL     1     -10.122  -2.488   8.076  1.00  0.00     0.031 A 
ATOM     34  C   UNL     1     -10.199  -3.848   8.683  1.00  0.00     0.074 A 
ATOM     35  C   UNL     1     -10.630  -1.435   8.756  1.00  0.00     0.049 A 
ATOM     36  N   UNL     1     -11.243  -4.606   8.771  1.00  0.00    -0.248 NA
ATOM     37  C   UNL     1      -8.965  -4.479   9.178  1.00  0.00     0.031 C 
ATOM     38  C   UNL     1     -10.436  -0.002   8.496  1.00  0.00     0.029 A 
ATOM     39  N   UNL     1     -11.386  -1.431   9.895  1.00  0.00    -0.354 N 
ATOM     40  C   UNL     1     -10.851  -5.728   9.497  1.00  0.00     0.074 A 
ATOM     41  C   UNL     1      -9.416  -5.662   9.604  1.00  0.00     0.031 C 
ATOM     42  C   UNL     1     -10.850   0.718   9.561  1.00  0.00     0.029 A 
ATOM     43  C   UNL     1     -11.538  -0.177  10.469  1.00  0.00     0.049 A 
ATOM     44  H   UNL     1     -11.787  -2.246  10.274  1.00  0.00     0.167 HD
ATOM     45  C   UNL     1     -11.767  -6.499  10.148  1.00  0.00     0.037 A 
ATOM     46  C   UNL     1     -12.230   0.143  11.583  1.00  0.00     0.037 A 
ATOM     47  C   UNL     1     -13.110  -6.159   9.764  1.00  0.00     0.049 A 
ATOM     48  C   UNL     1     -13.267  -0.887  11.781  1.00  0.00     0.074 A 
ATOM     49  C   UNL     1     -13.968  -6.442   8.725  1.00  0.00     0.029 A 
ATOM     50  N   UNL     1     -13.617  -5.078  10.430  1.00  0.00    -0.354 N 
ATOM     51  N   UNL     1     -14.278  -1.055  10.976  1.00  0.00    -0.248 NA
ATOM     52  C   UNL     1     -13.049  -1.956  12.749  1.00  0.00     0.031 C 
ATOM     53  C   UNL     1     -14.913  -5.371   8.684  1.00  0.00     0.029 A 
ATOM     54  C   UNL     1     -14.618  -4.480   9.711  1.00  0.00     0.049 A 
ATOM     55  H   UNL     1     -13.303  -4.769  11.310  1.00  0.00     0.167 HD
ATOM     56  C   UNL     1     -14.541  -2.405  11.047  1.00  0.00     0.074 A 
ATOM     57  C   UNL     1     -13.905  -2.863  12.274  1.00  0.00     0.031 C 
ATOM     58  C   UNL     1     -14.956  -3.096   9.949  1.00  0.00     0.037 A 
BRANCH  45  59
ATOM     59  C   UNL     1     -11.515  -7.249  11.433  1.00  0.00     0.057 A 
ATOM     60  C   UNL     1     -12.451  -8.200  11.883  1.00  0.00     0.134 A 
ATOM     61  C   UNL     1     -10.559  -6.852  12.388  1.00  0.00     0.134 A 
ATOM     62  F   UNL     1     -13.434  -8.631  11.078  1.00  0.00    -0.206 F 
ATOM     63  C   UNL     1     -12.454  -8.690  13.196  1.00  0.00     0.040 A 
ATOM     64  C   UNL     1     -10.523  -7.370  13.687  1.00  0.00     0.040 A 
ATOM     65  F   UNL     1      -9.682  -5.869  12.143  1.00  0.00    -0.206 F 
ATOM     66  C   UNL     1     -11.488  -8.274  14.104  1.00  0.00     0.006 A 
ENDBRANCH  45  59
BRANCH  46  67
ATOM     67  C   UNL     1     -11.985   1.206  12.573  1.00  0.00     0.057 A 
ATOM     68  C   UNL     1     -13.005   1.647  13.424  1.00  0.00     0.134 A 
ATOM     69  C   UNL     1     -10.675   1.577  12.916  1.00  0.00     0.134 A 
ATOM     70  F   UNL     1     -14.284   1.329  13.177  1.00  0.00    -0.206 F 
ATOM     71  C   UNL     1     -12.734   2.362  14.595  1.00  0.00     0.040 A 
ATOM     72  C   UNL     1     -10.390   2.295  14.081  1.00  0.00     0.040 A 
ATOM     73  F   UNL     1      -9.628   1.170  12.183  1.00  0.00    -0.206 F 
ATOM     74  C   UNL     1     -11.420   2.667  14.938  1.00  0.00     0.006 A 
ENDBRANCH  46  67
BRANCH  58  75
ATOM     75  C   UNL     1     -15.624  -2.317   8.862  1.00  0.00     0.057 A 
ATOM     76  C   UNL     1     -14.974  -1.395   8.031  1.00  0.00     0.134 A 
ATOM     77  C   UNL     1     -16.981  -2.550   8.616  1.00  0.00     0.134 A 
ATOM     78  F   UNL     1     -13.662  -1.158   8.152  1.00  0.00    -0.206 F 
ATOM     79  C   UNL     1     -15.658  -0.706   7.025  1.00  0.00     0.040 A 
ATOM     80  C   UNL     1     -17.669  -1.891   7.597  1.00  0.00     0.040 A 
ATOM     81  F   UNL     1     -17.655  -3.448   9.352  1.00  0.00    -0.206 F 
ATOM     82  C   UNL     1     -17.010  -0.956   6.803  1.00  0.00     0.006 A 
ENDBRANCH  58  75
ENDBRANCH  32  33
ENDBRANCH  24  27
ENDBRANCH  22  23
ENDBRANCH  21  22
ENDBRANCH   1  21
TORSDOF 13
