REMARK SMILES O=C(NCCCNC(=O)c1cc(N2CCCCCC2)nc2ccc(NC(=O)c3ccc(F)cc3)cc12)c1ccc(-c2c3nc(c(-c4c(F)cccc4F)c4ccc([nH]4)c(-c4c(F)cccc4F)c4nc(c(-c5c(F)cccc5F)c5ccc2[nH]5)C=C4)C=C3)cc1
REMARK SMILES IDX 6 1 5 2 4 3 3 4 1 5 2 6 37 8 38 9 90 10 39 11 89 12 40 13
REMARK SMILES IDX 41 14 42 15 83 16 43 17 88 18 82 19 84 20 44 21 87 22 81 23
REMARK SMILES IDX 80 24 45 26 71 27 54 28 70 29 55 30 58 31 69 32 85 33 56 34
REMARK SMILES IDX 57 35 68 37 86 38 59 39 46 40 47 41 52 42 48 43 49 44 51 45
REMARK SMILES IDX 53 46 50 47 72 48 73 49 78 50 74 51 75 52 77 53 79 54 76 55
REMARK SMILES IDX 60 56 61 57 66 58 62 59 63 60 65 61 67 62 64 63 7 64 8 65
REMARK SMILES IDX 9 67 10 68 11 69 36 70 12 71 21 72 35 73 20 74 22 75 24 76
REMARK SMILES IDX 23 77 13 78 14 79 15 80 16 81 19 83 18 84 17 85 25 87 26 88
REMARK SMILES IDX 27 90 28 91 29 92 34 93 30 94 33 95 31 96 32 97
REMARK H PARENT 3 7 84 25 58 36 7 66 25 89
REMARK Flexibility Score: 90.00
ROOT
ATOM      1  C   UNL     1       5.368   3.072  -1.763  1.00  0.00     0.118 C 
ENDROOT
BRANCH   1   2
ATOM      2  C   UNL     1       5.703   1.602  -1.639  1.00  0.00     0.042 C 
BRANCH   2   3
ATOM      3  C   UNL     1       5.052   0.909  -0.454  1.00  0.00     0.118 C 
BRANCH   3   4
ATOM      4  N   UNL     1       3.596   0.992  -0.436  1.00  0.00    -0.352 N 
ATOM      5  O   UNL     1       1.465   0.246  -0.310  1.00  0.00    -0.269 OA
ATOM      6  C   UNL     1       2.664  -0.006  -0.269  1.00  0.00     0.251 C 
ATOM      7  H   UNL     1       3.226   1.895  -0.563  1.00  0.00     0.163 HD
BRANCH   6   8
ATOM      8  C   UNL     1       3.133  -1.394  -0.100  1.00  0.00     0.039 A 
ATOM      9  C   UNL     1       4.160  -1.676   0.799  1.00  0.00     0.014 A 
ATOM     10  C   UNL     1       2.622  -2.393  -0.933  1.00  0.00     0.014 A 
ATOM     11  C   UNL     1       4.829  -2.885   0.703  1.00  0.00     0.010 A 
ATOM     12  C   UNL     1       3.224  -3.652  -0.944  1.00  0.00     0.010 A 
ATOM     13  C   UNL     1       4.370  -3.886  -0.170  1.00  0.00    -0.014 A 
BRANCH  13  14
ATOM     14  C   UNL     1       5.101  -5.175  -0.229  1.00  0.00     0.031 A 
ATOM     15  C   UNL     1       5.794  -5.622  -1.486  1.00  0.00     0.074 A 
ATOM     16  C   UNL     1       5.190  -5.908   0.897  1.00  0.00     0.049 A 
ATOM     17  N   UNL     1       6.483  -6.715  -1.699  1.00  0.00    -0.248 NA
ATOM     18  C   UNL     1       5.703  -4.737  -2.659  1.00  0.00     0.031 C 
ATOM     19  C   UNL     1       4.566  -5.558   2.177  1.00  0.00     0.029 A 
ATOM     20  N   UNL     1       5.863  -7.070   1.163  1.00  0.00    -0.354 N 
ATOM     21  C   UNL     1       6.879  -6.665  -3.029  1.00  0.00     0.074 A 
ATOM     22  C   UNL     1       6.348  -5.439  -3.583  1.00  0.00     0.031 C 
ATOM     23  C   UNL     1       4.943  -6.445   3.106  1.00  0.00     0.029 A 
ATOM     24  C   UNL     1       5.767  -7.468   2.474  1.00  0.00     0.049 A 
ATOM     25  H   UNL     1       6.366  -7.572   0.481  1.00  0.00     0.167 HD
ATOM     26  C   UNL     1       7.620  -7.564  -3.720  1.00  0.00     0.037 A 
ATOM     27  C   UNL     1       6.271  -8.546   3.098  1.00  0.00     0.037 A 
ATOM     28  C   UNL     1       8.170  -8.767  -3.149  1.00  0.00     0.049 A 
ATOM     29  C   UNL     1       7.078  -9.528   2.307  1.00  0.00     0.074 A 
ATOM     30  C   UNL     1       8.947  -9.735  -3.762  1.00  0.00     0.029 A 
ATOM     31  N   UNL     1       8.007  -9.160  -1.829  1.00  0.00    -0.354 N 
ATOM     32  N   UNL     1       7.424  -9.478   1.044  1.00  0.00    -0.248 NA
ATOM     33  C   UNL     1       7.548 -10.724   3.017  1.00  0.00     0.031 C 
ATOM     34  C   UNL     1       9.227 -10.731  -2.821  1.00  0.00     0.029 A 
ATOM     35  C   UNL     1       8.657 -10.364  -1.612  1.00  0.00     0.049 A 
ATOM     36  H   UNL     1       7.505  -8.658  -1.147  1.00  0.00     0.167 HD
ATOM     37  C   UNL     1       8.149 -10.634   0.804  1.00  0.00     0.074 A 
ATOM     38  C   UNL     1       8.216 -11.355   2.060  1.00  0.00     0.031 C 
ATOM     39  C   UNL     1       8.701 -11.065  -0.355  1.00  0.00     0.037 A 
BRANCH  26  40
ATOM     40  C   UNL     1       7.875  -7.299  -5.175  1.00  0.00     0.057 A 
ATOM     41  C   UNL     1       7.240  -8.067  -6.160  1.00  0.00     0.134 A 
ATOM     42  C   UNL     1       8.806  -6.344  -5.601  1.00  0.00     0.134 A 
ATOM     43  F   UNL     1       6.342  -9.003  -5.818  1.00  0.00    -0.206 F 
ATOM     44  C   UNL     1       7.531  -7.904  -7.515  1.00  0.00     0.040 A 
ATOM     45  C   UNL     1       9.093  -6.159  -6.955  1.00  0.00     0.040 A 
ATOM     46  F   UNL     1       9.441  -5.569  -4.709  1.00  0.00    -0.206 F 
ATOM     47  C   UNL     1       8.461  -6.947  -7.916  1.00  0.00     0.006 A 
ENDBRANCH  26  40
BRANCH  27  48
ATOM     48  C   UNL     1       6.008  -8.735   4.545  1.00  0.00     0.057 A 
ATOM     49  C   UNL     1       4.724  -9.030   5.018  1.00  0.00     0.134 A 
ATOM     50  C   UNL     1       7.022  -8.555   5.491  1.00  0.00     0.134 A 
ATOM     51  F   UNL     1       3.709  -9.202   4.158  1.00  0.00    -0.206 F 
ATOM     52  C   UNL     1       4.449  -9.110   6.383  1.00  0.00     0.040 A 
ATOM     53  C   UNL     1       6.766  -8.656   6.859  1.00  0.00     0.040 A 
ATOM     54  F   UNL     1       8.274  -8.282   5.096  1.00  0.00    -0.206 F 
ATOM     55  C   UNL     1       5.473  -8.923   7.308  1.00  0.00     0.006 A 
ENDBRANCH  27  48
BRANCH  39  56
ATOM     56  C   UNL     1       9.424 -12.376  -0.316  1.00  0.00     0.057 A 
ATOM     57  C   UNL     1      10.822 -12.423  -0.354  1.00  0.00     0.134 A 
ATOM     58  C   UNL     1       8.729 -13.590  -0.294  1.00  0.00     0.134 A 
ATOM     59  F   UNL     1      11.542 -11.291  -0.383  1.00  0.00    -0.206 F 
ATOM     60  C   UNL     1      11.507 -13.638  -0.379  1.00  0.00     0.040 A 
ATOM     61  C   UNL     1       9.403 -14.812  -0.300  1.00  0.00     0.040 A 
ATOM     62  F   UNL     1       7.389 -13.606  -0.246  1.00  0.00    -0.206 F 
ATOM     63  C   UNL     1      10.796 -14.837  -0.349  1.00  0.00     0.006 A 
ENDBRANCH  39  56
ENDBRANCH  13  14
ENDBRANCH   6   8
ENDBRANCH   3   4
ENDBRANCH   2   3
ENDBRANCH   1   2
BRANCH   1  64
ATOM     64  N   UNL     1       5.710   3.841  -0.578  1.00  0.00    -0.352 N 
ATOM     65  C   UNL     1       6.174   5.128  -0.504  1.00  0.00     0.252 C 
ATOM     66  H   UNL     1       5.593   3.377   0.283  1.00  0.00     0.163 HD
ATOM     67  O   UNL     1       6.433   5.636   0.582  1.00  0.00    -0.269 OA
BRANCH  65  68
ATOM     68  C   UNL     1       6.391   5.899  -1.740  1.00  0.00     0.052 A 
ATOM     69  C   UNL     1       7.690   6.330  -1.961  1.00  0.00     0.061 A 
ATOM     70  C   UNL     1       5.357   6.239  -2.626  1.00  0.00     0.015 A 
ATOM     71  C   UNL     1       7.957   7.104  -3.072  1.00  0.00     0.130 A 
ATOM     72  C   UNL     1       5.719   6.975  -3.757  1.00  0.00     0.074 A 
ATOM     73  C   UNL     1       4.004   5.880  -2.421  1.00  0.00     0.037 A 
ATOM     74  N   UNL     1       6.981   7.410  -3.960  1.00  0.00    -0.231 NA
ATOM     75  C   UNL     1       4.716   7.248  -4.684  1.00  0.00     0.031 A 
ATOM     76  C   UNL     1       2.999   6.200  -3.318  1.00  0.00     0.042 A 
ATOM     77  C   UNL     1       3.377   6.859  -4.484  1.00  0.00     0.028 A 
BRANCH  71  78
ATOM     78  N   UNL     1       9.230   7.623  -3.243  1.00  0.00    -0.357 N 
BRANCH  78  79
ATOM     79  C   UNL     1      10.365   6.721  -3.360  1.00  0.00     0.118 C 
BRANCH  79  80
ATOM     80  C   UNL     1      11.199   6.719  -2.080  1.00  0.00     0.021 C 
BRANCH  80  81
ATOM     81  C   UNL     1      11.965   8.013  -1.812  1.00  0.00     0.002 CG0
ATOM     82  G   UNL     1      11.124   9.291  -1.837  1.00  0.00     0.000 G0
ENDBRANCH  80  81
ENDBRANCH  79  80
ENDBRANCH  78  79
BRANCH  78  83
ATOM     83  C   UNL     1       9.323   9.010  -3.662  1.00  0.00     0.118 C 
BRANCH  83  84
ATOM     84  C   UNL     1      10.645   9.662  -3.245  1.00  0.00     0.021 C 
BRANCH  84  85
ATOM     85  C   UNL     1      11.124   9.291  -1.837  1.00  0.00     0.002 CG0
ATOM     86  G   UNL     1      11.965   8.013  -1.812  1.00  0.00     0.000 G0
ENDBRANCH  84  85
ENDBRANCH  83  84
ENDBRANCH  78  83
ENDBRANCH  71  78
BRANCH  76  87
ATOM     87  N   UNL     1       1.643   5.863  -3.141  1.00  0.00    -0.322 N 
ATOM     88  C   UNL     1       0.922   5.322  -2.093  1.00  0.00     0.255 C 
ATOM     89  H   UNL     1       1.091   6.053  -3.934  1.00  0.00     0.170 HD
ATOM     90  O   UNL     1      -0.231   4.939  -2.296  1.00  0.00    -0.269 OA
BRANCH  88  91
ATOM     91  C   UNL     1       1.462   5.189  -0.721  1.00  0.00     0.040 A 
ATOM     92  C   UNL     1       2.041   6.277  -0.052  1.00  0.00     0.017 A 
ATOM     93  C   UNL     1       1.382   3.939  -0.089  1.00  0.00     0.017 A 
ATOM     94  C   UNL     1       2.649   6.081   1.191  1.00  0.00     0.040 A 
ATOM     95  C   UNL     1       1.966   3.757   1.167  1.00  0.00     0.040 A 
ATOM     96  C   UNL     1       2.616   4.822   1.783  1.00  0.00     0.123 A 
ATOM     97  F   UNL     1       3.221   4.629   2.962  1.00  0.00    -0.207 F 
ENDBRANCH  88  91
ENDBRANCH  76  87
ENDBRANCH  65  68
ENDBRANCH   1  64
TORSDOF 13
