REMARK SMILES O=C(NCCCNC(=O)c1cc(F)ccc1N1CCCc2ccccc21)c1ccc(-c2c3nc(c(-c4c(F)cccc4F)c4ccc([nH]4)c(-c4c(F)cccc4F)c4nc(c(-c5c(F)cccc5F)c5ccc2[nH]5)C=C4)C=C3)cc1
REMARK SMILES IDX 4 1 3 2 1 3 2 4 27 6 28 7 80 8 29 9 79 10 30 11 31 12 32 13
REMARK SMILES IDX 73 14 33 15 78 16 72 17 74 18 34 19 77 20 71 21 70 22 35 24
REMARK SMILES IDX 61 25 44 26 60 27 45 28 48 29 59 30 75 31 46 32 47 33 58 35
REMARK SMILES IDX 76 36 49 37 36 38 37 39 42 40 38 41 39 42 41 43 43 44 40 45
REMARK SMILES IDX 62 46 63 47 68 48 64 49 65 50 67 51 69 52 66 53 50 54 51 55
REMARK SMILES IDX 56 56 52 57 53 58 55 59 57 60 54 61 5 62 6 63 7 64 8 65 9 67
REMARK SMILES IDX 10 68 11 69 16 70 12 71 15 72 13 73 14 74 17 75 18 76 26 77
REMARK SMILES IDX 19 78 21 79 25 80 20 81 22 82 24 83 23 84
REMARK H PARENT 3 5 74 23 48 34 7 66
REMARK Flexibility Score: inf
ROOT
ATOM      1  C   UNL     1       4.634  -1.377   0.185  1.00  0.00     0.118 C 
ENDROOT
BRANCH   1   2
ATOM      2  N   UNL     1       3.201  -1.170   0.022  1.00  0.00    -0.352 N 
ATOM      3  O   UNL     1       1.248  -0.055  -0.084  1.00  0.00    -0.269 OA
ATOM      4  C   UNL     1       2.477  -0.015  -0.139  1.00  0.00     0.251 C 
ATOM      5  H   UNL     1       2.663  -1.995   0.029  1.00  0.00     0.163 HD
BRANCH   4   6
ATOM      6  C   UNL     1       3.158   1.279  -0.355  1.00  0.00     0.039 A 
ATOM      7  C   UNL     1       4.265   1.376  -1.198  1.00  0.00     0.014 A 
ATOM      8  C   UNL     1       2.659   2.426   0.273  1.00  0.00     0.014 A 
ATOM      9  C   UNL     1       4.973   2.569  -1.279  1.00  0.00     0.010 A 
ATOM     10  C   UNL     1       3.311   3.651   0.106  1.00  0.00     0.010 A 
ATOM     11  C   UNL     1       4.494   3.726  -0.644  1.00  0.00    -0.014 A 
BRANCH  11  12
ATOM     12  C   UNL     1       5.212   5.010  -0.839  1.00  0.00     0.031 A 
ATOM     13  C   UNL     1       5.857   5.725   0.314  1.00  0.00     0.074 A 
ATOM     14  C   UNL     1       5.309   5.512  -2.086  1.00  0.00     0.049 A 
ATOM     15  N   UNL     1       6.529   6.849   0.310  1.00  0.00    -0.248 NA
ATOM     16  C   UNL     1       5.732   5.107   1.643  1.00  0.00     0.031 C 
ATOM     17  C   UNL     1       4.721   4.904  -3.284  1.00  0.00     0.029 A 
ATOM     18  N   UNL     1       5.949   6.627  -2.561  1.00  0.00    -0.354 N 
ATOM     19  C   UNL     1       6.892   7.081   1.631  1.00  0.00     0.074 A 
ATOM     20  C   UNL     1       6.345   5.995   2.415  1.00  0.00     0.031 C 
ATOM     21  C   UNL     1       5.075   5.622  -4.359  1.00  0.00     0.029 A 
ATOM     22  C   UNL     1       5.851   6.777  -3.922  1.00  0.00     0.049 A 
ATOM     23  H   UNL     1       6.433   7.259  -1.982  1.00  0.00     0.167 HD
ATOM     24  C   UNL     1       7.623   8.103   2.136  1.00  0.00     0.037 A 
ATOM     25  C   UNL     1       6.316   7.744  -4.734  1.00  0.00     0.037 A 
ATOM     26  C   UNL     1       8.178   9.172   1.346  1.00  0.00     0.049 A 
ATOM     27  C   UNL     1       7.090   8.883  -4.141  1.00  0.00     0.074 A 
ATOM     28  C   UNL     1       8.955  10.237   1.767  1.00  0.00     0.029 A 
ATOM     29  N   UNL     1       8.015   9.313  -0.024  1.00  0.00    -0.354 N 
ATOM     30  N   UNL     1       7.435   9.081  -2.893  1.00  0.00    -0.248 NA
ATOM     31  C   UNL     1       7.530   9.938  -5.064  1.00  0.00     0.031 C 
ATOM     32  C   UNL     1       9.224  11.047   0.660  1.00  0.00     0.029 A 
ATOM     33  C   UNL     1       8.658  10.460  -0.460  1.00  0.00     0.049 A 
ATOM     34  H   UNL     1       7.516   8.690  -0.601  1.00  0.00     0.167 HD
ATOM     35  C   UNL     1       8.143  10.274  -2.880  1.00  0.00     0.074 A 
ATOM     36  C   UNL     1       8.192  10.747  -4.248  1.00  0.00     0.031 C 
ATOM     37  C   UNL     1       8.699  10.918  -1.826  1.00  0.00     0.037 A 
BRANCH  24  38
ATOM     38  C   UNL     1       7.865   8.129   3.618  1.00  0.00     0.057 A 
ATOM     39  C   UNL     1       7.260   9.103   4.423  1.00  0.00     0.134 A 
ATOM     40  C   UNL     1       8.758   7.245   4.236  1.00  0.00     0.134 A 
ATOM     41  F   UNL     1       6.401   9.987   3.892  1.00  0.00    -0.206 F 
ATOM     42  C   UNL     1       7.544   9.206   5.785  1.00  0.00     0.040 A 
ATOM     43  C   UNL     1       9.033   7.323   5.603  1.00  0.00     0.040 A 
ATOM     44  F   UNL     1       9.364   6.282   3.525  1.00  0.00    -0.206 F 
ATOM     45  C   UNL     1       8.432   8.313   6.380  1.00  0.00     0.006 A 
ENDBRANCH  24  38
BRANCH  25  46
ATOM     46  C   UNL     1       6.055   7.659  -6.191  1.00  0.00     0.057 A 
ATOM     47  C   UNL     1       4.763   7.808  -6.711  1.00  0.00     0.134 A 
ATOM     48  C   UNL     1       7.085   7.373  -7.094  1.00  0.00     0.134 A 
ATOM     49  F   UNL     1       3.732   8.072  -5.895  1.00  0.00    -0.206 F 
ATOM     50  C   UNL     1       4.499   7.649  -8.071  1.00  0.00     0.040 A 
ATOM     51  C   UNL     1       6.840   7.237  -8.461  1.00  0.00     0.040 A 
ATOM     52  F   UNL     1       8.346   7.234  -6.657  1.00  0.00    -0.206 F 
ATOM     53  C   UNL     1       5.541   7.365  -8.951  1.00  0.00     0.006 A 
ENDBRANCH  25  46
BRANCH  37  54
ATOM     54  C   UNL     1       9.428  12.198  -2.106  1.00  0.00     0.057 A 
ATOM     55  C   UNL     1      10.824  12.259  -2.010  1.00  0.00     0.134 A 
ATOM     56  C   UNL     1       8.745  13.384  -2.398  1.00  0.00     0.134 A 
ATOM     57  F   UNL     1      11.536  11.158  -1.725  1.00  0.00    -0.206 F 
ATOM     58  C   UNL     1      11.515  13.459  -2.180  1.00  0.00     0.040 A 
ATOM     59  C   UNL     1       9.426  14.587  -2.594  1.00  0.00     0.040 A 
ATOM     60  F   UNL     1       7.409  13.389  -2.515  1.00  0.00    -0.206 F 
ATOM     61  C   UNL     1      10.815  14.628  -2.474  1.00  0.00     0.006 A 
ENDBRANCH  37  54
ENDBRANCH  11  12
ENDBRANCH   4   6
ENDBRANCH   1   2
BRANCH   1  62
ATOM     62  C   UNL     1       5.013  -1.838   1.585  1.00  0.00     0.042 C 
BRANCH  62  63
ATOM     63  C   UNL     1       4.443  -3.195   1.966  1.00  0.00     0.118 C 
BRANCH  63  64
ATOM     64  N   UNL     1       4.886  -4.256   1.074  1.00  0.00    -0.352 N 
ATOM     65  C   UNL     1       5.716  -5.328   1.297  1.00  0.00     0.253 C 
ATOM     66  H   UNL     1       4.532  -4.196   0.157  1.00  0.00     0.163 HD
ATOM     67  O   UNL     1       6.020  -6.045   0.344  1.00  0.00    -0.269 OA
BRANCH  65  68
ATOM     68  C   UNL     1       6.199  -5.621   2.665  1.00  0.00     0.066 A 
ATOM     69  C   UNL     1       5.232  -5.720   3.680  1.00  0.00     0.055 A 
ATOM     70  C   UNL     1       7.552  -5.899   2.949  1.00  0.00     0.054 A 
ATOM     71  C   UNL     1       5.617  -5.970   4.988  1.00  0.00     0.124 A 
ATOM     72  C   UNL     1       7.902  -6.156   4.293  1.00  0.00     0.030 A 
ATOM     73  F   UNL     1       4.688  -6.013   5.950  1.00  0.00    -0.207 F 
ATOM     74  C   UNL     1       6.948  -6.172   5.309  1.00  0.00     0.041 A 
BRANCH  70  75
ATOM     75  N   UNL     1       8.573  -5.996   1.987  1.00  0.00    -0.341 N 
ATOM     76  C   UNL     1       8.909  -4.803   1.206  1.00  0.00     0.123 C 
ATOM     77  C   UNL     1       9.310  -7.165   1.683  1.00  0.00     0.044 A 
ATOM     78  C   UNL     1      10.418  -4.583   1.248  1.00  0.00     0.027 C 
ATOM     79  C   UNL     1      10.564  -7.092   1.046  1.00  0.00    -0.024 A 
ATOM     80  C   UNL     1       8.809  -8.437   2.014  1.00  0.00     0.026 A 
ATOM     81  C   UNL     1      11.141  -5.768   0.617  1.00  0.00     0.039 C 
ATOM     82  C   UNL     1      11.281  -8.268   0.764  1.00  0.00     0.006 A 
ATOM     83  C   UNL     1       9.524  -9.601   1.729  1.00  0.00     0.002 A 
ATOM     84  C   UNL     1      10.764  -9.516   1.108  1.00  0.00     0.000 A 
ENDBRANCH  70  75
ENDBRANCH  65  68
ENDBRANCH  63  64
ENDBRANCH  62  63
ENDBRANCH   1  62
TORSDOF 11
