REMARK SMILES CCCCc1nc(C[N@H+]2CC[NH2+][C@H](C(=O)NCCCNC(=O)c3ccc(-c4c5nc(c(-c6c(F)cccc6F)c6ccc([nH]6)c(-c6c(F)cccc6F)c6nc(c(-c7c(F)cccc7F)c7ccc4[nH]7)C=C6)C=C5)cc3)C2)c(Cl)[nH]1
REMARK SMILES IDX 14 1 15 2 16 3 13 5 9 6 10 7 77 8 11 10 12 11 8 14 7 15 5 16
REMARK SMILES IDX 6 17 80 18 78 19 79 21 4 22 3 23 2 24 1 25 17 26 18 27 19 28
REMARK SMILES IDX 20 29 21 30 22 32 23 33 24 34 76 35 25 36 75 37 26 38 27 39
REMARK SMILES IDX 28 40 69 41 29 42 74 43 68 44 70 45 30 46 73 47 67 48 66 49
REMARK SMILES IDX 31 51 57 52 40 53 56 54 41 55 44 56 55 57 71 58 42 59 43 60
REMARK SMILES IDX 54 62 72 63 45 64 32 65 33 66 38 67 34 68 35 69 37 70 39 71
REMARK SMILES IDX 36 72 58 73 59 74 64 75 60 76 61 77 63 78 65 79 62 80 46 81
REMARK SMILES IDX 47 82 52 83 48 84 49 85 51 86 53 87 50 88
REMARK H PARENT 16 4 9 9 12 12 12 13 80 20 20 31 70 50 44 61
REMARK Flexibility Score: inf
ROOT
ATOM      1  C   UNL     1      -0.596  -6.009  -0.771  1.00  0.00     0.284 C 
ATOM      2  O   UNL     1      -0.316  -6.827   0.113  1.00  0.00    -0.268 OA
ATOM      3  N   UNL     1       0.300  -5.909  -1.800  1.00  0.00    -0.351 N 
ATOM      4  H   UNL     1       1.181  -6.311  -1.626  1.00  0.00     0.163 HD
ENDROOT
BRANCH   1   5
ATOM      5  C   UNL     1      -1.800  -5.054  -0.628  1.00  0.00     0.328 C 
ATOM      6  N   UNL     1      -4.174  -4.934   0.370  1.00  0.00    -0.320 N 
ATOM      7  C   UNL     1      -4.550  -4.210  -0.851  1.00  0.00     0.324 C 
ATOM      8  C   UNL     1      -2.931  -5.724   0.203  1.00  0.00     0.339 C 
ATOM      9  H   UNL     1      -4.919  -5.616   0.512  1.00  0.00     0.348 HD
ATOM     10  C   UNL     1      -3.388  -3.565  -1.630  1.00  0.00     0.323 C 
ATOM     11  N   UNL     1      -2.327  -4.539  -1.921  1.00  0.00    -0.327 N 
ATOM     12  H   UNL     1      -1.577  -4.086  -2.444  1.00  0.00     0.347 HD
ATOM     13  H   UNL     1      -2.698  -5.306  -2.481  1.00  0.00     0.347 HD
BRANCH   6  14
ATOM     14  C   UNL     1      -4.219  -4.132   1.606  1.00  0.00     0.323 C 
BRANCH  14  15
ATOM     15  C   UNL     1      -3.167  -3.077   1.709  1.00  0.00     0.132 A 
ATOM     16  C   UNL     1      -1.154  -2.296   1.861  1.00  0.00     0.107 A 
ATOM     17  N   UNL     1      -1.859  -3.399   2.030  1.00  0.00    -0.231 NA
ATOM     18  N   UNL     1      -1.986  -1.230   1.617  1.00  0.00    -0.333 N 
ATOM     19  C   UNL     1      -3.245  -1.726   1.490  1.00  0.00     0.135 A 
ATOM     20  H   UNL     1      -1.720  -0.285   1.547  1.00  0.00     0.169 HD
ATOM     21  Cl  UNL     1      -4.490  -0.677   1.029  1.00  0.00    -0.062 Cl
BRANCH  16  22
ATOM     22  C   UNL     1       0.335  -2.193   1.861  1.00  0.00     0.075 C 
BRANCH  22  23
ATOM     23  C   UNL     1       0.942  -2.192   0.450  1.00  0.00     0.008 C 
BRANCH  23  24
ATOM     24  C   UNL     1       0.604  -0.984  -0.431  1.00  0.00    -0.003 C 
ATOM     25  C   UNL     1       1.095   0.337   0.138  1.00  0.00     0.004 C 
ENDBRANCH  23  24
ENDBRANCH  22  23
ENDBRANCH  16  22
ENDBRANCH  14  15
ENDBRANCH   6  14
ENDBRANCH   1   5
BRANCH   3  26
ATOM     26  C   UNL     1       0.149  -5.301  -3.111  1.00  0.00     0.118 C 
BRANCH  26  27
ATOM     27  C   UNL     1       0.445  -3.799  -3.161  1.00  0.00     0.042 C 
BRANCH  27  28
ATOM     28  C   UNL     1       1.937  -3.533  -3.231  1.00  0.00     0.118 C 
BRANCH  28  29
ATOM     29  N   UNL     1       2.490  -3.981  -4.513  1.00  0.00    -0.352 N 
ATOM     30  C   UNL     1       3.784  -3.954  -4.983  1.00  0.00     0.251 C 
ATOM     31  H   UNL     1       1.830  -4.361  -5.138  1.00  0.00     0.163 HD
ATOM     32  O   UNL     1       4.007  -4.008  -6.181  1.00  0.00    -0.269 OA
BRANCH  30  33
ATOM     33  C   UNL     1       4.898  -3.896  -4.024  1.00  0.00     0.039 A 
ATOM     34  C   UNL     1       6.120  -3.304  -4.364  1.00  0.00     0.014 A 
ATOM     35  C   UNL     1       4.728  -4.506  -2.786  1.00  0.00     0.014 A 
ATOM     36  C   UNL     1       7.158  -3.328  -3.438  1.00  0.00     0.010 A 
ATOM     37  C   UNL     1       5.668  -4.355  -1.811  1.00  0.00     0.010 A 
ATOM     38  C   UNL     1       6.916  -3.872  -2.172  1.00  0.00    -0.014 A 
BRANCH  38  39
ATOM     39  C   UNL     1       7.910  -3.868  -1.115  1.00  0.00     0.031 A 
ATOM     40  C   UNL     1       8.197  -2.500  -0.620  1.00  0.00     0.074 A 
ATOM     41  C   UNL     1       8.242  -5.008  -0.470  1.00  0.00     0.049 A 
ATOM     42  N   UNL     1       9.272  -1.806  -0.787  1.00  0.00    -0.248 NA
ATOM     43  C   UNL     1       7.067  -1.721  -0.075  1.00  0.00     0.031 C 
ATOM     44  C   UNL     1       7.694  -6.356  -0.683  1.00  0.00     0.029 A 
ATOM     45  N   UNL     1       9.047  -5.187   0.612  1.00  0.00    -0.354 N 
ATOM     46  C   UNL     1       9.035  -0.608  -0.118  1.00  0.00     0.074 A 
ATOM     47  C   UNL     1       7.610  -0.506   0.006  1.00  0.00     0.031 C 
ATOM     48  C   UNL     1       8.007  -7.148   0.366  1.00  0.00     0.029 A 
ATOM     49  C   UNL     1       8.893  -6.420   1.252  1.00  0.00     0.049 A 
ATOM     50  H   UNL     1       9.685  -4.503   0.920  1.00  0.00     0.167 HD
ATOM     51  C   UNL     1      10.030  -0.009   0.595  1.00  0.00     0.037 A 
ATOM     52  C   UNL     1       9.429  -6.766   2.452  1.00  0.00     0.037 A 
ATOM     53  C   UNL     1      11.315  -0.551   0.203  1.00  0.00     0.049 A 
ATOM     54  C   UNL     1      10.502  -5.781   2.748  1.00  0.00     0.074 A 
ATOM     55  C   UNL     1      12.002  -0.664  -0.992  1.00  0.00     0.029 A 
ATOM     56  N   UNL     1      11.898  -1.459   1.054  1.00  0.00    -0.354 N 
ATOM     57  N   UNL     1      11.614  -5.697   2.072  1.00  0.00    -0.248 NA
ATOM     58  C   UNL     1      10.116  -4.576   3.467  1.00  0.00     0.031 C 
ATOM     59  C   UNL     1      12.628  -1.945  -0.941  1.00  0.00     0.029 A 
ATOM     60  C   UNL     1      12.377  -2.505   0.312  1.00  0.00     0.049 A 
ATOM     61  H   UNL     1      11.961  -1.372   2.033  1.00  0.00     0.167 HD
ATOM     62  C   UNL     1      11.825  -4.335   1.909  1.00  0.00     0.074 A 
ATOM     63  C   UNL     1      10.909  -3.694   2.853  1.00  0.00     0.031 C 
ATOM     64  C   UNL     1      12.486  -3.856   0.814  1.00  0.00     0.037 A 
BRANCH  51  65
ATOM     65  C   UNL     1       9.829   0.686   1.935  1.00  0.00     0.057 A 
ATOM     66  C   UNL     1      10.965   1.205   2.587  1.00  0.00     0.134 A 
ATOM     67  C   UNL     1       8.674   0.622   2.744  1.00  0.00     0.134 A 
ATOM     68  F   UNL     1      12.126   1.359   1.933  1.00  0.00    -0.206 F 
ATOM     69  C   UNL     1      10.986   1.498   3.956  1.00  0.00     0.040 A 
ATOM     70  C   UNL     1       8.673   0.953   4.103  1.00  0.00     0.040 A 
ATOM     71  F   UNL     1       7.493   0.171   2.314  1.00  0.00    -0.206 F 
ATOM     72  C   UNL     1       9.841   1.351   4.725  1.00  0.00     0.006 A 
ENDBRANCH  51  65
BRANCH  52  73
ATOM     73  C   UNL     1       8.903  -7.675   3.500  1.00  0.00     0.057 A 
ATOM     74  C   UNL     1       9.725  -8.133   4.542  1.00  0.00     0.134 A 
ATOM     75  C   UNL     1       7.524  -7.884   3.671  1.00  0.00     0.134 A 
ATOM     76  F   UNL     1      11.052  -7.947   4.494  1.00  0.00    -0.206 F 
ATOM     77  C   UNL     1       9.205  -8.735   5.698  1.00  0.00     0.040 A 
ATOM     78  C   UNL     1       6.992  -8.487   4.817  1.00  0.00     0.040 A 
ATOM     79  F   UNL     1       6.639  -7.424   2.775  1.00  0.00    -0.206 F 
ATOM     80  C   UNL     1       7.832  -8.901   5.844  1.00  0.00     0.006 A 
ENDBRANCH  52  73
BRANCH  64  81
ATOM     81  C   UNL     1      13.213  -4.844  -0.059  1.00  0.00     0.057 A 
ATOM     82  C   UNL     1      12.596  -5.878  -0.781  1.00  0.00     0.134 A 
ATOM     83  C   UNL     1      14.577  -4.640  -0.294  1.00  0.00     0.134 A 
ATOM     84  F   UNL     1      11.277  -6.092  -0.699  1.00  0.00    -0.206 F 
ATOM     85  C   UNL     1      13.314  -6.695  -1.662  1.00  0.00     0.040 A 
ATOM     86  C   UNL     1      15.297  -5.424  -1.198  1.00  0.00     0.040 A 
ATOM     87  F   UNL     1      15.225  -3.637   0.319  1.00  0.00    -0.206 F 
ATOM     88  C   UNL     1      14.668  -6.463  -1.878  1.00  0.00     0.006 A 
ENDBRANCH  64  81
ENDBRANCH  38  39
ENDBRANCH  30  33
ENDBRANCH  28  29
ENDBRANCH  27  28
ENDBRANCH  26  27
ENDBRANCH   3  26
TORSDOF 15
