REMARK SMILES NS(=O)(=O)c1ccc(-n2nc(NC(=O)NCCCCCCCCCCC(=O)NCCCNC(=O)c3ccc(-c4c5nc(c(-c6c(F)cccc6F)c6ccc([nH]6)c(-c6c(F)cccc6F)c6nc(c(-c7c(F)cccc7F)c7ccc4[nH]7)C=C6)C=C5)cc3)cc2-c2ccccc2)cc1
REMARK SMILES IDX 22 1 21 2 20 3 19 4 18 5 17 6 16 7 15 8 12 9 13 10 14 12
REMARK SMILES IDX 11 14 9 15 10 16 90 17 89 18 8 19 5 20 6 21 98 22 7 23 97 24
REMARK SMILES IDX 2 25 3 26 4 27 1 28 91 31 92 32 96 33 93 34 95 35 94 36
REMARK SMILES IDX 23 37 24 38 25 39 26 40 27 41 28 42 29 44 30 45 31 46 32 47
REMARK SMILES IDX 33 48 34 50 35 51 36 52 88 53 37 54 87 55 38 56 39 57 40 58
REMARK SMILES IDX 81 59 41 60 86 61 80 62 82 63 42 64 85 65 79 66 78 67 43 69
REMARK SMILES IDX 69 70 52 71 68 72 53 73 56 74 67 75 83 76 54 77 55 78 66 80
REMARK SMILES IDX 84 81 57 82 44 83 45 84 50 85 46 86 47 87 49 88 51 89 48 90
REMARK SMILES IDX 70 91 71 92 76 93 72 94 73 95 75 96 77 97 74 98 58 99 59 100
REMARK SMILES IDX 64 101 60 102 61 103 63 104 65 105 62 106
REMARK H PARENT 12 11 15 13 1 29 1 30 28 43 32 49 82 68 56 79
REMARK Flexibility Score: inf
ROOT
ATOM      1  C   UNL     1      -3.529   4.074   0.033  1.00  0.00     0.000 C 
ENDROOT
BRANCH   1   2
ATOM      2  C   UNL     1      -2.346   4.326   0.932  1.00  0.00     0.000 C 
BRANCH   2   3
ATOM      3  C   UNL     1      -1.913   5.785   0.975  1.00  0.00     0.000 C 
BRANCH   3   4
ATOM      4  C   UNL     1      -2.932   6.795   1.510  1.00  0.00     0.000 C 
BRANCH   4   5
ATOM      5  C   UNL     1      -3.507   6.512   2.902  1.00  0.00     0.002 C 
BRANCH   5   6
ATOM      6  C   UNL     1      -2.510   6.104   3.984  1.00  0.00     0.021 C 
BRANCH   6   7
ATOM      7  C   UNL     1      -1.227   6.913   4.062  1.00  0.00     0.117 C 
BRANCH   7   8
ATOM      8  N   UNL     1      -1.310   8.212   4.669  1.00  0.00    -0.338 N 
ATOM      9  N   UNL     1       0.910   8.413   5.521  1.00  0.00    -0.291 N 
ATOM     10  C   UNL     1      -0.344   8.889   5.332  1.00  0.00     0.320 C 
ATOM     11  H   UNL     1       1.381   8.834   6.276  1.00  0.00     0.173 HD
ATOM     12  O   UNL     1      -0.665   9.941   5.894  1.00  0.00    -0.248 OA
ATOM     13  H   UNL     1      -2.179   8.668   4.593  1.00  0.00     0.165 HD
BRANCH   9  14
ATOM     14  C   UNL     1       1.659   7.455   4.867  1.00  0.00     0.157 A 
ATOM     15  N   UNL     1       2.170   5.881   3.540  1.00  0.00    -0.231 N 
ATOM     16  N   UNL     1       1.493   7.049   3.604  1.00  0.00    -0.149 NA
ATOM     17  C   UNL     1       3.120   5.801   4.548  1.00  0.00     0.076 A 
ATOM     18  C   UNL     1       2.763   6.786   5.450  1.00  0.00     0.078 A 
BRANCH  15  19
ATOM     19  C   UNL     1       1.813   4.880   2.591  1.00  0.00     0.065 A 
ATOM     20  C   UNL     1       1.095   2.909   0.746  1.00  0.00     0.082 A 
ATOM     21  C   UNL     1       1.397   2.543   2.058  1.00  0.00     0.024 A 
ATOM     22  C   UNL     1       1.155   4.252   0.350  1.00  0.00     0.024 A 
ATOM     23  C   UNL     1       1.769   3.529   2.977  1.00  0.00     0.030 A 
ATOM     24  C   UNL     1       1.485   5.244   1.282  1.00  0.00     0.030 A 
BRANCH  20  25
ATOM     25  S   UNL     1       0.613   1.688  -0.443  1.00  0.00     0.238 S 
ATOM     26  O   UNL     1       1.170   2.038  -1.721  1.00  0.00    -0.207 OA
ATOM     27  O   UNL     1      -0.793   1.389  -0.252  1.00  0.00    -0.207 OA
BRANCH  25  28
ATOM     28  N   UNL     1       1.427   0.296   0.031  1.00  0.00    -0.225 NA
ATOM     29  H   UNL     1       1.201  -0.465  -0.610  1.00  0.00     0.137 HD
ATOM     30  H   UNL     1       1.141   0.040   0.976  1.00  0.00     0.137 HD
ENDBRANCH  25  28
ENDBRANCH  20  25
ENDBRANCH  15  19
BRANCH  17  31
ATOM     31  C   UNL     1       4.224   4.849   4.521  1.00  0.00     0.000 A 
ATOM     32  C   UNL     1       4.987   4.726   3.347  1.00  0.00     0.010 A 
ATOM     33  C   UNL     1       4.489   4.004   5.600  1.00  0.00     0.010 A 
ATOM     34  C   UNL     1       5.962   3.741   3.232  1.00  0.00     0.001 A 
ATOM     35  C   UNL     1       5.474   3.020   5.485  1.00  0.00     0.001 A 
ATOM     36  C   UNL     1       6.201   2.883   4.301  1.00  0.00     0.000 A 
ENDBRANCH  17  31
ENDBRANCH   9  14
ENDBRANCH   7   8
ENDBRANCH   6   7
ENDBRANCH   5   6
ENDBRANCH   4   5
ENDBRANCH   3   4
ENDBRANCH   2   3
ENDBRANCH   1   2
BRANCH   1  37
ATOM     37  C   UNL     1      -3.239   4.325  -1.451  1.00  0.00     0.001 C 
BRANCH  37  38
ATOM     38  C   UNL     1      -3.244   3.073  -2.315  1.00  0.00     0.010 C 
BRANCH  38  39
ATOM     39  C   UNL     1      -4.500   2.206  -2.221  1.00  0.00     0.100 C 
BRANCH  39  40
ATOM     40  C   UNL     1      -5.698   2.765  -2.963  1.00  0.00     0.219 C 
ATOM     41  O   UNL     1      -5.907   2.441  -4.135  1.00  0.00    -0.275 OA
ATOM     42  N   UNL     1      -6.583   3.624  -2.380  1.00  0.00    -0.356 N 
ATOM     43  H   UNL     1      -7.279   3.958  -2.991  1.00  0.00     0.163 HD
BRANCH  42  44
ATOM     44  C   UNL     1      -6.691   4.140  -1.018  1.00  0.00     0.117 C 
BRANCH  44  45
ATOM     45  C   UNL     1      -6.337   5.635  -0.900  1.00  0.00     0.042 C 
BRANCH  45  46
ATOM     46  C   UNL     1      -7.475   6.571  -1.202  1.00  0.00     0.118 C 
BRANCH  46  47
ATOM     47  N   UNL     1      -8.392   6.769  -0.073  1.00  0.00    -0.352 N 
ATOM     48  C   UNL     1      -9.494   7.615  -0.050  1.00  0.00     0.251 C 
ATOM     49  H   UNL     1      -8.209   6.253   0.745  1.00  0.00     0.163 HD
ATOM     50  O   UNL     1      -9.974   8.028   0.996  1.00  0.00    -0.269 OA
BRANCH  48  51
ATOM     51  C   UNL     1     -10.071   7.986  -1.352  1.00  0.00     0.039 A 
ATOM     52  C   UNL     1     -10.445   9.285  -1.698  1.00  0.00     0.014 A 
ATOM     53  C   UNL     1     -10.060   6.970  -2.295  1.00  0.00     0.014 A 
ATOM     54  C   UNL     1     -10.740   9.542  -3.035  1.00  0.00     0.010 A 
ATOM     55  C   UNL     1      -9.964   7.320  -3.601  1.00  0.00     0.010 A 
ATOM     56  C   UNL     1     -10.475   8.542  -3.984  1.00  0.00    -0.014 A 
BRANCH  56  57
ATOM     57  C   UNL     1     -10.645   8.716  -5.414  1.00  0.00     0.031 A 
ATOM     58  C   UNL     1      -9.937   9.891  -5.963  1.00  0.00     0.074 A 
ATOM     59  C   UNL     1     -11.200   7.757  -6.192  1.00  0.00     0.049 A 
ATOM     60  N   UNL     1     -10.469  11.001  -6.346  1.00  0.00    -0.248 NA
ATOM     61  C   UNL     1      -8.467   9.922  -5.904  1.00  0.00     0.031 C 
ATOM     62  C   UNL     1     -11.649   6.402  -5.830  1.00  0.00     0.029 A 
ATOM     63  N   UNL     1     -11.386   7.770  -7.537  1.00  0.00    -0.354 N 
ATOM     64  C   UNL     1      -9.419  11.776  -6.821  1.00  0.00     0.074 A 
ATOM     65  C   UNL     1      -8.216  11.168  -6.315  1.00  0.00     0.031 C 
ATOM     66  C   UNL     1     -11.814   5.658  -6.945  1.00  0.00     0.029 A 
ATOM     67  C   UNL     1     -11.666   6.523  -8.096  1.00  0.00     0.049 A 
ATOM     68  H   UNL     1     -11.328   8.593  -8.075  1.00  0.00     0.167 HD
ATOM     69  C   UNL     1      -9.628  12.679  -7.819  1.00  0.00     0.037 A 
ATOM     70  C   UNL     1     -11.726   6.250  -9.424  1.00  0.00     0.037 A 
ATOM     71  C   UNL     1     -11.042  12.921  -8.002  1.00  0.00     0.049 A 
ATOM     72  C   UNL     1     -11.952   7.552 -10.114  1.00  0.00     0.074 A 
ATOM     73  C   UNL     1     -12.062  13.344  -7.169  1.00  0.00     0.029 A 
ATOM     74  N   UNL     1     -11.664  12.301  -9.062  1.00  0.00    -0.354 N 
ATOM     75  N   UNL     1     -13.051   8.249  -9.983  1.00  0.00    -0.248 NA
ATOM     76  C   UNL     1     -10.769   8.316 -10.488  1.00  0.00     0.031 C 
ATOM     77  C   UNL     1     -13.167  12.501  -7.493  1.00  0.00     0.029 A 
ATOM     78  C   UNL     1     -12.796  11.698  -8.572  1.00  0.00     0.049 A 
ATOM     79  H   UNL     1     -11.355  12.291  -9.996  1.00  0.00     0.167 HD
ATOM     80  C   UNL     1     -12.623   9.561  -9.826  1.00  0.00     0.074 A 
ATOM     81  C   UNL     1     -11.206   9.545 -10.195  1.00  0.00     0.031 C 
ATOM     82  C   UNL     1     -13.349  10.475  -9.114  1.00  0.00     0.037 A 
BRANCH  69  83
ATOM     83  C   UNL     1      -8.616  13.025  -8.881  1.00  0.00     0.057 A 
ATOM     84  C   UNL     1      -8.912  14.064  -9.783  1.00  0.00     0.134 A 
ATOM     85  C   UNL     1      -7.522  12.213  -9.243  1.00  0.00     0.134 A 
ATOM     86  F   UNL     1      -9.934  14.903  -9.555  1.00  0.00    -0.206 F 
ATOM     87  C   UNL     1      -8.229  14.223 -10.994  1.00  0.00     0.040 A 
ATOM     88  C   UNL     1      -6.801  12.397 -10.425  1.00  0.00     0.040 A 
ATOM     89  F   UNL     1      -7.152  11.139  -8.537  1.00  0.00    -0.206 F 
ATOM     90  C   UNL     1      -7.175  13.382 -11.323  1.00  0.00     0.006 A 
ENDBRANCH  69  83
BRANCH  70  91
ATOM     91  C   UNL     1     -11.246   5.031 -10.122  1.00  0.00     0.057 A 
ATOM     92  C   UNL     1     -11.572   4.777 -11.462  1.00  0.00     0.134 A 
ATOM     93  C   UNL     1     -10.236   4.218  -9.575  1.00  0.00     0.134 A 
ATOM     94  F   UNL     1     -12.490   5.525 -12.091  1.00  0.00    -0.206 F 
ATOM     95  C   UNL     1     -10.921   3.788 -12.217  1.00  0.00     0.040 A 
ATOM     96  C   UNL     1      -9.582   3.225 -10.314  1.00  0.00     0.040 A 
ATOM     97  F   UNL     1      -9.786   4.415  -8.327  1.00  0.00    -0.206 F 
ATOM     98  C   UNL     1      -9.914   3.016 -11.646  1.00  0.00     0.006 A 
ENDBRANCH  70  91
BRANCH  82  99
ATOM     99  C   UNL     1     -14.737  10.107  -8.654  1.00  0.00     0.057 A 
ATOM    100  C   UNL     1     -15.030   9.057  -7.770  1.00  0.00     0.134 A 
ATOM    101  C   UNL     1     -15.792  10.973  -8.966  1.00  0.00     0.134 A 
ATOM    102  F   UNL     1     -14.074   8.233  -7.328  1.00  0.00    -0.206 F 
ATOM    103  C   UNL     1     -16.315   8.860  -7.250  1.00  0.00     0.040 A 
ATOM    104  C   UNL     1     -17.071  10.808  -8.428  1.00  0.00     0.040 A 
ATOM    105  F   UNL     1     -15.581  12.036  -9.758  1.00  0.00    -0.206 F 
ATOM    106  C   UNL     1     -17.339   9.744  -7.573  1.00  0.00     0.006 A 
ENDBRANCH  82  99
ENDBRANCH  56  57
ENDBRANCH  48  51
ENDBRANCH  46  47
ENDBRANCH  45  46
ENDBRANCH  44  45
ENDBRANCH  42  44
ENDBRANCH  39  40
ENDBRANCH  38  39
ENDBRANCH  37  38
ENDBRANCH   1  37
TORSDOF 25
