REMARK SMILES O=C(NCCCNC(=O)c1ccc(S(=O)(=O)[O-])cc1N1C(=O)/C(=C\C=C\c2ccccc2)[NH+]=C1c1ccccc1)c1ccc(-c2c3nc(c(-c4c(F)cccc4F)c4ccc([nH]4)c(-c4c(F)cccc4F)c4nc(c(-c5c(F)cccc5F)c5ccc2[nH]5)C=C4)C=C3)cc1
REMARK SMILES IDX 5 1 4 2 3 3 1 4 2 5 41 7 42 8 94 9 43 10 93 11 44 12 45 13
REMARK SMILES IDX 46 14 87 15 47 16 92 17 86 18 88 19 48 20 91 21 85 22 84 23
REMARK SMILES IDX 49 25 75 26 58 27 74 28 59 29 62 30 73 31 89 32 60 33 61 34
REMARK SMILES IDX 72 36 90 37 63 38 50 39 51 40 56 41 52 42 53 43 55 44 57 45
REMARK SMILES IDX 54 46 76 47 77 48 82 49 78 50 79 51 81 52 83 53 80 54 64 55
REMARK SMILES IDX 65 56 70 57 66 58 67 59 69 60 71 61 68 62 6 63 7 64 8 65
REMARK SMILES IDX 9 67 10 68 11 69 19 70 12 71 18 72 13 73 20 74 21 75 34 76
REMARK SMILES IDX 22 77 23 78 33 79 24 80 35 82 36 83 40 84 37 85 39 86 38 87
REMARK SMILES IDX 25 88 26 89 27 90 28 91 32 92 29 93 31 94 30 95 14 96 15 97
REMARK SMILES IDX 16 98 17 99
REMARK H PARENT 3 6 88 24 62 35 7 66 33 81
REMARK Flexibility Score: inf
ROOT
ATOM      1  C   UNL     1       5.124  -1.723  -1.288  1.00  0.00     0.042 C 
ENDROOT
BRANCH   1   2
ATOM      2  C   UNL     1       4.565  -0.324  -1.428  1.00  0.00     0.118 C 
BRANCH   2   3
ATOM      3  N   UNL     1       3.118  -0.256  -1.216  1.00  0.00    -0.352 N 
ATOM      4  O   UNL     1       1.150  -0.001  -0.145  1.00  0.00    -0.269 OA
ATOM      5  C   UNL     1       2.365   0.175  -0.146  1.00  0.00     0.251 C 
ATOM      6  H   UNL     1       2.585  -0.577  -1.979  1.00  0.00     0.163 HD
BRANCH   5   7
ATOM      7  C   UNL     1       3.013   0.814   1.020  1.00  0.00     0.039 A 
ATOM      8  C   UNL     1       4.105   1.655   0.842  1.00  0.00     0.014 A 
ATOM      9  C   UNL     1       2.537   0.568   2.311  1.00  0.00     0.014 A 
ATOM     10  C   UNL     1       4.881   2.011   1.930  1.00  0.00     0.010 A 
ATOM     11  C   UNL     1       3.224   1.084   3.417  1.00  0.00     0.010 A 
ATOM     12  C   UNL     1       4.438   1.761   3.237  1.00  0.00    -0.014 A 
BRANCH  12  13
ATOM     13  C   UNL     1       5.255   2.276   4.367  1.00  0.00     0.031 A 
ATOM     14  C   UNL     1       5.821   1.354   5.412  1.00  0.00     0.074 A 
ATOM     15  C   UNL     1       5.546   3.593   4.396  1.00  0.00     0.049 A 
ATOM     16  N   UNL     1       6.602   1.641   6.424  1.00  0.00    -0.248 NA
ATOM     17  C   UNL     1       5.460  -0.069   5.324  1.00  0.00     0.031 C 
ATOM     18  C   UNL     1       5.050   4.587   3.439  1.00  0.00     0.029 A 
ATOM     19  N   UNL     1       6.361   4.317   5.226  1.00  0.00    -0.354 N 
ATOM     20  C   UNL     1       6.794   0.449   7.111  1.00  0.00     0.074 A 
ATOM     21  C   UNL     1       6.032  -0.564   6.413  1.00  0.00     0.031 C 
ATOM     22  C   UNL     1       5.639   5.765   3.678  1.00  0.00     0.029 A 
ATOM     23  C   UNL     1       6.476   5.638   4.862  1.00  0.00     0.049 A 
ATOM     24  H   UNL     1       6.819   3.930   6.007  1.00  0.00     0.167 HD
ATOM     25  C   UNL     1       7.540   0.222   8.220  1.00  0.00     0.037 A 
ATOM     26  C   UNL     1       7.164   6.645   5.427  1.00  0.00     0.037 A 
ATOM     27  C   UNL     1       8.317   1.233   8.892  1.00  0.00     0.049 A 
ATOM     28  C   UNL     1       7.965   6.366   6.662  1.00  0.00     0.074 A 
ATOM     29  C   UNL     1       9.139   1.096   9.998  1.00  0.00     0.029 A 
ATOM     30  N   UNL     1       8.365   2.571   8.524  1.00  0.00    -0.354 N 
ATOM     31  N   UNL     1       8.156   5.228   7.283  1.00  0.00    -0.248 NA
ATOM     32  C   UNL     1       8.637   7.515   7.281  1.00  0.00     0.031 C 
ATOM     33  C   UNL     1       9.640   2.359  10.331  1.00  0.00     0.029 A 
ATOM     34  C   UNL     1       9.180   3.274   9.398  1.00  0.00     0.049 A 
ATOM     35  H   UNL     1       7.890   2.962   7.756  1.00  0.00     0.167 HD
ATOM     36  C   UNL     1       8.988   5.517   8.354  1.00  0.00     0.074 A 
ATOM     37  C   UNL     1       9.281   6.935   8.284  1.00  0.00     0.031 C 
ATOM     38  C   UNL     1       9.465   4.684   9.312  1.00  0.00     0.037 A 
BRANCH  25  39
ATOM     39  C   UNL     1       7.527  -1.165   8.799  1.00  0.00     0.057 A 
ATOM     40  C   UNL     1       8.148  -2.249   8.165  1.00  0.00     0.134 A 
ATOM     41  C   UNL     1       6.912  -1.411  10.035  1.00  0.00     0.134 A 
ATOM     42  F   UNL     1       8.745  -2.090   6.974  1.00  0.00    -0.206 F 
ATOM     43  C   UNL     1       8.135  -3.530   8.724  1.00  0.00     0.040 A 
ATOM     44  C   UNL     1       6.917  -2.679  10.617  1.00  0.00     0.040 A 
ATOM     45  F   UNL     1       6.305  -0.418  10.702  1.00  0.00    -0.206 F 
ATOM     46  C   UNL     1       7.524  -3.745   9.958  1.00  0.00     0.006 A 
ENDBRANCH  25  39
BRANCH  26  47
ATOM     47  C   UNL     1       7.113   8.004   4.832  1.00  0.00     0.057 A 
ATOM     48  C   UNL     1       8.245   8.582   4.248  1.00  0.00     0.134 A 
ATOM     49  C   UNL     1       5.929   8.754   4.823  1.00  0.00     0.134 A 
ATOM     50  F   UNL     1       9.412   7.920   4.237  1.00  0.00    -0.206 F 
ATOM     51  C   UNL     1       8.208   9.862   3.692  1.00  0.00     0.040 A 
ATOM     52  C   UNL     1       5.869  10.020   4.243  1.00  0.00     0.040 A 
ATOM     53  F   UNL     1       4.806   8.252   5.357  1.00  0.00    -0.206 F 
ATOM     54  C   UNL     1       7.015  10.582   3.683  1.00  0.00     0.006 A 
ENDBRANCH  26  47
BRANCH  38  55
ATOM     55  C   UNL     1      10.389   5.284  10.330  1.00  0.00     0.057 A 
ATOM     56  C   UNL     1       9.936   6.174  11.313  1.00  0.00     0.134 A 
ATOM     57  C   UNL     1      11.752   4.961  10.328  1.00  0.00     0.134 A 
ATOM     58  F   UNL     1       8.645   6.538  11.358  1.00  0.00    -0.206 F 
ATOM     59  C   UNL     1      10.812   6.746  12.237  1.00  0.00     0.040 A 
ATOM     60  C   UNL     1      12.631   5.502  11.266  1.00  0.00     0.040 A 
ATOM     61  F   UNL     1      12.250   4.110   9.419  1.00  0.00    -0.206 F 
ATOM     62  C   UNL     1      12.163   6.405  12.218  1.00  0.00     0.006 A 
ENDBRANCH  38  55
ENDBRANCH  12  13
ENDBRANCH   5   7
ENDBRANCH   2   3
ENDBRANCH   1   2
BRANCH   1  63
ATOM     63  C   UNL     1       4.648  -2.647  -2.381  1.00  0.00     0.118 C 
BRANCH  63  64
ATOM     64  N   UNL     1       5.236  -2.438  -3.681  1.00  0.00    -0.352 N 
ATOM     65  C   UNL     1       5.852  -3.320  -4.538  1.00  0.00     0.255 C 
ATOM     66  H   UNL     1       5.189  -1.512  -4.010  1.00  0.00     0.163 HD
ATOM     67  O   UNL     1       6.314  -2.865  -5.585  1.00  0.00    -0.269 OA
BRANCH  65  68
ATOM     68  C   UNL     1       6.090  -4.764  -4.221  1.00  0.00     0.087 A 
ATOM     69  C   UNL     1       7.393  -5.206  -4.537  1.00  0.00     0.019 A 
ATOM     70  C   UNL     1       5.183  -5.686  -3.643  1.00  0.00     0.150 A 
ATOM     71  C   UNL     1       7.798  -6.518  -4.288  1.00  0.00     0.020 A 
ATOM     72  C   UNL     1       5.598  -7.007  -3.398  1.00  0.00     0.072 A 
ATOM     73  C   UNL     1       6.893  -7.412  -3.723  1.00  0.00     0.059 A 
BRANCH  70  74
ATOM     74  N   UNL     1       3.854  -5.363  -3.311  1.00  0.00    -0.153 N 
ATOM     75  C   UNL     1       2.988  -4.790  -4.208  1.00  0.00     0.385 C 
ATOM     76  C   UNL     1       3.186  -5.545  -2.120  1.00  0.00     0.295 C 
ATOM     77  O   UNL     1       3.154  -4.558  -5.391  1.00  0.00    -0.236 OA
ATOM     78  C   UNL     1       1.764  -4.561  -3.378  1.00  0.00     0.215 C 
ATOM     79  N   UNL     1       1.952  -5.117  -2.125  1.00  0.00    -0.233 N 
ATOM     80  C   UNL     1       0.690  -3.837  -3.727  1.00  0.00     0.060 C 
ATOM     81  H   UNL     1       1.296  -5.177  -1.394  1.00  0.00     0.312 HD
BRANCH  76  82
ATOM     82  C   UNL     1       3.814  -6.061  -0.864  1.00  0.00     0.065 A 
ATOM     83  C   UNL     1       3.018  -6.809   0.010  1.00  0.00     0.017 A 
ATOM     84  C   UNL     1       5.115  -5.719  -0.457  1.00  0.00     0.017 A 
ATOM     85  C   UNL     1       3.516  -7.210   1.255  1.00  0.00     0.001 A 
ATOM     86  C   UNL     1       5.603  -6.100   0.795  1.00  0.00     0.001 A 
ATOM     87  C   UNL     1       4.802  -6.847   1.650  1.00  0.00     0.000 A 
ENDBRANCH  76  82
BRANCH  80  88
ATOM     88  C   UNL     1       0.483  -3.190  -5.005  1.00  0.00     0.005 C 
ATOM     89  C   UNL     1      -0.621  -2.509  -5.353  1.00  0.00     0.008 C 
BRANCH  89  90
ATOM     90  C   UNL     1      -0.810  -1.979  -6.715  1.00  0.00    -0.026 A 
ATOM     91  C   UNL     1      -1.462  -0.756  -6.911  1.00  0.00     0.008 A 
ATOM     92  C   UNL     1      -0.408  -2.714  -7.842  1.00  0.00     0.008 A 
ATOM     93  C   UNL     1      -1.683  -0.269  -8.205  1.00  0.00     0.001 A 
ATOM     94  C   UNL     1      -0.627  -2.228  -9.132  1.00  0.00     0.001 A 
ATOM     95  C   UNL     1      -1.264  -1.004  -9.314  1.00  0.00     0.000 A 
ENDBRANCH  89  90
ENDBRANCH  80  88
ENDBRANCH  70  74
BRANCH  73  96
ATOM     96  S   UNL     1       7.402  -9.080  -3.436  1.00  0.00     0.124 S 
ATOM     97  O   UNL     1       7.649  -9.694  -4.720  1.00  0.00    -0.237 OA
ATOM     98  O   UNL     1       8.400  -9.056  -2.392  1.00  0.00    -0.237 OA
ATOM     99  O   UNL     1       6.111  -9.828  -2.819  1.00  0.00    -0.744 OA
ENDBRANCH  73  96
ENDBRANCH  65  68
ENDBRANCH  63  64
ENDBRANCH   1  63
TORSDOF 15
