REMARK SMILES C[C@H]1[C@H](C(=O)NCCCNC(=O)c2ccc(-c3c4nc(c(-c5c(F)cccc5F)c5ccc([nH]5)c(-c5c(F)cccc5F)c5nc(c(-c6c(F)cccc6F)c6ccc3[nH]6)C=C5)C=C4)cc2)CCN1C(=O)Cc1csc(N)n1
REMARK SMILES IDX 7 1 6 2 4 3 5 4 3 6 1 7 2 8 69 9 67 10 68 11 70 12 71 13
REMARK SMILES IDX 72 14 73 15 74 16 78 17 75 18 76 19 77 20 8 23 9 24 10 25
REMARK SMILES IDX 11 26 12 28 13 29 14 30 66 31 15 32 65 33 16 34 17 35 18 36
REMARK SMILES IDX 59 37 19 38 64 39 58 40 60 41 20 42 63 43 57 44 56 45 21 47
REMARK SMILES IDX 47 48 30 49 46 50 31 51 34 52 45 53 61 54 32 55 33 56 44 58
REMARK SMILES IDX 62 59 35 60 22 61 23 62 28 63 24 64 25 65 27 66 29 67 26 68
REMARK SMILES IDX 48 69 49 70 54 71 50 72 51 73 53 74 55 75 52 76 36 77 37 78
REMARK SMILES IDX 42 79 38 80 39 81 41 82 43 83 40 84
REMARK H PARENT 6 5 77 21 77 22 10 27 60 46 34 57
REMARK Flexibility Score: inf
ROOT
ATOM      1  C   UNL     1      -1.154   0.516   2.853  1.00  0.00     0.117 C 
ENDROOT
BRANCH   1   2
ATOM      2  N   UNL     1      -0.658   1.789   2.363  1.00  0.00    -0.356 N 
ATOM      3  C   UNL     1      -0.260   2.193   1.132  1.00  0.00     0.225 C 
ATOM      4  O   UNL     1       0.160   3.350   1.038  1.00  0.00    -0.275 OA
ATOM      5  H   UNL     1      -0.599   2.488   3.053  1.00  0.00     0.163 HD
BRANCH   3   6
ATOM      6  C   UNL     1      -0.271   1.294  -0.092  1.00  0.00     0.102 C 
ATOM      7  C   UNL     1       1.701   0.273  -1.244  1.00  0.00     0.032 C 
ATOM      8  C   UNL     1       0.784   0.180  -0.017  1.00  0.00     0.094 C 
ATOM      9  N   UNL     1       0.016  -1.062  -0.043  1.00  0.00    -0.339 N 
ATOM     10  C   UNL     1      -1.607   0.620  -0.417  1.00  0.00     0.037 C 
ATOM     11  C   UNL     1      -1.279  -0.847  -0.660  1.00  0.00     0.120 C 
BRANCH   9  12
ATOM     12  C   UNL     1       0.407  -2.334   0.342  1.00  0.00     0.228 C 
ATOM     13  O   UNL     1      -0.315  -3.307   0.098  1.00  0.00    -0.274 OA
BRANCH  12  14
ATOM     14  C   UNL     1       1.625  -2.508   1.238  1.00  0.00     0.157 C 
BRANCH  14  15
ATOM     15  C   UNL     1       2.952  -2.274   0.604  1.00  0.00     0.063 A 
ATOM     16  C   UNL     1       3.876  -1.313   0.977  1.00  0.00     0.093 A 
ATOM     17  N   UNL     1       3.384  -3.111  -0.413  1.00  0.00    -0.225 NA
ATOM     18  S   UNL     1       5.277  -1.429   0.000  1.00  0.00    -0.106 S 
ATOM     19  C   UNL     1       4.585  -2.772  -0.813  1.00  0.00     0.180 A 
BRANCH  19  20
ATOM     20  N   UNL     1       5.245  -3.411  -1.782  1.00  0.00    -0.375 N 
ATOM     21  H   UNL     1       6.146  -3.113  -2.044  1.00  0.00     0.159 HD
ATOM     22  H   UNL     1       4.830  -4.181  -2.235  1.00  0.00     0.159 HD
ENDBRANCH  19  20
ENDBRANCH  14  15
ENDBRANCH  12  14
ENDBRANCH   9  12
ENDBRANCH   3   6
ENDBRANCH   1   2
BRANCH   1  23
ATOM     23  C   UNL     1      -0.238  -0.086   3.908  1.00  0.00     0.042 C 
BRANCH  23  24
ATOM     24  C   UNL     1      -0.127   0.730   5.191  1.00  0.00     0.118 C 
BRANCH  24  25
ATOM     25  N   UNL     1      -1.396   0.866   5.889  1.00  0.00    -0.352 N 
ATOM     26  C   UNL     1      -1.765   0.469   7.149  1.00  0.00     0.251 C 
ATOM     27  H   UNL     1      -2.105   1.316   5.374  1.00  0.00     0.163 HD
ATOM     28  O   UNL     1      -2.949   0.533   7.479  1.00  0.00    -0.269 OA
BRANCH  26  29
ATOM     29  C   UNL     1      -0.767  -0.052   8.107  1.00  0.00     0.039 A 
ATOM     30  C   UNL     1      -1.115  -1.140   8.913  1.00  0.00     0.014 A 
ATOM     31  C   UNL     1       0.492   0.539   8.243  1.00  0.00     0.014 A 
ATOM     32  C   UNL     1      -0.182  -1.673   9.805  1.00  0.00     0.010 A 
ATOM     33  C   UNL     1       1.449  -0.043   9.071  1.00  0.00     0.010 A 
ATOM     34  C   UNL     1       1.120  -1.151   9.865  1.00  0.00    -0.014 A 
BRANCH  34  35
ATOM     35  C   UNL     1       2.147  -1.756  10.752  1.00  0.00     0.031 A 
ATOM     36  C   UNL     1       2.739  -0.963  11.884  1.00  0.00     0.074 A 
ATOM     37  C   UNL     1       2.588  -3.004  10.500  1.00  0.00     0.049 A 
ATOM     38  N   UNL     1       3.679  -1.305  12.729  1.00  0.00    -0.248 NA
ATOM     39  C   UNL     1       2.229   0.404  12.074  1.00  0.00     0.031 C 
ATOM     40  C   UNL     1       2.137  -3.856   9.398  1.00  0.00     0.029 A 
ATOM     41  N   UNL     1       3.522  -3.770  11.150  1.00  0.00    -0.354 N 
ATOM     42  C   UNL     1       3.879  -0.195  13.541  1.00  0.00     0.074 A 
ATOM     43  C   UNL     1       3.005   0.849  13.051  1.00  0.00     0.031 C 
ATOM     44  C   UNL     1       2.777  -5.034   9.462  1.00  0.00     0.029 A 
ATOM     45  C   UNL     1       3.705  -5.010  10.588  1.00  0.00     0.049 A 
ATOM     46  H   UNL     1       4.015  -3.461  11.945  1.00  0.00     0.167 HD
ATOM     47  C   UNL     1       4.697  -0.065  14.613  1.00  0.00     0.037 A 
ATOM     48  C   UNL     1       4.529  -6.014  10.939  1.00  0.00     0.037 A 
ATOM     49  C   UNL     1       5.549  -1.111  15.114  1.00  0.00     0.049 A 
ATOM     50  C   UNL     1       5.416  -5.852  12.140  1.00  0.00     0.074 A 
ATOM     51  C   UNL     1       6.374  -1.095  16.225  1.00  0.00     0.029 A 
ATOM     52  N   UNL     1       5.685  -2.364  14.534  1.00  0.00    -0.354 N 
ATOM     53  N   UNL     1       5.547  -4.819  12.937  1.00  0.00    -0.248 NA
ATOM     54  C   UNL     1       6.262  -6.999  12.498  1.00  0.00     0.031 C 
ATOM     55  C   UNL     1       7.037  -2.326  16.296  1.00  0.00     0.029 A 
ATOM     56  C   UNL     1       6.592  -3.123  15.255  1.00  0.00     0.049 A 
ATOM     57  H   UNL     1       5.207  -2.668  13.728  1.00  0.00     0.167 HD
ATOM     58  C   UNL     1       6.473  -5.197  13.900  1.00  0.00     0.074 A 
ATOM     59  C   UNL     1       6.855  -6.562  13.600  1.00  0.00     0.031 C 
ATOM     60  C   UNL     1       6.964  -4.479  14.940  1.00  0.00     0.037 A 
BRANCH  47  61
ATOM     61  C   UNL     1       4.698   1.259  15.321  1.00  0.00     0.057 A 
ATOM     62  C   UNL     1       3.602   1.689  16.081  1.00  0.00     0.134 A 
ATOM     63  C   UNL     1       5.814   2.103  15.264  1.00  0.00     0.134 A 
ATOM     64  F   UNL     1       2.496   0.934  16.166  1.00  0.00    -0.206 F 
ATOM     65  C   UNL     1       3.604   2.922  16.735  1.00  0.00     0.040 A 
ATOM     66  C   UNL     1       5.838   3.327  15.936  1.00  0.00     0.040 A 
ATOM     67  F   UNL     1       6.899   1.751  14.559  1.00  0.00    -0.206 F 
ATOM     68  C   UNL     1       4.728   3.743  16.668  1.00  0.00     0.006 A 
ENDBRANCH  47  61
BRANCH  48  69
ATOM     69  C   UNL     1       4.533  -7.275  10.155  1.00  0.00     0.057 A 
ATOM     70  C   UNL     1       3.995  -8.454  10.683  1.00  0.00     0.134 A 
ATOM     71  C   UNL     1       5.068  -7.330   8.863  1.00  0.00     0.134 A 
ATOM     72  F   UNL     1       3.484  -8.467  11.923  1.00  0.00    -0.206 F 
ATOM     73  C   UNL     1       4.005  -9.649   9.961  1.00  0.00     0.040 A 
ATOM     74  C   UNL     1       5.063  -8.512   8.121  1.00  0.00     0.040 A 
ATOM     75  F   UNL     1       5.590  -6.231   8.299  1.00  0.00    -0.206 F 
ATOM     76  C   UNL     1       4.535  -9.678   8.673  1.00  0.00     0.006 A 
ENDBRANCH  48  69
BRANCH  60  77
ATOM     77  C   UNL     1       7.951  -5.166  15.837  1.00  0.00     0.057 A 
ATOM     78  C   UNL     1       9.262  -5.432  15.424  1.00  0.00     0.134 A 
ATOM     79  C   UNL     1       7.591  -5.545  17.136  1.00  0.00     0.134 A 
ATOM     80  F   UNL     1       9.665  -5.106  14.186  1.00  0.00    -0.206 F 
ATOM     81  C   UNL     1      10.174  -6.076  16.262  1.00  0.00     0.040 A 
ATOM     82  C   UNL     1       8.501  -6.166  17.992  1.00  0.00     0.040 A 
ATOM     83  F   UNL     1       6.353  -5.312  17.596  1.00  0.00    -0.206 F 
ATOM     84  C   UNL     1       9.795  -6.440  17.553  1.00  0.00     0.006 A 
ENDBRANCH  60  77
ENDBRANCH  34  35
ENDBRANCH  26  29
ENDBRANCH  24  25
ENDBRANCH  23  24
ENDBRANCH   1  23
TORSDOF 14
