REMARK SMILES CC[C@@H]1CCC[C@@H]([NH+]2CC(n3cc(C(=O)NCCCNC(=O)c4ccc(-c5c6nc(c(-c7c(F)cccc7F)c7ccc([nH]7)c(-c7c(F)cccc7F)c7nc(c(-c8c(F)cccc8F)c8ccc5[nH]8)C=C7)C=C6)cc4)nn3)C2)C1
REMARK SMILES IDX 17 1 16 2 14 3 15 4 13 6 11 7 12 8 78 9 77 10 10 11 8 12
REMARK SMILES IDX 9 13 79 14 7 16 3 17 4 18 80 19 5 20 6 21 2 22 1 23 18 24
REMARK SMILES IDX 19 25 20 26 21 27 22 29 23 30 24 31 76 32 25 33 75 34 26 35
REMARK SMILES IDX 27 36 28 37 69 38 29 39 74 40 68 41 70 42 30 43 73 44 67 45
REMARK SMILES IDX 66 46 31 48 57 49 40 50 56 51 41 52 44 53 55 54 71 55 42 56
REMARK SMILES IDX 43 57 54 59 72 60 45 61 32 62 33 63 38 64 34 65 35 66 37 67
REMARK SMILES IDX 39 68 36 69 58 70 59 71 64 72 60 73 61 74 63 75 65 76 62 77
REMARK SMILES IDX 46 78 47 79 52 80 48 81 49 82 51 83 53 84 50 85
REMARK H PARENT 16 5 8 15 20 28 70 47 44 58
REMARK Flexibility Score: inf
ROOT
ATOM      1  C   UNL     1       5.371   7.984  -5.450  1.00  0.00     0.118 C 
ENDROOT
BRANCH   1   2
ATOM      2  N   UNL     1       5.993   6.926  -6.239  1.00  0.00    -0.351 N 
ATOM      3  C   UNL     1       5.545   5.645  -6.517  1.00  0.00     0.273 C 
ATOM      4  O   UNL     1       6.164   4.979  -7.339  1.00  0.00    -0.267 OA
ATOM      5  H   UNL     1       6.865   7.157  -6.633  1.00  0.00     0.163 HD
BRANCH   3   6
ATOM      6  C   UNL     1       4.365   5.149  -5.824  1.00  0.00     0.170 A 
ATOM      7  N   UNL     1       2.757   4.833  -4.407  1.00  0.00    -0.237 N 
ATOM      8  C   UNL     1       3.937   5.485  -4.566  1.00  0.00     0.145 A 
ATOM      9  N   UNL     1       2.516   4.016  -5.440  1.00  0.00    -0.066 NA
ATOM     10  N   UNL     1       3.499   4.199  -6.323  1.00  0.00    -0.125 NA
BRANCH   7  11
ATOM     11  C   UNL     1       2.176   4.794  -3.121  1.00  0.00     0.218 C 
ATOM     12  N   UNL     1       0.428   4.731  -1.965  1.00  0.00    -0.329 N 
ATOM     13  C   UNL     1       1.115   3.745  -2.845  1.00  0.00     0.296 C 
ATOM     14  C   UNL     1       1.054   5.800  -2.816  1.00  0.00     0.296 C 
ATOM     15  H   UNL     1      -0.574   4.648  -1.795  1.00  0.00     0.348 HD
BRANCH  12  16
ATOM     16  C   UNL     1       0.821   4.799  -0.528  1.00  0.00     0.184 C 
ATOM     17  C   UNL     1       1.036   2.326   0.179  1.00  0.00    -0.006 C 
ATOM     18  C   UNL     1       2.500   2.551   0.590  1.00  0.00     0.004 C 
ATOM     19  C   UNL     1       0.220   3.625   0.286  1.00  0.00     0.068 C 
ATOM     20  C   UNL     1       3.149   3.739  -0.107  1.00  0.00     0.006 C 
ATOM     21  C   UNL     1       2.281   4.997  -0.052  1.00  0.00     0.065 C 
BRANCH  17  22
ATOM     22  C   UNL     1       0.407   1.174   0.976  1.00  0.00     0.000 C 
ATOM     23  C   UNL     1       0.859  -0.178   0.427  1.00  0.00     0.004 C 
ENDBRANCH  17  22
ENDBRANCH  12  16
ENDBRANCH   7  11
ENDBRANCH   3   6
ENDBRANCH   1   2
BRANCH   1  24
ATOM     24  C   UNL     1       5.999   8.130  -4.055  1.00  0.00     0.042 C 
BRANCH  24  25
ATOM     25  C   UNL     1       7.111   9.161  -4.054  1.00  0.00     0.118 C 
BRANCH  25  26
ATOM     26  N   UNL     1       6.593  10.520  -4.275  1.00  0.00    -0.352 N 
ATOM     27  C   UNL     1       7.281  11.705  -4.490  1.00  0.00     0.251 C 
ATOM     28  H   UNL     1       5.612  10.601  -4.269  1.00  0.00     0.163 HD
ATOM     29  O   UNL     1       6.739  12.784  -4.348  1.00  0.00    -0.269 OA
BRANCH  27  30
ATOM     30  C   UNL     1       8.686  11.617  -4.915  1.00  0.00     0.039 A 
ATOM     31  C   UNL     1       9.680  12.485  -4.448  1.00  0.00     0.014 A 
ATOM     32  C   UNL     1       8.995  10.574  -5.772  1.00  0.00     0.014 A 
ATOM     33  C   UNL     1      11.002  12.239  -4.816  1.00  0.00     0.010 A 
ATOM     34  C   UNL     1      10.286  10.171  -5.876  1.00  0.00     0.010 A 
ATOM     35  C   UNL     1      11.285  11.069  -5.529  1.00  0.00    -0.014 A 
BRANCH  35  36
ATOM     36  C   UNL     1      12.621  10.664  -5.932  1.00  0.00     0.031 A 
ATOM     37  C   UNL     1      13.497  10.253  -4.803  1.00  0.00     0.074 A 
ATOM     38  C   UNL     1      12.844  10.346  -7.230  1.00  0.00     0.049 A 
ATOM     39  N   UNL     1      14.610  10.783  -4.417  1.00  0.00    -0.248 NA
ATOM     40  C   UNL     1      12.988   9.218  -3.882  1.00  0.00     0.031 C 
ATOM     41  C   UNL     1      11.882  10.369  -8.349  1.00  0.00     0.029 A 
ATOM     42  N   UNL     1      13.938   9.781  -7.804  1.00  0.00    -0.354 N 
ATOM     43  C   UNL     1      15.049  10.002  -3.348  1.00  0.00     0.074 A 
ATOM     44  C   UNL     1      13.912   9.236  -2.921  1.00  0.00     0.031 C 
ATOM     45  C   UNL     1      12.355   9.632  -9.377  1.00  0.00     0.029 A 
ATOM     46  C   UNL     1      13.710   9.231  -9.067  1.00  0.00     0.049 A 
ATOM     47  H   UNL     1      14.819   9.762  -7.365  1.00  0.00     0.167 HD
ATOM     48  C   UNL     1      16.376   9.836  -3.090  1.00  0.00     0.037 A 
ATOM     49  C   UNL     1      14.581   8.460  -9.767  1.00  0.00     0.037 A 
ATOM     50  C   UNL     1      17.156  10.814  -3.806  1.00  0.00     0.049 A 
ATOM     51  C   UNL     1      15.916   8.645  -9.142  1.00  0.00     0.074 A 
ATOM     52  C   UNL     1      17.225  12.193  -3.802  1.00  0.00     0.029 A 
ATOM     53  N   UNL     1      17.741  10.409  -4.982  1.00  0.00    -0.354 N 
ATOM     54  N   UNL     1      16.569   9.776  -9.157  1.00  0.00    -0.248 NA
ATOM     55  C   UNL     1      16.276   7.730  -8.068  1.00  0.00     0.031 C 
ATOM     56  C   UNL     1      17.395  12.553  -5.170  1.00  0.00     0.029 A 
ATOM     57  C   UNL     1      17.512  11.380  -5.920  1.00  0.00     0.049 A 
ATOM     58  H   UNL     1      18.236   9.569  -5.124  1.00  0.00     0.167 HD
ATOM     59  C   UNL     1      17.109   9.894  -7.883  1.00  0.00     0.074 A 
ATOM     60  C   UNL     1      16.943   8.574  -7.276  1.00  0.00     0.031 C 
ATOM     61  C   UNL     1      17.361  11.119  -7.334  1.00  0.00     0.037 A 
BRANCH  48  62
ATOM     62  C   UNL     1      17.005   8.579  -2.527  1.00  0.00     0.057 A 
ATOM     63  C   UNL     1      18.385   8.584  -2.244  1.00  0.00     0.134 A 
ATOM     64  C   UNL     1      16.406   7.303  -2.516  1.00  0.00     0.134 A 
ATOM     65  F   UNL     1      19.080   9.731  -2.217  1.00  0.00    -0.206 F 
ATOM     66  C   UNL     1      19.123   7.407  -2.062  1.00  0.00     0.040 A 
ATOM     67  C   UNL     1      17.124   6.126  -2.283  1.00  0.00     0.040 A 
ATOM     68  F   UNL     1      15.120   7.100  -2.822  1.00  0.00    -0.206 F 
ATOM     69  C   UNL     1      18.494   6.171  -2.092  1.00  0.00     0.006 A 
ENDBRANCH  48  62
BRANCH  49  70
ATOM     70  C   UNL     1      14.283   7.349 -10.700  1.00  0.00     0.057 A 
ATOM     71  C   UNL     1      15.215   6.917 -11.653  1.00  0.00     0.134 A 
ATOM     72  C   UNL     1      13.170   6.512 -10.503  1.00  0.00     0.134 A 
ATOM     73  F   UNL     1      16.333   7.622 -11.877  1.00  0.00    -0.206 F 
ATOM     74  C   UNL     1      15.053   5.719 -12.366  1.00  0.00     0.040 A 
ATOM     75  C   UNL     1      12.995   5.315 -11.208  1.00  0.00     0.040 A 
ATOM     76  F   UNL     1      12.260   6.788  -9.557  1.00  0.00    -0.206 F 
ATOM     77  C   UNL     1      13.944   4.909 -12.137  1.00  0.00     0.006 A 
ENDBRANCH  49  70
BRANCH  61  78
ATOM     78  C   UNL     1      17.247  12.334  -8.216  1.00  0.00     0.057 A 
ATOM     79  C   UNL     1      16.038  12.811  -8.747  1.00  0.00     0.134 A 
ATOM     80  C   UNL     1      18.363  13.166  -8.344  1.00  0.00     0.134 A 
ATOM     81  F   UNL     1      14.898  12.129  -8.597  1.00  0.00    -0.206 F 
ATOM     82  C   UNL     1      15.949  14.052  -9.387  1.00  0.00     0.040 A 
ATOM     83  C   UNL     1      18.281  14.421  -8.952  1.00  0.00     0.040 A 
ATOM     84  F   UNL     1      19.539  12.801  -7.812  1.00  0.00    -0.206 F 
ATOM     85  C   UNL     1      17.072  14.867  -9.478  1.00  0.00     0.006 A 
ENDBRANCH  61  78
ENDBRANCH  35  36
ENDBRANCH  27  30
ENDBRANCH  25  26
ENDBRANCH  24  25
ENDBRANCH   1  24
TORSDOF 13
