REMARK SMILES C[C@@]([NH2+]CCCO)(C(=O)NCCCNC(=O)c1ccc(-c2c3nc(c(-c4c(F)cccc4F)c4ccc([nH]4)c(-c4c(F)cccc4F)c4nc(c(-c5c(F)cccc5F)c5ccc2[nH]5)C=C4)C=C3)cc1)C(F)(F)F
REMARK SMILES IDX 8 1 9 2 10 3 2 5 1 6 3 7 4 10 5 11 6 12 7 13 71 15 72 16
REMARK SMILES IDX 73 17 74 18 11 19 12 20 13 21 14 22 15 23 16 25 17 26 18 27
REMARK SMILES IDX 70 28 19 29 69 30 20 31 21 32 22 33 63 34 23 35 68 36 62 37
REMARK SMILES IDX 64 38 24 39 67 40 61 41 60 42 25 44 51 45 34 46 50 47 35 48
REMARK SMILES IDX 38 49 49 50 65 51 36 52 37 53 48 55 66 56 39 57 26 58 27 59
REMARK SMILES IDX 32 60 28 61 29 62 31 63 33 64 30 65 52 66 53 67 58 68 54 69
REMARK SMILES IDX 55 70 57 71 59 72 56 73 40 74 41 75 46 76 42 77 43 78 45 79
REMARK SMILES IDX 47 80 44 81
REMARK H PARENT 10 4 3 8 3 9 7 14 14 24 64 43 38 54
REMARK Flexibility Score: inf
ROOT
ATOM      1  C   UNL     1      -0.921   1.311   0.106  1.00  0.00     0.290 C 
ATOM      2  O   UNL     1      -1.682   1.566   1.044  1.00  0.00    -0.267 OA
ATOM      3  N   UNL     1      -1.536   0.982  -1.068  1.00  0.00    -0.350 N 
ATOM      4  H   UNL     1      -2.517   1.052  -1.043  1.00  0.00     0.163 HD
ENDROOT
BRANCH   1   5
ATOM      5  C   UNL     1       0.613   1.373   0.247  1.00  0.00     0.268 C 
ATOM      6  C   UNL     1       1.219  -0.037   0.064  1.00  0.00     0.101 C 
BRANCH   5   7
ATOM      7  N   UNL     1       1.238   2.222  -0.837  1.00  0.00    -0.326 N 
ATOM      8  H   UNL     1       1.101   1.735  -1.723  1.00  0.00     0.347 HD
ATOM      9  H   UNL     1       2.210   2.338  -0.550  1.00  0.00     0.347 HD
BRANCH   7  10
ATOM     10  C   UNL     1       0.731   3.586  -1.002  1.00  0.00     0.264 C 
BRANCH  10  11
ATOM     11  C   UNL     1       1.292   4.680  -0.086  1.00  0.00     0.089 C 
BRANCH  11  12
ATOM     12  C   UNL     1       2.811   4.750   0.002  1.00  0.00     0.162 C 
BRANCH  12  13
ATOM     13  O   UNL     1       3.375   5.191  -1.224  1.00  0.00    -0.396 OA
ATOM     14  H   UNL     1       3.144   4.566  -1.930  1.00  0.00     0.210 HD
ENDBRANCH  12  13
ENDBRANCH  11  12
ENDBRANCH  10  11
ENDBRANCH   7  10
ENDBRANCH   5   7
BRANCH   5  15
ATOM     15  C   UNL     1       0.924   1.774   1.718  1.00  0.00     0.453 C 
ATOM     16  F   UNL     1       0.595   0.802   2.600  1.00  0.00    -0.164 F 
ATOM     17  F   UNL     1       2.267   1.974   1.852  1.00  0.00    -0.164 F 
ATOM     18  F   UNL     1       0.331   2.915   2.119  1.00  0.00    -0.164 F 
ENDBRANCH   5  15
ENDBRANCH   1   5
BRANCH   3  19
ATOM     19  C   UNL     1      -1.001   0.548  -2.346  1.00  0.00     0.118 C 
BRANCH  19  20
ATOM     20  C   UNL     1      -1.245  -0.941  -2.565  1.00  0.00     0.042 C 
BRANCH  20  21
ATOM     21  C   UNL     1      -2.720  -1.303  -2.703  1.00  0.00     0.118 C 
BRANCH  21  22
ATOM     22  N   UNL     1      -3.321  -0.737  -3.902  1.00  0.00    -0.352 N 
ATOM     23  C   UNL     1      -3.934  -1.362  -4.959  1.00  0.00     0.251 C 
ATOM     24  H   UNL     1      -3.283   0.245  -3.964  1.00  0.00     0.163 HD
ATOM     25  O   UNL     1      -4.199  -0.725  -5.973  1.00  0.00    -0.269 OA
BRANCH  23  26
ATOM     26  C   UNL     1      -4.259  -2.803  -4.887  1.00  0.00     0.039 A 
ATOM     27  C   UNL     1      -4.041  -3.599  -6.014  1.00  0.00     0.014 A 
ATOM     28  C   UNL     1      -4.797  -3.365  -3.727  1.00  0.00     0.014 A 
ATOM     29  C   UNL     1      -4.305  -4.968  -5.957  1.00  0.00     0.010 A 
ATOM     30  C   UNL     1      -4.979  -4.742  -3.643  1.00  0.00     0.010 A 
ATOM     31  C   UNL     1      -4.743  -5.557  -4.760  1.00  0.00    -0.014 A 
BRANCH  31  32
ATOM     32  C   UNL     1      -4.967  -7.022  -4.660  1.00  0.00     0.031 A 
ATOM     33  C   UNL     1      -6.342  -7.559  -4.370  1.00  0.00     0.074 A 
ATOM     34  C   UNL     1      -3.923  -7.865  -4.773  1.00  0.00     0.049 A 
ATOM     35  N   UNL     1      -6.724  -8.797  -4.186  1.00  0.00    -0.248 NA
ATOM     36  C   UNL     1      -7.427  -6.572  -4.245  1.00  0.00     0.031 C 
ATOM     37  C   UNL     1      -2.534  -7.466  -5.009  1.00  0.00     0.029 A 
ATOM     38  N   UNL     1      -3.865  -9.234  -4.694  1.00  0.00    -0.354 N 
ATOM     39  C   UNL     1      -8.085  -8.736  -3.911  1.00  0.00     0.074 A 
ATOM     40  C   UNL     1      -8.450  -7.337  -3.894  1.00  0.00     0.031 C 
ATOM     41  C   UNL     1      -1.767  -8.566  -5.082  1.00  0.00     0.029 A 
ATOM     42  C   UNL     1      -2.599  -9.743  -4.855  1.00  0.00     0.049 A 
ATOM     43  H   UNL     1      -4.657  -9.798  -4.537  1.00  0.00     0.167 HD
ATOM     44  C   UNL     1      -8.956  -9.754  -3.715  1.00  0.00     0.037 A 
ATOM     45  C   UNL     1      -2.157 -11.014  -4.814  1.00  0.00     0.037 A 
ATOM     46  C   UNL     1      -8.592 -11.147  -3.751  1.00  0.00     0.049 A 
ATOM     47  C   UNL     1      -3.142 -12.126  -4.574  1.00  0.00     0.074 A 
ATOM     48  C   UNL     1      -9.411 -12.255  -3.622  1.00  0.00     0.029 A 
ATOM     49  N   UNL     1      -7.301 -11.622  -3.924  1.00  0.00    -0.354 N 
ATOM     50  N   UNL     1      -4.437 -12.057  -4.387  1.00  0.00    -0.248 NA
ATOM     51  C   UNL     1      -2.602 -13.492  -4.544  1.00  0.00     0.031 C 
ATOM     52  C   UNL     1      -8.608 -13.399  -3.663  1.00  0.00     0.029 A 
ATOM     53  C   UNL     1      -7.296 -13.006  -3.876  1.00  0.00     0.049 A 
ATOM     54  H   UNL     1      -6.505 -11.058  -4.060  1.00  0.00     0.167 HD
ATOM     55  C   UNL     1      -4.872 -13.369  -4.247  1.00  0.00     0.074 A 
ATOM     56  C   UNL     1      -3.703 -14.213  -4.387  1.00  0.00     0.031 C 
ATOM     57  C   UNL     1      -6.126 -13.834  -4.024  1.00  0.00     0.037 A 
BRANCH  44  58
ATOM     58  C   UNL     1     -10.390  -9.398  -3.443  1.00  0.00     0.057 A 
ATOM     59  C   UNL     1     -11.213  -8.838  -4.430  1.00  0.00     0.134 A 
ATOM     60  C   UNL     1     -10.964  -9.647  -2.190  1.00  0.00     0.134 A 
ATOM     61  F   UNL     1     -10.724  -8.563  -5.648  1.00  0.00    -0.206 F 
ATOM     62  C   UNL     1     -12.546  -8.513  -4.172  1.00  0.00     0.040 A 
ATOM     63  C   UNL     1     -12.304  -9.355  -1.929  1.00  0.00     0.040 A 
ATOM     64  F   UNL     1     -10.236 -10.188  -1.202  1.00  0.00    -0.206 F 
ATOM     65  C   UNL     1     -13.097  -8.778  -2.920  1.00  0.00     0.006 A 
ENDBRANCH  44  58
BRANCH  45  66
ATOM     66  C   UNL     1      -0.716 -11.309  -5.021  1.00  0.00     0.057 A 
ATOM     67  C   UNL     1      -0.273 -11.976  -6.169  1.00  0.00     0.134 A 
ATOM     68  C   UNL     1       0.249 -10.945  -4.075  1.00  0.00     0.134 A 
ATOM     69  F   UNL     1      -1.152 -12.366  -7.104  1.00  0.00    -0.206 F 
ATOM     70  C   UNL     1       1.073 -12.291  -6.359  1.00  0.00     0.040 A 
ATOM     71  C   UNL     1       1.603 -11.229  -4.264  1.00  0.00     0.040 A 
ATOM     72  F   UNL     1      -0.108 -10.296  -2.957  1.00  0.00    -0.206 F 
ATOM     73  C   UNL     1       2.017 -11.913  -5.406  1.00  0.00     0.006 A 
ENDBRANCH  45  66
BRANCH  57  74
ATOM     74  C   UNL     1      -6.306 -15.322  -3.953  1.00  0.00     0.057 A 
ATOM     75  C   UNL     1      -5.840 -16.076  -2.868  1.00  0.00     0.134 A 
ATOM     76  C   UNL     1      -6.994 -16.005  -4.965  1.00  0.00     0.134 A 
ATOM     77  F   UNL     1      -5.162 -15.486  -1.871  1.00  0.00    -0.206 F 
ATOM     78  C   UNL     1      -6.030 -17.457  -2.804  1.00  0.00     0.040 A 
ATOM     79  C   UNL     1      -7.217 -17.380  -4.898  1.00  0.00     0.040 A 
ATOM     80  F   UNL     1      -7.476 -15.342  -6.028  1.00  0.00    -0.206 F 
ATOM     81  C   UNL     1      -6.728 -18.112  -3.818  1.00  0.00     0.006 A 
ENDBRANCH  57  74
ENDBRANCH  31  32
ENDBRANCH  23  26
ENDBRANCH  21  22
ENDBRANCH  20  21
ENDBRANCH  19  20
ENDBRANCH   3  19
TORSDOF 16
