REMARK SMILES Cc1nn(C)c(C)c1CNC(=O)NCC(=O)NCC(=O)NCCCNC(=O)c1ccc(-c2c3nc(c(-c4c(F)cccc4F)c4ccc([nH]4)c(-c4c(F)cccc4F)c4nc(c(-c5c(F)cccc5F)c5ccc2[nH]5)C=C4)C=C3)cc1
REMARK SMILES IDX 19 1 20 2 21 3 18 5 17 6 15 7 16 8 14 10 13 11 10 12 11 13
REMARK SMILES IDX 12 15 9 17 8 18 1 19 2 20 3 21 4 22 6 23 5 24 7 25 22 26
REMARK SMILES IDX 23 27 24 28 25 29 26 30 27 32 28 33 29 34 81 35 30 36 80 37
REMARK SMILES IDX 31 38 32 39 33 40 74 41 34 42 79 43 73 44 75 45 35 46 78 47
REMARK SMILES IDX 72 48 71 49 36 51 62 52 45 53 61 54 46 55 49 56 60 57 76 58
REMARK SMILES IDX 47 59 48 60 59 62 77 63 50 64 37 65 38 66 43 67 39 68 40 69
REMARK SMILES IDX 42 70 44 71 41 72 63 73 64 74 69 75 65 76 66 77 68 78 70 79
REMARK SMILES IDX 67 80 51 81 52 82 57 83 53 84 54 85 56 86 58 87 55 88
REMARK H PARENT 21 4 17 9 10 14 13 16 25 31 75 50 49 61
REMARK Flexibility Score: inf
ROOT
ATOM      1  C   UNL     1      -1.973   7.213   0.525  1.00  0.00     0.239 C 
ATOM      2  O   UNL     1      -3.091   7.618   0.844  1.00  0.00    -0.273 OA
ATOM      3  N   UNL     1      -0.877   7.928   0.926  1.00  0.00    -0.355 N 
ATOM      4  H   UNL     1      -1.054   8.801   1.345  1.00  0.00     0.163 HD
ENDROOT
BRANCH   1   5
ATOM      5  C   UNL     1      -1.790   5.902  -0.256  1.00  0.00     0.216 C 
BRANCH   5   6
ATOM      6  N   UNL     1      -1.158   6.113  -1.550  1.00  0.00    -0.346 N 
ATOM      7  C   UNL     1      -0.191   5.433  -2.219  1.00  0.00     0.239 C 
ATOM      8  O   UNL     1       0.013   5.778  -3.389  1.00  0.00    -0.273 OA
ATOM      9  H   UNL     1      -1.498   6.900  -2.034  1.00  0.00     0.164 HD
BRANCH   7  10
ATOM     10  C   UNL     1       0.546   4.211  -1.648  1.00  0.00     0.217 C 
BRANCH  10  11
ATOM     11  N   UNL     1       1.141   4.395  -0.337  1.00  0.00    -0.329 N 
ATOM     12  N   UNL     1       0.020   3.019   1.221  1.00  0.00    -0.334 N 
ATOM     13  C   UNL     1       0.939   3.924   0.895  1.00  0.00     0.315 C 
ATOM     14  H   UNL     1       0.018   2.811   2.183  1.00  0.00     0.165 HD
ATOM     15  O   UNL     1       1.654   4.373   1.794  1.00  0.00    -0.249 OA
ATOM     16  H   UNL     1       1.889   5.035  -0.363  1.00  0.00     0.165 HD
BRANCH  12  17
ATOM     17  C   UNL     1      -0.974   2.273   0.492  1.00  0.00     0.157 C 
BRANCH  17  18
ATOM     18  C   UNL     1      -0.513   0.885   0.201  1.00  0.00     0.015 A 
ATOM     19  C   UNL     1      -2.871  -0.255  -0.004  1.00  0.00     0.069 C 
ATOM     20  C   UNL     1      -1.386  -0.227   0.010  1.00  0.00     0.065 A 
ATOM     21  N   UNL     1      -0.715  -1.367  -0.163  1.00  0.00    -0.178 NA
ATOM     22  N   UNL     1       0.576  -1.009  -0.088  1.00  0.00    -0.272 N 
ATOM     23  C   UNL     1       0.761   0.346   0.035  1.00  0.00     0.040 A 
ATOM     24  C   UNL     1       1.571  -2.056  -0.116  1.00  0.00     0.174 C 
ATOM     25  C   UNL     1       2.117   0.956   0.018  1.00  0.00     0.067 C 
ENDBRANCH  17  18
ENDBRANCH  12  17
ENDBRANCH  10  11
ENDBRANCH   7  10
ENDBRANCH   5   6
ENDBRANCH   1   5
BRANCH   3  26
ATOM     26  C   UNL     1       0.511   7.543   0.803  1.00  0.00     0.117 C 
BRANCH  26  27
ATOM     27  C   UNL     1       1.244   8.293  -0.297  1.00  0.00     0.042 C 
BRANCH  27  28
ATOM     28  C   UNL     1       1.807   9.618   0.189  1.00  0.00     0.118 C 
BRANCH  28  29
ATOM     29  N   UNL     1       2.927   9.443   1.110  1.00  0.00    -0.352 N 
ATOM     30  C   UNL     1       4.171  10.029   1.097  1.00  0.00     0.251 C 
ATOM     31  H   UNL     1       2.768   8.811   1.849  1.00  0.00     0.163 HD
ATOM     32  O   UNL     1       5.040   9.657   1.873  1.00  0.00    -0.269 OA
BRANCH  30  33
ATOM     33  C   UNL     1       4.462  11.090   0.111  1.00  0.00     0.039 A 
ATOM     34  C   UNL     1       5.660  11.038  -0.607  1.00  0.00     0.014 A 
ATOM     35  C   UNL     1       3.537  12.107  -0.130  1.00  0.00     0.014 A 
ATOM     36  C   UNL     1       5.888  11.957  -1.633  1.00  0.00     0.010 A 
ATOM     37  C   UNL     1       3.725  12.963  -1.207  1.00  0.00     0.010 A 
ATOM     38  C   UNL     1       4.900  12.893  -1.972  1.00  0.00    -0.014 A 
BRANCH  38  39
ATOM     39  C   UNL     1       5.052  13.818  -3.122  1.00  0.00     0.031 A 
ATOM     40  C   UNL     1       5.042  15.302  -2.886  1.00  0.00     0.074 A 
ATOM     41  C   UNL     1       5.082  13.330  -4.377  1.00  0.00     0.049 A 
ATOM     42  N   UNL     1       4.975  16.278  -3.754  1.00  0.00    -0.248 NA
ATOM     43  C   UNL     1       5.068  15.745  -1.482  1.00  0.00     0.031 C 
ATOM     44  C   UNL     1       5.051  11.911  -4.739  1.00  0.00     0.029 A 
ATOM     45  N   UNL     1       5.121  13.980  -5.585  1.00  0.00    -0.354 N 
ATOM     46  C   UNL     1       4.907  17.444  -3.003  1.00  0.00     0.074 A 
ATOM     47  C   UNL     1       4.904  17.053  -1.610  1.00  0.00     0.031 C 
ATOM     48  C   UNL     1       5.093  11.798  -6.077  1.00  0.00     0.029 A 
ATOM     49  C   UNL     1       5.107  13.133  -6.666  1.00  0.00     0.049 A 
ATOM     50  H   UNL     1       5.156  14.960  -5.668  1.00  0.00     0.167 HD
ATOM     51  C   UNL     1       4.867  18.726  -3.436  1.00  0.00     0.037 A 
ATOM     52  C   UNL     1       5.092  13.404  -7.984  1.00  0.00     0.037 A 
ATOM     53  C   UNL     1       4.927  19.112  -4.819  1.00  0.00     0.049 A 
ATOM     54  C   UNL     1       5.079  14.836  -8.439  1.00  0.00     0.074 A 
ATOM     55  C   UNL     1       4.972  20.386  -5.359  1.00  0.00     0.029 A 
ATOM     56  N   UNL     1       4.961  18.224  -5.883  1.00  0.00    -0.354 N 
ATOM     57  N   UNL     1       5.061  15.931  -7.718  1.00  0.00    -0.248 NA
ATOM     58  C   UNL     1       5.083  15.070  -9.890  1.00  0.00     0.031 C 
ATOM     59  C   UNL     1       5.007  20.268  -6.752  1.00  0.00     0.029 A 
ATOM     60  C   UNL     1       5.017  18.921  -7.078  1.00  0.00     0.049 A 
ATOM     61  H   UNL     1       4.947  17.243  -5.802  1.00  0.00     0.167 HD
ATOM     62  C   UNL     1       5.082  16.982  -8.625  1.00  0.00     0.074 A 
ATOM     63  C   UNL     1       5.119  16.394  -9.948  1.00  0.00     0.031 C 
ATOM     64  C   UNL     1       5.072  18.316  -8.383  1.00  0.00     0.037 A 
BRANCH  51  65
ATOM     65  C   UNL     1       4.758  19.801  -2.396  1.00  0.00     0.057 A 
ATOM     66  C   UNL     1       5.828  20.124  -1.552  1.00  0.00     0.134 A 
ATOM     67  C   UNL     1       3.575  20.536  -2.251  1.00  0.00     0.134 A 
ATOM     68  F   UNL     1       6.984  19.447  -1.630  1.00  0.00    -0.206 F 
ATOM     69  C   UNL     1       5.716  21.120  -0.580  1.00  0.00     0.040 A 
ATOM     70  C   UNL     1       3.459  21.552  -1.300  1.00  0.00     0.040 A 
ATOM     71  F   UNL     1       2.513  20.280  -3.030  1.00  0.00    -0.206 F 
ATOM     72  C   UNL     1       4.530  21.841  -0.457  1.00  0.00     0.006 A 
ENDBRANCH  51  65
BRANCH  52  73
ATOM     73  C   UNL     1       5.117  12.297  -8.971  1.00  0.00     0.057 A 
ATOM     74  C   UNL     1       6.270  12.034  -9.720  1.00  0.00     0.134 A 
ATOM     75  C   UNL     1       4.001  11.483  -9.194  1.00  0.00     0.134 A 
ATOM     76  F   UNL     1       7.364  12.793  -9.562  1.00  0.00    -0.206 F 
ATOM     77  C   UNL     1       6.308  11.010 -10.667  1.00  0.00     0.040 A 
ATOM     78  C   UNL     1       4.032  10.442 -10.124  1.00  0.00     0.040 A 
ATOM     79  F   UNL     1       2.869  11.682  -8.504  1.00  0.00    -0.206 F 
ATOM     80  C   UNL     1       5.187  10.207 -10.868  1.00  0.00     0.006 A 
ENDBRANCH  52  73
BRANCH  64  81
ATOM     81  C   UNL     1       5.149  19.226  -9.570  1.00  0.00     0.057 A 
ATOM     82  C   UNL     1       4.047  19.445 -10.405  1.00  0.00     0.134 A 
ATOM     83  C   UNL     1       6.329  19.925  -9.853  1.00  0.00     0.134 A 
ATOM     84  F   UNL     1       2.894  18.794 -10.193  1.00  0.00    -0.206 F 
ATOM     85  C   UNL     1       4.121  20.318 -11.491  1.00  0.00     0.040 A 
ATOM     86  C   UNL     1       6.408  20.817 -10.922  1.00  0.00     0.040 A 
ATOM     87  F   UNL     1       7.417  19.763  -9.085  1.00  0.00    -0.206 F 
ATOM     88  C   UNL     1       5.303  21.012 -11.748  1.00  0.00     0.006 A 
ENDBRANCH  64  81
ENDBRANCH  38  39
ENDBRANCH  30  33
ENDBRANCH  28  29
ENDBRANCH  27  28
ENDBRANCH  26  27
ENDBRANCH   3  26
TORSDOF 15
