REMARK SMILES CCOc1ccc(-c2csc3ncn([C@H](C)C(=O)NCCCNC(=O)c4ccc(-c5c6nc(c(-c7c(F)cccc7F)c7ccc([nH]7)c(-c7c(F)cccc7F)c7nc(c(-c8c(F)cccc8F)c8ccc5[nH]8)C=C7)C=C6)cc4)c(=O)c23)cc1
REMARK SMILES IDX 20 1 19 2 17 3 18 4 15 6 16 7 14 8 8 9 9 10 82 11 10 12
REMARK SMILES IDX 11 13 80 14 12 15 81 16 13 17 7 18 4 19 5 20 84 21 6 22
REMARK SMILES IDX 83 23 3 24 2 25 1 26 21 27 22 28 23 29 24 30 25 32 26 33
REMARK SMILES IDX 27 34 79 35 28 36 78 37 29 38 30 39 31 40 72 41 32 42 77 43
REMARK SMILES IDX 71 44 73 45 33 46 76 47 70 48 69 49 34 51 60 52 43 53 59 54
REMARK SMILES IDX 44 55 47 56 58 57 74 58 45 59 46 60 57 62 75 63 48 64 35 65
REMARK SMILES IDX 36 66 41 67 37 68 38 69 40 70 42 71 39 72 61 73 62 74 67 75
REMARK SMILES IDX 63 76 64 77 66 78 68 79 65 80 49 81 50 82 55 83 51 84 52 85
REMARK SMILES IDX 54 86 56 87 53 88
REMARK H PARENT 19 5 23 31 73 50 47 61
REMARK Flexibility Score: inf
ROOT
ATOM      1  C   UNL     1       5.267  -0.825  -4.990  1.00  0.00     0.117 C 
ENDROOT
BRANCH   1   2
ATOM      2  N   UNL     1       6.237   0.222  -5.276  1.00  0.00    -0.354 N 
ATOM      3  C   UNL     1       7.516   0.169  -5.751  1.00  0.00     0.242 C 
ATOM      4  O   UNL     1       8.191   1.199  -5.651  1.00  0.00    -0.273 OA
ATOM      5  H   UNL     1       5.912   1.133  -5.094  1.00  0.00     0.163 HD
BRANCH   3   6
ATOM      6  C   UNL     1       8.173  -1.154  -6.215  1.00  0.00     0.177 C 
ATOM      7  C   UNL     1       8.707  -1.846  -4.960  1.00  0.00     0.042 C 
BRANCH   6   8
ATOM      8  N   UNL     1       7.260  -1.935  -7.065  1.00  0.00    -0.286 N 
ATOM      9  C   UNL     1       4.844  -1.518  -9.951  1.00  0.00     0.007 A 
ATOM     10  C   UNL     1       3.920  -2.497 -10.272  1.00  0.00     0.076 A 
ATOM     11  C   UNL     1       5.714  -1.968  -8.898  1.00  0.00     0.085 A 
ATOM     12  S   UNL     1       4.080  -3.901  -9.311  1.00  0.00    -0.123 S 
ATOM     13  C   UNL     1       5.390  -3.232  -8.452  1.00  0.00     0.131 A 
ATOM     14  C   UNL     1       6.799  -1.288  -8.217  1.00  0.00     0.263 A 
ATOM     15  N   UNL     1       5.985  -3.912  -7.442  1.00  0.00    -0.227 NA
ATOM     16  O   UNL     1       7.261  -0.212  -8.599  1.00  0.00    -0.268 OA
ATOM     17  C   UNL     1       6.881  -3.236  -6.797  1.00  0.00     0.204 A 
BRANCH   9  18
ATOM     18  C   UNL     1       4.807  -0.222 -10.625  1.00  0.00    -0.016 A 
ATOM     19  C   UNL     1       4.701   2.272 -11.914  1.00  0.00     0.119 A 
ATOM     20  C   UNL     1       5.905   1.575 -11.840  1.00  0.00     0.047 A 
ATOM     21  C   UNL     1       3.545   1.713 -11.378  1.00  0.00     0.047 A 
ATOM     22  C   UNL     1       5.957   0.331 -11.201  1.00  0.00     0.012 A 
ATOM     23  C   UNL     1       3.600   0.484 -10.718  1.00  0.00     0.012 A 
BRANCH  19  24
ATOM     24  O   UNL     1       4.670   3.428 -12.641  1.00  0.00    -0.494 OA
BRANCH  24  25
ATOM     25  C   UNL     1       4.357   4.596 -11.871  1.00  0.00     0.226 C 
ATOM     26  C   UNL     1       2.860   4.858 -11.805  1.00  0.00     0.049 C 
ENDBRANCH  24  25
ENDBRANCH  19  24
ENDBRANCH   9  18
ENDBRANCH   6   8
ENDBRANCH   3   6
ENDBRANCH   1   2
BRANCH   1  27
ATOM     27  C   UNL     1       5.086  -1.072  -3.494  1.00  0.00     0.042 C 
BRANCH  27  28
ATOM     28  C   UNL     1       4.243   0.006  -2.849  1.00  0.00     0.118 C 
BRANCH  28  29
ATOM     29  N   UNL     1       2.831  -0.028  -3.263  1.00  0.00    -0.352 N 
ATOM     30  C   UNL     1       1.793   0.771  -2.802  1.00  0.00     0.251 C 
ATOM     31  H   UNL     1       2.595  -0.695  -3.948  1.00  0.00     0.163 HD
ATOM     32  O   UNL     1       0.621   0.470  -2.977  1.00  0.00    -0.269 OA
BRANCH  30  33
ATOM     33  C   UNL     1       2.158   2.014  -2.107  1.00  0.00     0.039 A 
ATOM     34  C   UNL     1       1.554   2.450  -0.925  1.00  0.00     0.014 A 
ATOM     35  C   UNL     1       3.250   2.680  -2.637  1.00  0.00     0.014 A 
ATOM     36  C   UNL     1       2.126   3.531  -0.257  1.00  0.00     0.010 A 
ATOM     37  C   UNL     1       3.980   3.476  -1.816  1.00  0.00     0.010 A 
ATOM     38  C   UNL     1       3.355   4.029  -0.714  1.00  0.00    -0.014 A 
BRANCH  38  39
ATOM     39  C   UNL     1       4.094   5.093  -0.054  1.00  0.00     0.031 A 
ATOM     40  C   UNL     1       4.395   4.830   1.372  1.00  0.00     0.074 A 
ATOM     41  C   UNL     1       4.681   6.084  -0.769  1.00  0.00     0.049 A 
ATOM     42  N   UNL     1       3.922   5.448   2.401  1.00  0.00    -0.248 NA
ATOM     43  C   UNL     1       5.191   3.636   1.709  1.00  0.00     0.031 C 
ATOM     44  C   UNL     1       4.716   6.273  -2.231  1.00  0.00     0.029 A 
ATOM     45  N   UNL     1       5.485   7.089  -0.335  1.00  0.00    -0.354 N 
ATOM     46  C   UNL     1       4.553   4.881   3.502  1.00  0.00     0.074 A 
ATOM     47  C   UNL     1       5.140   3.650   3.042  1.00  0.00     0.031 C 
ATOM     48  C   UNL     1       5.684   7.155  -2.561  1.00  0.00     0.029 A 
ATOM     49  C   UNL     1       6.200   7.738  -1.341  1.00  0.00     0.049 A 
ATOM     50  H   UNL     1       5.557   7.340   0.615  1.00  0.00     0.167 HD
ATOM     51  C   UNL     1       4.786   5.617   4.624  1.00  0.00     0.037 A 
ATOM     52  C   UNL     1       7.162   8.678  -1.164  1.00  0.00     0.037 A 
ATOM     53  C   UNL     1       3.995   6.824   4.625  1.00  0.00     0.049 A 
ATOM     54  C   UNL     1       6.981   9.224   0.205  1.00  0.00     0.074 A 
ATOM     55  C   UNL     1       2.643   7.102   4.574  1.00  0.00     0.029 A 
ATOM     56  N   UNL     1       4.626   7.992   4.268  1.00  0.00    -0.354 N 
ATOM     57  N   UNL     1       5.936   9.917   0.568  1.00  0.00    -0.248 NA
ATOM     58  C   UNL     1       7.702   8.566   1.283  1.00  0.00     0.031 C 
ATOM     59  C   UNL     1       2.533   8.238   3.718  1.00  0.00     0.029 A 
ATOM     60  C   UNL     1       3.822   8.639   3.364  1.00  0.00     0.049 A 
ATOM     61  H   UNL     1       5.497   8.308   4.602  1.00  0.00     0.167 HD
ATOM     62  C   UNL     1       5.614   9.435   1.829  1.00  0.00     0.074 A 
ATOM     63  C   UNL     1       6.777   8.649   2.243  1.00  0.00     0.031 C 
ATOM     64  C   UNL     1       4.326   9.460   2.287  1.00  0.00     0.037 A 
BRANCH  51  65
ATOM     65  C   UNL     1       6.008   5.467   5.495  1.00  0.00     0.057 A 
ATOM     66  C   UNL     1       6.064   6.166   6.713  1.00  0.00     0.134 A 
ATOM     67  C   UNL     1       7.236   4.927   5.057  1.00  0.00     0.134 A 
ATOM     68  F   UNL     1       4.964   6.736   7.229  1.00  0.00    -0.206 F 
ATOM     69  C   UNL     1       7.264   6.380   7.400  1.00  0.00     0.040 A 
ATOM     70  C   UNL     1       8.430   5.090   5.762  1.00  0.00     0.040 A 
ATOM     71  F   UNL     1       7.372   4.306   3.880  1.00  0.00    -0.206 F 
ATOM     72  C   UNL     1       8.455   5.849   6.920  1.00  0.00     0.006 A 
ENDBRANCH  51  65
BRANCH  52  73
ATOM     73  C   UNL     1       8.411   8.867  -1.940  1.00  0.00     0.057 A 
ATOM     74  C   UNL     1       9.161  10.048  -1.838  1.00  0.00     0.134 A 
ATOM     75  C   UNL     1       9.048   7.786  -2.575  1.00  0.00     0.134 A 
ATOM     76  F   UNL     1       8.657  11.120  -1.210  1.00  0.00    -0.206 F 
ATOM     77  C   UNL     1      10.476  10.141  -2.317  1.00  0.00     0.040 A 
ATOM     78  C   UNL     1      10.358   7.866  -3.060  1.00  0.00     0.040 A 
ATOM     79  F   UNL     1       8.453   6.588  -2.662  1.00  0.00    -0.206 F 
ATOM     80  C   UNL     1      11.083   9.043  -2.920  1.00  0.00     0.006 A 
ENDBRANCH  52  73
BRANCH  64  81
ATOM     81  C   UNL     1       3.307  10.223   1.480  1.00  0.00     0.057 A 
ATOM     82  C   UNL     1       2.899   9.873   0.182  1.00  0.00     0.134 A 
ATOM     83  C   UNL     1       2.601  11.259   2.097  1.00  0.00     0.134 A 
ATOM     84  F   UNL     1       3.443   8.833  -0.458  1.00  0.00    -0.206 F 
ATOM     85  C   UNL     1       1.869  10.548  -0.482  1.00  0.00     0.040 A 
ATOM     86  C   UNL     1       1.550  11.922   1.458  1.00  0.00     0.040 A 
ATOM     87  F   UNL     1       2.891  11.613   3.359  1.00  0.00    -0.206 F 
ATOM     88  C   UNL     1       1.187  11.574   0.160  1.00  0.00     0.006 A 
ENDBRANCH  64  81
ENDBRANCH  38  39
ENDBRANCH  30  33
ENDBRANCH  28  29
ENDBRANCH  27  28
ENDBRANCH   1  27
TORSDOF 14
