REMARK SMILES O=C(NCCCNC(=O)c1csc(CNc2ccc(-n3cccn3)nc2)c1)c1ccc(-c2c3nc(c(-c4c(F)cccc4F)c4ccc([nH]4)c(-c4c(F)cccc4F)c4nc(c(-c5c(F)cccc5F)c5ccc2[nH]5)C=C4)C=C3)cc1
REMARK SMILES IDX 6 1 5 2 4 3 3 4 1 5 2 6 28 8 29 9 81 10 30 11 80 12 31 13
REMARK SMILES IDX 32 14 33 15 74 16 34 17 79 18 73 19 75 20 35 21 78 22 72 23
REMARK SMILES IDX 71 24 36 26 62 27 45 28 61 29 46 30 49 31 60 32 76 33 47 34
REMARK SMILES IDX 48 35 59 37 77 38 50 39 37 40 38 41 43 42 39 43 40 44 42 45
REMARK SMILES IDX 44 46 41 47 63 48 64 49 69 50 65 51 66 52 68 53 70 54 67 55
REMARK SMILES IDX 51 56 52 57 57 58 53 59 54 60 56 61 58 62 55 63 7 64 8 65
REMARK SMILES IDX 9 67 10 68 11 69 27 70 12 71 13 72 14 73 15 74 16 76 17 77
REMARK SMILES IDX 26 78 18 79 25 80 19 81 20 82 21 83 24 84 22 85 23 86
REMARK H PARENT 3 7 75 25 49 36 7 66 15 75
REMARK Flexibility Score: inf
ROOT
ATOM      1  C   UNL     1       4.465   3.436   0.570  1.00  0.00     0.118 C 
ENDROOT
BRANCH   1   2
ATOM      2  C   UNL     1       4.997   2.174  -0.116  1.00  0.00     0.042 C 
BRANCH   2   3
ATOM      3  C   UNL     1       4.700   0.866   0.619  1.00  0.00     0.118 C 
BRANCH   3   4
ATOM      4  N   UNL     1       3.292   0.614   0.853  1.00  0.00    -0.352 N 
ATOM      5  O   UNL     1       1.200  -0.065   0.736  1.00  0.00    -0.269 OA
ATOM      6  C   UNL     1       2.264   0.082   0.127  1.00  0.00     0.251 C 
ATOM      7  H   UNL     1       3.008   0.894   1.753  1.00  0.00     0.163 HD
BRANCH   6   8
ATOM      8  C   UNL     1       2.311  -0.286  -1.317  1.00  0.00     0.039 A 
ATOM      9  C   UNL     1       3.453  -0.335  -2.117  1.00  0.00     0.014 A 
ATOM     10  C   UNL     1       1.072  -0.605  -1.908  1.00  0.00     0.014 A 
ATOM     11  C   UNL     1       3.354  -0.639  -3.477  1.00  0.00     0.010 A 
ATOM     12  C   UNL     1       0.970  -0.923  -3.260  1.00  0.00     0.010 A 
ATOM     13  C   UNL     1       2.111  -0.915  -4.056  1.00  0.00    -0.014 A 
BRANCH  13  14
ATOM     14  C   UNL     1       2.067  -1.274  -5.475  1.00  0.00     0.031 A 
ATOM     15  C   UNL     1       2.758  -2.541  -5.870  1.00  0.00     0.074 A 
ATOM     16  C   UNL     1       1.321  -0.627  -6.394  1.00  0.00     0.049 A 
ATOM     17  N   UNL     1       3.692  -2.716  -6.752  1.00  0.00    -0.248 NA
ATOM     18  C   UNL     1       2.363  -3.770  -5.167  1.00  0.00     0.031 C 
ATOM     19  C   UNL     1       0.318   0.418  -6.182  1.00  0.00     0.029 A 
ATOM     20  N   UNL     1       1.253  -0.856  -7.739  1.00  0.00    -0.354 N 
ATOM     21  C   UNL     1       3.910  -4.093  -6.823  1.00  0.00     0.074 A 
ATOM     22  C   UNL     1       3.120  -4.686  -5.773  1.00  0.00     0.031 C 
ATOM     23  C   UNL     1      -0.393   0.589  -7.320  1.00  0.00     0.029 A 
ATOM     24  C   UNL     1       0.194  -0.227  -8.371  1.00  0.00     0.049 A 
ATOM     25  H   UNL     1       1.902  -1.421  -8.218  1.00  0.00     0.167 HD
ATOM     26  C   UNL     1       4.623  -4.683  -7.824  1.00  0.00     0.037 A 
ATOM     27  C   UNL     1      -0.205  -0.400  -9.653  1.00  0.00     0.037 A 
ATOM     28  C   UNL     1       5.455  -3.748  -8.525  1.00  0.00     0.049 A 
ATOM     29  C   UNL     1       0.917  -0.997 -10.413  1.00  0.00     0.074 A 
ATOM     30  C   UNL     1       6.516  -2.935  -8.175  1.00  0.00     0.029 A 
ATOM     31  N   UNL     1       5.062  -3.315  -9.765  1.00  0.00    -0.354 N 
ATOM     32  N   UNL     1       2.018  -0.371 -10.719  1.00  0.00    -0.248 NA
ATOM     33  C   UNL     1       0.969  -2.445 -10.530  1.00  0.00     0.031 C 
ATOM     34  C   UNL     1       6.363  -1.764  -8.974  1.00  0.00     0.029 A 
ATOM     35  C   UNL     1       5.233  -1.954  -9.769  1.00  0.00     0.049 A 
ATOM     36  H   UNL     1       4.724  -3.870 -10.504  1.00  0.00     0.167 HD
ATOM     37  C   UNL     1       3.004  -1.343 -10.664  1.00  0.00     0.074 A 
ATOM     38  C   UNL     1       2.286  -2.613 -10.659  1.00  0.00     0.031 C 
ATOM     39  C   UNL     1       4.295  -1.026 -10.355  1.00  0.00     0.037 A 
BRANCH  26  40
ATOM     40  C   UNL     1       4.387  -6.082  -8.330  1.00  0.00     0.057 A 
ATOM     41  C   UNL     1       5.343  -6.713  -9.146  1.00  0.00     0.134 A 
ATOM     42  C   UNL     1       3.138  -6.729  -8.258  1.00  0.00     0.134 A 
ATOM     43  F   UNL     1       6.560  -6.176  -9.325  1.00  0.00    -0.206 F 
ATOM     44  C   UNL     1       5.064  -7.884  -9.864  1.00  0.00     0.040 A 
ATOM     45  C   UNL     1       2.863  -7.923  -8.932  1.00  0.00     0.040 A 
ATOM     46  F   UNL     1       2.099  -6.186  -7.607  1.00  0.00    -0.206 F 
ATOM     47  C   UNL     1       3.819  -8.493  -9.757  1.00  0.00     0.006 A 
ENDBRANCH  26  40
BRANCH  27  48
ATOM     48  C   UNL     1      -1.573  -0.327 -10.208  1.00  0.00     0.057 A 
ATOM     49  C   UNL     1      -1.797  -0.142 -11.579  1.00  0.00     0.134 A 
ATOM     50  C   UNL     1      -2.688  -0.710  -9.442  1.00  0.00     0.134 A 
ATOM     51  F   UNL     1      -0.785   0.179 -12.397  1.00  0.00    -0.206 F 
ATOM     52  C   UNL     1      -3.056  -0.344 -12.158  1.00  0.00     0.040 A 
ATOM     53  C   UNL     1      -3.951  -0.907 -10.006  1.00  0.00     0.040 A 
ATOM     54  F   UNL     1      -2.565  -0.992  -8.137  1.00  0.00    -0.206 F 
ATOM     55  C   UNL     1      -4.136  -0.737 -11.372  1.00  0.00     0.006 A 
ENDBRANCH  27  48
BRANCH  39  56
ATOM     56  C   UNL     1       4.675   0.429 -10.336  1.00  0.00     0.057 A 
ATOM     57  C   UNL     1       4.118   1.365  -9.451  1.00  0.00     0.134 A 
ATOM     58  C   UNL     1       5.736   0.869 -11.134  1.00  0.00     0.134 A 
ATOM     59  F   UNL     1       3.174   1.010  -8.570  1.00  0.00    -0.206 F 
ATOM     60  C   UNL     1       4.560   2.690  -9.403  1.00  0.00     0.040 A 
ATOM     61  C   UNL     1       6.212   2.181 -11.070  1.00  0.00     0.040 A 
ATOM     62  F   UNL     1       6.363   0.014 -11.958  1.00  0.00    -0.206 F 
ATOM     63  C   UNL     1       5.615   3.101 -10.211  1.00  0.00     0.006 A 
ENDBRANCH  39  56
ENDBRANCH  13  14
ENDBRANCH   6   8
ENDBRANCH   3   4
ENDBRANCH   2   3
ENDBRANCH   1   2
BRANCH   1  64
ATOM     64  N   UNL     1       4.983   3.600   1.918  1.00  0.00    -0.352 N 
ATOM     65  C   UNL     1       5.859   4.509   2.453  1.00  0.00     0.252 C 
ATOM     66  H   UNL     1       4.643   2.939   2.564  1.00  0.00     0.163 HD
ATOM     67  O   UNL     1       6.325   4.270   3.565  1.00  0.00    -0.269 OA
BRANCH  65  68
ATOM     68  C   UNL     1       6.236   5.713   1.721  1.00  0.00     0.050 A 
ATOM     69  C   UNL     1       5.376   6.521   1.001  1.00  0.00     0.079 A 
ATOM     70  C   UNL     1       7.549   6.302   1.767  1.00  0.00     0.031 A 
ATOM     71  S   UNL     1       6.147   7.893   0.335  1.00  0.00    -0.146 S 
ATOM     72  C   UNL     1       7.649   7.475   1.045  1.00  0.00     0.024 A 
BRANCH  72  73
ATOM     73  C   UNL     1       8.851   8.360   0.845  1.00  0.00     0.159 C 
BRANCH  73  74
ATOM     74  N   UNL     1       9.284   8.415  -0.545  1.00  0.00    -0.379 N 
ATOM     75  H   UNL     1       9.485   7.581  -1.029  1.00  0.00     0.160 HD
BRANCH  74  76
ATOM     76  C   UNL     1       9.416   9.634  -1.189  1.00  0.00     0.053 A 
ATOM     77  C   UNL     1      10.144  10.693  -0.652  1.00  0.00     0.031 A 
ATOM     78  C   UNL     1       8.751   9.892  -2.388  1.00  0.00     0.139 A 
ATOM     79  C   UNL     1      10.231  11.911  -1.333  1.00  0.00     0.051 A 
ATOM     80  N   UNL     1       8.765  11.073  -3.050  1.00  0.00    -0.235 NA
ATOM     81  C   UNL     1       9.526  12.066  -2.526  1.00  0.00     0.153 A 
BRANCH  81  82
ATOM     82  N   UNL     1       9.596  13.314  -3.222  1.00  0.00    -0.223 N 
ATOM     83  C   UNL     1      10.618  14.245  -3.169  1.00  0.00     0.117 A 
ATOM     84  N   UNL     1       8.598  13.733  -4.047  1.00  0.00    -0.175 NA
ATOM     85  C   UNL     1      10.235  15.312  -3.946  1.00  0.00     0.042 A 
ATOM     86  C   UNL     1       8.969  14.954  -4.431  1.00  0.00     0.135 A 
ENDBRANCH  81  82
ENDBRANCH  74  76
ENDBRANCH  73  74
ENDBRANCH  72  73
ENDBRANCH  65  68
ENDBRANCH   1  64
TORSDOF 14
