REMARK SMILES O=C(NCCCNC(=O)c1[nH]c2ccc(Cl)cc2c1-c1ccccc1)c1ccc(-c2c3nc(c(-c4c(F)cccc4F)c4ccc([nH]4)c(-c4c(F)cccc4F)c4nc(c(-c5c(F)cccc5F)c5ccc2[nH]5)C=C4)C=C3)cc1
REMARK SMILES IDX 4 1 3 2 1 3 2 4 26 6 27 7 79 8 28 9 78 10 29 11 30 12 31 13
REMARK SMILES IDX 72 14 32 15 77 16 71 17 73 18 33 19 76 20 70 21 69 22 34 24
REMARK SMILES IDX 60 25 43 26 59 27 44 28 47 29 58 30 74 31 45 32 46 33 57 35
REMARK SMILES IDX 75 36 48 37 35 38 36 39 41 40 37 41 38 42 40 43 42 44 39 45
REMARK SMILES IDX 61 46 62 47 67 48 63 49 64 50 66 51 68 52 65 53 49 54 50 55
REMARK SMILES IDX 55 56 51 57 52 58 54 59 56 60 53 61 5 62 6 63 7 64 8 65 9 67
REMARK SMILES IDX 10 68 11 69 19 70 12 71 18 73 13 74 17 75 14 76 15 77 16 78
REMARK SMILES IDX 20 79 21 80 25 81 22 82 24 83 23 84
REMARK H PARENT 3 5 73 23 47 34 7 66 11 72
REMARK Flexibility Score: inf
ROOT
ATOM      1  C   UNL     1       4.693   0.276   1.298  1.00  0.00     0.118 C 
ENDROOT
BRANCH   1   2
ATOM      2  N   UNL     1       3.246   0.221   1.124  1.00  0.00    -0.352 N 
ATOM      3  O   UNL     1       1.281   0.089   0.027  1.00  0.00    -0.269 OA
ATOM      4  C   UNL     1       2.496  -0.083   0.014  1.00  0.00     0.251 C 
ATOM      5  H   UNL     1       2.724   0.436   1.931  1.00  0.00     0.163 HD
BRANCH   4   6
ATOM      6  C   UNL     1       3.155  -0.593  -1.207  1.00  0.00     0.039 A 
ATOM      7  C   UNL     1       4.187  -1.527  -1.120  1.00  0.00     0.014 A 
ATOM      8  C   UNL     1       2.725  -0.144  -2.459  1.00  0.00     0.014 A 
ATOM      9  C   UNL     1       4.913  -1.865  -2.251  1.00  0.00     0.010 A 
ATOM     10  C   UNL     1       3.373  -0.589  -3.615  1.00  0.00     0.010 A 
ATOM     11  C   UNL     1       4.489  -1.434  -3.517  1.00  0.00    -0.014 A 
BRANCH  11  12
ATOM     12  C   UNL     1       5.162  -1.980  -4.720  1.00  0.00     0.031 A 
ATOM     13  C   UNL     1       5.883  -1.088  -5.688  1.00  0.00     0.074 A 
ATOM     14  C   UNL     1       5.114  -3.312  -4.921  1.00  0.00     0.049 A 
ATOM     15  N   UNL     1       6.492  -1.410  -6.801  1.00  0.00    -0.248 NA
ATOM     16  C   UNL     1       5.921   0.350  -5.378  1.00  0.00     0.031 C 
ATOM     17  C   UNL     1       4.429  -4.271  -4.048  1.00  0.00     0.029 A 
ATOM     18  N   UNL     1       5.651  -4.093  -5.910  1.00  0.00    -0.354 N 
ATOM     19  C   UNL     1       6.961  -0.219  -7.338  1.00  0.00     0.074 A 
ATOM     20  C   UNL     1       6.556   0.838  -6.436  1.00  0.00     0.031 C 
ATOM     21  C   UNL     1       4.618  -5.511  -4.518  1.00  0.00     0.029 A 
ATOM     22  C   UNL     1       5.362  -5.429  -5.767  1.00  0.00     0.049 A 
ATOM     23  H   UNL     1       6.191  -3.733  -6.651  1.00  0.00     0.167 HD
ATOM     24  C   UNL     1       7.665  -0.034  -8.480  1.00  0.00     0.037 A 
ATOM     25  C   UNL     1       5.629  -6.472  -6.572  1.00  0.00     0.037 A 
ATOM     26  C   UNL     1       8.080  -1.100  -9.356  1.00  0.00     0.049 A 
ATOM     27  C   UNL     1       6.376  -6.226  -7.848  1.00  0.00     0.074 A 
ATOM     28  C   UNL     1       8.855  -1.021 -10.501  1.00  0.00     0.029 A 
ATOM     29  N   UNL     1       7.743  -2.436  -9.194  1.00  0.00    -0.354 N 
ATOM     30  N   UNL     1       6.862  -5.102  -8.314  1.00  0.00    -0.248 NA
ATOM     31  C   UNL     1       6.603  -7.389  -8.715  1.00  0.00     0.031 C 
ATOM     32  C   UNL     1       8.936  -2.299 -11.063  1.00  0.00     0.029 A 
ATOM     33  C   UNL     1       8.259  -3.184 -10.240  1.00  0.00     0.049 A 
ATOM     34  H   UNL     1       7.216  -2.799  -8.445  1.00  0.00     0.167 HD
ATOM     35  C   UNL     1       7.463  -5.422  -9.522  1.00  0.00     0.074 A 
ATOM     36  C   UNL     1       7.301  -6.850  -9.704  1.00  0.00     0.031 C 
ATOM     37  C   UNL     1       8.086  -4.605 -10.405  1.00  0.00     0.037 A 
BRANCH  24  38
ATOM     38  C   UNL     1       8.016   1.372  -8.874  1.00  0.00     0.057 A 
ATOM     39  C   UNL     1       8.998   2.112  -8.203  1.00  0.00     0.134 A 
ATOM     40  C   UNL     1       7.413   1.965  -9.992  1.00  0.00     0.134 A 
ATOM     41  F   UNL     1       9.609   1.607  -7.121  1.00  0.00    -0.206 F 
ATOM     42  C   UNL     1       9.358   3.395  -8.623  1.00  0.00     0.040 A 
ATOM     43  C   UNL     1       7.781   3.236 -10.435  1.00  0.00     0.040 A 
ATOM     44  F   UNL     1       6.471   1.308 -10.685  1.00  0.00    -0.206 F 
ATOM     45  C   UNL     1       8.756   3.956  -9.747  1.00  0.00     0.006 A 
ENDBRANCH  24  38
BRANCH  25  46
ATOM     46  C   UNL     1       5.143  -7.827  -6.212  1.00  0.00     0.057 A 
ATOM     47  C   UNL     1       6.031  -8.853  -5.875  1.00  0.00     0.134 A 
ATOM     48  C   UNL     1       3.773  -8.126  -6.191  1.00  0.00     0.134 A 
ATOM     49  F   UNL     1       7.354  -8.633  -5.891  1.00  0.00    -0.206 F 
ATOM     50  C   UNL     1       5.578 -10.133  -5.550  1.00  0.00     0.040 A 
ATOM     51  C   UNL     1       3.305  -9.391  -5.837  1.00  0.00     0.040 A 
ATOM     52  F   UNL     1       2.869  -7.182  -6.492  1.00  0.00    -0.206 F 
ATOM     53  C   UNL     1       4.210 -10.402  -5.525  1.00  0.00     0.006 A 
ENDBRANCH  25  46
BRANCH  37  54
ATOM     54  C   UNL     1       8.654  -5.243 -11.637  1.00  0.00     0.057 A 
ATOM     55  C   UNL     1       7.831  -5.699 -12.674  1.00  0.00     0.134 A 
ATOM     56  C   UNL     1      10.038  -5.367 -11.804  1.00  0.00     0.134 A 
ATOM     57  F   UNL     1       6.496  -5.625 -12.566  1.00  0.00    -0.206 F 
ATOM     58  C   UNL     1       8.366  -6.274 -13.828  1.00  0.00     0.040 A 
ATOM     59  C   UNL     1      10.586  -5.913 -12.964  1.00  0.00     0.040 A 
ATOM     60  F   UNL     1      10.881  -4.944 -10.849  1.00  0.00    -0.206 F 
ATOM     61  C   UNL     1       9.748  -6.373 -13.978  1.00  0.00     0.006 A 
ENDBRANCH  37  54
ENDBRANCH  11  12
ENDBRANCH   4   6
ENDBRANCH   1   2
BRANCH   1  62
ATOM     62  C   UNL     1       5.219   1.689   1.444  1.00  0.00     0.042 C 
BRANCH  62  63
ATOM     63  C   UNL     1       4.764   2.373   2.717  1.00  0.00     0.118 C 
BRANCH  63  64
ATOM     64  N   UNL     1       5.234   1.716   3.923  1.00  0.00    -0.351 N 
ATOM     65  C   UNL     1       5.894   2.259   4.994  1.00  0.00     0.268 C 
ATOM     66  H   UNL     1       5.055   0.750   3.979  1.00  0.00     0.163 HD
ATOM     67  O   UNL     1       6.348   1.492   5.842  1.00  0.00    -0.268 OA
BRANCH  65  68
ATOM     68  C   UNL     1       6.119   3.682   5.046  1.00  0.00     0.113 A 
ATOM     69  N   UNL     1       7.370   4.169   5.347  1.00  0.00    -0.350 N 
ATOM     70  C   UNL     1       5.286   4.788   4.879  1.00  0.00     0.020 A 
ATOM     71  C   UNL     1       7.426   5.525   5.153  1.00  0.00     0.047 A 
ATOM     72  H   UNL     1       8.123   3.618   5.659  1.00  0.00     0.167 HD
ATOM     73  C   UNL     1       6.126   5.950   4.875  1.00  0.00     0.010 A 
ATOM     74  C   UNL     1       8.521   6.393   5.207  1.00  0.00     0.028 A 
ATOM     75  C   UNL     1       5.907   7.325   4.654  1.00  0.00     0.031 A 
ATOM     76  C   UNL     1       8.282   7.747   4.958  1.00  0.00     0.022 A 
ATOM     77  C   UNL     1       6.995   8.202   4.687  1.00  0.00     0.041 A 
ATOM     78  Cl  UNL     1       6.737   9.877   4.375  1.00  0.00    -0.084 Cl
BRANCH  70  79
ATOM     79  C   UNL     1       3.852   4.690   4.616  1.00  0.00    -0.015 A 
ATOM     80  C   UNL     1       3.024   3.919   5.443  1.00  0.00     0.009 A 
ATOM     81  C   UNL     1       3.309   5.272   3.460  1.00  0.00     0.009 A 
ATOM     82  C   UNL     1       1.691   3.693   5.092  1.00  0.00     0.001 A 
ATOM     83  C   UNL     1       1.978   5.037   3.107  1.00  0.00     0.001 A 
ATOM     84  C   UNL     1       1.173   4.240   3.919  1.00  0.00     0.000 A 
ENDBRANCH  70  79
ENDBRANCH  65  68
ENDBRANCH  63  64
ENDBRANCH  62  63
ENDBRANCH   1  62
TORSDOF 11
