REMARK SMILES O=C(NCCCNC(=O)[C@@H]1[C@H](C(=O)Nc2ccccc2Cc2ccccc2)[C@H]2C=C[C@@H]1O2)c1ccc(-c2c3nc(c(-c4c(F)cccc4F)c4ccc([nH]4)c(-c4c(F)cccc4F)c4nc(c(-c5c(F)cccc5F)c5ccc2[nH]5)C=C4)C=C3)cc1
REMARK SMILES IDX 6 1 5 2 4 3 3 4 1 5 2 6 33 8 34 9 86 10 35 11 85 12 36 13
REMARK SMILES IDX 37 14 38 15 79 16 39 17 84 18 78 19 80 20 40 21 83 22 77 23
REMARK SMILES IDX 76 24 41 26 67 27 50 28 66 29 51 30 54 31 65 32 81 33 52 34
REMARK SMILES IDX 53 35 64 37 82 38 55 39 42 40 43 41 48 42 44 43 45 44 47 45
REMARK SMILES IDX 49 46 46 47 68 48 69 49 74 50 70 51 71 52 73 53 75 54 72 55
REMARK SMILES IDX 56 56 57 57 62 58 58 59 59 60 61 61 63 62 60 63 7 64 8 65
REMARK SMILES IDX 9 67 10 68 11 69 31 70 28 71 30 72 32 73 29 74 12 75 13 76
REMARK SMILES IDX 14 77 15 79 16 80 20 81 17 82 19 83 18 84 21 85 22 86 23 87
REMARK SMILES IDX 27 88 24 89 26 90 25 91
REMARK H PARENT 3 7 80 25 54 36 7 66 14 78
REMARK Flexibility Score: inf
ROOT
ATOM      1  C   UNL     1       4.697   2.692  -2.587  1.00  0.00     0.117 C 
ENDROOT
BRANCH   1   2
ATOM      2  C   UNL     1       4.277   1.270  -2.228  1.00  0.00     0.042 C 
BRANCH   2   3
ATOM      3  C   UNL     1       4.107   1.101  -0.713  1.00  0.00     0.118 C 
BRANCH   3   4
ATOM      4  N   UNL     1       2.720   0.908  -0.331  1.00  0.00    -0.352 N 
ATOM      5  O   UNL     1       0.817  -0.257   0.017  1.00  0.00    -0.269 OA
ATOM      6  C   UNL     1       2.023  -0.265  -0.138  1.00  0.00     0.251 C 
ATOM      7  H   UNL     1       2.203   1.734  -0.190  1.00  0.00     0.163 HD
BRANCH   6   8
ATOM      8  C   UNL     1       2.764  -1.544  -0.165  1.00  0.00     0.039 A 
ATOM      9  C   UNL     1       3.884  -1.733   0.647  1.00  0.00     0.014 A 
ATOM     10  C   UNL     1       2.334  -2.557  -1.024  1.00  0.00     0.014 A 
ATOM     11  C   UNL     1       4.662  -2.874   0.490  1.00  0.00     0.010 A 
ATOM     12  C   UNL     1       3.069  -3.742  -1.116  1.00  0.00     0.010 A 
ATOM     13  C   UNL     1       4.257  -3.897  -0.383  1.00  0.00    -0.014 A 
BRANCH  13  14
ATOM     14  C   UNL     1       5.052  -5.148  -0.471  1.00  0.00     0.031 A 
ATOM     15  C   UNL     1       5.723  -5.557  -1.753  1.00  0.00     0.074 A 
ATOM     16  C   UNL     1       5.166  -5.919   0.628  1.00  0.00     0.049 A 
ATOM     17  N   UNL     1       6.406  -6.644  -2.015  1.00  0.00    -0.248 NA
ATOM     18  C   UNL     1       5.606  -4.635  -2.893  1.00  0.00     0.031 C 
ATOM     19  C   UNL     1       4.553  -5.628   1.927  1.00  0.00     0.029 A 
ATOM     20  N   UNL     1       5.838  -7.096   0.835  1.00  0.00    -0.354 N 
ATOM     21  C   UNL     1       6.776  -6.550  -3.351  1.00  0.00     0.074 A 
ATOM     22  C   UNL     1       6.229  -5.307  -3.852  1.00  0.00     0.031 C 
ATOM     23  C   UNL     1       4.908  -6.578   2.803  1.00  0.00     0.029 A 
ATOM     24  C   UNL     1       5.712  -7.579   2.114  1.00  0.00     0.049 A 
ATOM     25  H   UNL     1       6.359  -7.550   0.134  1.00  0.00     0.167 HD
ATOM     26  C   UNL     1       7.506  -7.423  -4.087  1.00  0.00     0.037 A 
ATOM     27  C   UNL     1       6.169  -8.717   2.667  1.00  0.00     0.037 A 
ATOM     28  C   UNL     1       8.068  -8.646  -3.573  1.00  0.00     0.049 A 
ATOM     29  C   UNL     1       6.962  -9.669   1.825  1.00  0.00     0.074 A 
ATOM     30  C   UNL     1       8.853  -9.579  -4.231  1.00  0.00     0.029 A 
ATOM     31  N   UNL     1       7.907  -9.107  -2.275  1.00  0.00    -0.354 N 
ATOM     32  N   UNL     1       7.314  -9.560   0.567  1.00  0.00    -0.248 NA
ATOM     33  C   UNL     1       7.416 -10.906   2.474  1.00  0.00     0.031 C 
ATOM     34  C   UNL     1       9.134 -10.622  -3.342  1.00  0.00     0.029 A 
ATOM     35  C   UNL     1       8.562 -10.318  -2.118  1.00  0.00     0.049 A 
ATOM     36  H   UNL     1       7.403  -8.642  -1.569  1.00  0.00     0.167 HD
ATOM     37  C   UNL     1       8.041 -10.706   0.277  1.00  0.00     0.074 A 
ATOM     38  C   UNL     1       8.097 -11.486   1.496  1.00  0.00     0.031 C 
ATOM     39  C   UNL     1       8.607 -11.080  -0.896  1.00  0.00     0.037 A 
BRANCH  26  40
ATOM     40  C   UNL     1       7.732  -7.101  -5.536  1.00  0.00     0.057 A 
ATOM     41  C   UNL     1       8.621  -6.099  -5.944  1.00  0.00     0.134 A 
ATOM     42  C   UNL     1       7.102  -7.852  -6.538  1.00  0.00     0.134 A 
ATOM     43  F   UNL     1       9.250  -5.338  -5.037  1.00  0.00    -0.206 F 
ATOM     44  C   UNL     1       8.866  -5.847  -7.296  1.00  0.00     0.040 A 
ATOM     45  C   UNL     1       7.355  -7.624  -7.892  1.00  0.00     0.040 A 
ATOM     46  F   UNL     1       6.244  -8.832  -6.217  1.00  0.00    -0.206 F 
ATOM     47  C   UNL     1       8.238  -6.616  -8.274  1.00  0.00     0.006 A 
ENDBRANCH  26  40
BRANCH  27  48
ATOM     48  C   UNL     1       5.867  -9.015   4.089  1.00  0.00     0.057 A 
ATOM     49  C   UNL     1       6.871  -8.989   5.062  1.00  0.00     0.134 A 
ATOM     50  C   UNL     1       4.565  -9.313   4.509  1.00  0.00     0.134 A 
ATOM     51  F   UNL     1       8.140  -8.727   4.717  1.00  0.00    -0.206 F 
ATOM     52  C   UNL     1       6.593  -9.258   6.403  1.00  0.00     0.040 A 
ATOM     53  C   UNL     1       4.268  -9.556   5.850  1.00  0.00     0.040 A 
ATOM     54  F   UNL     1       3.558  -9.345   3.624  1.00  0.00    -0.206 F 
ATOM     55  C   UNL     1       5.286  -9.535   6.801  1.00  0.00     0.006 A 
ENDBRANCH  27  48
BRANCH  39  56
ATOM     56  C   UNL     1       9.357 -12.377  -0.901  1.00  0.00     0.057 A 
ATOM     57  C   UNL     1       8.694 -13.611  -0.872  1.00  0.00     0.134 A 
ATOM     58  C   UNL     1      10.756 -12.392  -0.952  1.00  0.00     0.134 A 
ATOM     59  F   UNL     1       7.355 -13.662  -0.806  1.00  0.00    -0.206 F 
ATOM     60  C   UNL     1       9.399 -14.815  -0.870  1.00  0.00     0.040 A 
ATOM     61  C   UNL     1      11.471 -13.590  -0.974  1.00  0.00     0.040 A 
ATOM     62  F   UNL     1      11.449 -11.244  -0.987  1.00  0.00    -0.206 F 
ATOM     63  C   UNL     1      10.792 -14.806  -0.926  1.00  0.00     0.006 A 
ENDBRANCH  39  56
ENDBRANCH  13  14
ENDBRANCH   6   8
ENDBRANCH   3   4
ENDBRANCH   2   3
ENDBRANCH   1   2
BRANCH   1  64
ATOM     64  N   UNL     1       6.015   2.966  -2.055  1.00  0.00    -0.356 N 
ATOM     65  C   UNL     1       6.264   4.156  -1.437  1.00  0.00     0.227 C 
ATOM     66  H   UNL     1       6.730   2.295  -2.139  1.00  0.00     0.163 HD
ATOM     67  O   UNL     1       6.300   4.119  -0.216  1.00  0.00    -0.275 OA
BRANCH  65  68
ATOM     68  C   UNL     1       6.761   5.269  -2.337  1.00  0.00     0.127 C 
ATOM     69  C   UNL     1       8.229   5.618  -1.997  1.00  0.00     0.127 C 
ATOM     70  C   UNL     1       6.144   6.682  -2.346  1.00  0.00     0.155 C 
ATOM     71  C   UNL     1       8.267   7.128  -2.114  1.00  0.00     0.155 C 
ATOM     72  C   UNL     1       6.572   7.342  -3.632  1.00  0.00     0.004 C 
ATOM     73  O   UNL     1       7.019   7.442  -1.468  1.00  0.00    -0.365 OA
ATOM     74  C   UNL     1       7.893   7.563  -3.510  1.00  0.00     0.004 C 
BRANCH  69  75
ATOM     75  C   UNL     1       8.759   5.049  -0.695  1.00  0.00     0.231 C 
ATOM     76  O   UNL     1       9.422   3.997  -0.812  1.00  0.00    -0.274 OA
ATOM     77  N   UNL     1       8.666   5.480   0.581  1.00  0.00    -0.325 N 
ATOM     78  H   UNL     1       9.104   4.808   1.152  1.00  0.00     0.169 HD
BRANCH  77  79
ATOM     79  C   UNL     1       8.191   6.514   1.425  1.00  0.00     0.044 A 
ATOM     80  C   UNL     1       9.234   6.909   2.305  1.00  0.00     0.026 A 
ATOM     81  C   UNL     1       6.905   7.074   1.650  1.00  0.00    -0.020 A 
ATOM     82  C   UNL     1       9.073   7.857   3.312  1.00  0.00     0.002 A 
ATOM     83  C   UNL     1       6.775   8.043   2.685  1.00  0.00     0.006 A 
ATOM     84  C   UNL     1       7.836   8.433   3.499  1.00  0.00     0.000 A 
BRANCH  81  85
ATOM     85  C   UNL     1       5.614   6.833   0.900  1.00  0.00     0.073 C 
BRANCH  85  86
ATOM     86  C   UNL     1       4.342   6.349   1.597  1.00  0.00    -0.044 A 
ATOM     87  C   UNL     1       4.039   4.981   1.686  1.00  0.00     0.004 A 
ATOM     88  C   UNL     1       3.349   7.260   1.994  1.00  0.00     0.004 A 
ATOM     89  C   UNL     1       2.768   4.538   2.069  1.00  0.00     0.000 A 
ATOM     90  C   UNL     1       2.086   6.817   2.410  1.00  0.00     0.000 A 
ATOM     91  C   UNL     1       1.787   5.457   2.422  1.00  0.00     0.000 A 
ENDBRANCH  85  86
ENDBRANCH  81  85
ENDBRANCH  77  79
ENDBRANCH  69  75
ENDBRANCH  65  68
ENDBRANCH   1  64
TORSDOF 14
