REMARK SMILES CCOC(=O)c1c(NC(=O)/C=C(/C)C(=O)NCCCNC(=O)c2ccc(-c3c4nc(c(-c5c(F)cccc5F)c5ccc([nH]5)c(-c5c(F)cccc5F)c5nc(c(-c6c(F)cccc6F)c6ccc3[nH]6)C=C5)C=C4)cc2)sc2c1CC[C@H](C(C)(C)C)C2
REMARK SMILES IDX 14 1 15 2 16 3 12 5 11 6 13 7 9 8 8 9 10 11 7 12 6 13 79 14
REMARK SMILES IDX 77 15 78 16 80 17 87 18 81 19 82 20 4 21 5 22 3 23 2 24 1 25
REMARK SMILES IDX 83 26 84 27 85 28 86 29 17 30 18 31 19 32 20 33 21 34 22 36
REMARK SMILES IDX 23 37 24 38 76 39 25 40 75 41 26 42 27 43 28 44 69 45 29 46
REMARK SMILES IDX 74 47 68 48 70 49 30 50 73 51 67 52 66 53 31 55 57 56 40 57
REMARK SMILES IDX 56 58 41 59 44 60 55 61 71 62 42 63 43 64 54 66 72 67 45 68
REMARK SMILES IDX 32 69 33 70 38 71 34 72 35 73 37 74 39 75 36 76 58 77 59 78
REMARK SMILES IDX 64 79 60 80 61 81 63 82 65 83 62 84 46 85 47 86 52 87 48 88
REMARK SMILES IDX 49 89 51 90 53 91 50 92
REMARK H PARENT 16 4 8 10 20 35 70 54 44 65
REMARK Flexibility Score: inf
ROOT
ATOM      1  C   UNL     1       1.640   2.292  -0.176  1.00  0.00     0.247 C 
ATOM      2  O   UNL     1       1.451   2.550  -1.382  1.00  0.00    -0.270 OA
ATOM      3  N   UNL     1       0.727   3.000   0.603  1.00  0.00    -0.352 N 
ATOM      4  H   UNL     1       0.366   3.637  -0.056  1.00  0.00     0.163 HD
ENDROOT
BRANCH   1   5
ATOM      5  C   UNL     1       2.840   1.326   0.054  1.00  0.00     0.019 C 
ATOM      6  C   UNL     1       3.989   1.564  -0.610  1.00  0.00     0.080 C 
ATOM      7  C   UNL     1       3.098   0.036   0.817  1.00  0.00     0.050 C 
BRANCH   6   8
ATOM      8  C   UNL     1       4.507   2.699  -1.356  1.00  0.00     0.249 C 
ATOM      9  N   UNL     1       4.960   3.733  -0.599  1.00  0.00    -0.313 N 
ATOM     10  H   UNL     1       5.791   4.154  -0.915  1.00  0.00     0.171 HD
ATOM     11  O   UNL     1       4.875   2.543  -2.517  1.00  0.00    -0.270 OA
BRANCH   9  12
ATOM     12  C   UNL     1       4.421   4.275   0.546  1.00  0.00     0.110 A 
ATOM     13  C   UNL     1       3.249   4.110   1.292  1.00  0.00     0.098 A 
ATOM     14  C   UNL     1       2.620   5.467   1.099  1.00  0.00    -0.017 A 
ATOM     15  S   UNL     1       5.138   5.804   0.832  1.00  0.00    -0.122 S 
ATOM     16  C   UNL     1       3.592   6.466   1.021  1.00  0.00     0.011 A 
ATOM     17  C   UNL     1       1.197   5.915   0.916  1.00  0.00     0.038 C 
ATOM     18  C   UNL     1       3.351   7.962   1.004  1.00  0.00     0.051 C 
ATOM     19  C   UNL     1       0.954   7.423   0.771  1.00  0.00     0.009 C 
ATOM     20  C   UNL     1       1.950   8.255   1.600  1.00  0.00    -0.000 C 
BRANCH  13  21
ATOM     21  C   UNL     1       3.137   2.958   2.345  1.00  0.00     0.341 C 
ATOM     22  O   UNL     1       4.073   2.875   3.144  1.00  0.00    -0.246 OA
BRANCH  21  23
ATOM     23  O   UNL     1       2.147   1.989   2.522  1.00  0.00    -0.462 OA
BRANCH  23  24
ATOM     24  C   UNL     1       0.925   0.893   2.631  1.00  0.00     0.230 C 
ATOM     25  C   UNL     1       0.175   0.211   1.436  1.00  0.00     0.049 C 
ENDBRANCH  23  24
ENDBRANCH  21  23
ENDBRANCH  13  21
BRANCH  20  26
ATOM     26  C   UNL     1       1.526   9.763   1.738  1.00  0.00    -0.035 C 
ATOM     27  C   UNL     1       0.446   9.873   2.841  1.00  0.00     0.011 C 
ATOM     28  C   UNL     1       2.707  10.647   2.175  1.00  0.00     0.011 C 
ATOM     29  C   UNL     1       0.924  10.350   0.448  1.00  0.00     0.011 C 
ENDBRANCH  20  26
ENDBRANCH   9  12
ENDBRANCH   6   8
ENDBRANCH   1   5
BRANCH   3  30
ATOM     30  C   UNL     1      -0.098   3.411   1.922  1.00  0.00     0.118 C 
BRANCH  30  31
ATOM     31  C   UNL     1       0.336   3.764   3.456  1.00  0.00     0.042 C 
BRANCH  31  32
ATOM     32  C   UNL     1       0.695   5.156   4.056  1.00  0.00     0.118 C 
BRANCH  32  33
ATOM     33  N   UNL     1      -0.389   6.117   3.965  1.00  0.00    -0.352 N 
ATOM     34  C   UNL     1      -0.776   7.173   4.750  1.00  0.00     0.251 C 
ATOM     35  H   UNL     1      -0.966   5.982   3.179  1.00  0.00     0.163 HD
ATOM     36  O   UNL     1      -1.836   7.724   4.446  1.00  0.00    -0.269 OA
BRANCH  34  37
ATOM     37  C   UNL     1      -0.034   7.674   5.939  1.00  0.00     0.039 A 
ATOM     38  C   UNL     1      -0.809   8.237   6.968  1.00  0.00     0.014 A 
ATOM     39  C   UNL     1       1.359   7.715   6.053  1.00  0.00     0.014 A 
ATOM     40  C   UNL     1      -0.213   8.763   8.118  1.00  0.00     0.010 A 
ATOM     41  C   UNL     1       1.961   8.223   7.222  1.00  0.00     0.010 A 
ATOM     42  C   UNL     1       1.178   8.719   8.278  1.00  0.00    -0.014 A 
BRANCH  42  43
ATOM     43  C   UNL     1       1.766   9.014   9.614  1.00  0.00     0.031 A 
ATOM     44  C   UNL     1       2.546  10.265   9.896  1.00  0.00     0.074 A 
ATOM     45  C   UNL     1       1.587   8.097  10.586  1.00  0.00     0.049 A 
ATOM     46  N   UNL     1       3.068  10.671  11.028  1.00  0.00    -0.248 NA
ATOM     47  C   UNL     1       2.783  11.172   8.766  1.00  0.00     0.031 C 
ATOM     48  C   UNL     1       0.885   6.822  10.412  1.00  0.00     0.029 A 
ATOM     49  N   UNL     1       1.972   8.084  11.903  1.00  0.00    -0.354 N 
ATOM     50  C   UNL     1       3.700  11.877  10.749  1.00  0.00     0.074 A 
ATOM     51  C   UNL     1       3.519  12.123   9.332  1.00  0.00     0.031 C 
ATOM     52  C   UNL     1       0.876   6.160  11.577  1.00  0.00     0.029 A 
ATOM     53  C   UNL     1       1.592   6.945  12.574  1.00  0.00     0.049 A 
ATOM     54  H   UNL     1       2.472   8.818  12.327  1.00  0.00     0.167 HD
ATOM     55  C   UNL     1       4.364  12.700  11.601  1.00  0.00     0.037 A 
ATOM     56  C   UNL     1       1.798   6.571  13.850  1.00  0.00     0.037 A 
ATOM     57  C   UNL     1       4.539  12.439  13.010  1.00  0.00     0.049 A 
ATOM     58  C   UNL     1       2.520   7.511  14.773  1.00  0.00     0.074 A 
ATOM     59  C   UNL     1       5.143  13.236  13.969  1.00  0.00     0.029 A 
ATOM     60  N   UNL     1       4.123  11.285  13.660  1.00  0.00    -0.354 N 
ATOM     61  N   UNL     1       3.028   8.691  14.514  1.00  0.00    -0.248 NA
ATOM     62  C   UNL     1       2.682   7.076  16.166  1.00  0.00     0.031 C 
ATOM     63  C   UNL     1       5.136  12.544  15.185  1.00  0.00     0.029 A 
ATOM     64  C   UNL     1       4.481  11.338  14.999  1.00  0.00     0.049 A 
ATOM     65  H   UNL     1       3.644  10.539  13.233  1.00  0.00     0.167 HD
ATOM     66  C   UNL     1       3.551   9.151  15.714  1.00  0.00     0.074 A 
ATOM     67  C   UNL     1       3.277   8.131  16.706  1.00  0.00     0.031 C 
ATOM     68  C   UNL     1       4.201  10.312  15.972  1.00  0.00     0.037 A 
BRANCH  55  69
ATOM     69  C   UNL     1       4.965  13.958  11.037  1.00  0.00     0.057 A 
ATOM     70  C   UNL     1       4.173  15.039  10.626  1.00  0.00     0.134 A 
ATOM     71  C   UNL     1       6.356  14.117  10.962  1.00  0.00     0.134 A 
ATOM     72  F   UNL     1       2.835  14.956  10.670  1.00  0.00    -0.206 F 
ATOM     73  C   UNL     1       4.741  16.220  10.140  1.00  0.00     0.040 A 
ATOM     74  C   UNL     1       6.935  15.301  10.500  1.00  0.00     0.040 A 
ATOM     75  F   UNL     1       7.176  13.130  11.352  1.00  0.00    -0.206 F 
ATOM     76  C   UNL     1       6.126  16.355  10.082  1.00  0.00     0.006 A 
ENDBRANCH  55  69
BRANCH  56  77
ATOM     77  C   UNL     1       1.297   5.257  14.329  1.00  0.00     0.057 A 
ATOM     78  C   UNL     1       0.243   5.170  15.245  1.00  0.00     0.134 A 
ATOM     79  C   UNL     1       1.857   4.056  13.875  1.00  0.00     0.134 A 
ATOM     80  F   UNL     1      -0.326   6.284  15.727  1.00  0.00    -0.206 F 
ATOM     81  C   UNL     1      -0.221   3.938  15.711  1.00  0.00     0.040 A 
ATOM     82  C   UNL     1       1.384   2.817  14.311  1.00  0.00     0.040 A 
ATOM     83  F   UNL     1       2.861   4.069  12.986  1.00  0.00    -0.206 F 
ATOM     84  C   UNL     1       0.346   2.757  15.239  1.00  0.00     0.006 A 
ENDBRANCH  56  77
BRANCH  68  85
ATOM     85  C   UNL     1       4.633  10.545  17.390  1.00  0.00     0.057 A 
ATOM     86  C   UNL     1       5.686   9.825  17.971  1.00  0.00     0.134 A 
ATOM     87  C   UNL     1       3.997  11.511  18.179  1.00  0.00     0.134 A 
ATOM     88  F   UNL     1       6.325   8.874  17.273  1.00  0.00    -0.206 F 
ATOM     89  C   UNL     1       6.071  10.038  19.295  1.00  0.00     0.040 A 
ATOM     90  C   UNL     1       4.391  11.752  19.496  1.00  0.00     0.040 A 
ATOM     91  F   UNL     1       2.985  12.239  17.682  1.00  0.00    -0.206 F 
ATOM     92  C   UNL     1       5.426  11.009  20.059  1.00  0.00     0.006 A 
ENDBRANCH  68  85
ENDBRANCH  42  43
ENDBRANCH  34  37
ENDBRANCH  32  33
ENDBRANCH  31  32
ENDBRANCH  30  31
ENDBRANCH   3  30
TORSDOF 16
