REMARK SMILES CCOc1ccc([C@H](C)[C@](O)(C(=O)NCCCNC(=O)c2ccc(-c3c4nc(c(-c5c(F)cccc5F)c5ccc([nH]5)c(-c5c(F)cccc5F)c5nc(c(-c6c(F)cccc6F)c6ccc3[nH]6)C=C5)C=C4)cc2)C(C)C)cc1
REMARK SMILES IDX 15 1 14 2 12 3 13 4 10 6 8 7 9 8 7 9 4 10 5 11 79 12 6 13
REMARK SMILES IDX 78 14 3 15 2 16 1 17 75 18 76 19 77 20 11 21 16 23 17 24
REMARK SMILES IDX 18 25 19 26 20 28 21 29 22 30 74 31 23 32 73 33 24 34 25 35
REMARK SMILES IDX 26 36 67 37 27 38 72 39 66 40 68 41 28 42 71 43 65 44 64 45
REMARK SMILES IDX 29 47 55 48 38 49 54 50 39 51 42 52 53 53 69 54 40 55 41 56
REMARK SMILES IDX 52 58 70 59 43 60 30 61 31 62 36 63 32 64 33 65 35 66 37 67
REMARK SMILES IDX 34 68 56 69 57 70 62 71 58 72 59 73 61 74 63 75 60 76 44 77
REMARK SMILES IDX 45 78 50 79 46 80 47 81 49 82 51 83 48 84
REMARK H PARENT 14 5 11 22 18 27 68 46 42 57
REMARK Flexibility Score: inf
ROOT
ATOM      1  C   UNL     1       8.830  -0.217   1.364  1.00  0.00     0.117 C 
ENDROOT
BRANCH   1   2
ATOM      2  N   UNL     1       9.227  -0.768   2.648  1.00  0.00    -0.354 N 
ATOM      3  C   UNL     1       8.572  -1.390   3.663  1.00  0.00     0.252 C 
ATOM      4  O   UNL     1       9.313  -1.832   4.549  1.00  0.00    -0.272 OA
ATOM      5  H   UNL     1      10.191  -0.669   2.822  1.00  0.00     0.163 HD
BRANCH   3   6
ATOM      6  C   UNL     1       7.010  -1.619   3.667  1.00  0.00     0.151 C 
BRANCH   6   7
ATOM      7  C   UNL     1       6.715  -2.595   2.446  1.00  0.00     0.058 C 
ATOM      8  C   UNL     1       7.601  -3.868   2.565  1.00  0.00     0.016 C 
BRANCH   7   9
ATOM      9  C   UNL     1       5.288  -2.914   1.987  1.00  0.00    -0.041 A 
ATOM     10  C   UNL     1       2.712  -3.796   1.249  1.00  0.00     0.119 A 
ATOM     11  C   UNL     1       2.860  -2.699   2.088  1.00  0.00     0.047 A 
ATOM     12  C   UNL     1       3.830  -4.335   0.633  1.00  0.00     0.047 A 
ATOM     13  C   UNL     1       4.142  -2.241   2.423  1.00  0.00     0.008 A 
ATOM     14  C   UNL     1       5.100  -3.894   0.995  1.00  0.00     0.008 A 
BRANCH  10  15
ATOM     15  O   UNL     1       1.452  -4.258   0.998  1.00  0.00    -0.494 OA
BRANCH  15  16
ATOM     16  C   UNL     1       1.288  -5.646   1.331  1.00  0.00     0.226 C 
ATOM     17  C   UNL     1       1.470  -6.539   0.112  1.00  0.00     0.049 C 
ENDBRANCH  15  16
ENDBRANCH  10  15
ENDBRANCH   7   9
ENDBRANCH   6   7
BRANCH   6  18
ATOM     18  C   UNL     1       6.633  -2.164   5.110  1.00  0.00     0.025 C 
ATOM     19  C   UNL     1       6.885  -1.108   6.212  1.00  0.00     0.011 C 
ATOM     20  C   UNL     1       5.193  -2.646   5.307  1.00  0.00     0.011 C 
ENDBRANCH   6  18
BRANCH   6  21
ATOM     21  O   UNL     1       6.327  -0.370   3.506  1.00  0.00    -0.379 OA
ATOM     22  H   UNL     1       6.522   0.206   4.262  1.00  0.00     0.212 HD
ENDBRANCH   6  21
ENDBRANCH   3   6
ENDBRANCH   1   2
BRANCH   1  23
ATOM     23  C   UNL     1       9.259   1.233   1.224  1.00  0.00     0.042 C 
BRANCH  23  24
ATOM     24  C   UNL     1      10.763   1.446   1.335  1.00  0.00     0.118 C 
BRANCH  24  25
ATOM     25  N   UNL     1      11.508   0.811   0.257  1.00  0.00    -0.352 N 
ATOM     26  C   UNL     1      12.260   1.376  -0.748  1.00  0.00     0.251 C 
ATOM     27  H   UNL     1      11.467  -0.172   0.244  1.00  0.00     0.163 HD
ATOM     28  O   UNL     1      12.666   0.684  -1.671  1.00  0.00    -0.269 OA
BRANCH  26  29
ATOM     29  C   UNL     1      12.550   2.826  -0.723  1.00  0.00     0.039 A 
ATOM     30  C   UNL     1      12.438   3.559  -1.906  1.00  0.00     0.014 A 
ATOM     31  C   UNL     1      12.918   3.462   0.464  1.00  0.00     0.014 A 
ATOM     32  C   UNL     1      12.617   4.944  -1.879  1.00  0.00     0.010 A 
ATOM     33  C   UNL     1      12.991   4.849   0.510  1.00  0.00     0.010 A 
ATOM     34  C   UNL     1      12.850   5.606  -0.662  1.00  0.00    -0.014 A 
BRANCH  34  35
ATOM     35  C   UNL     1      12.962   7.085  -0.593  1.00  0.00     0.031 A 
ATOM     36  C   UNL     1      14.236   7.722  -0.108  1.00  0.00     0.074 A 
ATOM     37  C   UNL     1      11.898   7.852  -0.901  1.00  0.00     0.049 A 
ATOM     38  N   UNL     1      14.504   8.988   0.091  1.00  0.00    -0.248 NA
ATOM     39  C   UNL     1      15.345   6.815   0.229  1.00  0.00     0.031 C 
ATOM     40  C   UNL     1      10.590   7.354  -1.333  1.00  0.00     0.029 A 
ATOM     41  N   UNL     1      11.745   9.216  -0.889  1.00  0.00    -0.354 N 
ATOM     42  C   UNL     1      15.801   9.024   0.589  1.00  0.00     0.074 A 
ATOM     43  C   UNL     1      16.242   7.654   0.723  1.00  0.00     0.031 C 
ATOM     44  C   UNL     1       9.779   8.397  -1.573  1.00  0.00     0.029 A 
ATOM     45  C   UNL     1      10.492   9.634  -1.271  1.00  0.00     0.049 A 
ATOM     46  H   UNL     1      12.464   9.836  -0.632  1.00  0.00     0.167 HD
ATOM     47  C   UNL     1      16.566  10.103   0.880  1.00  0.00     0.037 A 
ATOM     48  C   UNL     1       9.976  10.874  -1.360  1.00  0.00     0.037 A 
ATOM     49  C   UNL     1      16.133  11.465   0.721  1.00  0.00     0.049 A 
ATOM     50  C   UNL     1      10.841  12.055  -1.017  1.00  0.00     0.074 A 
ATOM     51  C   UNL     1      16.853  12.628   0.927  1.00  0.00     0.029 A 
ATOM     52  N   UNL     1      14.861  11.847   0.319  1.00  0.00    -0.354 N 
ATOM     53  N   UNL     1      12.091  12.078  -0.622  1.00  0.00    -0.248 NA
ATOM     54  C   UNL     1      10.226  13.385  -1.138  1.00  0.00     0.031 C 
ATOM     55  C   UNL     1      16.003  13.714   0.701  1.00  0.00     0.029 A 
ATOM     56  C   UNL     1      14.769  13.229   0.298  1.00  0.00     0.049 A 
ATOM     57  H   UNL     1      14.133  11.228   0.084  1.00  0.00     0.167 HD
ATOM     58  C   UNL     1      12.420  13.419  -0.474  1.00  0.00     0.074 A 
ATOM     59  C   UNL     1      11.243  14.180  -0.838  1.00  0.00     0.031 C 
ATOM     60  C   UNL     1      13.591  13.972  -0.074  1.00  0.00     0.037 A 
BRANCH  47  61
ATOM     61  C   UNL     1      17.953   9.849   1.397  1.00  0.00     0.057 A 
ATOM     62  C   UNL     1      18.959   9.309   0.584  1.00  0.00     0.134 A 
ATOM     63  C   UNL     1      18.296  10.175   2.715  1.00  0.00     0.134 A 
ATOM     64  F   UNL     1      18.695   8.962  -0.685  1.00  0.00    -0.206 F 
ATOM     65  C   UNL     1      20.246   9.075   1.071  1.00  0.00     0.040 A 
ATOM     66  C   UNL     1      19.588   9.975   3.205  1.00  0.00     0.040 A 
ATOM     67  F   UNL     1      17.384  10.702   3.547  1.00  0.00    -0.206 F 
ATOM     68  C   UNL     1      20.565   9.416   2.384  1.00  0.00     0.006 A 
ENDBRANCH  47  61
BRANCH  48  69
ATOM     69  C   UNL     1       8.573  11.067  -1.811  1.00  0.00     0.057 A 
ATOM     70  C   UNL     1       8.287  11.658  -3.047  1.00  0.00     0.134 A 
ATOM     71  C   UNL     1       7.488  10.679  -1.016  1.00  0.00     0.134 A 
ATOM     72  F   UNL     1       9.284  12.067  -3.846  1.00  0.00    -0.206 F 
ATOM     73  C   UNL     1       6.974  11.877  -3.468  1.00  0.00     0.040 A 
ATOM     74  C   UNL     1       6.170  10.867  -1.437  1.00  0.00     0.040 A 
ATOM     75  F   UNL     1       7.693  10.099   0.175  1.00  0.00    -0.206 F 
ATOM     76  C   UNL     1       5.911  11.476  -2.663  1.00  0.00     0.006 A 
ENDBRANCH  48  69
BRANCH  60  77
ATOM     77  C   UNL     1      13.671  15.470  -0.041  1.00  0.00     0.057 A 
ATOM     78  C   UNL     1      13.000  16.227   0.927  1.00  0.00     0.134 A 
ATOM     79  C   UNL     1      14.472  16.160  -0.961  1.00  0.00     0.134 A 
ATOM     80  F   UNL     1      12.207  15.629   1.829  1.00  0.00    -0.206 F 
ATOM     81  C   UNL     1      13.104  17.619   0.965  1.00  0.00     0.040 A 
ATOM     82  C   UNL     1      14.607  17.548  -0.915  1.00  0.00     0.040 A 
ATOM     83  F   UNL     1      15.150  15.494  -1.908  1.00  0.00    -0.206 F 
ATOM     84  C   UNL     1      13.917  18.282   0.047  1.00  0.00     0.006 A 
ENDBRANCH  60  77
ENDBRANCH  34  35
ENDBRANCH  26  29
ENDBRANCH  24  25
ENDBRANCH  23  24
ENDBRANCH   1  23
TORSDOF 16
