REMARK SMILES NC(=O)c1ccc(C[N@H+]2CCC[C@@H](C(=O)NCCCNC(=O)c3ccc(-c4c5nc(c(-c6c(F)cccc6F)c6ccc([nH]6)c(-c6c(F)cccc6F)c6nc(c(-c7c(F)cccc7F)c7ccc4[nH]7)C=C6)C=C5)cc3)C2)cc1
REMARK SMILES IDX 17 1 16 2 14 3 15 4 13 6 9 7 10 8 77 9 11 11 12 12 8 13 7 14
REMARK SMILES IDX 4 15 5 16 79 17 6 18 78 19 2 20 1 21 3 24 18 25 19 26 20 27
REMARK SMILES IDX 21 28 22 30 23 31 24 32 76 33 25 34 75 35 26 36 27 37 28 38
REMARK SMILES IDX 69 39 29 40 74 41 68 42 70 43 30 44 73 45 67 46 66 47 31 49
REMARK SMILES IDX 57 50 40 51 56 52 41 53 44 54 55 55 71 56 42 57 43 58 54 60
REMARK SMILES IDX 72 61 45 62 32 63 33 64 38 65 34 66 35 67 37 68 39 69 36 70
REMARK SMILES IDX 58 71 59 72 64 73 60 74 61 75 63 76 65 77 62 78 46 79 47 80
REMARK SMILES IDX 52 81 48 82 49 83 51 84 53 85 50 86
REMARK H PARENT 16 5 9 10 1 22 1 23 20 29 70 48 44 59
REMARK Flexibility Score: inf
ROOT
ATOM      1  C   UNL     1      -1.344  -7.630   8.170  1.00  0.00     0.117 C 
ENDROOT
BRANCH   1   2
ATOM      2  N   UNL     1      -1.923  -6.909   7.054  1.00  0.00    -0.356 N 
ATOM      3  C   UNL     1      -1.664  -5.657   6.590  1.00  0.00     0.228 C 
ATOM      4  O   UNL     1      -2.417  -5.202   5.727  1.00  0.00    -0.275 OA
ATOM      5  H   UNL     1      -2.611  -7.403   6.552  1.00  0.00     0.163 HD
BRANCH   3   6
ATOM      6  C   UNL     1      -0.453  -4.889   7.088  1.00  0.00     0.133 C 
ATOM      7  N   UNL     1       1.633  -3.849   6.213  1.00  0.00    -0.331 N 
ATOM      8  C   UNL     1       1.265  -2.552   6.794  1.00  0.00     0.262 C 
ATOM      9  C   UNL     1       0.439  -4.634   5.870  1.00  0.00     0.276 C 
ATOM     10  H   UNL     1       2.142  -4.361   6.934  1.00  0.00     0.348 HD
ATOM     11  C   UNL     1       0.379  -2.728   8.034  1.00  0.00     0.062 C 
ATOM     12  C   UNL     1      -0.864  -3.564   7.729  1.00  0.00     0.025 C 
BRANCH   7  13
ATOM     13  C   UNL     1       2.574  -3.733   5.079  1.00  0.00     0.299 C 
BRANCH  13  14
ATOM     14  C   UNL     1       2.079  -2.974   3.860  1.00  0.00     0.006 A 
ATOM     15  C   UNL     1       0.985  -1.506   1.729  1.00  0.00     0.039 A 
ATOM     16  C   UNL     1       0.624  -2.841   1.914  1.00  0.00     0.014 A 
ATOM     17  C   UNL     1       1.917  -0.908   2.584  1.00  0.00     0.014 A 
ATOM     18  C   UNL     1       1.194  -3.577   2.951  1.00  0.00     0.010 A 
ATOM     19  C   UNL     1       2.454  -1.639   3.649  1.00  0.00     0.010 A 
BRANCH  15  20
ATOM     20  C   UNL     1       0.327  -0.745   0.643  1.00  0.00     0.248 C 
ATOM     21  N   UNL     1       1.094   0.151  -0.038  1.00  0.00    -0.366 N 
ATOM     22  H   UNL     1       0.701   0.681  -0.768  1.00  0.00     0.159 HD
ATOM     23  H   UNL     1       2.042   0.269   0.201  1.00  0.00     0.159 HD
ATOM     24  O   UNL     1      -0.849  -0.937   0.345  1.00  0.00    -0.270 OA
ENDBRANCH  15  20
ENDBRANCH  13  14
ENDBRANCH   7  13
ENDBRANCH   3   6
ENDBRANCH   1   2
BRANCH   1  25
ATOM     25  C   UNL     1      -2.225  -7.522   9.410  1.00  0.00     0.042 C 
BRANCH  25  26
ATOM     26  C   UNL     1      -3.610  -8.143   9.236  1.00  0.00     0.118 C 
BRANCH  26  27
ATOM     27  N   UNL     1      -3.552  -9.567   8.934  1.00  0.00    -0.352 N 
ATOM     28  C   UNL     1      -4.121 -10.638   9.572  1.00  0.00     0.251 C 
ATOM     29  H   UNL     1      -3.015  -9.797   8.141  1.00  0.00     0.163 HD
ATOM     30  O   UNL     1      -3.785 -11.775   9.254  1.00  0.00    -0.269 OA
BRANCH  28  31
ATOM     31  C   UNL     1      -5.123 -10.443  10.642  1.00  0.00     0.039 A 
ATOM     32  C   UNL     1      -5.098 -11.303  11.743  1.00  0.00     0.014 A 
ATOM     33  C   UNL     1      -6.114  -9.462  10.546  1.00  0.00     0.014 A 
ATOM     34  C   UNL     1      -6.036 -11.152  12.766  1.00  0.00     0.010 A 
ATOM     35  C   UNL     1      -6.999  -9.260  11.603  1.00  0.00     0.010 A 
ATOM     36  C   UNL     1      -6.979 -10.113  12.716  1.00  0.00    -0.014 A 
BRANCH  36  37
ATOM     37  C   UNL     1      -7.961  -9.923  13.812  1.00  0.00     0.031 A 
ATOM     38  C   UNL     1      -9.431 -10.107  13.558  1.00  0.00     0.074 A 
ATOM     39  C   UNL     1      -7.530  -9.547  15.031  1.00  0.00     0.049 A 
ATOM     40  N   UNL     1     -10.436  -9.987  14.389  1.00  0.00    -0.248 NA
ATOM     41  C   UNL     1      -9.829 -10.444  12.183  1.00  0.00     0.031 C 
ATOM     42  C   UNL     1      -6.135  -9.292  15.393  1.00  0.00     0.029 A 
ATOM     43  N   UNL     1      -8.222  -9.321  16.194  1.00  0.00    -0.354 N 
ATOM     44  C   UNL     1     -11.580 -10.216  13.636  1.00  0.00     0.074 A 
ATOM     45  C   UNL     1     -11.150 -10.426  12.270  1.00  0.00     0.031 C 
ATOM     46  C   UNL     1      -6.069  -8.988  16.699  1.00  0.00     0.029 A 
ATOM     47  C   UNL     1      -7.418  -8.995  17.258  1.00  0.00     0.049 A 
ATOM     48  H   UNL     1      -9.203  -9.385  16.259  1.00  0.00     0.167 HD
ATOM     49  C   UNL     1     -12.870 -10.273  14.046  1.00  0.00     0.037 A 
ATOM     50  C   UNL     1      -7.732  -8.743  18.542  1.00  0.00     0.037 A 
ATOM     51  C   UNL     1     -13.292 -10.091  15.410  1.00  0.00     0.049 A 
ATOM     52  C   UNL     1      -9.169  -8.808  18.974  1.00  0.00     0.074 A 
ATOM     53  C   UNL     1     -14.565 -10.200  15.942  1.00  0.00     0.029 A 
ATOM     54  N   UNL     1     -12.447  -9.756  16.458  1.00  0.00    -0.354 N 
ATOM     55  N   UNL     1     -10.233  -9.104  18.268  1.00  0.00    -0.248 NA
ATOM     56  C   UNL     1      -9.447  -8.507  20.386  1.00  0.00     0.031 C 
ATOM     57  C   UNL     1     -14.497  -9.888  17.305  1.00  0.00     0.029 A 
ATOM     58  C   UNL     1     -13.175  -9.629  17.630  1.00  0.00     0.049 A 
ATOM     59  H   UNL     1     -11.475  -9.627  16.381  1.00  0.00     0.167 HD
ATOM     60  C   UNL     1     -11.302  -9.059  19.154  1.00  0.00     0.074 A 
ATOM     61  C   UNL     1     -10.756  -8.711  20.450  1.00  0.00     0.031 C 
ATOM     62  C   UNL     1     -12.616  -9.288  18.914  1.00  0.00     0.037 A 
BRANCH  49  63
ATOM     63  C   UNL     1     -13.912 -10.542  12.999  1.00  0.00     0.057 A 
ATOM     64  C   UNL     1     -14.021 -11.787  12.364  1.00  0.00     0.134 A 
ATOM     65  C   UNL     1     -14.819  -9.545  12.620  1.00  0.00     0.134 A 
ATOM     66  F   UNL     1     -13.176 -12.783  12.671  1.00  0.00    -0.206 F 
ATOM     67  C   UNL     1     -14.967 -12.018  11.364  1.00  0.00     0.040 A 
ATOM     68  C   UNL     1     -15.789  -9.773  11.642  1.00  0.00     0.040 A 
ATOM     69  F   UNL     1     -14.777  -8.332  13.192  1.00  0.00    -0.206 F 
ATOM     70  C   UNL     1     -15.857 -11.009  11.003  1.00  0.00     0.006 A 
ENDBRANCH  49  63
BRANCH  50  71
ATOM     71  C   UNL     1      -6.655  -8.466  19.524  1.00  0.00     0.057 A 
ATOM     72  C   UNL     1      -6.311  -9.416  20.492  1.00  0.00     0.134 A 
ATOM     73  C   UNL     1      -5.937  -7.265  19.513  1.00  0.00     0.134 A 
ATOM     74  F   UNL     1      -6.975 -10.580  20.561  1.00  0.00    -0.206 F 
ATOM     75  C   UNL     1      -5.300  -9.179  21.423  1.00  0.00     0.040 A 
ATOM     76  C   UNL     1      -4.909  -7.022  20.424  1.00  0.00     0.040 A 
ATOM     77  F   UNL     1      -6.214  -6.319  18.604  1.00  0.00    -0.206 F 
ATOM     78  C   UNL     1      -4.591  -7.979  21.387  1.00  0.00     0.006 A 
ENDBRANCH  50  71
BRANCH  62  79
ATOM     79  C   UNL     1     -13.549  -9.208  20.086  1.00  0.00     0.057 A 
ATOM     80  C   UNL     1     -13.903  -7.985  20.668  1.00  0.00     0.134 A 
ATOM     81  C   UNL     1     -14.127 -10.369  20.616  1.00  0.00     0.134 A 
ATOM     82  F   UNL     1     -13.373  -6.838  20.216  1.00  0.00    -0.206 F 
ATOM     83  C   UNL     1     -14.782  -7.920  21.751  1.00  0.00     0.040 A 
ATOM     84  C   UNL     1     -15.027 -10.315  21.681  1.00  0.00     0.040 A 
ATOM     85  F   UNL     1     -13.835 -11.572  20.100  1.00  0.00    -0.206 F 
ATOM     86  C   UNL     1     -15.352  -9.088  22.256  1.00  0.00     0.006 A 
ENDBRANCH  62  79
ENDBRANCH  36  37
ENDBRANCH  28  31
ENDBRANCH  26  27
ENDBRANCH  25  26
ENDBRANCH   1  25
TORSDOF 13
