REMARK SMILES O=C(C[C@@H](c1c[nH]c2ccccc12)C(F)(F)F)NCCCNC(=O)c1ccc(-c2c3nc(c(-c4c(F)cccc4F)c4ccc([nH]4)c(-c4c(F)cccc4F)c4nc(c(-c5c(F)cccc5F)c5ccc2[nH]5)C=C4)C=C3)cc1
REMARK SMILES IDX 20 1 19 2 18 3 1 4 2 5 3 7 4 8 5 9 6 10 13 11 7 12 8 13
REMARK SMILES IDX 12 14 9 16 11 17 10 18 14 19 15 20 16 21 17 22 21 23 22 24
REMARK SMILES IDX 23 25 24 27 25 28 26 29 78 30 27 31 77 32 28 33 29 34 30 35
REMARK SMILES IDX 71 36 31 37 76 38 70 39 72 40 32 41 75 42 69 43 68 44 33 46
REMARK SMILES IDX 59 47 42 48 58 49 43 50 46 51 57 52 73 53 44 54 45 55 56 57
REMARK SMILES IDX 74 58 47 59 34 60 35 61 40 62 36 63 37 64 39 65 41 66 38 67
REMARK SMILES IDX 60 68 61 69 66 70 62 71 63 72 65 73 67 74 64 75 48 76 49 77
REMARK SMILES IDX 54 78 50 79 51 80 53 81 55 82 52 83
REMARK H PARENT 18 6 7 15 22 26 72 45 46 56
REMARK Flexibility Score: inf
ROOT
ATOM      1  C   UNL     1       2.449   2.219   2.825  1.00  0.00     0.042 C 
ENDROOT
BRANCH   1   2
ATOM      2  C   UNL     1       2.132   2.005   1.351  1.00  0.00     0.117 C 
BRANCH   2   3
ATOM      3  N   UNL     1       2.801   0.842   0.808  1.00  0.00    -0.356 N 
ATOM      4  O   UNL     1       1.055   0.112  -0.494  1.00  0.00    -0.275 OA
ATOM      5  C   UNL     1       2.218   0.013  -0.119  1.00  0.00     0.220 C 
ATOM      6  H   UNL     1       3.713   0.636   1.117  1.00  0.00     0.163 HD
BRANCH   5   7
ATOM      7  C   UNL     1       3.158  -1.027  -0.689  1.00  0.00     0.117 C 
BRANCH   7   8
ATOM      8  C   UNL     1       4.028  -0.419  -1.802  1.00  0.00     0.136 C 
BRANCH   8   9
ATOM      9  C   UNL     1       5.079   0.533  -1.253  1.00  0.00    -0.010 A 
ATOM     10  C   UNL     1       5.028   1.911  -1.385  1.00  0.00     0.087 A 
ATOM     11  C   UNL     1       6.243   0.245  -0.458  1.00  0.00     0.003 A 
ATOM     12  N   UNL     1       6.081   2.459  -0.709  1.00  0.00    -0.361 N 
ATOM     13  C   UNL     1       6.830   1.468  -0.123  1.00  0.00     0.046 A 
ATOM     14  C   UNL     1       6.851  -0.931   0.031  1.00  0.00     0.010 A 
ATOM     15  H   UNL     1       6.275   3.423  -0.650  1.00  0.00     0.166 HD
ATOM     16  C   UNL     1       7.981   1.573   0.668  1.00  0.00     0.026 A 
ATOM     17  C   UNL     1       8.015  -0.845   0.806  1.00  0.00     0.001 A 
ATOM     18  C   UNL     1       8.569   0.391   1.121  1.00  0.00     0.002 A 
ENDBRANCH   8   9
BRANCH   8  19
ATOM     19  C   UNL     1       4.574  -1.525  -2.698  1.00  0.00     0.396 C 
ATOM     20  F   UNL     1       3.558  -2.143  -3.351  1.00  0.00    -0.170 F 
ATOM     21  F   UNL     1       5.414  -1.050  -3.642  1.00  0.00    -0.170 F 
ATOM     22  F   UNL     1       5.225  -2.482  -2.002  1.00  0.00    -0.170 F 
ENDBRANCH   8  19
ENDBRANCH   7   8
ENDBRANCH   5   7
ENDBRANCH   2   3
ENDBRANCH   1   2
BRANCH   1  23
ATOM     23  C   UNL     1       3.926   2.438   3.144  1.00  0.00     0.118 C 
BRANCH  23  24
ATOM     24  N   UNL     1       4.463   3.675   2.600  1.00  0.00    -0.352 N 
ATOM     25  C   UNL     1       5.223   4.644   3.210  1.00  0.00     0.251 C 
ATOM     26  H   UNL     1       4.251   3.844   1.653  1.00  0.00     0.163 HD
ATOM     27  O   UNL     1       5.521   5.662   2.588  1.00  0.00    -0.269 OA
BRANCH  25  28
ATOM     28  C   UNL     1       5.658   4.488   4.618  1.00  0.00     0.039 A 
ATOM     29  C   UNL     1       5.538   5.581   5.483  1.00  0.00     0.014 A 
ATOM     30  C   UNL     1       6.185   3.284   5.093  1.00  0.00     0.014 A 
ATOM     31  C   UNL     1       5.881   5.446   6.832  1.00  0.00     0.010 A 
ATOM     32  C   UNL     1       6.454   3.128   6.453  1.00  0.00     0.010 A 
ATOM     33  C   UNL     1       6.306   4.207   7.339  1.00  0.00    -0.014 A 
BRANCH  33  34
ATOM     34  C   UNL     1       6.590   4.027   8.790  1.00  0.00     0.031 A 
ATOM     35  C   UNL     1       7.975   3.670   9.262  1.00  0.00     0.074 A 
ATOM     36  C   UNL     1       5.589   4.137   9.687  1.00  0.00     0.049 A 
ATOM     37  N   UNL     1       8.400   3.439  10.479  1.00  0.00    -0.248 NA
ATOM     38  C   UNL     1       9.012   3.532   8.229  1.00  0.00     0.031 C 
ATOM     39  C   UNL     1       4.192   4.432   9.363  1.00  0.00     0.029 A 
ATOM     40  N   UNL     1       5.592   4.008  11.054  1.00  0.00    -0.354 N 
ATOM     41  C   UNL     1       9.747   3.120  10.356  1.00  0.00     0.074 A 
ATOM     42  C   UNL     1      10.055   3.133   8.942  1.00  0.00     0.031 C 
ATOM     43  C   UNL     1       3.480   4.488  10.500  1.00  0.00     0.029 A 
ATOM     44  C   UNL     1       4.357   4.194  11.629  1.00  0.00     0.049 A 
ATOM     45  H   UNL     1       6.402   3.800  11.574  1.00  0.00     0.167 HD
ATOM     46  C   UNL     1      10.653   2.864  11.332  1.00  0.00     0.037 A 
ATOM     47  C   UNL     1       3.971   4.130  12.918  1.00  0.00     0.037 A 
ATOM     48  C   UNL     1      10.353   2.867  12.740  1.00  0.00     0.049 A 
ATOM     49  C   UNL     1       4.992   3.827  13.980  1.00  0.00     0.074 A 
ATOM     50  C   UNL     1      11.217   2.673  13.805  1.00  0.00     0.029 A 
ATOM     51  N   UNL     1       9.092   3.067  13.281  1.00  0.00    -0.354 N 
ATOM     52  N   UNL     1       6.277   3.600  13.853  1.00  0.00    -0.248 NA
ATOM     53  C   UNL     1       4.509   3.779  15.368  1.00  0.00     0.031 C 
ATOM     54  C   UNL     1      10.470   2.704  14.987  1.00  0.00     0.029 A 
ATOM     55  C   UNL     1       9.150   2.975  14.663  1.00  0.00     0.049 A 
ATOM     56  H   UNL     1       8.276   3.246  12.761  1.00  0.00     0.167 HD
ATOM     57  C   UNL     1       6.760   3.414  15.143  1.00  0.00     0.074 A 
ATOM     58  C   UNL     1       5.633   3.571  16.038  1.00  0.00     0.031 C 
ATOM     59  C   UNL     1       8.024   3.139  15.548  1.00  0.00     0.037 A 
BRANCH  46  60
ATOM     60  C   UNL     1      12.062   2.559  10.907  1.00  0.00     0.057 A 
ATOM     61  C   UNL     1      12.896   3.539  10.352  1.00  0.00     0.134 A 
ATOM     62  C   UNL     1      12.605   1.281  11.092  1.00  0.00     0.134 A 
ATOM     63  F   UNL     1      12.436   4.782  10.139  1.00  0.00    -0.206 F 
ATOM     64  C   UNL     1      14.208   3.253   9.971  1.00  0.00     0.040 A 
ATOM     65  C   UNL     1      13.925   0.991  10.742  1.00  0.00     0.040 A 
ATOM     66  F   UNL     1      11.866   0.297  11.625  1.00  0.00    -0.206 F 
ATOM     67  C   UNL     1      14.728   1.976  10.173  1.00  0.00     0.006 A 
ENDBRANCH  46  60
BRANCH  47  68
ATOM     68  C   UNL     1       2.553   4.377  13.284  1.00  0.00     0.057 A 
ATOM     69  C   UNL     1       2.179   5.520  14.000  1.00  0.00     0.134 A 
ATOM     70  C   UNL     1       1.541   3.470  12.945  1.00  0.00     0.134 A 
ATOM     71  F   UNL     1       3.106   6.416  14.372  1.00  0.00    -0.206 F 
ATOM     72  C   UNL     1       0.857   5.744  14.386  1.00  0.00     0.040 A 
ATOM     73  C   UNL     1       0.209   3.695  13.299  1.00  0.00     0.040 A 
ATOM     74  F   UNL     1       1.831   2.358  12.254  1.00  0.00    -0.206 F 
ATOM     75  C   UNL     1      -0.134   4.831  14.030  1.00  0.00     0.006 A 
ENDBRANCH  47  68
BRANCH  59  76
ATOM     76  C   UNL     1       8.266   3.030  17.026  1.00  0.00     0.057 A 
ATOM     77  C   UNL     1       7.789   1.950  17.780  1.00  0.00     0.134 A 
ATOM     78  C   UNL     1       9.015   4.005  17.699  1.00  0.00     0.134 A 
ATOM     79  F   UNL     1       7.055   0.988  17.201  1.00  0.00    -0.206 F 
ATOM     80  C   UNL     1       8.023   1.859  19.154  1.00  0.00     0.040 A 
ATOM     81  C   UNL     1       9.281   3.910  19.065  1.00  0.00     0.040 A 
ATOM     82  F   UNL     1       9.511   5.061  17.036  1.00  0.00    -0.206 F 
ATOM     83  C   UNL     1       8.777   2.838  19.799  1.00  0.00     0.006 A 
ENDBRANCH  59  76
ENDBRANCH  33  34
ENDBRANCH  25  28
ENDBRANCH  23  24
ENDBRANCH   1  23
TORSDOF 13
