REMARK SMILES O=C(CCc1cccnc1)Nc1cccc(F)c1C(=O)NCCCNC(=O)c1ccc(-c2c3nc(c(-c4c(F)cccc4F)c4ccc([nH]4)c(-c4c(F)cccc4F)c4nc(c(-c5c(F)cccc5F)c5ccc2[nH]5)C=C4)C=C3)cc1
REMARK SMILES IDX 22 1 21 2 19 3 20 4 18 6 12 7 13 8 14 9 16 10 15 11 17 12
REMARK SMILES IDX 11 13 1 14 2 15 3 17 4 18 5 19 6 20 10 21 7 22 9 23 8 24
REMARK SMILES IDX 23 25 24 26 25 27 26 28 27 30 28 31 29 32 81 33 30 34 80 35
REMARK SMILES IDX 31 36 32 37 33 38 74 39 34 40 79 41 73 42 75 43 35 44 78 45
REMARK SMILES IDX 72 46 71 47 36 49 62 50 45 51 61 52 46 53 49 54 60 55 76 56
REMARK SMILES IDX 47 57 48 58 59 60 77 61 50 62 37 63 38 64 43 65 39 66 40 67
REMARK SMILES IDX 42 68 44 69 41 70 63 71 64 72 69 73 65 74 66 75 68 76 70 77
REMARK SMILES IDX 67 78 51 79 52 80 57 81 53 82 54 83 56 84 58 85 55 86
REMARK H PARENT 21 5 11 16 25 29 75 48 49 59
REMARK Flexibility Score: inf
ROOT
ATOM      1  C   UNL     1       3.364   4.919  -3.997  1.00  0.00     0.118 C 
ENDROOT
BRANCH   1   2
ATOM      2  N   UNL     1       3.590   3.639  -3.340  1.00  0.00    -0.352 N 
ATOM      3  C   UNL     1       2.604   2.826  -2.794  1.00  0.00     0.256 C 
ATOM      4  O   UNL     1       2.580   1.645  -3.134  1.00  0.00    -0.269 OA
ATOM      5  H   UNL     1       4.520   3.322  -3.277  1.00  0.00     0.163 HD
BRANCH   3   6
ATOM      6  C   UNL     1       1.726   3.280  -1.687  1.00  0.00     0.099 A 
ATOM      7  C   UNL     1       1.662   2.572  -0.461  1.00  0.00     0.056 A 
ATOM      8  C   UNL     1       0.767   2.979   0.541  1.00  0.00     0.027 A 
ATOM      9  C   UNL     1      -0.057   4.085   0.349  1.00  0.00     0.005 A 
ATOM     10  C   UNL     1       0.808   4.310  -1.891  1.00  0.00     0.138 A 
ATOM     11  C   UNL     1      -0.040   4.746  -0.873  1.00  0.00     0.040 A 
ATOM     12  F   UNL     1       0.646   4.875  -3.095  1.00  0.00    -0.206 F 
BRANCH   7  13
ATOM     13  N   UNL     1       2.516   1.498  -0.124  1.00  0.00    -0.325 N 
ATOM     14  O   UNL     1       0.935  -0.175  -0.331  1.00  0.00    -0.275 OA
ATOM     15  C   UNL     1       2.087   0.181  -0.096  1.00  0.00     0.224 C 
ATOM     16  H   UNL     1       3.455   1.694   0.100  1.00  0.00     0.169 HD
BRANCH  15  17
ATOM     17  C   UNL     1       3.163  -0.830   0.291  1.00  0.00     0.105 C 
BRANCH  17  18
ATOM     18  C   UNL     1       4.014  -1.350  -0.878  1.00  0.00     0.047 C 
BRANCH  18  19
ATOM     19  C   UNL     1       5.289  -0.575  -1.116  1.00  0.00    -0.029 A 
ATOM     20  C   UNL     1       5.263   0.755  -1.522  1.00  0.00     0.007 A 
ATOM     21  C   UNL     1       6.549  -1.137  -0.967  1.00  0.00     0.114 A 
ATOM     22  C   UNL     1       6.424   1.504  -1.647  1.00  0.00     0.020 A 
ATOM     23  N   UNL     1       7.711  -0.452  -1.115  1.00  0.00    -0.264 NA
ATOM     24  C   UNL     1       7.621   0.857  -1.433  1.00  0.00     0.111 A 
ENDBRANCH  18  19
ENDBRANCH  17  18
ENDBRANCH  15  17
ENDBRANCH   7  13
ENDBRANCH   3   6
ENDBRANCH   1   2
BRANCH   1  25
ATOM     25  C   UNL     1       4.550   5.875  -3.993  1.00  0.00     0.042 C 
BRANCH  25  26
ATOM     26  C   UNL     1       5.693   5.535  -4.944  1.00  0.00     0.118 C 
BRANCH  26  27
ATOM     27  N   UNL     1       5.316   5.577  -6.353  1.00  0.00    -0.352 N 
ATOM     28  C   UNL     1       5.620   6.466  -7.356  1.00  0.00     0.251 C 
ATOM     29  H   UNL     1       4.738   4.832  -6.637  1.00  0.00     0.163 HD
ATOM     30  O   UNL     1       5.038   6.365  -8.440  1.00  0.00    -0.269 OA
BRANCH  28  31
ATOM     31  C   UNL     1       6.607   7.554  -7.170  1.00  0.00     0.039 A 
ATOM     32  C   UNL     1       6.366   8.800  -7.762  1.00  0.00     0.014 A 
ATOM     33  C   UNL     1       7.792   7.351  -6.463  1.00  0.00     0.014 A 
ATOM     34  C   UNL     1       7.268   9.854  -7.574  1.00  0.00     0.010 A 
ATOM     35  C   UNL     1       8.639   8.424  -6.193  1.00  0.00     0.010 A 
ATOM     36  C   UNL     1       8.390   9.688  -6.749  1.00  0.00    -0.014 A 
BRANCH  36  37
ATOM     37  C   UNL     1       9.326  10.809  -6.462  1.00  0.00     0.031 A 
ATOM     38  C   UNL     1      10.776  10.701  -6.855  1.00  0.00     0.074 A 
ATOM     39  C   UNL     1       8.890  11.893  -5.791  1.00  0.00     0.049 A 
ATOM     40  N   UNL     1      11.765  11.520  -6.599  1.00  0.00    -0.248 NA
ATOM     41  C   UNL     1      11.175   9.502  -7.611  1.00  0.00     0.031 C 
ATOM     42  C   UNL     1       7.519  12.107  -5.326  1.00  0.00     0.029 A 
ATOM     43  N   UNL     1       9.558  13.020  -5.376  1.00  0.00    -0.354 N 
ATOM     44  C   UNL     1      12.896  10.931  -7.150  1.00  0.00     0.074 A 
ATOM     45  C   UNL     1      12.487   9.657  -7.698  1.00  0.00     0.031 C 
ATOM     46  C   UNL     1       7.438  13.304  -4.724  1.00  0.00     0.029 A 
ATOM     47  C   UNL     1       8.760  13.923  -4.714  1.00  0.00     0.049 A 
ATOM     48  H   UNL     1      10.518  13.167  -5.537  1.00  0.00     0.167 HD
ATOM     49  C   UNL     1      14.156  11.421  -7.223  1.00  0.00     0.037 A 
ATOM     50  C   UNL     1       9.059  15.113  -4.157  1.00  0.00     0.037 A 
ATOM     51  C   UNL     1      14.555  12.703  -6.706  1.00  0.00     0.049 A 
ATOM     52  C   UNL     1      10.473  15.622  -4.226  1.00  0.00     0.074 A 
ATOM     53  C   UNL     1      15.800  13.303  -6.765  1.00  0.00     0.029 A 
ATOM     54  N   UNL     1      13.715  13.585  -6.044  1.00  0.00    -0.354 N 
ATOM     55  N   UNL     1      11.523  15.069  -4.782  1.00  0.00    -0.248 NA
ATOM     56  C   UNL     1      10.745  16.921  -3.592  1.00  0.00     0.031 C 
ATOM     57  C   UNL     1      15.726  14.529  -6.099  1.00  0.00     0.029 A 
ATOM     58  C   UNL     1      14.420  14.718  -5.676  1.00  0.00     0.049 A 
ATOM     59  H   UNL     1      12.760  13.429  -5.863  1.00  0.00     0.167 HD
ATOM     60  C   UNL     1      12.569  15.964  -4.596  1.00  0.00     0.074 A 
ATOM     61  C   UNL     1      12.026  17.100  -3.882  1.00  0.00     0.031 C 
ATOM     62  C   UNL     1      13.863  15.852  -4.983  1.00  0.00     0.037 A 
BRANCH  49  63
ATOM     63  C   UNL     1      15.197  10.585  -7.910  1.00  0.00     0.057 A 
ATOM     64  C   UNL     1      16.268  10.036  -7.192  1.00  0.00     0.134 A 
ATOM     65  C   UNL     1      15.184  10.391  -9.298  1.00  0.00     0.134 A 
ATOM     66  F   UNL     1      16.346  10.189  -5.862  1.00  0.00    -0.206 F 
ATOM     67  C   UNL     1      17.294   9.338  -7.832  1.00  0.00     0.040 A 
ATOM     68  C   UNL     1      16.189   9.671  -9.945  1.00  0.00     0.040 A 
ATOM     69  F   UNL     1      14.182  10.881 -10.043  1.00  0.00    -0.206 F 
ATOM     70  C   UNL     1      17.255   9.153  -9.212  1.00  0.00     0.006 A 
ENDBRANCH  49  63
BRANCH  50  71
ATOM     71  C   UNL     1       7.989  15.924  -3.519  1.00  0.00     0.057 A 
ATOM     72  C   UNL     1       7.368  15.524  -2.329  1.00  0.00     0.134 A 
ATOM     73  C   UNL     1       7.554  17.122  -4.099  1.00  0.00     0.134 A 
ATOM     74  F   UNL     1       7.732  14.383  -1.726  1.00  0.00    -0.206 F 
ATOM     75  C   UNL     1       6.346  16.276  -1.748  1.00  0.00     0.040 A 
ATOM     76  C   UNL     1       6.551  17.898  -3.514  1.00  0.00     0.040 A 
ATOM     77  F   UNL     1       8.121  17.569  -5.229  1.00  0.00    -0.206 F 
ATOM     78  C   UNL     1       5.939  17.471  -2.338  1.00  0.00     0.006 A 
ENDBRANCH  50  71
BRANCH  62  79
ATOM     79  C   UNL     1      14.785  16.998  -4.687  1.00  0.00     0.057 A 
ATOM     80  C   UNL     1      15.296  17.785  -5.729  1.00  0.00     0.134 A 
ATOM     81  C   UNL     1      15.241  17.265  -3.391  1.00  0.00     0.134 A 
ATOM     82  F   UNL     1      14.909  17.573  -6.996  1.00  0.00    -0.206 F 
ATOM     83  C   UNL     1      16.242  18.782  -5.493  1.00  0.00     0.040 A 
ATOM     84  C   UNL     1      16.166  18.279  -3.139  1.00  0.00     0.040 A 
ATOM     85  F   UNL     1      14.783  16.554  -2.349  1.00  0.00    -0.206 F 
ATOM     86  C   UNL     1      16.679  19.032  -4.194  1.00  0.00     0.006 A 
ENDBRANCH  62  79
ENDBRANCH  36  37
ENDBRANCH  28  31
ENDBRANCH  26  27
ENDBRANCH  25  26
ENDBRANCH   1  25
TORSDOF 14
