REMARK SMILES Cc1c[nH]c(C[N@H+]2C[C@@H]3CN(S(C)(=O)=O)C[C@]3(C(=O)NCCCNC(=O)c3ccc(-c4c5nc(c(-c6c(F)cccc6F)c6ccc([nH]6)c(-c6c(F)cccc6F)c6nc(c(-c7c(F)cccc7F)c7ccc4[nH]7)C=C6)C=C5)cc3)C2)n1
REMARK SMILES IDX 22 1 21 2 20 3 18 4 19 5 17 7 7 8 8 9 81 10 9 12 10 13 16 14
REMARK SMILES IDX 11 15 6 16 5 17 1 18 2 19 3 20 82 21 4 22 12 24 13 25 14 26
REMARK SMILES IDX 15 27 23 28 24 29 25 30 26 32 27 33 28 34 80 35 29 36 79 37
REMARK SMILES IDX 30 38 31 39 32 40 73 41 33 42 78 43 72 44 74 45 34 46 77 47
REMARK SMILES IDX 71 48 70 49 35 51 61 52 44 53 60 54 45 55 48 56 59 57 75 58
REMARK SMILES IDX 46 59 47 60 58 62 76 63 49 64 36 65 37 66 42 67 38 68 39 69
REMARK SMILES IDX 41 70 43 71 40 72 62 73 63 74 68 75 64 76 65 77 67 78 69 79
REMARK SMILES IDX 66 80 50 81 51 82 56 83 52 84 53 85 55 86 57 87 54 88
REMARK H PARENT 20 6 7 11 4 23 24 31 74 50 48 61
REMARK Flexibility Score: inf
ROOT
ATOM      1  C   UNL     1      -0.550   7.128   4.892  1.00  0.00     0.042 C 
ENDROOT
BRANCH   1   2
ATOM      2  C   UNL     1      -1.395   6.505   3.783  1.00  0.00     0.117 C 
BRANCH   2   3
ATOM      3  N   UNL     1      -0.554   6.079   2.677  1.00  0.00    -0.355 N 
ATOM      4  C   UNL     1      -0.087   4.808   2.420  1.00  0.00     0.233 C 
ATOM      5  O   UNL     1       0.955   4.706   1.772  1.00  0.00    -0.274 OA
ATOM      6  H   UNL     1      -0.288   6.779   2.037  1.00  0.00     0.163 HD
BRANCH   4   7
ATOM      7  C   UNL     1      -0.948   3.601   2.962  1.00  0.00     0.121 C 
ATOM      8  N   UNL     1      -2.378   2.356   1.291  1.00  0.00    -0.327 N 
ATOM      9  C   UNL     1      -2.224   1.515   2.453  1.00  0.00     0.268 C 
ATOM     10  C   UNL     1      -1.322   3.387   1.416  1.00  0.00     0.281 C 
ATOM     11  H   UNL     1      -3.310   2.770   1.267  1.00  0.00     0.348 HD
ATOM     12  C   UNL     1      -0.920   1.999   3.054  1.00  0.00     0.082 C 
ATOM     13  C   UNL     1      -0.846   1.511   4.499  1.00  0.00     0.113 C 
ATOM     14  C   UNL     1       0.097   3.590   4.142  1.00  0.00     0.125 C 
ATOM     15  N   UNL     1      -0.464   2.717   5.201  1.00  0.00    -0.200 NA
BRANCH   8  16
ATOM     16  C   UNL     1      -2.314   1.623   0.007  1.00  0.00     0.338 C 
BRANCH  16  17
ATOM     17  C   UNL     1      -1.157   0.670  -0.134  1.00  0.00     0.161 A 
ATOM     18  C   UNL     1       2.288  -0.212  -0.100  1.00  0.00     0.068 C 
ATOM     19  C   UNL     1       0.810  -0.211  -0.142  1.00  0.00     0.056 A 
ATOM     20  C   UNL     1      -0.074  -1.265  -0.115  1.00  0.00     0.107 A 
ATOM     21  N   UNL     1       0.124   0.977  -0.180  1.00  0.00    -0.233 NA
ATOM     22  N   UNL     1      -1.317  -0.696  -0.144  1.00  0.00    -0.344 N 
ATOM     23  H   UNL     1      -2.175  -1.178  -0.168  1.00  0.00     0.167 HD
ENDBRANCH  16  17
ENDBRANCH   8  16
BRANCH  15  24
ATOM     24  S   UNL     1      -1.495   3.322   6.387  1.00  0.00     0.211 S 
ATOM     25  C   UNL     1      -3.079   3.502   5.572  1.00  0.00     0.176 C 
ATOM     26  O   UNL     1      -1.659   2.292   7.387  1.00  0.00    -0.213 OA
ATOM     27  O   UNL     1      -1.027   4.645   6.748  1.00  0.00    -0.213 OA
ENDBRANCH  15  24
ENDBRANCH   4   7
ENDBRANCH   2   3
ENDBRANCH   1   2
BRANCH   1  28
ATOM     28  C   UNL     1      -0.140   8.552   4.572  1.00  0.00     0.118 C 
BRANCH  28  29
ATOM     29  N   UNL     1      -1.261   9.463   4.752  1.00  0.00    -0.352 N 
ATOM     30  C   UNL     1      -1.558  10.273   5.820  1.00  0.00     0.251 C 
ATOM     31  H   UNL     1      -1.896   9.504   4.001  1.00  0.00     0.163 HD
ATOM     32  O   UNL     1      -2.709  10.672   5.972  1.00  0.00    -0.269 OA
BRANCH  30  33
ATOM     33  C   UNL     1      -0.500  10.676   6.775  1.00  0.00     0.039 A 
ATOM     34  C   UNL     1      -0.834  10.910   8.111  1.00  0.00     0.014 A 
ATOM     35  C   UNL     1       0.811  10.889   6.344  1.00  0.00     0.014 A 
ATOM     36  C   UNL     1       0.151  11.329   9.010  1.00  0.00     0.010 A 
ATOM     37  C   UNL     1       1.813  11.173   7.262  1.00  0.00     0.010 A 
ATOM     38  C   UNL     1       1.489  11.442   8.597  1.00  0.00    -0.014 A 
BRANCH  38  39
ATOM     39  C   UNL     1       2.557  11.904   9.519  1.00  0.00     0.031 A 
ATOM     40  C   UNL     1       3.343  13.149   9.188  1.00  0.00     0.074 A 
ATOM     41  C   UNL     1       2.862  11.176  10.611  1.00  0.00     0.049 A 
ATOM     42  N   UNL     1       4.364  13.675   9.816  1.00  0.00    -0.248 NA
ATOM     43  C   UNL     1       2.955  13.884   7.970  1.00  0.00     0.031 C 
ATOM     44  C   UNL     1       2.211   9.925  11.007  1.00  0.00     0.029 A 
ATOM     45  N   UNL     1       3.805  11.380  11.586  1.00  0.00    -0.354 N 
ATOM     46  C   UNL     1       4.755  14.771   9.054  1.00  0.00     0.074 A 
ATOM     47  C   UNL     1       3.901  14.806   7.889  1.00  0.00     0.031 C 
ATOM     48  C   UNL     1       2.749   9.493  12.158  1.00  0.00     0.029 A 
ATOM     49  C   UNL     1       3.814  10.407  12.557  1.00  0.00     0.049 A 
ATOM     50  H   UNL     1       4.417  12.151  11.590  1.00  0.00     0.167 HD
ATOM     51  C   UNL     1       5.721  15.681   9.315  1.00  0.00     0.037 A 
ATOM     52  C   UNL     1       4.601  10.267  13.640  1.00  0.00     0.037 A 
ATOM     53  C   UNL     1       6.531  15.671  10.503  1.00  0.00     0.049 A 
ATOM     54  C   UNL     1       5.659  11.303  13.908  1.00  0.00     0.074 A 
ATOM     55  C   UNL     1       7.476  16.596  10.908  1.00  0.00     0.029 A 
ATOM     56  N   UNL     1       6.489  14.685  11.476  1.00  0.00    -0.354 N 
ATOM     57  N   UNL     1       5.956  12.383  13.225  1.00  0.00    -0.248 NA
ATOM     58  C   UNL     1       6.488  11.106  15.105  1.00  0.00     0.031 C 
ATOM     59  C   UNL     1       8.050  16.139  12.097  1.00  0.00     0.029 A 
ATOM     60  C   UNL     1       7.414  14.965  12.467  1.00  0.00     0.049 A 
ATOM     61  H   UNL     1       5.891  13.903  11.464  1.00  0.00     0.167 HD
ATOM     62  C   UNL     1       6.973  13.013  13.931  1.00  0.00     0.074 A 
ATOM     63  C   UNL     1       7.229  12.203  15.103  1.00  0.00     0.031 C 
ATOM     64  C   UNL     1       7.636  14.158  13.639  1.00  0.00     0.037 A 
BRANCH  51  65
ATOM     65  C   UNL     1       5.959  16.770   8.308  1.00  0.00     0.057 A 
ATOM     66  C   UNL     1       5.036  17.803   8.094  1.00  0.00     0.134 A 
ATOM     67  C   UNL     1       7.162  16.824   7.592  1.00  0.00     0.134 A 
ATOM     68  F   UNL     1       3.859  17.807   8.737  1.00  0.00    -0.206 F 
ATOM     69  C   UNL     1       5.295  18.840   7.195  1.00  0.00     0.040 A 
ATOM     70  C   UNL     1       7.445  17.871   6.713  1.00  0.00     0.040 A 
ATOM     71  F   UNL     1       8.092  15.870   7.750  1.00  0.00    -0.206 F 
ATOM     72  C   UNL     1       6.508  18.882   6.511  1.00  0.00     0.006 A 
ENDBRANCH  51  65
BRANCH  52  73
ATOM     73  C   UNL     1       4.422   9.117  14.565  1.00  0.00     0.057 A 
ATOM     74  C   UNL     1       3.996   9.311  15.885  1.00  0.00     0.134 A 
ATOM     75  C   UNL     1       4.718   7.806  14.172  1.00  0.00     0.134 A 
ATOM     76  F   UNL     1       3.711  10.544  16.328  1.00  0.00    -0.206 F 
ATOM     77  C   UNL     1       3.915   8.253  16.793  1.00  0.00     0.040 A 
ATOM     78  C   UNL     1       4.609   6.734  15.060  1.00  0.00     0.040 A 
ATOM     79  F   UNL     1       5.122   7.548  12.920  1.00  0.00    -0.206 F 
ATOM     80  C   UNL     1       4.221   6.958  16.379  1.00  0.00     0.006 A 
ENDBRANCH  52  73
BRANCH  64  81
ATOM     81  C   UNL     1       8.654  14.637  14.633  1.00  0.00     0.057 A 
ATOM     82  C   UNL     1       9.869  13.971  14.836  1.00  0.00     0.134 A 
ATOM     83  C   UNL     1       8.423  15.803  15.374  1.00  0.00     0.134 A 
ATOM     84  F   UNL     1      10.147  12.842  14.166  1.00  0.00    -0.206 F 
ATOM     85  C   UNL     1      10.803  14.428  15.767  1.00  0.00     0.040 A 
ATOM     86  C   UNL     1       9.364  16.290  16.281  1.00  0.00     0.040 A 
ATOM     87  F   UNL     1       7.286  16.498  15.218  1.00  0.00    -0.206 F 
ATOM     88  C   UNL     1      10.554  15.596  16.487  1.00  0.00     0.006 A 
ENDBRANCH  64  81
ENDBRANCH  38  39
ENDBRANCH  30  33
ENDBRANCH  28  29
ENDBRANCH   1  28
TORSDOF 13
