REMARK SMILES CC(=O)N1CCc2cc(S(=O)(=O)N[C@@H](C(=O)NCCCNC(=O)c3ccc(-c4c5nc(c(-c6c(F)cccc6F)c6ccc([nH]6)c(-c6c(F)cccc6F)c6nc(c(-c7c(F)cccc7F)c7ccc4[nH]7)C=C6)C=C5)cc3)C(C)C)ccc21
REMARK SMILES IDX 18 1 17 2 15 3 16 4 14 6 13 7 10 9 11 10 12 11 9 12 4 13
REMARK SMILES IDX 5 14 83 15 6 16 7 17 82 18 8 19 81 20 2 21 1 22 3 23 78 24
REMARK SMILES IDX 79 25 80 26 19 27 20 28 21 29 22 30 23 32 24 33 25 34 77 35
REMARK SMILES IDX 26 36 76 37 27 38 28 39 29 40 70 41 30 42 75 43 69 44 71 45
REMARK SMILES IDX 31 46 74 47 68 48 67 49 32 51 58 52 41 53 57 54 42 55 45 56
REMARK SMILES IDX 56 57 72 58 43 59 44 60 55 62 73 63 46 64 33 65 34 66 39 67
REMARK SMILES IDX 35 68 36 69 38 70 40 71 37 72 59 73 60 74 65 75 61 76 62 77
REMARK SMILES IDX 64 78 66 79 63 80 47 81 48 82 53 83 49 84 50 85 52 86 54 87
REMARK SMILES IDX 51 88
REMARK H PARENT 17 5 13 8 21 31 71 50 45 61
REMARK Flexibility Score: inf
ROOT
ATOM      1  C   UNL     1       5.930   5.157  -2.245  1.00  0.00     0.117 C 
ENDROOT
BRANCH   1   2
ATOM      2  N   UNL     1       7.355   4.978  -2.026  1.00  0.00    -0.355 N 
ATOM      3  C   UNL     1       8.013   4.380  -0.991  1.00  0.00     0.238 C 
ATOM      4  O   UNL     1       9.191   4.706  -0.814  1.00  0.00    -0.273 OA
ATOM      5  H   UNL     1       7.935   5.344  -2.732  1.00  0.00     0.163 HD
BRANCH   3   6
ATOM      6  C   UNL     1       7.344   3.294  -0.129  1.00  0.00     0.161 C 
BRANCH   6   7
ATOM      7  N   UNL     1       7.068   3.751   1.254  1.00  0.00    -0.198 NA
ATOM      8  H   UNL     1       7.028   2.903   1.820  1.00  0.00     0.142 HD
BRANCH   7   9
ATOM      9  S   UNL     1       5.735   4.653   1.702  1.00  0.00     0.241 S 
ATOM     10  O   UNL     1       5.901   5.954   1.095  1.00  0.00    -0.207 OA
ATOM     11  O   UNL     1       5.608   4.519   3.131  1.00  0.00    -0.207 OA
BRANCH   9  12
ATOM     12  C   UNL     1       4.310   3.884   0.977  1.00  0.00     0.082 A 
ATOM     13  N   UNL     1       0.842   2.336  -0.763  1.00  0.00    -0.312 N 
ATOM     14  C   UNL     1       0.168   3.567  -1.203  1.00  0.00     0.130 C 
ATOM     15  C   UNL     1       2.069   2.677  -0.165  1.00  0.00     0.047 A 
ATOM     16  C   UNL     1       1.079   4.746  -0.866  1.00  0.00     0.059 C 
ATOM     17  C   UNL     1       2.218   4.068  -0.170  1.00  0.00    -0.021 A 
ATOM     18  C   UNL     1       3.065   1.881   0.381  1.00  0.00     0.028 A 
ATOM     19  C   UNL     1       3.320   4.689   0.406  1.00  0.00     0.027 A 
ATOM     20  C   UNL     1       4.186   2.489   0.968  1.00  0.00     0.024 A 
BRANCH  13  21
ATOM     21  C   UNL     1       0.192   1.132  -0.930  1.00  0.00     0.223 C 
ATOM     22  C   UNL     1       0.749  -0.109  -0.293  1.00  0.00     0.115 C 
ATOM     23  O   UNL     1      -0.860   1.054  -1.574  1.00  0.00    -0.275 OA
ENDBRANCH  13  21
ENDBRANCH   9  12
ENDBRANCH   7   9
ENDBRANCH   6   7
BRANCH   6  24
ATOM     24  C   UNL     1       8.356   2.101   0.020  1.00  0.00     0.010 C 
ATOM     25  C   UNL     1       7.950   1.089   1.103  1.00  0.00     0.009 C 
ATOM     26  C   UNL     1       8.553   1.352  -1.302  1.00  0.00     0.009 C 
ENDBRANCH   6  24
ENDBRANCH   3   6
ENDBRANCH   1   2
BRANCH   1  27
ATOM     27  C   UNL     1       5.514   6.577  -1.861  1.00  0.00     0.042 C 
BRANCH  27  28
ATOM     28  C   UNL     1       5.865   7.633  -2.899  1.00  0.00     0.118 C 
BRANCH  28  29
ATOM     29  N   UNL     1       4.804   7.806  -3.875  1.00  0.00    -0.352 N 
ATOM     30  C   UNL     1       3.861   8.796  -4.013  1.00  0.00     0.251 C 
ATOM     31  H   UNL     1       4.751   7.093  -4.553  1.00  0.00     0.163 HD
ATOM     32  O   UNL     1       2.908   8.591  -4.763  1.00  0.00    -0.269 OA
BRANCH  30  33
ATOM     33  C   UNL     1       3.945  10.090  -3.284  1.00  0.00     0.039 A 
ATOM     34  C   UNL     1       2.749  10.740  -2.951  1.00  0.00     0.014 A 
ATOM     35  C   UNL     1       5.157  10.728  -3.007  1.00  0.00     0.014 A 
ATOM     36  C   UNL     1       2.771  11.993  -2.327  1.00  0.00     0.010 A 
ATOM     37  C   UNL     1       5.180  11.931  -2.297  1.00  0.00     0.010 A 
ATOM     38  C   UNL     1       3.989  12.595  -1.976  1.00  0.00    -0.014 A 
BRANCH  38  39
ATOM     39  C   UNL     1       4.028  13.938  -1.333  1.00  0.00     0.031 A 
ATOM     40  C   UNL     1       4.690  15.099  -2.035  1.00  0.00     0.074 A 
ATOM     41  C   UNL     1       3.501  14.118  -0.106  1.00  0.00     0.049 A 
ATOM     42  N   UNL     1       4.862  16.330  -1.621  1.00  0.00    -0.248 NA
ATOM     43  C   UNL     1       5.260  14.835  -3.367  1.00  0.00     0.031 C 
ATOM     44  C   UNL     1       2.877  13.075   0.710  1.00  0.00     0.029 A 
ATOM     45  N   UNL     1       3.410  15.245   0.674  1.00  0.00    -0.354 N 
ATOM     46  C   UNL     1       5.579  16.973  -2.623  1.00  0.00     0.074 A 
ATOM     47  C   UNL     1       5.851  15.988  -3.646  1.00  0.00     0.031 C 
ATOM     48  C   UNL     1       2.447  13.615   1.862  1.00  0.00     0.029 A 
ATOM     49  C   UNL     1       2.790  15.034   1.882  1.00  0.00     0.049 A 
ATOM     50  H   UNL     1       3.757  16.123   0.394  1.00  0.00     0.167 HD
ATOM     51  C   UNL     1       5.955  18.272  -2.701  1.00  0.00     0.037 A 
ATOM     52  C   UNL     1       2.528  15.885   2.892  1.00  0.00     0.037 A 
ATOM     53  C   UNL     1       5.639  19.270  -1.714  1.00  0.00     0.049 A 
ATOM     54  C   UNL     1       2.925  17.329   2.766  1.00  0.00     0.074 A 
ATOM     55  C   UNL     1       5.908  20.628  -1.745  1.00  0.00     0.029 A 
ATOM     56  N   UNL     1       4.977  19.019  -0.523  1.00  0.00    -0.354 N 
ATOM     57  N   UNL     1       3.538  17.935   1.778  1.00  0.00    -0.248 NA
ATOM     58  C   UNL     1       2.587  18.212   3.892  1.00  0.00     0.031 C 
ATOM     59  C   UNL     1       5.437  21.194  -0.556  1.00  0.00     0.029 A 
ATOM     60  C   UNL     1       4.842  20.195   0.197  1.00  0.00     0.049 A 
ATOM     61  H   UNL     1       4.652  18.137  -0.232  1.00  0.00     0.167 HD
ATOM     62  C   UNL     1       3.636  19.269   2.151  1.00  0.00     0.074 A 
ATOM     63  C   UNL     1       3.005  19.389   3.449  1.00  0.00     0.031 C 
ATOM     64  C   UNL     1       4.200  20.302   1.480  1.00  0.00     0.037 A 
BRANCH  51  65
ATOM     65  C   UNL     1       6.742  18.699  -3.906  1.00  0.00     0.057 A 
ATOM     66  C   UNL     1       6.149  18.817  -5.170  1.00  0.00     0.134 A 
ATOM     67  C   UNL     1       8.093  19.047  -3.791  1.00  0.00     0.134 A 
ATOM     68  F   UNL     1       4.861  18.489  -5.350  1.00  0.00    -0.206 F 
ATOM     69  C   UNL     1       6.878  19.247  -6.280  1.00  0.00     0.040 A 
ATOM     70  C   UNL     1       8.826  19.502  -4.889  1.00  0.00     0.040 A 
ATOM     71  F   UNL     1       8.720  18.965  -2.608  1.00  0.00    -0.206 F 
ATOM     72  C   UNL     1       8.219  19.598  -6.139  1.00  0.00     0.006 A 
ENDBRANCH  51  65
BRANCH  52  73
ATOM     73  C   UNL     1       1.831  15.402   4.111  1.00  0.00     0.057 A 
ATOM     74  C   UNL     1       0.513  15.784   4.389  1.00  0.00     0.134 A 
ATOM     75  C   UNL     1       2.469  14.566   5.035  1.00  0.00     0.134 A 
ATOM     76  F   UNL     1      -0.143  16.601   3.552  1.00  0.00    -0.206 F 
ATOM     77  C   UNL     1      -0.139  15.371   5.552  1.00  0.00     0.040 A 
ATOM     78  C   UNL     1       1.821  14.125   6.190  1.00  0.00     0.040 A 
ATOM     79  F   UNL     1       3.729  14.160   4.823  1.00  0.00    -0.206 F 
ATOM     80  C   UNL     1       0.515  14.536   6.455  1.00  0.00     0.006 A 
ENDBRANCH  52  73
BRANCH  64  81
ATOM     81  C   UNL     1       4.133  21.656   2.119  1.00  0.00     0.057 A 
ATOM     82  C   UNL     1       4.933  21.994   3.217  1.00  0.00     0.134 A 
ATOM     83  C   UNL     1       3.287  22.646   1.604  1.00  0.00     0.134 A 
ATOM     84  F   UNL     1       5.755  21.085   3.764  1.00  0.00    -0.206 F 
ATOM     85  C   UNL     1       4.881  23.264   3.793  1.00  0.00     0.040 A 
ATOM     86  C   UNL     1       3.243  23.927   2.156  1.00  0.00     0.040 A 
ATOM     87  F   UNL     1       2.501  22.389   0.548  1.00  0.00    -0.206 F 
ATOM     88  C   UNL     1       4.038  24.237   3.257  1.00  0.00     0.006 A 
ENDBRANCH  64  81
ENDBRANCH  38  39
ENDBRANCH  30  33
ENDBRANCH  28  29
ENDBRANCH  27  28
ENDBRANCH   1  27
TORSDOF 15
