REMARK SMILES COCc1cccc(O[C@@H](C)c2ccc(C(=O)NCCCNC(=O)c3ccc(-c4c5nc(c(-c6c(F)cccc6F)c6ccc([nH]6)c(-c6c(F)cccc6F)c6nc(c(-c7c(F)cccc7F)c7ccc4[nH]7)C=C6)C=C5)cc3)o2)c1
REMARK SMILES IDX 16 1 17 2 18 3 15 5 12 6 13 7 79 8 14 9 10 10 11 11 9 12
REMARK SMILES IDX 8 13 4 14 5 15 80 16 6 17 7 18 3 19 2 20 1 21 19 22 20 23
REMARK SMILES IDX 21 24 22 25 23 26 24 28 25 29 26 30 78 31 27 32 77 33 28 34
REMARK SMILES IDX 29 35 30 36 71 37 31 38 76 39 70 40 72 41 32 42 75 43 69 44
REMARK SMILES IDX 68 45 33 47 59 48 42 49 58 50 43 51 46 52 57 53 73 54 44 55
REMARK SMILES IDX 45 56 56 58 74 59 47 60 34 61 35 62 40 63 36 64 37 65 39 66
REMARK SMILES IDX 41 67 38 68 60 69 61 70 66 71 62 72 63 73 65 74 67 75 64 76
REMARK SMILES IDX 48 77 49 78 54 79 50 80 51 81 53 82 55 83 52 84
REMARK H PARENT 18 4 22 27 72 46 46 57
REMARK Flexibility Score: inf
ROOT
ATOM      1  C   UNL     1       0.858  -1.228   2.823  1.00  0.00     0.286 C 
ATOM      2  O   UNL     1      -0.001  -2.108   2.785  1.00  0.00    -0.266 OA
ATOM      3  N   UNL     1       2.161  -1.671   2.895  1.00  0.00    -0.349 N 
ATOM      4  H   UNL     1       2.253  -2.647   2.989  1.00  0.00     0.163 HD
ENDROOT
BRANCH   1   5
ATOM      5  C   UNL     1       0.547   0.189   2.758  1.00  0.00     0.191 A 
ATOM      6  C   UNL     1      -0.746   1.890   2.159  1.00  0.00     0.145 A 
ATOM      7  C   UNL     1       0.359   2.435   2.777  1.00  0.00     0.050 A 
ATOM      8  O   UNL     1      -0.643   0.531   2.162  1.00  0.00    -0.452 OA
ATOM      9  C   UNL     1       1.174   1.349   3.178  1.00  0.00     0.057 A 
BRANCH   6  10
ATOM     10  C   UNL     1      -1.969   2.502   1.549  1.00  0.00     0.236 C 
ATOM     11  C   UNL     1      -3.016   1.545   0.990  1.00  0.00     0.062 C 
BRANCH  10  12
ATOM     12  O   UNL     1      -1.626   3.563   0.637  1.00  0.00    -0.483 OA
BRANCH  12  13
ATOM     13  C   UNL     1      -0.783   3.380  -0.421  1.00  0.00     0.120 A 
ATOM     14  C   UNL     1       0.555   2.105  -2.014  1.00  0.00    -0.019 A 
ATOM     15  C   UNL     1       1.008   3.305  -2.578  1.00  0.00     0.006 A 
ATOM     16  C   UNL     1      -0.358   2.161  -0.946  1.00  0.00     0.052 A 
ATOM     17  C   UNL     1       0.569   4.529  -2.076  1.00  0.00     0.004 A 
ATOM     18  C   UNL     1      -0.322   4.562  -1.004  1.00  0.00     0.046 A 
BRANCH  14  19
ATOM     19  C   UNL     1       1.033   0.790  -2.593  1.00  0.00     0.195 C 
BRANCH  19  20
ATOM     20  O   UNL     1       0.645  -0.353  -1.831  1.00  0.00    -0.380 OA
ATOM     21  C   UNL     1       1.522  -0.619  -0.745  1.00  0.00     0.195 C 
ENDBRANCH  19  20
ENDBRANCH  14  19
ENDBRANCH  12  13
ENDBRANCH  10  12
ENDBRANCH   6  10
ENDBRANCH   1   5
BRANCH   3  22
ATOM     22  C   UNL     1       3.419  -0.953   2.856  1.00  0.00     0.118 C 
BRANCH  22  23
ATOM     23  C   UNL     1       4.022  -0.801   4.250  1.00  0.00     0.042 C 
BRANCH  23  24
ATOM     24  C   UNL     1       4.632  -2.095   4.790  1.00  0.00     0.118 C 
BRANCH  24  25
ATOM     25  N   UNL     1       5.854  -2.463   4.086  1.00  0.00    -0.352 N 
ATOM     26  C   UNL     1       7.125  -2.670   4.561  1.00  0.00     0.251 C 
ATOM     27  H   UNL     1       5.751  -2.583   3.115  1.00  0.00     0.163 HD
ATOM     28  O   UNL     1       8.056  -2.771   3.765  1.00  0.00    -0.269 OA
BRANCH  26  29
ATOM     29  C   UNL     1       7.393  -2.760   6.014  1.00  0.00     0.039 A 
ATOM     30  C   UNL     1       8.550  -2.159   6.522  1.00  0.00     0.014 A 
ATOM     31  C   UNL     1       6.547  -3.472   6.868  1.00  0.00     0.014 A 
ATOM     32  C   UNL     1       8.825  -2.221   7.890  1.00  0.00     0.010 A 
ATOM     33  C   UNL     1       6.786  -3.475   8.242  1.00  0.00     0.010 A 
ATOM     34  C   UNL     1       7.928  -2.852   8.767  1.00  0.00    -0.014 A 
BRANCH  34  35
ATOM     35  C   UNL     1       8.164  -2.861  10.234  1.00  0.00     0.031 A 
ATOM     36  C   UNL     1       8.399  -4.156  10.961  1.00  0.00     0.074 A 
ATOM     37  C   UNL     1       8.098  -1.705  10.923  1.00  0.00     0.049 A 
ATOM     38  N   UNL     1       8.547  -4.369  12.245  1.00  0.00    -0.248 NA
ATOM     39  C   UNL     1       8.449  -5.377  10.141  1.00  0.00     0.031 C 
ATOM     40  C   UNL     1       7.830  -0.388  10.342  1.00  0.00     0.029 A 
ATOM     41  N   UNL     1       8.237  -1.454  12.265  1.00  0.00    -0.354 N 
ATOM     42  C   UNL     1       8.685  -5.743  12.388  1.00  0.00     0.074 A 
ATOM     43  C   UNL     1       8.562  -6.319  11.066  1.00  0.00     0.031 C 
ATOM     44  C   UNL     1       7.843   0.533  11.318  1.00  0.00     0.029 A 
ATOM     45  C   UNL     1       8.081  -0.130  12.597  1.00  0.00     0.049 A 
ATOM     46  H   UNL     1       8.430  -2.156  12.928  1.00  0.00     0.167 HD
ATOM     47  C   UNL     1       8.911  -6.459  13.515  1.00  0.00     0.037 A 
ATOM     48  C   UNL     1       8.117   0.482  13.796  1.00  0.00     0.037 A 
ATOM     49  C   UNL     1       9.064  -5.881  14.826  1.00  0.00     0.049 A 
ATOM     50  C   UNL     1       8.381  -0.333  15.030  1.00  0.00     0.074 A 
ATOM     51  C   UNL     1       9.367  -6.516  16.018  1.00  0.00     0.029 A 
ATOM     52  N   UNL     1       8.923  -4.532  15.116  1.00  0.00    -0.354 N 
ATOM     53  N   UNL     1       8.576  -1.624  15.142  1.00  0.00    -0.248 NA
ATOM     54  C   UNL     1       8.435   0.396  16.306  1.00  0.00     0.031 C 
ATOM     55  C   UNL     1       9.366  -5.559  17.037  1.00  0.00     0.029 A 
ATOM     56  C   UNL     1       9.111  -4.319  16.472  1.00  0.00     0.049 A 
ATOM     57  H   UNL     1       8.720  -3.830  14.457  1.00  0.00     0.167 HD
ATOM     58  C   UNL     1       8.800  -1.860  16.492  1.00  0.00     0.074 A 
ATOM     59  C   UNL     1       8.731  -0.576  17.158  1.00  0.00     0.031 C 
ATOM     60  C   UNL     1       9.043  -3.035  17.122  1.00  0.00     0.037 A 
BRANCH  47  61
ATOM     61  C   UNL     1       9.009  -7.951  13.384  1.00  0.00     0.057 A 
ATOM     62  C   UNL     1      10.107  -8.570  12.771  1.00  0.00     0.134 A 
ATOM     63  C   UNL     1       8.015  -8.782  13.916  1.00  0.00     0.134 A 
ATOM     64  F   UNL     1      11.089  -7.832  12.232  1.00  0.00    -0.206 F 
ATOM     65  C   UNL     1      10.200  -9.959  12.670  1.00  0.00     0.040 A 
ATOM     66  C   UNL     1       8.110 -10.173  13.844  1.00  0.00     0.040 A 
ATOM     67  F   UNL     1       6.940  -8.256  14.523  1.00  0.00    -0.206 F 
ATOM     68  C   UNL     1       9.202 -10.765  13.214  1.00  0.00     0.006 A 
ENDBRANCH  47  61
BRANCH  48  69
ATOM     69  C   UNL     1       7.921   1.950  13.882  1.00  0.00     0.057 A 
ATOM     70  C   UNL     1       8.988   2.803  14.191  1.00  0.00     0.134 A 
ATOM     71  C   UNL     1       6.671   2.537  13.652  1.00  0.00     0.134 A 
ATOM     72  F   UNL     1      10.205   2.297  14.438  1.00  0.00    -0.206 F 
ATOM     73  C   UNL     1       8.816   4.184  14.283  1.00  0.00     0.040 A 
ATOM     74  C   UNL     1       6.490   3.919  13.718  1.00  0.00     0.040 A 
ATOM     75  F   UNL     1       5.612   1.775  13.343  1.00  0.00    -0.206 F 
ATOM     76  C   UNL     1       7.564   4.747  14.040  1.00  0.00     0.006 A 
ENDBRANCH  48  69
BRANCH  60  77
ATOM     77  C   UNL     1       9.282  -2.984  18.602  1.00  0.00     0.057 A 
ATOM     78  C   UNL     1       8.244  -2.745  19.511  1.00  0.00     0.134 A 
ATOM     79  C   UNL     1      10.560  -3.218  19.125  1.00  0.00     0.134 A 
ATOM     80  F   UNL     1       7.000  -2.500  19.074  1.00  0.00    -0.206 F 
ATOM     81  C   UNL     1       8.473  -2.719  20.888  1.00  0.00     0.040 A 
ATOM     82  C   UNL     1      10.797  -3.220  20.500  1.00  0.00     0.040 A 
ATOM     83  F   UNL     1      11.597  -3.462  18.309  1.00  0.00    -0.206 F 
ATOM     84  C   UNL     1       9.752  -2.965  21.386  1.00  0.00     0.006 A 
ENDBRANCH  60  77
ENDBRANCH  34  35
ENDBRANCH  26  29
ENDBRANCH  24  25
ENDBRANCH  23  24
ENDBRANCH  22  23
ENDBRANCH   3  22
TORSDOF 15
