REMARK SMILES O=C(NCCCNC(=O)c1ccccc1C[N@H+]1CCCC[C@@H]1CCn1cccn1)c1ccc(-c2c3nc(c(-c4c(F)cccc4F)c4ccc([nH]4)c(-c4c(F)cccc4F)c4nc(c(-c5c(F)cccc5F)c5ccc2[nH]5)C=C4)C=C3)cc1
REMARK SMILES IDX 7 1 8 2 9 3 6 5 5 6 4 7 3 8 1 9 2 10 30 12 31 13 83 14 32 15
REMARK SMILES IDX 82 16 33 17 34 18 35 19 76 20 36 21 81 22 75 23 77 24 37 25
REMARK SMILES IDX 80 26 74 27 73 28 38 30 64 31 47 32 63 33 48 34 51 35 62 36
REMARK SMILES IDX 78 37 49 38 50 39 61 41 79 42 52 43 39 44 40 45 45 46 41 47
REMARK SMILES IDX 42 48 44 49 46 50 43 51 65 52 66 53 71 54 67 55 68 56 70 57
REMARK SMILES IDX 72 58 69 59 53 60 54 61 59 62 55 63 56 64 58 65 60 66 57 67
REMARK SMILES IDX 10 68 11 69 15 70 12 71 14 72 13 73 16 74 17 75 18 76 22 77
REMARK SMILES IDX 19 79 21 80 20 81 23 82 24 83 25 84 26 85 29 86 27 87 28 88
REMARK H PARENT 7 4 3 11 77 29 51 40 17 78
REMARK Flexibility Score: inf
ROOT
ATOM      1  N   UNL     1       5.400   2.414   2.814  1.00  0.00    -0.352 N 
ATOM      2  C   UNL     1       5.964   3.243   3.759  1.00  0.00     0.251 C 
ATOM      3  O   UNL     1       6.255   2.799   4.858  1.00  0.00    -0.269 OA
ATOM      4  H   UNL     1       5.275   1.481   3.102  1.00  0.00     0.163 HD
ENDROOT
BRANCH   1   5
ATOM      5  C   UNL     1       4.962   2.703   1.458  1.00  0.00     0.118 C 
BRANCH   5   6
ATOM      6  C   UNL     1       5.343   1.640   0.437  1.00  0.00     0.042 C 
BRANCH   6   7
ATOM      7  C   UNL     1       4.796   0.246   0.732  1.00  0.00     0.118 C 
BRANCH   7   8
ATOM      8  N   UNL     1       3.353   0.166   0.841  1.00  0.00    -0.352 N 
ATOM      9  O   UNL     1       1.223  -0.255   0.450  1.00  0.00    -0.269 OA
ATOM     10  C   UNL     1       2.327  -0.012  -0.044  1.00  0.00     0.251 C 
ATOM     11  H   UNL     1       3.038   0.262   1.769  1.00  0.00     0.163 HD
BRANCH  10  12
ATOM     12  C   UNL     1       2.425   0.139  -1.522  1.00  0.00     0.039 A 
ATOM     13  C   UNL     1       3.602   0.280  -2.259  1.00  0.00     0.014 A 
ATOM     14  C   UNL     1       1.195   0.184  -2.208  1.00  0.00     0.014 A 
ATOM     15  C   UNL     1       3.548   0.548  -3.626  1.00  0.00     0.010 A 
ATOM     16  C   UNL     1       1.135   0.438  -3.572  1.00  0.00     0.010 A 
ATOM     17  C   UNL     1       2.314   0.654  -4.276  1.00  0.00    -0.014 A 
BRANCH  17  18
ATOM     18  C   UNL     1       2.299   0.782  -5.732  1.00  0.00     0.031 A 
ATOM     19  C   UNL     1       2.865  -0.404  -6.445  1.00  0.00     0.074 A 
ATOM     20  C   UNL     1       1.674   1.779  -6.395  1.00  0.00     0.049 A 
ATOM     21  N   UNL     1       3.857  -0.446  -7.274  1.00  0.00    -0.248 NA
ATOM     22  C   UNL     1       2.326  -1.732  -6.096  1.00  0.00     0.031 C 
ATOM     23  C   UNL     1       0.831   2.841  -5.840  1.00  0.00     0.029 A 
ATOM     24  N   UNL     1       1.585   1.999  -7.739  1.00  0.00    -0.354 N 
ATOM     25  C   UNL     1       3.950  -1.772  -7.695  1.00  0.00     0.074 A 
ATOM     26  C   UNL     1       3.086  -2.538  -6.837  1.00  0.00     0.031 C 
ATOM     27  C   UNL     1       0.147   3.442  -6.842  1.00  0.00     0.029 A 
ATOM     28  C   UNL     1       0.596   2.903  -8.114  1.00  0.00     0.049 A 
ATOM     29  H   UNL     1       2.174   1.553  -8.391  1.00  0.00     0.167 HD
ATOM     30  C   UNL     1       4.564  -2.113  -8.861  1.00  0.00     0.037 A 
ATOM     31  C   UNL     1       0.146   3.147  -9.373  1.00  0.00     0.037 A 
ATOM     32  C   UNL     1       5.462  -1.082  -9.306  1.00  0.00     0.049 A 
ATOM     33  C   UNL     1       1.167   2.641 -10.322  1.00  0.00     0.074 A 
ATOM     34  C   UNL     1       6.592  -0.487  -8.782  1.00  0.00     0.029 A 
ATOM     35  N   UNL     1       5.038  -0.249 -10.311  1.00  0.00    -0.354 N 
ATOM     36  N   UNL     1       2.345   3.173 -10.475  1.00  0.00    -0.248 NA
ATOM     37  C   UNL     1       1.035   1.264 -10.773  1.00  0.00     0.031 C 
ATOM     38  C   UNL     1       6.482   0.888  -9.143  1.00  0.00     0.029 A 
ATOM     39  C   UNL     1       5.334   1.031  -9.922  1.00  0.00     0.049 A 
ATOM     40  H   UNL     1       4.604  -0.520 -11.152  1.00  0.00     0.167 HD
ATOM     41  C   UNL     1       3.200   2.091 -10.615  1.00  0.00     0.074 A 
ATOM     42  C   UNL     1       2.328   0.945 -10.868  1.00  0.00     0.031 C 
ATOM     43  C   UNL     1       4.507   2.172 -10.232  1.00  0.00     0.037 A 
BRANCH  30  44
ATOM     44  C   UNL     1       4.076  -3.212  -9.772  1.00  0.00     0.057 A 
ATOM     45  C   UNL     1       4.859  -3.605 -10.871  1.00  0.00     0.134 A 
ATOM     46  C   UNL     1       2.748  -3.685  -9.783  1.00  0.00     0.134 A 
ATOM     47  F   UNL     1       6.132  -3.197 -10.991  1.00  0.00    -0.206 F 
ATOM     48  C   UNL     1       4.340  -4.361 -11.931  1.00  0.00     0.040 A 
ATOM     49  C   UNL     1       2.234  -4.481 -10.810  1.00  0.00     0.040 A 
ATOM     50  F   UNL     1       1.849  -3.320  -8.861  1.00  0.00    -0.206 F 
ATOM     51  C   UNL     1       3.021  -4.797 -11.905  1.00  0.00     0.006 A 
ENDBRANCH  30  44
BRANCH  31  52
ATOM     52  C   UNL     1      -1.225   3.486  -9.829  1.00  0.00     0.057 A 
ATOM     53  C   UNL     1      -1.464   3.992 -11.117  1.00  0.00     0.134 A 
ATOM     54  C   UNL     1      -2.357   3.044  -9.124  1.00  0.00     0.134 A 
ATOM     55  F   UNL     1      -0.446   4.396 -11.891  1.00  0.00    -0.206 F 
ATOM     56  C   UNL     1      -2.749   4.032 -11.679  1.00  0.00     0.040 A 
ATOM     57  C   UNL     1      -3.645   3.083  -9.671  1.00  0.00     0.040 A 
ATOM     58  F   UNL     1      -2.240   2.471  -7.918  1.00  0.00    -0.206 F 
ATOM     59  C   UNL     1      -3.844   3.565 -10.959  1.00  0.00     0.006 A 
ENDBRANCH  31  52
BRANCH  43  60
ATOM     60  C   UNL     1       5.053   3.528  -9.878  1.00  0.00     0.057 A 
ATOM     61  C   UNL     1       4.590   4.314  -8.810  1.00  0.00     0.134 A 
ATOM     62  C   UNL     1       6.188   3.990 -10.553  1.00  0.00     0.134 A 
ATOM     63  F   UNL     1       3.573   3.911  -8.040  1.00  0.00    -0.206 F 
ATOM     64  C   UNL     1       5.202   5.523  -8.463  1.00  0.00     0.040 A 
ATOM     65  C   UNL     1       6.830   5.177 -10.194  1.00  0.00     0.040 A 
ATOM     66  F   UNL     1       6.722   3.265 -11.549  1.00  0.00    -0.206 F 
ATOM     67  C   UNL     1       6.331   5.954  -9.153  1.00  0.00     0.006 A 
ENDBRANCH  43  60
ENDBRANCH  17  18
ENDBRANCH  10  12
ENDBRANCH   7   8
ENDBRANCH   6   7
ENDBRANCH   5   6
ENDBRANCH   1   5
BRANCH   2  68
ATOM     68  C   UNL     1       6.283   4.653   3.430  1.00  0.00     0.048 A 
ATOM     69  C   UNL     1       7.629   5.024   3.612  1.00  0.00     0.014 A 
ATOM     70  C   UNL     1       5.337   5.586   2.967  1.00  0.00     0.019 A 
ATOM     71  C   UNL     1       8.071   6.295   3.254  1.00  0.00     0.001 A 
ATOM     72  C   UNL     1       5.833   6.827   2.542  1.00  0.00     0.010 A 
ATOM     73  C   UNL     1       7.174   7.188   2.690  1.00  0.00     0.001 A 
BRANCH  70  74
ATOM     74  C   UNL     1       3.852   5.276   2.866  1.00  0.00     0.300 C 
BRANCH  74  75
ATOM     75  N   UNL     1       2.895   6.133   3.589  1.00  0.00    -0.329 N 
ATOM     76  C   UNL     1       3.155   6.080   5.036  1.00  0.00     0.262 C 
ATOM     77  C   UNL     1       2.662   7.501   3.074  1.00  0.00     0.186 C 
ATOM     78  H   UNL     1       1.986   5.715   3.392  1.00  0.00     0.348 HD
ATOM     79  C   UNL     1       2.012   6.696   5.833  1.00  0.00     0.062 C 
ATOM     80  C   UNL     1       1.500   8.146   3.865  1.00  0.00     0.065 C 
ATOM     81  C   UNL     1       1.745   8.117   5.371  1.00  0.00     0.012 C 
BRANCH  77  82
ATOM     82  C   UNL     1       2.330   7.514   1.555  1.00  0.00     0.088 C 
BRANCH  82  83
ATOM     83  C   UNL     1       2.192   8.899   0.905  1.00  0.00     0.150 C 
BRANCH  83  84
ATOM     84  N   UNL     1       3.397   9.708   0.941  1.00  0.00    -0.273 N 
ATOM     85  C   UNL     1       3.517  10.980   1.421  1.00  0.00     0.108 A 
ATOM     86  N   UNL     1       4.548   9.231   0.428  1.00  0.00    -0.182 NA
ATOM     87  C   UNL     1       4.846  11.313   1.296  1.00  0.00     0.042 A 
ATOM     88  C   UNL     1       5.436  10.193   0.686  1.00  0.00     0.135 A 
ENDBRANCH  83  84
ENDBRANCH  82  83
ENDBRANCH  77  82
ENDBRANCH  74  75
ENDBRANCH  70  74
ENDBRANCH   2  68
TORSDOF 15
