REMARK SMILES O=C(NCCCNC(=O)c1cccc(N2NC(=O)[C@H]3CC=CC[C@H]3C2=O)c1)c1ccc(-c2c3nc(c(-c4c(F)cccc4F)c4ccc([nH]4)c(-c4c(F)cccc4F)c4nc(c(-c5c(F)cccc5F)c5ccc2[nH]5)C=C4)C=C3)cc1
REMARK SMILES IDX 4 1 3 2 1 3 2 4 28 6 29 7 81 8 30 9 80 10 31 11 32 12 33 13
REMARK SMILES IDX 74 14 34 15 79 16 73 17 75 18 35 19 78 20 72 21 71 22 36 24
REMARK SMILES IDX 62 25 45 26 61 27 46 28 49 29 60 30 76 31 47 32 48 33 59 35
REMARK SMILES IDX 77 36 50 37 37 38 38 39 43 40 39 41 40 42 42 43 44 44 41 45
REMARK SMILES IDX 63 46 64 47 69 48 65 49 66 50 68 51 70 52 67 53 51 54 52 55
REMARK SMILES IDX 57 56 53 57 54 58 56 59 58 60 55 61 5 62 6 63 7 64 8 65 9 67
REMARK SMILES IDX 10 68 11 69 27 70 12 71 14 72 13 73 15 74 16 75 25 76 17 77
REMARK SMILES IDX 24 79 26 80 18 81 19 82 23 83 20 84 22 85 21 86
REMARK H PARENT 3 5 75 23 49 34 7 66 16 78
REMARK Flexibility Score: inf
ROOT
ATOM      1  C   UNL     1       4.611  -0.731   1.180  1.00  0.00     0.118 C 
ENDROOT
BRANCH   1   2
ATOM      2  N   UNL     1       3.168  -0.749   0.983  1.00  0.00    -0.352 N 
ATOM      3  O   UNL     1       1.177  -0.128   0.137  1.00  0.00    -0.269 OA
ATOM      4  C   UNL     1       2.399  -0.143   0.021  1.00  0.00     0.251 C 
ATOM      5  H   UNL     1       2.666  -1.279   1.643  1.00  0.00     0.163 HD
BRANCH   4   6
ATOM      6  C   UNL     1       3.036   0.510  -1.141  1.00  0.00     0.039 A 
ATOM      7  C   UNL     1       4.104  -0.094  -1.809  1.00  0.00     0.014 A 
ATOM      8  C   UNL     1       2.534   1.735  -1.589  1.00  0.00     0.014 A 
ATOM      9  C   UNL     1       4.766   0.589  -2.822  1.00  0.00     0.010 A 
ATOM     10  C   UNL     1       3.138   2.376  -2.672  1.00  0.00     0.010 A 
ATOM     11  C   UNL     1       4.276   1.821  -3.279  1.00  0.00    -0.014 A 
BRANCH  11  12
ATOM     12  C   UNL     1       4.915   2.484  -4.441  1.00  0.00     0.031 A 
ATOM     13  C   UNL     1       5.557   3.833  -4.303  1.00  0.00     0.074 A 
ATOM     14  C   UNL     1       4.881   1.868  -5.638  1.00  0.00     0.049 A 
ATOM     15  N   UNL     1       6.087   4.593  -5.228  1.00  0.00    -0.248 NA
ATOM     16  C   UNL     1       5.599   4.411  -2.952  1.00  0.00     0.031 C 
ATOM     17  C   UNL     1       4.277   0.559  -5.894  1.00  0.00     0.029 A 
ATOM     18  N   UNL     1       5.351   2.264  -6.864  1.00  0.00    -0.354 N 
ATOM     19  C   UNL     1       6.502   5.747  -4.578  1.00  0.00     0.074 A 
ATOM     20  C   UNL     1       6.138   5.599  -3.185  1.00  0.00     0.031 C 
ATOM     21  C   UNL     1       4.418   0.256  -7.191  1.00  0.00     0.029 A 
ATOM     22  C   UNL     1       5.057   1.377  -7.870  1.00  0.00     0.049 A 
ATOM     23  H   UNL     1       5.848   3.101  -7.008  1.00  0.00     0.167 HD
ATOM     24  C   UNL     1       7.131   6.829  -5.100  1.00  0.00     0.037 A 
ATOM     25  C   UNL     1       5.239   1.470  -9.200  1.00  0.00     0.037 A 
ATOM     26  C   UNL     1       7.485   6.962  -6.491  1.00  0.00     0.049 A 
ATOM     27  C   UNL     1       5.896   2.695  -9.764  1.00  0.00     0.074 A 
ATOM     28  C   UNL     1       8.166   7.995  -7.111  1.00  0.00     0.029 A 
ATOM     29  N   UNL     1       7.168   6.042  -7.481  1.00  0.00    -0.354 N 
ATOM     30  N   UNL     1       6.329   3.759  -9.133  1.00  0.00    -0.248 NA
ATOM     31  C   UNL     1       6.090   2.734 -11.218  1.00  0.00     0.031 C 
ATOM     32  C   UNL     1       8.203   7.732  -8.484  1.00  0.00     0.029 A 
ATOM     33  C   UNL     1       7.607   6.501  -8.712  1.00  0.00     0.049 A 
ATOM     34  H   UNL     1       6.701   5.189  -7.330  1.00  0.00     0.167 HD
ATOM     35  C   UNL     1       6.869   4.586 -10.109  1.00  0.00     0.074 A 
ATOM     36  C   UNL     1       6.713   3.895 -11.373  1.00  0.00     0.031 C 
ATOM     37  C   UNL     1       7.448   5.803  -9.965  1.00  0.00     0.037 A 
BRANCH  24  38
ATOM     38  C   UNL     1       7.434   7.969  -4.168  1.00  0.00     0.057 A 
ATOM     39  C   UNL     1       8.381   7.865  -3.140  1.00  0.00     0.134 A 
ATOM     40  C   UNL     1       6.774   9.197  -4.311  1.00  0.00     0.134 A 
ATOM     41  F   UNL     1       9.046   6.716  -2.941  1.00  0.00    -0.206 F 
ATOM     42  C   UNL     1       8.627   8.923  -2.262  1.00  0.00     0.040 A 
ATOM     43  C   UNL     1       7.035  10.273  -3.460  1.00  0.00     0.040 A 
ATOM     44  F   UNL     1       5.865   9.374  -5.281  1.00  0.00    -0.206 F 
ATOM     45  C   UNL     1       7.956  10.133  -2.424  1.00  0.00     0.006 A 
ENDBRANCH  24  38
BRANCH  25  46
ATOM     46  C   UNL     1       4.763   0.368 -10.071  1.00  0.00     0.057 A 
ATOM     47  C   UNL     1       5.659  -0.496 -10.706  1.00  0.00     0.134 A 
ATOM     48  C   UNL     1       3.394   0.119 -10.238  1.00  0.00     0.134 A 
ATOM     49  F   UNL     1       6.981  -0.301 -10.592  1.00  0.00    -0.206 F 
ATOM     50  C   UNL     1       5.213  -1.570 -11.478  1.00  0.00     0.040 A 
ATOM     51  C   UNL     1       2.934  -0.966 -10.984  1.00  0.00     0.040 A 
ATOM     52  F   UNL     1       2.485   0.904  -9.642  1.00  0.00    -0.206 F 
ATOM     53  C   UNL     1       3.846  -1.813 -11.610  1.00  0.00     0.006 A 
ENDBRANCH  25  46
BRANCH  37  54
ATOM     54  C   UNL     1       7.996   6.459 -11.198  1.00  0.00     0.057 A 
ATOM     55  C   UNL     1       7.164   7.023 -12.173  1.00  0.00     0.134 A 
ATOM     56  C   UNL     1       9.380   6.593 -11.372  1.00  0.00     0.134 A 
ATOM     57  F   UNL     1       5.830   6.915 -12.074  1.00  0.00    -0.206 F 
ATOM     58  C   UNL     1       7.689   7.692 -13.280  1.00  0.00     0.040 A 
ATOM     59  C   UNL     1       9.916   7.284 -12.459  1.00  0.00     0.040 A 
ATOM     60  F   UNL     1      10.232   6.080 -10.472  1.00  0.00    -0.206 F 
ATOM     61  C   UNL     1       9.069   7.834 -13.418  1.00  0.00     0.006 A 
ENDBRANCH  37  54
ENDBRANCH  11  12
ENDBRANCH   4   6
ENDBRANCH   1   2
BRANCH   1  62
ATOM     62  C   UNL     1       5.023   0.005   2.444  1.00  0.00     0.042 C 
BRANCH  62  63
ATOM     63  C   UNL     1       4.500  -0.623   3.727  1.00  0.00     0.118 C 
BRANCH  63  64
ATOM     64  N   UNL     1       4.954  -1.996   3.909  1.00  0.00    -0.352 N 
ATOM     65  C   UNL     1       5.721  -2.542   4.906  1.00  0.00     0.251 C 
ATOM     66  H   UNL     1       4.666  -2.627   3.211  1.00  0.00     0.163 HD
ATOM     67  O   UNL     1       6.144  -3.690   4.806  1.00  0.00    -0.269 OA
BRANCH  65  68
ATOM     68  C   UNL     1       6.065  -1.732   6.088  1.00  0.00     0.041 A 
ATOM     69  C   UNL     1       7.403  -1.665   6.484  1.00  0.00     0.014 A 
ATOM     70  C   UNL     1       5.074  -1.027   6.781  1.00  0.00     0.042 A 
ATOM     71  C   UNL     1       7.770  -0.795   7.504  1.00  0.00     0.003 A 
ATOM     72  C   UNL     1       5.445  -0.114   7.766  1.00  0.00     0.067 A 
ATOM     73  C   UNL     1       6.802   0.009   8.108  1.00  0.00     0.028 A 
BRANCH  72  74
ATOM     74  N   UNL     1       4.464   0.638   8.466  1.00  0.00    -0.221 N 
ATOM     75  N   UNL     1       3.346  -0.054   8.942  1.00  0.00    -0.260 N 
ATOM     76  C   UNL     1       4.736   1.938   8.888  1.00  0.00     0.249 C 
ATOM     77  C   UNL     1       2.581   0.356   9.997  1.00  0.00     0.243 C 
ATOM     78  H   UNL     1       3.095  -0.891   8.489  1.00  0.00     0.192 HD
ATOM     79  C   UNL     1       4.205   2.272  10.259  1.00  0.00     0.097 C 
ATOM     80  O   UNL     1       5.490   2.716   8.304  1.00  0.00    -0.272 OA
ATOM     81  O   UNL     1       1.708  -0.389  10.438  1.00  0.00    -0.273 OA
ATOM     82  C   UNL     1       2.779   1.782  10.471  1.00  0.00     0.097 C 
ATOM     83  C   UNL     1       5.219   1.681  11.255  1.00  0.00     0.041 C 
ATOM     84  C   UNL     1       2.332   1.970  11.931  1.00  0.00     0.041 C 
ATOM     85  C   UNL     1       4.692   1.532  12.641  1.00  0.00    -0.030 C 
ATOM     86  C   UNL     1       3.397   1.670  12.947  1.00  0.00    -0.030 C 
ENDBRANCH  72  74
ENDBRANCH  65  68
ENDBRANCH  63  64
ENDBRANCH  62  63
ENDBRANCH   1  62
TORSDOF 11
