REMARK SMILES Cc1cccc(-n2ncc(C(=O)Nc3cccc(C(=O)NCCCNC(=O)c4ccc(-c5c6nc(c(-c7c(F)cccc7F)c7ccc([nH]7)c(-c7c(F)cccc7F)c7nc(c(-c8c(F)cccc8F)c8ccc5[nH]8)C=C7)C=C6)cc4)c3C)c2C)c1
REMARK SMILES IDX 22 1 21 2 19 3 20 4 18 6 14 7 15 8 82 9 16 10 83 11 17 12
REMARK SMILES IDX 13 13 11 14 12 15 10 17 7 18 8 19 84 20 9 21 85 22 6 23 1 24
REMARK SMILES IDX 2 25 3 26 86 27 4 28 5 29 23 30 24 31 25 32 26 33 27 35
REMARK SMILES IDX 28 36 29 37 81 38 30 39 80 40 31 41 32 42 33 43 74 44 34 45
REMARK SMILES IDX 79 46 73 47 75 48 35 49 78 50 72 51 71 52 36 54 62 55 45 56
REMARK SMILES IDX 61 57 46 58 49 59 60 60 76 61 47 62 48 63 59 65 77 66 50 67
REMARK SMILES IDX 37 68 38 69 43 70 39 71 40 72 42 73 44 74 41 75 63 76 64 77
REMARK SMILES IDX 69 78 65 79 66 80 68 81 70 82 67 83 51 84 52 85 57 86 53 87
REMARK SMILES IDX 54 88 56 89 58 90 55 91
REMARK H PARENT 21 5 13 16 25 34 75 53 49 64
REMARK Flexibility Score: inf
ROOT
ATOM      1  C   UNL     1      -1.008   9.118  -3.769  1.00  0.00     0.118 C 
ENDROOT
BRANCH   1   2
ATOM      2  N   UNL     1      -1.492   9.879  -2.627  1.00  0.00    -0.352 N 
ATOM      3  C   UNL     1      -2.411   9.635  -1.629  1.00  0.00     0.251 C 
ATOM      4  O   UNL     1      -2.548  10.556  -0.826  1.00  0.00    -0.269 OA
ATOM      5  H   UNL     1      -1.070  10.765  -2.550  1.00  0.00     0.163 HD
BRANCH   3   6
ATOM      6  C   UNL     1      -3.190   8.348  -1.470  1.00  0.00     0.044 A 
ATOM      7  C   UNL     1      -4.198   6.600  -0.100  1.00  0.00     0.045 A 
ATOM      8  C   UNL     1      -4.417   5.811  -1.233  1.00  0.00     0.026 A 
ATOM      9  C   UNL     1      -3.686   7.920  -0.206  1.00  0.00    -0.015 A 
ATOM     10  C   UNL     1      -4.064   6.287  -2.479  1.00  0.00     0.003 A 
ATOM     11  C   UNL     1      -3.571   8.749   1.052  1.00  0.00     0.047 C 
ATOM     12  C   UNL     1      -3.445   7.529  -2.582  1.00  0.00     0.014 A 
BRANCH   7  13
ATOM     13  N   UNL     1      -4.464   6.043   1.161  1.00  0.00    -0.322 N 
ATOM     14  C   UNL     1      -4.168   4.777   1.623  1.00  0.00     0.259 C 
ATOM     15  O   UNL     1      -4.776   4.367   2.612  1.00  0.00    -0.269 OA
ATOM     16  H   UNL     1      -4.923   6.634   1.801  1.00  0.00     0.170 HD
BRANCH  14  17
ATOM     17  C   UNL     1      -3.072   4.014   1.019  1.00  0.00     0.081 A 
ATOM     18  N   UNL     1      -1.657   2.369   0.479  1.00  0.00    -0.237 N 
ATOM     19  N   UNL     1      -1.126   3.487  -0.075  1.00  0.00    -0.175 NA
ATOM     20  C   UNL     1      -2.770   2.673   1.254  1.00  0.00     0.054 A 
ATOM     21  C   UNL     1      -1.987   4.452   0.228  1.00  0.00     0.149 A 
ATOM     22  C   UNL     1      -3.388   1.751   2.248  1.00  0.00     0.068 C 
BRANCH  18  23
ATOM     23  C   UNL     1      -1.016   1.120   0.258  1.00  0.00     0.065 A 
ATOM     24  C   UNL     1       2.548  -0.139  -0.219  1.00  0.00     0.044 C 
ATOM     25  C   UNL     1       1.054  -0.111  -0.095  1.00  0.00    -0.049 A 
ATOM     26  C   UNL     1       0.327  -1.307  -0.069  1.00  0.00     0.003 A 
ATOM     27  C   UNL     1       0.371   1.103   0.039  1.00  0.00     0.031 A 
ATOM     28  C   UNL     1      -1.060  -1.290   0.088  1.00  0.00     0.002 A 
ATOM     29  C   UNL     1      -1.734  -0.080   0.256  1.00  0.00     0.028 A 
ENDBRANCH  18  23
ENDBRANCH  14  17
ENDBRANCH   7  13
ENDBRANCH   3   6
ENDBRANCH   1   2
BRANCH   1  30
ATOM     30  C   UNL     1      -1.910   9.318  -4.988  1.00  0.00     0.042 C 
BRANCH  30  31
ATOM     31  C   UNL     1      -1.500  10.460  -5.899  1.00  0.00     0.118 C 
BRANCH  31  32
ATOM     32  N   UNL     1      -0.741  10.026  -7.070  1.00  0.00    -0.352 N 
ATOM     33  C   UNL     1      -0.295  10.776  -8.147  1.00  0.00     0.251 C 
ATOM     34  H   UNL     1      -0.516   9.069  -7.097  1.00  0.00     0.163 HD
ATOM     35  O   UNL     1       0.366  10.261  -9.033  1.00  0.00    -0.269 OA
BRANCH  33  36
ATOM     36  C   UNL     1      -0.504  12.242  -8.121  1.00  0.00     0.039 A 
ATOM     37  C   UNL     1       0.637  13.046  -8.202  1.00  0.00     0.014 A 
ATOM     38  C   UNL     1      -1.724  12.774  -7.715  1.00  0.00     0.014 A 
ATOM     39  C   UNL     1       0.622  14.293  -7.592  1.00  0.00     0.010 A 
ATOM     40  C   UNL     1      -1.711  13.961  -7.012  1.00  0.00     0.010 A 
ATOM     41  C   UNL     1      -0.512  14.671  -6.876  1.00  0.00    -0.014 A 
BRANCH  41  42
ATOM     42  C   UNL     1      -0.481  15.693  -5.836  1.00  0.00     0.031 A 
ATOM     43  C   UNL     1      -1.171  16.981  -6.034  1.00  0.00     0.074 A 
ATOM     44  C   UNL     1       0.117  15.413  -4.656  1.00  0.00     0.049 A 
ATOM     45  N   UNL     1      -0.960  18.037  -5.323  1.00  0.00    -0.248 NA
ATOM     46  C   UNL     1      -2.102  17.207  -7.131  1.00  0.00     0.031 C 
ATOM     47  C   UNL     1      -0.007  16.145  -3.399  1.00  0.00     0.029 A 
ATOM     48  N   UNL     1       1.163  14.504  -4.428  1.00  0.00    -0.354 N 
ATOM     49  C   UNL     1      -1.907  18.974  -5.667  1.00  0.00     0.074 A 
ATOM     50  C   UNL     1      -2.503  18.454  -6.871  1.00  0.00     0.031 C 
ATOM     51  C   UNL     1       1.069  15.887  -2.640  1.00  0.00     0.029 A 
ATOM     52  C   UNL     1       1.987  15.108  -3.453  1.00  0.00     0.049 A 
ATOM     53  H   UNL     1       1.295  13.628  -4.858  1.00  0.00     0.167 HD
ATOM     54  C   UNL     1      -2.150  20.001  -4.801  1.00  0.00     0.037 A 
ATOM     55  C   UNL     1       3.277  15.461  -3.719  1.00  0.00     0.037 A 
ATOM     56  C   UNL     1      -1.104  20.063  -3.773  1.00  0.00     0.049 A 
ATOM     57  C   UNL     1       3.571  16.927  -3.508  1.00  0.00     0.074 A 
ATOM     58  C   UNL     1      -1.049  19.672  -2.445  1.00  0.00     0.029 A 
ATOM     59  N   UNL     1       0.207  20.334  -4.156  1.00  0.00    -0.354 N 
ATOM     60  N   UNL     1       2.656  17.856  -3.475  1.00  0.00    -0.248 NA
ATOM     61  C   UNL     1       4.918  17.466  -3.344  1.00  0.00     0.031 C 
ATOM     62  C   UNL     1       0.315  19.646  -2.051  1.00  0.00     0.029 A 
ATOM     63  C   UNL     1       1.085  20.048  -3.129  1.00  0.00     0.049 A 
ATOM     64  H   UNL     1       0.472  20.681  -5.038  1.00  0.00     0.167 HD
ATOM     65  C   UNL     1       3.251  19.082  -3.317  1.00  0.00     0.074 A 
ATOM     66  C   UNL     1       4.667  18.781  -3.215  1.00  0.00     0.031 C 
ATOM     67  C   UNL     1       2.520  20.237  -3.302  1.00  0.00     0.037 A 
BRANCH  54  68
ATOM     68  C   UNL     1      -3.457  20.780  -4.707  1.00  0.00     0.057 A 
ATOM     69  C   UNL     1      -3.758  21.526  -3.546  1.00  0.00     0.134 A 
ATOM     70  C   UNL     1      -4.508  20.766  -5.645  1.00  0.00     0.134 A 
ATOM     71  F   UNL     1      -2.855  21.715  -2.575  1.00  0.00    -0.206 F 
ATOM     72  C   UNL     1      -5.012  22.114  -3.306  1.00  0.00     0.040 A 
ATOM     73  C   UNL     1      -5.768  21.340  -5.416  1.00  0.00     0.040 A 
ATOM     74  F   UNL     1      -4.388  20.223  -6.856  1.00  0.00    -0.206 F 
ATOM     75  C   UNL     1      -6.032  22.004  -4.234  1.00  0.00     0.006 A 
ENDBRANCH  54  68
BRANCH  55  76
ATOM     76  C   UNL     1       3.934  14.597  -4.733  1.00  0.00     0.057 A 
ATOM     77  C   UNL     1       4.133  13.237  -4.436  1.00  0.00     0.134 A 
ATOM     78  C   UNL     1       4.034  14.976  -6.074  1.00  0.00     0.134 A 
ATOM     79  F   UNL     1       4.050  12.805  -3.167  1.00  0.00    -0.206 F 
ATOM     80  C   UNL     1       4.311  12.280  -5.438  1.00  0.00     0.040 A 
ATOM     81  C   UNL     1       4.224  14.027  -7.086  1.00  0.00     0.040 A 
ATOM     82  F   UNL     1       3.834  16.250  -6.440  1.00  0.00    -0.206 F 
ATOM     83  C   UNL     1       4.325  12.672  -6.772  1.00  0.00     0.006 A 
ENDBRANCH  55  76
BRANCH  67  84
ATOM     84  C   UNL     1       3.065  21.647  -3.374  1.00  0.00     0.057 A 
ATOM     85  C   UNL     1       4.289  22.000  -3.963  1.00  0.00     0.134 A 
ATOM     86  C   UNL     1       2.267  22.742  -2.966  1.00  0.00     0.134 A 
ATOM     87  F   UNL     1       5.102  21.083  -4.502  1.00  0.00    -0.206 F 
ATOM     88  C   UNL     1       4.711  23.333  -4.086  1.00  0.00     0.040 A 
ATOM     89  C   UNL     1       2.654  24.076  -3.135  1.00  0.00     0.040 A 
ATOM     90  F   UNL     1       1.060  22.568  -2.408  1.00  0.00    -0.206 F 
ATOM     91  C   UNL     1       3.889  24.377  -3.683  1.00  0.00     0.006 A 
ENDBRANCH  67  84
ENDBRANCH  41  42
ENDBRANCH  33  36
ENDBRANCH  31  32
ENDBRANCH  30  31
ENDBRANCH   1  30
TORSDOF 13
