REMARK SMILES O=C(CSc1nnc(-c2cccc(C(F)(F)F)c2F)o1)NCCCNC(=O)c1ccc(-c2c3nc(c(-c4c(F)cccc4F)c4ccc([nH]4)c(-c4c(F)cccc4F)c4nc(c(-c5c(F)cccc5F)c5ccc2[nH]5)C=C4)C=C3)cc1
REMARK SMILES IDX 22 1 21 2 1 3 2 4 3 6 4 7 5 8 6 9 20 10 7 11 8 12 9 13 10 14
REMARK SMILES IDX 18 15 11 16 13 17 19 18 12 19 14 20 15 21 16 22 17 23 23 24
REMARK SMILES IDX 24 25 25 26 26 27 27 29 28 30 29 31 81 32 30 33 80 34 31 35
REMARK SMILES IDX 32 36 33 37 74 38 34 39 79 40 73 41 75 42 35 43 78 44 72 45
REMARK SMILES IDX 71 46 36 48 62 49 45 50 61 51 46 52 49 53 60 54 76 55 47 56
REMARK SMILES IDX 48 57 59 59 77 60 50 61 37 62 38 63 43 64 39 65 40 66 42 67
REMARK SMILES IDX 44 68 41 69 63 70 64 71 69 72 65 73 66 74 68 75 70 76 67 77
REMARK SMILES IDX 51 78 52 79 57 80 53 81 54 82 56 83 58 84 55 85
REMARK H PARENT 21 5 25 28 75 47 49 58
REMARK Flexibility Score: inf
ROOT
ATOM      1  C   UNL     1       2.248  -1.621   1.704  1.00  0.00     0.117 C 
ENDROOT
BRANCH   1   2
ATOM      2  N   UNL     1       2.879  -0.628   0.855  1.00  0.00    -0.355 N 
ATOM      3  O   UNL     1       0.953   0.043  -0.193  1.00  0.00    -0.274 OA
ATOM      4  C   UNL     1       2.156   0.186   0.008  1.00  0.00     0.230 C 
ATOM      5  H   UNL     1       3.859  -0.532   0.885  1.00  0.00     0.163 HD
BRANCH   4   6
ATOM      6  C   UNL     1       2.965   1.207  -0.772  1.00  0.00     0.179 C 
BRANCH   6   7
ATOM      7  S   UNL     1       4.189   2.094   0.223  1.00  0.00    -0.055 SA
BRANCH   7   8
ATOM      8  C   UNL     1       3.157   2.952   1.324  1.00  0.00     0.277 A 
ATOM      9  N   UNL     1       2.454   2.377   2.277  1.00  0.00    -0.101 NA
ATOM     10  O   UNL     1       3.091   4.320   1.376  1.00  0.00    -0.411 OA
ATOM     11  N   UNL     1       1.904   3.394   3.030  1.00  0.00    -0.107 NA
ATOM     12  C   UNL     1       2.286   4.520   2.465  1.00  0.00     0.251 A 
BRANCH  12  13
ATOM     13  C   UNL     1       2.101   5.889   2.902  1.00  0.00     0.075 A 
ATOM     14  C   UNL     1       2.396   6.240   4.228  1.00  0.00     0.017 A 
ATOM     15  C   UNL     1       1.619   6.873   2.032  1.00  0.00     0.148 A 
ATOM     16  C   UNL     1       2.232   7.555   4.665  1.00  0.00     0.002 A 
ATOM     17  C   UNL     1       1.424   8.189   2.460  1.00  0.00     0.092 A 
ATOM     18  F   UNL     1       1.318   6.538   0.769  1.00  0.00    -0.205 F 
ATOM     19  C   UNL     1       1.748   8.523   3.786  1.00  0.00     0.016 A 
BRANCH  17  20
ATOM     20  C   UNL     1       0.874   9.240   1.540  1.00  0.00     0.419 C 
ATOM     21  F   UNL     1      -0.243   9.830   2.053  1.00  0.00    -0.166 F 
ATOM     22  F   UNL     1       1.761  10.255   1.336  1.00  0.00    -0.166 F 
ATOM     23  F   UNL     1       0.522   8.801   0.302  1.00  0.00    -0.166 F 
ENDBRANCH  17  20
ENDBRANCH  12  13
ENDBRANCH   7   8
ENDBRANCH   6   7
ENDBRANCH   4   6
ENDBRANCH   1   2
BRANCH   1  24
ATOM     24  C   UNL     1       2.574  -3.051   1.287  1.00  0.00     0.042 C 
BRANCH  24  25
ATOM     25  C   UNL     1       4.053  -3.419   1.364  1.00  0.00     0.118 C 
BRANCH  25  26
ATOM     26  N   UNL     1       4.598  -3.350   2.714  1.00  0.00    -0.352 N 
ATOM     27  C   UNL     1       5.207  -4.308   3.486  1.00  0.00     0.251 C 
ATOM     28  H   UNL     1       4.516  -2.468   3.144  1.00  0.00     0.163 HD
ATOM     29  O   UNL     1       5.476  -4.055   4.660  1.00  0.00    -0.269 OA
BRANCH  27  30
ATOM     30  C   UNL     1       5.516  -5.649   2.944  1.00  0.00     0.039 A 
ATOM     31  C   UNL     1       5.255  -6.768   3.742  1.00  0.00     0.014 A 
ATOM     32  C   UNL     1       6.078  -5.818   1.676  1.00  0.00     0.014 A 
ATOM     33  C   UNL     1       5.471  -8.053   3.237  1.00  0.00     0.010 A 
ATOM     34  C   UNL     1       6.230  -7.101   1.148  1.00  0.00     0.010 A 
ATOM     35  C   UNL     1       5.912  -8.231   1.916  1.00  0.00    -0.014 A 
BRANCH  35  36
ATOM     36  C   UNL     1       5.995  -9.585   1.306  1.00  0.00     0.031 A 
ATOM     37  C   UNL     1       7.314 -10.147   0.857  1.00  0.00     0.074 A 
ATOM     38  C   UNL     1       4.861 -10.282   1.091  1.00  0.00     0.049 A 
ATOM     39  N   UNL     1       7.559 -11.265   0.222  1.00  0.00    -0.248 NA
ATOM     40  C   UNL     1       8.512  -9.343   1.144  1.00  0.00     0.031 C 
ATOM     41  C   UNL     1       3.515  -9.836   1.457  1.00  0.00     0.029 A 
ATOM     42  N   UNL     1       4.656 -11.506   0.504  1.00  0.00    -0.354 N 
ATOM     43  C   UNL     1       8.934 -11.297   0.028  1.00  0.00     0.074 A 
ATOM     44  C   UNL     1       9.465 -10.065   0.572  1.00  0.00     0.031 C 
ATOM     45  C   UNL     1       2.629 -10.781   1.107  1.00  0.00     0.029 A 
ATOM     46  C   UNL     1       3.333 -11.875   0.446  1.00  0.00     0.049 A 
ATOM     47  H   UNL     1       5.387 -12.067   0.157  1.00  0.00     0.167 HD
ATOM     48  C   UNL     1       9.685 -12.273  -0.535  1.00  0.00     0.037 A 
ATOM     49  C   UNL     1       2.746 -12.962  -0.093  1.00  0.00     0.037 A 
ATOM     50  C   UNL     1       9.155 -13.505  -1.060  1.00  0.00     0.049 A 
ATOM     51  C   UNL     1       3.597 -14.010  -0.754  1.00  0.00     0.074 A 
ATOM     52  C   UNL     1       9.847 -14.573  -1.604  1.00  0.00     0.029 A 
ATOM     53  N   UNL     1       7.808 -13.833  -1.111  1.00  0.00    -0.354 N 
ATOM     54  N   UNL     1       4.900 -14.047  -0.889  1.00  0.00    -0.248 NA
ATOM     55  C   UNL     1       2.901 -15.164  -1.341  1.00  0.00     0.031 C 
ATOM     56  C   UNL     1       8.918 -15.523  -2.036  1.00  0.00     0.029 A 
ATOM     57  C   UNL     1       7.649 -15.074  -1.706  1.00  0.00     0.049 A 
ATOM     58  H   UNL     1       7.075 -13.268  -0.775  1.00  0.00     0.167 HD
ATOM     59  C   UNL     1       5.182 -15.235  -1.551  1.00  0.00     0.074 A 
ATOM     60  C   UNL     1       3.915 -15.896  -1.784  1.00  0.00     0.031 C 
ATOM     61  C   UNL     1       6.385 -15.730  -1.928  1.00  0.00     0.037 A 
BRANCH  48  62
ATOM     62  C   UNL     1      11.169 -12.065  -0.611  1.00  0.00     0.057 A 
ATOM     63  C   UNL     1      11.807 -11.899  -1.848  1.00  0.00     0.134 A 
ATOM     64  C   UNL     1      11.979 -12.119   0.531  1.00  0.00     0.134 A 
ATOM     65  F   UNL     1      11.091 -11.849  -2.982  1.00  0.00    -0.206 F 
ATOM     66  C   UNL     1      13.196 -11.811  -1.947  1.00  0.00     0.040 A 
ATOM     67  C   UNL     1      13.368 -12.005   0.446  1.00  0.00     0.040 A 
ATOM     68  F   UNL     1      11.432 -12.269   1.746  1.00  0.00    -0.206 F 
ATOM     69  C   UNL     1      13.981 -11.862  -0.797  1.00  0.00     0.006 A 
ENDBRANCH  48  62
BRANCH  49  70
ATOM     70  C   UNL     1       1.271 -13.116  -0.011  1.00  0.00     0.057 A 
ATOM     71  C   UNL     1       0.405 -12.281  -0.728  1.00  0.00     0.134 A 
ATOM     72  C   UNL     1       0.694 -14.085   0.816  1.00  0.00     0.134 A 
ATOM     73  F   UNL     1       0.895 -11.327  -1.533  1.00  0.00    -0.206 F 
ATOM     74  C   UNL     1      -0.981 -12.389  -0.608  1.00  0.00     0.040 A 
ATOM     75  C   UNL     1      -0.691 -14.223   0.926  1.00  0.00     0.040 A 
ATOM     76  F   UNL     1       1.471 -14.928   1.513  1.00  0.00    -0.206 F 
ATOM     77  C   UNL     1      -1.533 -13.366   0.219  1.00  0.00     0.006 A 
ENDBRANCH  49  70
BRANCH  61  78
ATOM     78  C   UNL     1       6.413 -17.064  -2.614  1.00  0.00     0.057 A 
ATOM     79  C   UNL     1       6.956 -18.184  -1.970  1.00  0.00     0.134 A 
ATOM     80  C   UNL     1       6.003 -17.218  -3.944  1.00  0.00     0.134 A 
ATOM     81  F   UNL     1       7.378 -18.102  -0.699  1.00  0.00    -0.206 F 
ATOM     82  C   UNL     1       7.114 -19.402  -2.633  1.00  0.00     0.040 A 
ATOM     83  C   UNL     1       6.132 -18.438  -4.609  1.00  0.00     0.040 A 
ATOM     84  F   UNL     1       5.465 -16.187  -4.613  1.00  0.00    -0.206 F 
ATOM     85  C   UNL     1       6.701 -19.531  -3.957  1.00  0.00     0.006 A 
ENDBRANCH  61  78
ENDBRANCH  35  36
ENDBRANCH  27  30
ENDBRANCH  25  26
ENDBRANCH  24  25
ENDBRANCH   1  24
TORSDOF 14
