REMARK SMILES Cc1cc(=O)oc2cc(NC(=O)CC3(CC(=O)NCCCNC(=O)c4ccc(-c5c6nc(c(-c7c(F)cccc7F)c7ccc([nH]7)c(-c7c(F)cccc7F)c7nc(c(-c8c(F)cccc8F)c8ccc5[nH]8)C=C7)C=C6)cc4)CCCC3)ccc12
REMARK SMILES IDX 19 1 18 2 16 3 17 4 15 6 14 7 79 8 82 9 80 10 81 11 13 12
REMARK SMILES IDX 11 13 10 14 12 16 9 17 1 18 2 19 3 20 85 21 4 22 7 23 84 24
REMARK SMILES IDX 5 25 6 26 8 27 83 28 20 29 21 30 22 31 23 32 24 34 25 35
REMARK SMILES IDX 26 36 78 37 27 38 77 39 28 40 29 41 30 42 71 43 31 44 76 45
REMARK SMILES IDX 70 46 72 47 32 48 75 49 69 50 68 51 33 53 59 54 42 55 58 56
REMARK SMILES IDX 43 57 46 58 57 59 73 60 44 61 45 62 56 64 74 65 47 66 34 67
REMARK SMILES IDX 35 68 40 69 36 70 37 71 39 72 41 73 38 74 60 75 61 76 66 77
REMARK SMILES IDX 62 78 63 79 65 80 67 81 64 82 48 83 49 84 54 85 50 86 51 87
REMARK SMILES IDX 53 88 55 89 52 90
REMARK H PARENT 18 5 10 15 22 33 72 52 46 63
REMARK Flexibility Score: inf
ROOT
ATOM      1  C   UNL     1       7.285  -2.759   2.861  1.00  0.00     0.117 C 
ENDROOT
BRANCH   1   2
ATOM      2  N   UNL     1       7.887  -1.514   2.432  1.00  0.00    -0.356 N 
ATOM      3  C   UNL     1       7.353  -0.274   2.288  1.00  0.00     0.220 C 
ATOM      4  O   UNL     1       8.100   0.617   1.879  1.00  0.00    -0.275 OA
ATOM      5  H   UNL     1       8.843  -1.577   2.206  1.00  0.00     0.163 HD
BRANCH   3   6
ATOM      6  C   UNL     1       5.907   0.018   2.660  1.00  0.00     0.107 C 
BRANCH   6   7
ATOM      7  C   UNL     1       4.802  -0.101   1.561  1.00  0.00    -0.012 C 
ATOM      8  C   UNL     1       3.481   0.388   2.203  1.00  0.00     0.008 C 
ATOM      9  C   UNL     1       4.402  -1.559   1.260  1.00  0.00     0.008 C 
ATOM     10  C   UNL     1       2.969  -0.778   3.052  1.00  0.00     0.001 C 
ATOM     11  C   UNL     1       3.509  -2.039   2.394  1.00  0.00     0.001 C 
BRANCH   7  12
ATOM     12  C   UNL     1       5.231   0.597   0.232  1.00  0.00     0.108 C 
BRANCH  12  13
ATOM     13  C   UNL     1       4.688   1.980  -0.093  1.00  0.00     0.224 C 
ATOM     14  N   UNL     1       3.443   2.198  -0.614  1.00  0.00    -0.326 N 
ATOM     15  H   UNL     1       3.262   3.137  -0.846  1.00  0.00     0.169 HD
ATOM     16  O   UNL     1       5.371   2.979   0.158  1.00  0.00    -0.275 OA
BRANCH  14  17
ATOM     17  C   UNL     1       2.377   1.324  -0.878  1.00  0.00     0.044 A 
ATOM     18  C   UNL     1      -0.604  -2.886  -0.254  1.00  0.00     0.045 C 
ATOM     19  C   UNL     1      -0.856  -1.408  -0.313  1.00  0.00    -0.033 A 
ATOM     20  C   UNL     1      -2.040  -0.882   0.031  1.00  0.00     0.098 A 
ATOM     21  C   UNL     1       0.230  -0.489  -0.670  1.00  0.00     0.021 A 
ATOM     22  C   UNL     1      -2.294   0.567   0.091  1.00  0.00     0.336 A 
ATOM     23  C   UNL     1       0.048   0.877  -0.462  1.00  0.00     0.140 A 
ATOM     24  C   UNL     1       1.467  -0.906  -1.163  1.00  0.00     0.014 A 
ATOM     25  O   UNL     1      -3.417   0.996   0.326  1.00  0.00    -0.246 OA
ATOM     26  O   UNL     1      -1.201   1.399  -0.078  1.00  0.00    -0.423 OA
ATOM     27  C   UNL     1       1.098   1.791  -0.572  1.00  0.00     0.074 A 
ATOM     28  C   UNL     1       2.524   0.005  -1.293  1.00  0.00     0.027 A 
ENDBRANCH  14  17
ENDBRANCH  12  13
ENDBRANCH   7  12
ENDBRANCH   6   7
ENDBRANCH   3   6
ENDBRANCH   1   2
BRANCH   1  29
ATOM     29  C   UNL     1       7.189  -3.744   1.701  1.00  0.00     0.042 C 
BRANCH  29  30
ATOM     30  C   UNL     1       8.516  -4.380   1.337  1.00  0.00     0.118 C 
BRANCH  30  31
ATOM     31  N   UNL     1       8.895  -5.427   2.271  1.00  0.00    -0.352 N 
ATOM     32  C   UNL     1       8.922  -6.787   2.098  1.00  0.00     0.251 C 
ATOM     33  H   UNL     1       9.173  -5.113   3.161  1.00  0.00     0.163 HD
ATOM     34  O   UNL     1       9.049  -7.520   3.083  1.00  0.00    -0.269 OA
BRANCH  32  35
ATOM     35  C   UNL     1       8.778  -7.386   0.753  1.00  0.00     0.039 A 
ATOM     36  C   UNL     1       8.045  -8.568   0.609  1.00  0.00     0.014 A 
ATOM     37  C   UNL     1       9.385  -6.809  -0.366  1.00  0.00     0.014 A 
ATOM     38  C   UNL     1       7.875  -9.133  -0.657  1.00  0.00     0.010 A 
ATOM     39  C   UNL     1       9.123  -7.309  -1.636  1.00  0.00     0.010 A 
ATOM     40  C   UNL     1       8.385  -8.490  -1.796  1.00  0.00    -0.014 A 
BRANCH  40  41
ATOM     41  C   UNL     1       8.207  -9.051  -3.159  1.00  0.00     0.031 A 
ATOM     42  C   UNL     1       9.416  -9.430  -3.973  1.00  0.00     0.074 A 
ATOM     43  C   UNL     1       6.974  -9.148  -3.695  1.00  0.00     0.049 A 
ATOM     44  N   UNL     1       9.488  -9.815  -5.221  1.00  0.00    -0.248 NA
ATOM     45  C   UNL     1      10.723  -9.327  -3.302  1.00  0.00     0.031 C 
ATOM     46  C   UNL     1       5.726  -8.780  -3.025  1.00  0.00     0.029 A 
ATOM     47  N   UNL     1       6.571  -9.574  -4.936  1.00  0.00    -0.354 N 
ATOM     48  C   UNL     1      10.843  -9.973  -5.489  1.00  0.00     0.074 A 
ATOM     49  C   UNL     1      11.560  -9.589  -4.294  1.00  0.00     0.031 C 
ATOM     50  C   UNL     1       4.696  -9.015  -3.854  1.00  0.00     0.029 A 
ATOM     51  C   UNL     1       5.213  -9.506  -5.128  1.00  0.00     0.049 A 
ATOM     52  H   UNL     1       7.197  -9.898  -5.624  1.00  0.00     0.167 HD
ATOM     53  C   UNL     1      11.436 -10.422  -6.620  1.00  0.00     0.037 A 
ATOM     54  C   UNL     1       4.469  -9.793  -6.213  1.00  0.00     0.037 A 
ATOM     55  C   UNL     1      10.718 -10.842  -7.793  1.00  0.00     0.049 A 
ATOM     56  C   UNL     1       5.151 -10.286  -7.460  1.00  0.00     0.074 A 
ATOM     57  C   UNL     1      11.220 -11.372  -8.968  1.00  0.00     0.029 A 
ATOM     58  N   UNL     1       9.340 -10.781  -7.937  1.00  0.00    -0.354 N 
ATOM     59  N   UNL     1       6.428 -10.483  -7.681  1.00  0.00    -0.248 NA
ATOM     60  C   UNL     1       4.288 -10.598  -8.609  1.00  0.00     0.031 C 
ATOM     61  C   UNL     1      10.150 -11.591  -9.840  1.00  0.00     0.029 A 
ATOM     62  C   UNL     1       8.976 -11.245  -9.190  1.00  0.00     0.049 A 
ATOM     63  H   UNL     1       8.713 -10.456  -7.251  1.00  0.00     0.167 HD
ATOM     64  C   UNL     1       6.520 -10.973  -8.977  1.00  0.00     0.074 A 
ATOM     65  C   UNL     1       5.168 -11.050  -9.492  1.00  0.00     0.031 C 
ATOM     66  C   UNL     1       7.624 -11.331  -9.678  1.00  0.00     0.037 A 
BRANCH  53  67
ATOM     67  C   UNL     1      12.936 -10.488  -6.639  1.00  0.00     0.057 A 
ATOM     68  C   UNL     1      13.647 -11.417  -5.868  1.00  0.00     0.134 A 
ATOM     69  C   UNL     1      13.679  -9.630  -7.461  1.00  0.00     0.134 A 
ATOM     70  F   UNL     1      12.998 -12.259  -5.048  1.00  0.00    -0.206 F 
ATOM     71  C   UNL     1      15.042 -11.472  -5.891  1.00  0.00     0.040 A 
ATOM     72  C   UNL     1      15.072  -9.696  -7.516  1.00  0.00     0.040 A 
ATOM     73  F   UNL     1      13.062  -8.720  -8.230  1.00  0.00    -0.206 F 
ATOM     74  C   UNL     1      15.758 -10.614  -6.723  1.00  0.00     0.006 A 
ENDBRANCH  53  67
BRANCH  54  75
ATOM     75  C   UNL     1       2.993  -9.641  -6.165  1.00  0.00     0.057 A 
ATOM     76  C   UNL     1       2.152 -10.760  -6.184  1.00  0.00     0.134 A 
ATOM     77  C   UNL     1       2.386  -8.380  -6.105  1.00  0.00     0.134 A 
ATOM     78  F   UNL     1       2.672 -11.993  -6.259  1.00  0.00    -0.206 F 
ATOM     79  C   UNL     1       0.762 -10.631  -6.166  1.00  0.00     0.040 A 
ATOM     80  C   UNL     1       0.998  -8.238  -6.061  1.00  0.00     0.040 A 
ATOM     81  F   UNL     1       3.135  -7.268  -6.073  1.00  0.00    -0.206 F 
ATOM     82  C   UNL     1       0.182  -9.366  -6.099  1.00  0.00     0.006 A 
ENDBRANCH  54  75
BRANCH  66  83
ATOM     83  C   UNL     1       7.418 -11.881 -11.058  1.00  0.00     0.057 A 
ATOM     84  C   UNL     1       7.055 -11.064 -12.135  1.00  0.00     0.134 A 
ATOM     85  C   UNL     1       7.649 -13.238 -11.321  1.00  0.00     0.134 A 
ATOM     86  F   UNL     1       6.809  -9.759 -11.946  1.00  0.00    -0.206 F 
ATOM     87  C   UNL     1       6.913 -11.581 -13.424  1.00  0.00     0.040 A 
ATOM     88  C   UNL     1       7.535 -13.761 -12.609  1.00  0.00     0.040 A 
ATOM     89  F   UNL     1       8.008 -14.072 -10.333  1.00  0.00    -0.206 F 
ATOM     90  C   UNL     1       7.162 -12.931 -13.665  1.00  0.00     0.006 A 
ENDBRANCH  66  83
ENDBRANCH  40  41
ENDBRANCH  32  35
ENDBRANCH  30  31
ENDBRANCH  29  30
ENDBRANCH   1  29
TORSDOF 14
