REMARK SMILES O=C(CSc1nc2cccnc2n1CC(F)(F)F)NCCCNC(=O)c1ccc(-c2c3nc(c(-c4c(F)cccc4F)c4ccc([nH]4)c(-c4c(F)cccc4F)c4nc(c(-c5c(F)cccc5F)c5ccc2[nH]5)C=C4)C=C3)cc1
REMARK SMILES IDX 20 1 19 2 1 3 2 4 3 6 4 7 5 8 6 9 13 10 7 11 12 12 8 13
REMARK SMILES IDX 11 14 9 15 10 16 14 17 15 18 16 19 17 20 18 21 21 22 22 23
REMARK SMILES IDX 23 24 24 25 25 27 26 28 27 29 79 30 28 31 78 32 29 33 30 34
REMARK SMILES IDX 31 35 72 36 32 37 77 38 71 39 73 40 33 41 76 42 70 43 69 44
REMARK SMILES IDX 34 46 60 47 43 48 59 49 44 50 47 51 58 52 74 53 45 54 46 55
REMARK SMILES IDX 57 57 75 58 48 59 35 60 36 61 41 62 37 63 38 64 40 65 42 66
REMARK SMILES IDX 39 67 61 68 62 69 67 70 63 71 64 72 66 73 68 74 65 75 49 76
REMARK SMILES IDX 50 77 55 78 51 79 52 80 54 81 56 82 53 83
REMARK H PARENT 19 5 23 26 73 45 47 56
REMARK Flexibility Score: inf
ROOT
ATOM      1  C   UNL     1       1.910   1.662   1.681  1.00  0.00     0.117 C 
ENDROOT
BRANCH   1   2
ATOM      2  N   UNL     1       2.624   0.778   0.769  1.00  0.00    -0.355 N 
ATOM      3  O   UNL     1       0.745  -0.038  -0.256  1.00  0.00    -0.274 OA
ATOM      4  C   UNL     1       1.970   0.029  -0.192  1.00  0.00     0.230 C 
ATOM      5  H   UNL     1       3.604   0.713   0.840  1.00  0.00     0.163 HD
BRANCH   4   6
ATOM      6  C   UNL     1       2.864  -0.795  -1.110  1.00  0.00     0.178 C 
BRANCH   6   7
ATOM      7  S   UNL     1       4.140   0.200  -1.933  1.00  0.00    -0.078 SA
BRANCH   7   8
ATOM      8  C   UNL     1       3.172   1.288  -2.869  1.00  0.00     0.171 A 
ATOM      9  N   UNL     1       2.167   0.926  -3.635  1.00  0.00    -0.221 NA
ATOM     10  N   UNL     1       3.412   2.637  -2.925  1.00  0.00    -0.294 N 
ATOM     11  C   UNL     1       1.732   2.090  -4.221  1.00  0.00     0.109 A 
ATOM     12  C   UNL     1       2.485   3.172  -3.781  1.00  0.00     0.160 A 
ATOM     13  C   UNL     1       0.719   2.342  -5.154  1.00  0.00     0.034 A 
ATOM     14  N   UNL     1       2.357   4.466  -4.133  1.00  0.00    -0.237 NA
ATOM     15  C   UNL     1       0.539   3.668  -5.561  1.00  0.00     0.022 A 
ATOM     16  C   UNL     1       1.358   4.660  -5.029  1.00  0.00     0.113 A 
BRANCH  10  17
ATOM     17  C   UNL     1       4.469   3.399  -2.298  1.00  0.00     0.241 C 
BRANCH  17  18
ATOM     18  C   UNL     1       4.280   3.599  -0.813  1.00  0.00     0.406 C 
ATOM     19  F   UNL     1       4.614   2.496  -0.102  1.00  0.00    -0.169 F 
ATOM     20  F   UNL     1       5.084   4.594  -0.368  1.00  0.00    -0.169 F 
ATOM     21  F   UNL     1       3.014   3.927  -0.487  1.00  0.00    -0.169 F 
ENDBRANCH  17  18
ENDBRANCH  10  17
ENDBRANCH   7   8
ENDBRANCH   6   7
ENDBRANCH   4   6
ENDBRANCH   1   2
BRANCH   1  22
ATOM     22  C   UNL     1       2.210   1.401   3.157  1.00  0.00     0.042 C 
BRANCH  22  23
ATOM     23  C   UNL     1       3.631   1.769   3.555  1.00  0.00     0.118 C 
BRANCH  23  24
ATOM     24  N   UNL     1       3.881   3.208   3.574  1.00  0.00    -0.352 N 
ATOM     25  C   UNL     1       4.961   3.877   4.117  1.00  0.00     0.251 C 
ATOM     26  H   UNL     1       3.195   3.771   3.146  1.00  0.00     0.163 HD
ATOM     27  O   UNL     1       4.928   5.081   4.305  1.00  0.00    -0.269 OA
BRANCH  25  28
ATOM     28  C   UNL     1       6.170   3.107   4.471  1.00  0.00     0.039 A 
ATOM     29  C   UNL     1       6.877   3.390   5.645  1.00  0.00     0.014 A 
ATOM     30  C   UNL     1       6.603   2.106   3.603  1.00  0.00     0.014 A 
ATOM     31  C   UNL     1       7.989   2.618   5.970  1.00  0.00     0.010 A 
ATOM     32  C   UNL     1       7.627   1.272   3.976  1.00  0.00     0.010 A 
ATOM     33  C   UNL     1       8.350   1.558   5.131  1.00  0.00    -0.014 A 
BRANCH  33  34
ATOM     34  C   UNL     1       9.470   0.691   5.460  1.00  0.00     0.031 A 
ATOM     35  C   UNL     1       9.298  -0.170   6.664  1.00  0.00     0.074 A 
ATOM     36  C   UNL     1      10.470   0.486   4.578  1.00  0.00     0.049 A 
ATOM     37  N   UNL     1      10.019  -0.193   7.736  1.00  0.00    -0.248 NA
ATOM     38  C   UNL     1       8.126  -1.058   6.720  1.00  0.00     0.031 C 
ATOM     39  C   UNL     1      10.597   1.005   3.210  1.00  0.00     0.029 A 
ATOM     40  N   UNL     1      11.535  -0.347   4.682  1.00  0.00    -0.354 N 
ATOM     41  C   UNL     1       9.506  -1.217   8.533  1.00  0.00     0.074 A 
ATOM     42  C   UNL     1       8.257  -1.603   7.931  1.00  0.00     0.031 C 
ATOM     43  C   UNL     1      11.537   0.297   2.548  1.00  0.00     0.029 A 
ATOM     44  C   UNL     1      12.175  -0.614   3.481  1.00  0.00     0.049 A 
ATOM     45  H   UNL     1      11.830  -0.731   5.540  1.00  0.00     0.167 HD
ATOM     46  C   UNL     1      10.257  -1.805   9.507  1.00  0.00     0.037 A 
ATOM     47  C   UNL     1      13.121  -1.560   3.268  1.00  0.00     0.037 A 
ATOM     48  C   UNL     1      11.418  -1.008   9.817  1.00  0.00     0.049 A 
ATOM     49  C   UNL     1      13.692  -1.916   4.594  1.00  0.00     0.074 A 
ATOM     50  C   UNL     1      11.622   0.276  10.285  1.00  0.00     0.029 A 
ATOM     51  N   UNL     1      12.628  -1.406   9.300  1.00  0.00    -0.354 N 
ATOM     52  N   UNL     1      14.403  -1.097   5.319  1.00  0.00    -0.248 NA
ATOM     53  C   UNL     1      13.074  -3.014   5.324  1.00  0.00     0.031 C 
ATOM     54  C   UNL     1      12.760   0.750   9.567  1.00  0.00     0.029 A 
ATOM     55  C   UNL     1      13.214  -0.292   8.757  1.00  0.00     0.049 A 
ATOM     56  H   UNL     1      13.001  -2.317   9.316  1.00  0.00     0.167 HD
ATOM     57  C   UNL     1      13.977  -1.311   6.622  1.00  0.00     0.074 A 
ATOM     58  C   UNL     1      13.224  -2.564   6.573  1.00  0.00     0.031 C 
ATOM     59  C   UNL     1      14.018  -0.315   7.557  1.00  0.00     0.037 A 
BRANCH  46  60
ATOM     60  C   UNL     1      10.163  -3.255   9.931  1.00  0.00     0.057 A 
ATOM     61  C   UNL     1       9.587  -4.279   9.153  1.00  0.00     0.134 A 
ATOM     62  C   UNL     1      10.952  -3.702  11.010  1.00  0.00     0.134 A 
ATOM     63  F   UNL     1       8.849  -4.030   8.067  1.00  0.00    -0.206 F 
ATOM     64  C   UNL     1       9.825  -5.636   9.392  1.00  0.00     0.040 A 
ATOM     65  C   UNL     1      11.238  -5.056  11.225  1.00  0.00     0.040 A 
ATOM     66  F   UNL     1      11.546  -2.830  11.839  1.00  0.00    -0.206 F 
ATOM     67  C   UNL     1      10.687  -6.029  10.403  1.00  0.00     0.006 A 
ENDBRANCH  46  60
BRANCH  47  68
ATOM     68  C   UNL     1      13.333  -2.371   2.047  1.00  0.00     0.057 A 
ATOM     69  C   UNL     1      12.282  -2.649   1.151  1.00  0.00     0.134 A 
ATOM     70  C   UNL     1      14.510  -3.105   1.855  1.00  0.00     0.134 A 
ATOM     71  F   UNL     1      11.081  -2.069   1.286  1.00  0.00    -0.206 F 
ATOM     72  C   UNL     1      12.393  -3.599   0.132  1.00  0.00     0.040 A 
ATOM     73  C   UNL     1      14.631  -4.069   0.843  1.00  0.00     0.040 A 
ATOM     74  F   UNL     1      15.553  -2.947   2.682  1.00  0.00    -0.206 F 
ATOM     75  C   UNL     1      13.567  -4.324  -0.017  1.00  0.00     0.006 A 
ENDBRANCH  47  68
BRANCH  59  76
ATOM     76  C   UNL     1      14.735   0.960   7.202  1.00  0.00     0.057 A 
ATOM     77  C   UNL     1      15.764   1.415   8.031  1.00  0.00     0.134 A 
ATOM     78  C   UNL     1      14.335   1.819   6.167  1.00  0.00     0.134 A 
ATOM     79  F   UNL     1      16.159   0.681   9.084  1.00  0.00    -0.206 F 
ATOM     80  C   UNL     1      16.377   2.655   7.833  1.00  0.00     0.040 A 
ATOM     81  C   UNL     1      14.962   3.047   5.936  1.00  0.00     0.040 A 
ATOM     82  F   UNL     1      13.288   1.529   5.390  1.00  0.00    -0.206 F 
ATOM     83  C   UNL     1      15.985   3.471   6.775  1.00  0.00     0.006 A 
ENDBRANCH  59  76
ENDBRANCH  33  34
ENDBRANCH  25  28
ENDBRANCH  23  24
ENDBRANCH  22  23
ENDBRANCH   1  22
TORSDOF 14
