REMARK SMILES Cc1cc(=O)n2nc(C)c(C(=O)NCCCNC(=O)c3ccc(-c4c5nc(c(-c6c(F)cccc6F)c6ccc([nH]6)c(-c6c(F)cccc6F)c6nc(c(-c7c(F)cccc7F)c7ccc4[nH]7)C=C6)C=C5)cc3)c2[nH]1
REMARK SMILES IDX 16 1 15 2 14 3 13 4 11 5 12 6 10 8 1 9 2 10 3 11 75 12 4 13
REMARK SMILES IDX 74 14 5 16 6 17 7 18 8 19 9 20 17 21 18 22 19 24 20 25 21 26
REMARK SMILES IDX 73 27 22 28 72 29 23 30 24 31 25 32 66 33 26 34 71 35 65 36
REMARK SMILES IDX 67 37 27 38 70 39 64 40 63 41 28 43 54 44 37 45 53 46 38 47
REMARK SMILES IDX 41 48 52 49 68 50 39 51 40 52 51 54 69 55 42 56 29 57 30 58
REMARK SMILES IDX 35 59 31 60 32 61 34 62 36 63 33 64 55 65 56 66 61 67 57 68
REMARK SMILES IDX 58 69 60 70 62 71 59 72 43 73 44 74 49 75 45 76 46 77 48 78
REMARK SMILES IDX 50 79 47 80
REMARK H PARENT 13 7 75 15 17 23 67 42 41 53
REMARK Flexibility Score: inf
ROOT
ATOM      1  C   UNL     1      -1.538   1.288   9.382  1.00  0.00     0.118 C 
ENDROOT
BRANCH   1   2
ATOM      2  C   UNL     1      -1.400   0.226   8.313  1.00  0.00     0.042 C 
BRANCH   2   3
ATOM      3  C   UNL     1      -2.332   0.479   7.123  1.00  0.00     0.118 C 
BRANCH   3   4
ATOM      4  N   UNL     1      -1.666   1.196   6.063  1.00  0.00    -0.352 N 
ATOM      5  C   UNL     1      -1.001   0.793   4.938  1.00  0.00     0.256 C 
ATOM      6  O   UNL     1      -0.668   1.720   4.189  1.00  0.00    -0.269 OA
ATOM      7  H   UNL     1      -1.697   2.174   6.171  1.00  0.00     0.163 HD
BRANCH   5   8
ATOM      8  C   UNL     1      -0.703  -0.596   4.576  1.00  0.00     0.105 A 
ATOM      9  C   UNL     1       0.956   0.232  -0.073  1.00  0.00     0.064 C 
ATOM     10  C   UNL     1       0.630  -0.684   1.071  1.00  0.00     0.019 A 
ATOM     11  C   UNL     1       0.840  -2.009   0.960  1.00  0.00     0.095 A 
ATOM     12  N   UNL     1       0.107  -0.129   2.227  1.00  0.00    -0.343 N 
ATOM     13  C   UNL     1       0.525  -2.910   2.102  1.00  0.00     0.274 A 
ATOM     14  C   UNL     1      -0.206  -0.888   3.309  1.00  0.00     0.150 A 
ATOM     15  H   UNL     1      -0.043   0.844   2.265  1.00  0.00     0.168 HD
ATOM     16  O   UNL     1       0.707  -4.114   2.082  1.00  0.00    -0.267 OA
ATOM     17  N   UNL     1       0.005  -2.240   3.222  1.00  0.00    -0.179 N 
ATOM     18  N   UNL     1      -0.324  -2.872   4.360  1.00  0.00    -0.168 NA
ATOM     19  C   UNL     1      -0.714  -1.898   5.195  1.00  0.00     0.075 A 
ATOM     20  C   UNL     1      -1.011  -2.379   6.566  1.00  0.00     0.070 C 
ENDBRANCH   5   8
ENDBRANCH   3   4
ENDBRANCH   2   3
ENDBRANCH   1   2
BRANCH   1  21
ATOM     21  N   UNL     1      -2.818   1.181  10.093  1.00  0.00    -0.352 N 
ATOM     22  C   UNL     1      -3.303   1.982  11.110  1.00  0.00     0.251 C 
ATOM     23  H   UNL     1      -3.407   0.445   9.809  1.00  0.00     0.163 HD
ATOM     24  O   UNL     1      -4.208   1.603  11.842  1.00  0.00    -0.269 OA
BRANCH  22  25
ATOM     25  C   UNL     1      -2.700   3.310  11.284  1.00  0.00     0.039 A 
ATOM     26  C   UNL     1      -2.405   3.841  12.540  1.00  0.00     0.014 A 
ATOM     27  C   UNL     1      -2.354   3.985  10.120  1.00  0.00     0.014 A 
ATOM     28  C   UNL     1      -1.687   5.031  12.597  1.00  0.00     0.010 A 
ATOM     29  C   UNL     1      -1.434   4.986  10.182  1.00  0.00     0.010 A 
ATOM     30  C   UNL     1      -1.187   5.583  11.405  1.00  0.00    -0.014 A 
BRANCH  30  31
ATOM     31  C   UNL     1      -0.316   6.746  11.395  1.00  0.00     0.031 A 
ATOM     32  C   UNL     1       0.873   6.609  12.271  1.00  0.00     0.074 A 
ATOM     33  C   UNL     1      -0.470   7.761  10.515  1.00  0.00     0.049 A 
ATOM     34  N   UNL     1       1.089   7.223  13.384  1.00  0.00    -0.248 NA
ATOM     35  C   UNL     1       1.845   5.542  11.980  1.00  0.00     0.031 C 
ATOM     36  C   UNL     1      -1.415   7.887   9.395  1.00  0.00     0.029 A 
ATOM     37  N   UNL     1       0.271   8.894  10.393  1.00  0.00    -0.354 N 
ATOM     38  C   UNL     1       2.336   6.793  13.821  1.00  0.00     0.074 A 
ATOM     39  C   UNL     1       2.656   5.628  13.037  1.00  0.00     0.031 C 
ATOM     40  C   UNL     1      -1.038   8.901   8.585  1.00  0.00     0.029 A 
ATOM     41  C   UNL     1       0.054   9.612   9.219  1.00  0.00     0.049 A 
ATOM     42  H   UNL     1       0.911   9.185  11.081  1.00  0.00     0.167 HD
ATOM     43  C   UNL     1       3.103   7.589  14.614  1.00  0.00     0.037 A 
ATOM     44  C   UNL     1       0.744  10.707   8.811  1.00  0.00     0.037 A 
ATOM     45  C   UNL     1       2.316   8.658  15.181  1.00  0.00     0.049 A 
ATOM     46  C   UNL     1       1.392  11.276  10.021  1.00  0.00     0.074 A 
ATOM     47  C   UNL     1       1.208   8.710  16.005  1.00  0.00     0.029 A 
ATOM     48  N   UNL     1       2.387   9.888  14.571  1.00  0.00    -0.354 N 
ATOM     49  N   UNL     1       0.727  11.812  11.008  1.00  0.00    -0.248 NA
ATOM     50  C   UNL     1       2.724  10.790  10.350  1.00  0.00     0.031 C 
ATOM     51  C   UNL     1       0.405   9.762  15.473  1.00  0.00     0.029 A 
ATOM     52  C   UNL     1       1.105  10.351  14.419  1.00  0.00     0.049 A 
ATOM     53  H   UNL     1       3.210  10.352  14.294  1.00  0.00     0.167 HD
ATOM     54  C   UNL     1       1.359  11.346  12.151  1.00  0.00     0.074 A 
ATOM     55  C   UNL     1       2.620  10.770  11.682  1.00  0.00     0.031 C 
ATOM     56  C   UNL     1       0.677  11.193  13.324  1.00  0.00     0.037 A 
BRANCH  43  57
ATOM     57  C   UNL     1       4.608   7.643  14.572  1.00  0.00     0.057 A 
ATOM     58  C   UNL     1       5.291   8.412  15.532  1.00  0.00     0.134 A 
ATOM     59  C   UNL     1       5.391   7.220  13.478  1.00  0.00     0.134 A 
ATOM     60  F   UNL     1       4.654   8.888  16.613  1.00  0.00    -0.206 F 
ATOM     61  C   UNL     1       6.628   8.794  15.376  1.00  0.00     0.040 A 
ATOM     62  C   UNL     1       6.740   7.553  13.338  1.00  0.00     0.040 A 
ATOM     63  F   UNL     1       4.875   6.556  12.438  1.00  0.00    -0.206 F 
ATOM     64  C   UNL     1       7.356   8.370  14.271  1.00  0.00     0.006 A 
ENDBRANCH  43  57
BRANCH  44  65
ATOM     65  C   UNL     1       1.168  11.086   7.442  1.00  0.00     0.057 A 
ATOM     66  C   UNL     1       1.680  12.365   7.174  1.00  0.00     0.134 A 
ATOM     67  C   UNL     1       1.375  10.120   6.442  1.00  0.00     0.134 A 
ATOM     68  F   UNL     1       1.563  13.347   8.080  1.00  0.00    -0.206 F 
ATOM     69  C   UNL     1       2.393  12.656   6.002  1.00  0.00     0.040 A 
ATOM     70  C   UNL     1       2.082  10.398   5.266  1.00  0.00     0.040 A 
ATOM     71  F   UNL     1       0.980   8.850   6.614  1.00  0.00    -0.206 F 
ATOM     72  C   UNL     1       2.611  11.665   5.050  1.00  0.00     0.006 A 
ENDBRANCH  44  65
BRANCH  56  73
ATOM     73  C   UNL     1      -0.721  11.748  13.416  1.00  0.00     0.057 A 
ATOM     74  C   UNL     1      -1.812  11.276  12.668  1.00  0.00     0.134 A 
ATOM     75  C   UNL     1      -1.008  12.657  14.439  1.00  0.00     0.134 A 
ATOM     76  F   UNL     1      -1.655  10.341  11.724  1.00  0.00    -0.206 F 
ATOM     77  C   UNL     1      -3.121  11.706  12.915  1.00  0.00     0.040 A 
ATOM     78  C   UNL     1      -2.313  13.070  14.717  1.00  0.00     0.040 A 
ATOM     79  F   UNL     1      -0.025  13.114  15.229  1.00  0.00    -0.206 F 
ATOM     80  C   UNL     1      -3.376  12.597  13.952  1.00  0.00     0.006 A 
ENDBRANCH  56  73
ENDBRANCH  30  31
ENDBRANCH  22  25
ENDBRANCH   1  21
TORSDOF 10
