REMARK SMILES C[C@H]1[C@H](C(=O)NCCCNC(=O)c2ccc(-c3c4nc(c(-c5c(F)cccc5F)c5ccc([nH]5)c(-c5c(F)cccc5F)c5nc(c(-c6c(F)cccc6F)c6ccc3[nH]6)C=C5)C=C4)cc2)CCN1C(=O)[C@H]1CC=CCC1
REMARK SMILES IDX 8 1 7 2 6 3 4 4 5 5 3 7 1 8 2 9 69 10 67 11 68 12 70 13
REMARK SMILES IDX 71 14 72 15 73 16 77 17 74 18 76 19 75 20 9 21 10 22 11 23
REMARK SMILES IDX 12 25 13 26 14 27 66 28 15 29 65 30 16 31 17 32 18 33 59 34
REMARK SMILES IDX 19 35 64 36 58 37 60 38 20 39 63 40 57 41 56 42 21 44 47 45
REMARK SMILES IDX 30 46 46 47 31 48 34 49 45 50 61 51 32 52 33 53 44 55 62 56
REMARK SMILES IDX 35 57 22 58 23 59 28 60 24 61 25 62 27 63 29 64 26 65 48 66
REMARK SMILES IDX 49 67 54 68 50 69 51 70 53 71 55 72 52 73 36 74 37 75 42 76
REMARK SMILES IDX 38 77 39 78 41 79 43 80 40 81
REMARK H PARENT 6 6 10 24 60 43 34 54
REMARK Flexibility Score: inf
ROOT
ATOM      1  C   UNL     1      -0.702   0.088   4.103  1.00  0.00     0.042 C 
ENDROOT
BRANCH   1   2
ATOM      2  C   UNL     1      -1.408   0.685   2.891  1.00  0.00     0.117 C 
BRANCH   2   3
ATOM      3  N   UNL     1      -0.711   1.844   2.355  1.00  0.00    -0.356 N 
ATOM      4  C   UNL     1      -0.272   2.174   1.119  1.00  0.00     0.225 C 
ATOM      5  O   UNL     1       0.287   3.273   1.021  1.00  0.00    -0.275 OA
ATOM      6  H   UNL     1      -0.519   2.531   3.034  1.00  0.00     0.163 HD
BRANCH   4   7
ATOM      7  C   UNL     1      -0.369   1.285  -0.109  1.00  0.00     0.102 C 
ATOM      8  C   UNL     1       1.436   0.257  -1.489  1.00  0.00     0.032 C 
ATOM      9  C   UNL     1       0.714   0.193  -0.137  1.00  0.00     0.094 C 
ATOM     10  N   UNL     1      -0.019  -1.058   0.032  1.00  0.00    -0.339 N 
ATOM     11  C   UNL     1      -1.701   0.591  -0.376  1.00  0.00     0.037 C 
ATOM     12  C   UNL     1      -1.382  -0.896  -0.456  1.00  0.00     0.120 C 
BRANCH  10  13
ATOM     13  C   UNL     1       0.374  -2.293   0.495  1.00  0.00     0.226 C 
ATOM     14  O   UNL     1      -0.452  -3.219   0.494  1.00  0.00    -0.275 OA
BRANCH  13  15
ATOM     15  C   UNL     1       1.765  -2.612   1.076  1.00  0.00     0.083 C 
ATOM     16  C   UNL     1       2.967  -2.470   0.143  1.00  0.00     0.040 C 
ATOM     17  C   UNL     1       2.011  -2.122   2.505  1.00  0.00     0.018 C 
ATOM     18  C   UNL     1       3.896  -1.337   0.460  1.00  0.00    -0.030 C 
ATOM     19  C   UNL     1       2.795  -0.817   2.642  1.00  0.00     0.028 C 
ATOM     20  C   UNL     1       3.819  -0.600   1.575  1.00  0.00    -0.031 C 
ENDBRANCH  13  15
ENDBRANCH  10  13
ENDBRANCH   4   7
ENDBRANCH   2   3
ENDBRANCH   1   2
BRANCH   1  21
ATOM     21  C   UNL     1      -0.551   1.013   5.303  1.00  0.00     0.118 C 
BRANCH  21  22
ATOM     22  N   UNL     1      -1.747   1.073   6.122  1.00  0.00    -0.352 N 
ATOM     23  C   UNL     1      -1.991   0.575   7.378  1.00  0.00     0.251 C 
ATOM     24  H   UNL     1      -2.506   1.548   5.711  1.00  0.00     0.163 HD
ATOM     25  O   UNL     1      -3.145   0.588   7.809  1.00  0.00    -0.269 OA
BRANCH  23  26
ATOM     26  C   UNL     1      -0.911   0.002   8.219  1.00  0.00     0.039 A 
ATOM     27  C   UNL     1      -1.204  -1.121   9.002  1.00  0.00     0.014 A 
ATOM     28  C   UNL     1       0.355   0.587   8.311  1.00  0.00     0.014 A 
ATOM     29  C   UNL     1      -0.225  -1.678   9.831  1.00  0.00     0.010 A 
ATOM     30  C   UNL     1       1.357  -0.017   9.076  1.00  0.00     0.010 A 
ATOM     31  C   UNL     1       1.075  -1.146   9.858  1.00  0.00    -0.014 A 
BRANCH  31  32
ATOM     32  C   UNL     1       2.127  -1.745  10.724  1.00  0.00     0.031 A 
ATOM     33  C   UNL     1       2.720  -0.958  11.863  1.00  0.00     0.074 A 
ATOM     34  C   UNL     1       2.579  -2.989  10.471  1.00  0.00     0.049 A 
ATOM     35  N   UNL     1       3.662  -1.304  12.706  1.00  0.00    -0.248 NA
ATOM     36  C   UNL     1       2.205   0.404  12.068  1.00  0.00     0.031 C 
ATOM     37  C   UNL     1       2.131  -3.845   9.371  1.00  0.00     0.029 A 
ATOM     38  N   UNL     1       3.519  -3.748  11.121  1.00  0.00    -0.354 N 
ATOM     39  C   UNL     1       3.861  -0.200  13.527  1.00  0.00     0.074 A 
ATOM     40  C   UNL     1       2.978   0.843  13.051  1.00  0.00     0.031 C 
ATOM     41  C   UNL     1       2.778  -5.019   9.438  1.00  0.00     0.029 A 
ATOM     42  C   UNL     1       3.704  -4.991  10.567  1.00  0.00     0.049 A 
ATOM     43  H   UNL     1       4.015  -3.432  11.911  1.00  0.00     0.167 HD
ATOM     44  C   UNL     1       4.684  -0.071  14.596  1.00  0.00     0.037 A 
ATOM     45  C   UNL     1       4.524  -5.997  10.926  1.00  0.00     0.037 A 
ATOM     46  C   UNL     1       5.540  -1.114  15.097  1.00  0.00     0.049 A 
ATOM     47  C   UNL     1       5.409  -5.841  12.130  1.00  0.00     0.074 A 
ATOM     48  C   UNL     1       6.367  -1.093  16.208  1.00  0.00     0.029 A 
ATOM     49  N   UNL     1       5.677  -2.367  14.522  1.00  0.00    -0.354 N 
ATOM     50  N   UNL     1       5.542  -4.811  12.929  1.00  0.00    -0.248 NA
ATOM     51  C   UNL     1       6.251  -6.992  12.487  1.00  0.00     0.031 C 
ATOM     52  C   UNL     1       7.026  -2.325  16.288  1.00  0.00     0.029 A 
ATOM     53  C   UNL     1       6.583  -3.124  15.247  1.00  0.00     0.049 A 
ATOM     54  H   UNL     1       5.201  -2.675  13.716  1.00  0.00     0.167 HD
ATOM     55  C   UNL     1       6.466  -5.194  13.892  1.00  0.00     0.074 A 
ATOM     56  C   UNL     1       6.848  -6.558  13.588  1.00  0.00     0.031 C 
ATOM     57  C   UNL     1       6.956  -4.479  14.934  1.00  0.00     0.037 A 
BRANCH  44  58
ATOM     58  C   UNL     1       4.687   1.251  15.305  1.00  0.00     0.057 A 
ATOM     59  C   UNL     1       3.609   1.661  16.100  1.00  0.00     0.134 A 
ATOM     60  C   UNL     1       5.789   2.110  15.217  1.00  0.00     0.134 A 
ATOM     61  F   UNL     1       2.518   0.889  16.216  1.00  0.00    -0.206 F 
ATOM     62  C   UNL     1       3.615   2.891  16.761  1.00  0.00     0.040 A 
ATOM     63  C   UNL     1       5.818   3.331  15.893  1.00  0.00     0.040 A 
ATOM     64  F   UNL     1       6.858   1.775  14.479  1.00  0.00    -0.206 F 
ATOM     65  C   UNL     1       4.725   3.727  16.662  1.00  0.00     0.006 A 
ENDBRANCH  44  58
BRANCH  45  66
ATOM     66  C   UNL     1       4.526  -7.260  10.148  1.00  0.00     0.057 A 
ATOM     67  C   UNL     1       3.956  -8.427  10.667  1.00  0.00     0.134 A 
ATOM     68  C   UNL     1       5.095  -7.330   8.871  1.00  0.00     0.134 A 
ATOM     69  F   UNL     1       3.414  -8.425  11.894  1.00  0.00    -0.206 F 
ATOM     70  C   UNL     1       3.963  -9.625   9.951  1.00  0.00     0.040 A 
ATOM     71  C   UNL     1       5.091  -8.515   8.135  1.00  0.00     0.040 A 
ATOM     72  F   UNL     1       5.652  -6.242   8.318  1.00  0.00    -0.206 F 
ATOM     73  C   UNL     1       4.528  -9.669   8.678  1.00  0.00     0.006 A 
ENDBRANCH  45  66
BRANCH  57  74
ATOM     74  C   UNL     1       7.943  -5.165  15.830  1.00  0.00     0.057 A 
ATOM     75  C   UNL     1       9.264  -5.398  15.427  1.00  0.00     0.134 A 
ATOM     76  C   UNL     1       7.576  -5.575  17.117  1.00  0.00     0.134 A 
ATOM     77  F   UNL     1       9.674  -5.041  14.201  1.00  0.00    -0.206 F 
ATOM     78  C   UNL     1      10.180  -6.035  16.267  1.00  0.00     0.040 A 
ATOM     79  C   UNL     1       8.488  -6.194  17.974  1.00  0.00     0.040 A 
ATOM     80  F   UNL     1       6.327  -5.376  17.566  1.00  0.00    -0.206 F 
ATOM     81  C   UNL     1       9.793  -6.430  17.546  1.00  0.00     0.006 A 
ENDBRANCH  57  74
ENDBRANCH  31  32
ENDBRANCH  23  26
ENDBRANCH  21  22
ENDBRANCH   1  21
TORSDOF 12
