REMARK SMILES CCC[C@@]1(C(=O)NCCCNC(=O)c2ccc(-c3c4nc(c(-c5c(F)cccc5F)c5ccc([nH]5)c(-c5c(F)cccc5F)c5nc(c(-c6c(F)cccc6F)c6ccc3[nH]6)C=C5)C=C4)cc2)CCN(C(=O)[C@@H]2CC[NH2+][C@@H]2C)C1
REMARK SMILES IDX 9 1 8 2 7 3 5 4 6 5 4 7 68 8 79 9 69 10 70 11 3 12 2 13 1 14
REMARK SMILES IDX 71 15 72 16 73 17 74 18 77 19 75 20 76 21 78 22 10 25 11 26
REMARK SMILES IDX 12 27 13 29 14 30 15 31 67 32 16 33 66 34 17 35 18 36 19 37
REMARK SMILES IDX 60 38 20 39 65 40 59 41 61 42 21 43 64 44 58 45 57 46 22 48
REMARK SMILES IDX 48 49 31 50 47 51 32 52 35 53 46 54 62 55 33 56 34 57 45 59
REMARK SMILES IDX 63 60 36 61 23 62 24 63 29 64 25 65 26 66 28 67 30 68 27 69
REMARK SMILES IDX 49 70 50 71 55 72 51 73 52 74 54 75 56 76 53 77 37 78 38 79
REMARK SMILES IDX 43 80 39 81 40 82 42 83 44 84 41 85
REMARK H PARENT 7 6 76 23 76 24 11 28 61 47 35 58
REMARK Flexibility Score: inf
ROOT
ATOM      1  C   UNL     1       4.144   3.879  -0.400  1.00  0.00     0.042 C 
ENDROOT
BRANCH   1   2
ATOM      2  C   UNL     1       3.432   2.542  -0.469  1.00  0.00     0.117 C 
BRANCH   2   3
ATOM      3  N   UNL     1       2.237   2.500   0.335  1.00  0.00    -0.355 N 
ATOM      4  C   UNL     1       0.923   2.452   0.028  1.00  0.00     0.228 C 
ATOM      5  O   UNL     1       0.184   2.315   1.013  1.00  0.00    -0.274 OA
ATOM      6  H   UNL     1       2.415   2.508   1.304  1.00  0.00     0.163 HD
BRANCH   4   7
ATOM      7  C   UNL     1       0.328   2.426  -1.399  1.00  0.00     0.068 C 
ATOM      8  C   UNL     1       0.318   0.959  -1.893  1.00  0.00     0.040 C 
ATOM      9  C   UNL     1       1.064   3.153  -2.530  1.00  0.00     0.136 C 
ATOM     10  C   UNL     1       1.515   0.809  -2.820  1.00  0.00     0.120 C 
ATOM     11  N   UNL     1       1.786   2.143  -3.313  1.00  0.00    -0.341 N 
BRANCH   7  12
ATOM     12  C   UNL     1      -1.151   2.929  -1.306  1.00  0.00     0.018 C 
BRANCH  12  13
ATOM     13  C   UNL     1      -1.413   4.304  -0.662  1.00  0.00    -0.002 C 
ATOM     14  C   UNL     1      -0.779   5.492  -1.362  1.00  0.00     0.004 C 
ENDBRANCH  12  13
ENDBRANCH   7  12
BRANCH  11  15
ATOM     15  C   UNL     1       2.677   2.546  -4.280  1.00  0.00     0.231 C 
ATOM     16  O   UNL     1       2.841   3.759  -4.481  1.00  0.00    -0.274 OA
BRANCH  15  17
ATOM     17  C   UNL     1       3.522   1.573  -5.110  1.00  0.00     0.142 C 
ATOM     18  C   UNL     1       2.825   0.399  -5.776  1.00  0.00     0.081 C 
ATOM     19  C   UNL     1       4.784   0.974  -4.496  1.00  0.00     0.192 C 
ATOM     20  C   UNL     1       3.401  -0.854  -5.132  1.00  0.00     0.261 C 
ATOM     21  N   UNL     1       4.514  -0.452  -4.280  1.00  0.00    -0.343 N 
ATOM     22  C   UNL     1       5.318   1.585  -3.213  1.00  0.00     0.076 C 
ATOM     23  H   UNL     1       5.342  -0.998  -4.517  1.00  0.00     0.346 HD
ATOM     24  H   UNL     1       4.277  -0.615  -3.301  1.00  0.00     0.346 HD
ENDBRANCH  15  17
ENDBRANCH  11  15
ENDBRANCH   4   7
ENDBRANCH   2   3
ENDBRANCH   1   2
BRANCH   1  25
ATOM     25  C   UNL     1       4.933   4.049   0.885  1.00  0.00     0.118 C 
BRANCH  25  26
ATOM     26  N   UNL     1       6.020   3.080   1.004  1.00  0.00    -0.352 N 
ATOM     27  C   UNL     1       7.379   3.272   1.058  1.00  0.00     0.251 C 
ATOM     28  H   UNL     1       5.732   2.140   1.055  1.00  0.00     0.163 HD
ATOM     29  O   UNL     1       8.139   2.318   0.949  1.00  0.00    -0.269 OA
BRANCH  27  30
ATOM     30  C   UNL     1       7.918   4.635   1.233  1.00  0.00     0.039 A 
ATOM     31  C   UNL     1       9.052   5.021   0.513  1.00  0.00     0.014 A 
ATOM     32  C   UNL     1       7.301   5.531   2.107  1.00  0.00     0.014 A 
ATOM     33  C   UNL     1       9.519   6.332   0.618  1.00  0.00     0.010 A 
ATOM     34  C   UNL     1       7.693   6.861   2.119  1.00  0.00     0.010 A 
ATOM     35  C   UNL     1       8.817   7.272   1.389  1.00  0.00    -0.014 A 
BRANCH  35  36
ATOM     36  C   UNL     1       9.250   8.687   1.488  1.00  0.00     0.031 A 
ATOM     37  C   UNL     1       9.611   9.259   2.832  1.00  0.00     0.074 A 
ATOM     38  C   UNL     1       9.233   9.472   0.394  1.00  0.00     0.049 A 
ATOM     39  N   UNL     1       9.891  10.494   3.158  1.00  0.00    -0.248 NA
ATOM     40  C   UNL     1       9.618   8.323   3.969  1.00  0.00     0.031 C 
ATOM     41  C   UNL     1       8.855   9.043  -0.954  1.00  0.00     0.029 A 
ATOM     42  N   UNL     1       9.527  10.804   0.248  1.00  0.00    -0.354 N 
ATOM     43  C   UNL     1      10.083  10.485   4.534  1.00  0.00     0.074 A 
ATOM     44  C   UNL     1       9.821   9.139   4.991  1.00  0.00     0.031 C 
ATOM     45  C   UNL     1       8.967  10.085  -1.794  1.00  0.00     0.029 A 
ATOM     46  C   UNL     1       9.375  11.263  -1.037  1.00  0.00     0.049 A 
ATOM     47  H   UNL     1       9.819  11.376   0.994  1.00  0.00     0.167 HD
ATOM     48  C   UNL     1      10.472  11.500   5.340  1.00  0.00     0.037 A 
ATOM     49  C   UNL     1       9.537  12.500  -1.543  1.00  0.00     0.037 A 
ATOM     50  C   UNL     1      10.759  12.829   4.873  1.00  0.00     0.049 A 
ATOM     51  C   UNL     1       9.957  13.615  -0.625  1.00  0.00     0.074 A 
ATOM     52  C   UNL     1      11.214  13.917   5.595  1.00  0.00     0.029 A 
ATOM     53  N   UNL     1      10.618  13.249   3.558  1.00  0.00    -0.354 N 
ATOM     54  N   UNL     1      10.197  13.580   0.664  1.00  0.00    -0.248 NA
ATOM     55  C   UNL     1      10.135  14.941  -1.232  1.00  0.00     0.031 C 
ATOM     56  C   UNL     1      11.300  15.010   4.727  1.00  0.00     0.029 A 
ATOM     57  C   UNL     1      10.957  14.588   3.453  1.00  0.00     0.049 A 
ATOM     58  H   UNL     1      10.321  12.681   2.812  1.00  0.00     0.167 HD
ATOM     59  C   UNL     1      10.589  14.866   1.014  1.00  0.00     0.074 A 
ATOM     60  C   UNL     1      10.564  15.654  -0.201  1.00  0.00     0.031 C 
ATOM     61  C   UNL     1      10.941  15.351   2.230  1.00  0.00     0.037 A 
BRANCH  48  62
ATOM     62  C   UNL     1      10.611  11.205   6.806  1.00  0.00     0.057 A 
ATOM     63  C   UNL     1      11.613  10.357   7.301  1.00  0.00     0.134 A 
ATOM     64  C   UNL     1       9.746  11.790   7.739  1.00  0.00     0.134 A 
ATOM     65  F   UNL     1      12.468   9.752   6.461  1.00  0.00    -0.206 F 
ATOM     66  C   UNL     1      11.728  10.076   8.663  1.00  0.00     0.040 A 
ATOM     67  C   UNL     1       9.871  11.542   9.107  1.00  0.00     0.040 A 
ATOM     68  F   UNL     1       8.767  12.615   7.338  1.00  0.00    -0.206 F 
ATOM     69  C   UNL     1      10.859  10.676   9.572  1.00  0.00     0.006 A 
ENDBRANCH  48  62
BRANCH  49  70
ATOM     70  C   UNL     1       9.326  12.748  -2.993  1.00  0.00     0.057 A 
ATOM     71  C   UNL     1      10.399  13.063  -3.834  1.00  0.00     0.134 A 
ATOM     72  C   UNL     1       8.052  12.685  -3.571  1.00  0.00     0.134 A 
ATOM     73  F   UNL     1      11.642  13.154  -3.337  1.00  0.00    -0.206 F 
ATOM     74  C   UNL     1      10.213  13.332  -5.191  1.00  0.00     0.040 A 
ATOM     75  C   UNL     1       7.854  12.924  -4.932  1.00  0.00     0.040 A 
ATOM     76  F   UNL     1       6.982  12.379  -2.823  1.00  0.00    -0.206 F 
ATOM     77  C   UNL     1       8.937  13.258  -5.744  1.00  0.00     0.006 A 
ENDBRANCH  49  70
BRANCH  61  78
ATOM     78  C   UNL     1      11.379  16.785   2.301  1.00  0.00     0.057 A 
ATOM     79  C   UNL     1      10.478  17.846   2.153  1.00  0.00     0.134 A 
ATOM     80  C   UNL     1      12.716  17.103   2.571  1.00  0.00     0.134 A 
ATOM     81  F   UNL     1       9.186  17.610   1.881  1.00  0.00    -0.206 F 
ATOM     82  C   UNL     1      10.897  19.175   2.248  1.00  0.00     0.040 A 
ATOM     83  C   UNL     1      13.141  18.426   2.700  1.00  0.00     0.040 A 
ATOM     84  F   UNL     1      13.629  16.133   2.735  1.00  0.00    -0.206 F 
ATOM     85  C   UNL     1      12.230  19.466   2.531  1.00  0.00     0.006 A 
ENDBRANCH  61  78
ENDBRANCH  35  36
ENDBRANCH  27  30
ENDBRANCH  25  26
ENDBRANCH   1  25
TORSDOF 14
