REMARK SMILES CC(C)C[C@H](NC(=O)[C@H](Cc1ccccc1)NC(=O)CNC(=O)CNC(=O)OCc1ccccc1)C(=O)NCCCNC(=O)c1ccc(-c2c3nc(c(-c4c(F)cccc4F)c4ccc([nH]4)c(-c4c(F)cccc4F)c4nc(c(-c5c(F)cccc5F)c5ccc2[nH]5)C=C4)C=C3)cc1
REMARK SMILES IDX 6 1 7 2 8 3 5 5 4 6 2 7 1 8 3 9 36 10 37 11 38 12 39 14
REMARK SMILES IDX 40 15 41 16 42 17 43 18 44 20 45 21 46 22 98 23 47 24 97 25
REMARK SMILES IDX 48 26 49 27 50 28 91 29 51 30 96 31 90 32 92 33 52 34 95 35
REMARK SMILES IDX 89 36 88 37 53 39 79 40 62 41 78 42 63 43 66 44 77 45 93 46
REMARK SMILES IDX 64 47 65 48 76 50 94 51 67 52 54 53 55 54 60 55 56 56 57 57
REMARK SMILES IDX 59 58 61 59 58 60 80 61 81 62 86 63 82 64 83 65 85 66 87 67
REMARK SMILES IDX 84 68 68 69 69 70 74 71 70 72 71 73 73 74 75 75 72 76 9 77
REMARK SMILES IDX 17 78 18 79 19 81 20 82 21 83 22 84 23 86 24 87 25 88 26 89
REMARK SMILES IDX 27 91 28 92 29 93 30 94 31 95 35 96 32 97 34 98 33 99 10 100
REMARK SMILES IDX 11 101 12 102 16 103 13 104 15 105 14 106
REMARK H PARENT 6 4 38 13 42 19 92 38 66 49 17 80 21 85 25 90
REMARK Flexibility Score: inf
ROOT
ATOM      1  N   UNL     1      -0.026  -3.406   0.838  1.00  0.00    -0.343 N 
ATOM      2  C   UNL     1      -0.198  -2.306   1.601  1.00  0.00     0.243 C 
ATOM      3  O   UNL     1      -1.192  -2.382   2.345  1.00  0.00    -0.273 OA
ATOM      4  H   UNL     1      -0.762  -4.037   1.010  1.00  0.00     0.164 HD
ENDROOT
BRANCH   1   5
ATOM      5  C   UNL     1       0.891  -3.992  -0.173  1.00  0.00     0.171 C 
BRANCH   5   6
ATOM      6  C   UNL     1       2.345  -3.543  -0.073  1.00  0.00     0.038 C 
BRANCH   6   7
ATOM      7  C   UNL     1       3.494  -4.417  -0.600  1.00  0.00    -0.015 C 
ATOM      8  C   UNL     1       3.396  -4.691  -2.098  1.00  0.00     0.007 C 
ATOM      9  C   UNL     1       4.820  -3.689  -0.321  1.00  0.00     0.007 C 
ENDBRANCH   6   7
ENDBRANCH   5   6
BRANCH   5  10
ATOM     10  C   UNL     1       0.690  -5.541  -0.130  1.00  0.00     0.242 C 
ATOM     11  O   UNL     1       0.482  -6.190  -1.158  1.00  0.00    -0.273 OA
ATOM     12  N   UNL     1       0.800  -6.226   1.053  1.00  0.00    -0.354 N 
ATOM     13  H   UNL     1       0.597  -7.189   1.033  1.00  0.00     0.163 HD
BRANCH  12  14
ATOM     14  C   UNL     1       1.187  -5.660   2.331  1.00  0.00     0.117 C 
BRANCH  14  15
ATOM     15  C   UNL     1       1.392  -6.659   3.696  1.00  0.00     0.042 C 
BRANCH  15  16
ATOM     16  C   UNL     1       2.972  -7.958   4.454  1.00  0.00     0.118 C 
BRANCH  16  17
ATOM     17  N   UNL     1       4.602  -7.956   4.315  1.00  0.00    -0.352 N 
ATOM     18  C   UNL     1       5.535  -8.491   5.183  1.00  0.00     0.251 C 
ATOM     19  H   UNL     1       4.964  -7.518   3.511  1.00  0.00     0.163 HD
ATOM     20  O   UNL     1       6.738  -8.342   5.005  1.00  0.00    -0.269 OA
BRANCH  18  21
ATOM     21  C   UNL     1       5.030  -9.250   6.341  1.00  0.00     0.039 A 
ATOM     22  C   UNL     1       5.347  -8.859   7.639  1.00  0.00     0.014 A 
ATOM     23  C   UNL     1       4.080 -10.244   6.106  1.00  0.00     0.014 A 
ATOM     24  C   UNL     1       4.645  -9.432   8.702  1.00  0.00     0.010 A 
ATOM     25  C   UNL     1       3.254 -10.644   7.138  1.00  0.00     0.010 A 
ATOM     26  C   UNL     1       3.562 -10.298   8.457  1.00  0.00    -0.014 A 
BRANCH  26  27
ATOM     27  C   UNL     1       2.793 -10.921   9.563  1.00  0.00     0.031 A 
ATOM     28  C   UNL     1       2.693 -12.426   9.644  1.00  0.00     0.074 A 
ATOM     29  C   UNL     1       2.165 -10.145  10.469  1.00  0.00     0.049 A 
ATOM     30  N   UNL     1       2.100 -13.169  10.544  1.00  0.00    -0.248 NA
ATOM     31  C   UNL     1       3.286 -13.204   8.541  1.00  0.00     0.031 C 
ATOM     32  C   UNL     1       2.092  -8.681  10.435  1.00  0.00     0.029 A 
ATOM     33  N   UNL     1       1.486 -10.481  11.612  1.00  0.00    -0.354 N 
ATOM     34  C   UNL     1       2.237 -14.479  10.097  1.00  0.00     0.074 A 
ATOM     35  C   UNL     1       2.856 -14.427   8.798  1.00  0.00     0.031 C 
ATOM     36  C   UNL     1       1.477  -8.245  11.547  1.00  0.00     0.029 A 
ATOM     37  C   UNL     1       1.090  -9.395  12.356  1.00  0.00     0.049 A 
ATOM     38  H   UNL     1       1.299 -11.412  11.874  1.00  0.00     0.167 HD
ATOM     39  C   UNL     1       1.937 -15.632  10.736  1.00  0.00     0.037 A 
ATOM     40  C   UNL     1       0.512  -9.343  13.571  1.00  0.00     0.037 A 
ATOM     41  C   UNL     1       1.377 -15.678  12.057  1.00  0.00     0.049 A 
ATOM     42  C   UNL     1       0.246 -10.634  14.297  1.00  0.00     0.074 A 
ATOM     43  C   UNL     1       1.090 -16.781  12.838  1.00  0.00     0.029 A 
ATOM     44  N   UNL     1       1.032 -14.556  12.796  1.00  0.00    -0.354 N 
ATOM     45  N   UNL     1       0.469 -11.867  13.904  1.00  0.00    -0.248 NA
ATOM     46  C   UNL     1      -0.332 -10.527  15.642  1.00  0.00     0.031 C 
ATOM     47  C   UNL     1       0.532 -16.326  14.038  1.00  0.00     0.029 A 
ATOM     48  C   UNL     1       0.522 -14.940  14.023  1.00  0.00     0.049 A 
ATOM     49  H   UNL     1       1.135 -13.626  12.492  1.00  0.00     0.167 HD
ATOM     50  C   UNL     1       0.086 -12.680  14.963  1.00  0.00     0.074 A 
ATOM     51  C   UNL     1      -0.358 -11.796  16.023  1.00  0.00     0.031 C 
ATOM     52  C   UNL     1       0.092 -14.033  15.056  1.00  0.00     0.037 A 
BRANCH  39  53
ATOM     53  C   UNL     1       2.240 -16.918  10.019  1.00  0.00     0.057 A 
ATOM     54  C   UNL     1       3.556 -17.321   9.741  1.00  0.00     0.134 A 
ATOM     55  C   UNL     1       1.208 -17.758   9.585  1.00  0.00     0.134 A 
ATOM     56  F   UNL     1       4.594 -16.553  10.108  1.00  0.00    -0.206 F 
ATOM     57  C   UNL     1       3.831 -18.487   9.026  1.00  0.00     0.040 A 
ATOM     58  C   UNL     1       1.472 -18.945   8.899  1.00  0.00     0.040 A 
ATOM     59  F   UNL     1      -0.074 -17.436   9.815  1.00  0.00    -0.206 F 
ATOM     60  C   UNL     1       2.786 -19.307   8.608  1.00  0.00     0.006 A 
ENDBRANCH  39  53
BRANCH  40  61
ATOM     61  C   UNL     1       0.221  -8.032  14.209  1.00  0.00     0.057 A 
ATOM     62  C   UNL     1       0.934  -7.598  15.334  1.00  0.00     0.134 A 
ATOM     63  C   UNL     1      -0.779  -7.183  13.719  1.00  0.00     0.134 A 
ATOM     64  F   UNL     1       1.897  -8.368  15.861  1.00  0.00    -0.206 F 
ATOM     65  C   UNL     1       0.646  -6.385  15.964  1.00  0.00     0.040 A 
ATOM     66  C   UNL     1      -1.059  -5.955  14.322  1.00  0.00     0.040 A 
ATOM     67  F   UNL     1      -1.490  -7.530  12.636  1.00  0.00    -0.206 F 
ATOM     68  C   UNL     1      -0.352  -5.558  15.455  1.00  0.00     0.006 A 
ENDBRANCH  40  61
BRANCH  52  69
ATOM     69  C   UNL     1      -0.364 -14.626  16.356  1.00  0.00     0.057 A 
ATOM     70  C   UNL     1      -1.704 -14.581  16.761  1.00  0.00     0.134 A 
ATOM     71  C   UNL     1       0.550 -15.265  17.204  1.00  0.00     0.134 A 
ATOM     72  F   UNL     1      -2.625 -13.976  15.996  1.00  0.00    -0.206 F 
ATOM     73  C   UNL     1      -2.112 -15.114  17.983  1.00  0.00     0.040 A 
ATOM     74  C   UNL     1       0.147 -15.831  18.413  1.00  0.00     0.040 A 
ATOM     75  F   UNL     1       1.845 -15.357  16.867  1.00  0.00    -0.206 F 
ATOM     76  C   UNL     1      -1.185 -15.745  18.811  1.00  0.00     0.006 A 
ENDBRANCH  52  69
ENDBRANCH  26  27
ENDBRANCH  18  21
ENDBRANCH  16  17
ENDBRANCH  15  16
ENDBRANCH  14  15
ENDBRANCH  12  14
ENDBRANCH   5  10
ENDBRANCH   1   5
BRANCH   2  77
ATOM     77  C   UNL     1       0.768  -1.097   1.776  1.00  0.00     0.175 C 
BRANCH  77  78
ATOM     78  N   UNL     1       1.697  -0.787   0.689  1.00  0.00    -0.342 N 
ATOM     79  C   UNL     1       3.048  -0.550   0.734  1.00  0.00     0.240 C 
ATOM     80  H   UNL     1       1.294  -0.743  -0.208  1.00  0.00     0.164 HD
ATOM     81  O   UNL     1       3.587  -0.022  -0.241  1.00  0.00    -0.273 OA
BRANCH  79  82
ATOM     82  C   UNL     1       3.876  -0.917   1.977  1.00  0.00     0.216 C 
BRANCH  82  83
ATOM     83  N   UNL     1       4.001   0.187   2.909  1.00  0.00    -0.346 N 
ATOM     84  C   UNL     1       4.088   0.226   4.267  1.00  0.00     0.239 C 
ATOM     85  H   UNL     1       4.027   1.073   2.480  1.00  0.00     0.164 HD
ATOM     86  O   UNL     1       4.161   1.336   4.800  1.00  0.00    -0.273 OA
BRANCH  84  87
ATOM     87  C   UNL     1       4.177  -1.046   5.117  1.00  0.00     0.219 C 
BRANCH  87  88
ATOM     88  N   UNL     1       3.017  -1.882   4.939  1.00  0.00    -0.312 N 
ATOM     89  C   UNL     1       2.998  -3.109   4.367  1.00  0.00     0.407 C 
ATOM     90  H   UNL     1       2.158  -1.528   5.264  1.00  0.00     0.167 HD
ATOM     91  O   UNL     1       1.942  -3.522   3.918  1.00  0.00    -0.225 OA
BRANCH  89  92
ATOM     92  O   UNL     1       4.208  -3.704   4.291  1.00  0.00    -0.445 OA
BRANCH  92  93
ATOM     93  C   UNL     1       4.364  -4.922   3.532  1.00  0.00     0.270 C 
BRANCH  93  94
ATOM     94  C   UNL     1       3.363  -6.016   3.801  1.00  0.00    -0.011 A 
ATOM     95  C   UNL     1       2.988  -7.268   2.518  1.00  0.00     0.007 A 
ATOM     96  C   UNL     1       2.572  -6.121   5.411  1.00  0.00     0.007 A 
ATOM     97  C   UNL     1       1.741  -8.537   2.840  1.00  0.00     0.000 A 
ATOM     98  C   UNL     1       1.317  -7.382   5.715  1.00  0.00     0.000 A 
ATOM     99  C   UNL     1       0.948  -8.615   4.467  1.00  0.00     0.000 A 
ENDBRANCH  93  94
ENDBRANCH  92  93
ENDBRANCH  89  92
ENDBRANCH  87  88
ENDBRANCH  84  87
ENDBRANCH  82  83
ENDBRANCH  79  82
ENDBRANCH  77  78
BRANCH  77 100
ATOM    100  C   UNL     1      -0.110   0.151   2.173  1.00  0.00     0.070 C 
BRANCH 100 101
ATOM    101  C   UNL     1       0.285   1.452   1.511  1.00  0.00    -0.045 A 
ATOM    102  C   UNL     1       1.470   2.096   1.877  1.00  0.00     0.004 A 
ATOM    103  C   UNL     1      -0.457   1.958   0.437  1.00  0.00     0.004 A 
ATOM    104  C   UNL     1       1.998   3.112   1.085  1.00  0.00     0.000 A 
ATOM    105  C   UNL     1       0.041   3.018  -0.322  1.00  0.00     0.000 A 
ATOM    106  C   UNL     1       1.288   3.563  -0.025  1.00  0.00     0.000 A 
ENDBRANCH 100 101
ENDBRANCH  77 100
ENDBRANCH   2  77
TORSDOF 24
