REMARK SMILES CN(C)C(=O)CSc1ccc(C(=O)NCCCNC(=O)c2ccc(-c3c4nc(c(-c5c(F)cccc5F)c5ccc([nH]5)c(-c5c(F)cccc5F)c5nc(c(-c6c(F)cccc6F)c6ccc3[nH]6)C=C5)C=C4)cc2)cc1
REMARK SMILES IDX 15 1 14 2 12 3 13 4 11 6 8 7 9 8 76 9 10 10 75 11 7 12 6 13
REMARK SMILES IDX 4 14 1 15 2 16 3 17 5 18 16 19 17 20 18 21 19 22 20 24 21 25
REMARK SMILES IDX 22 26 74 27 23 28 73 29 24 30 25 31 26 32 67 33 27 34 72 35
REMARK SMILES IDX 66 36 68 37 28 38 71 39 65 40 64 41 29 43 55 44 38 45 54 46
REMARK SMILES IDX 39 47 42 48 53 49 69 50 40 51 41 52 52 54 70 55 43 56 30 57
REMARK SMILES IDX 31 58 36 59 32 60 33 61 35 62 37 63 34 64 56 65 57 66 62 67
REMARK SMILES IDX 58 68 59 69 61 70 63 71 60 72 44 73 45 74 50 75 46 76 47 77
REMARK SMILES IDX 49 78 51 79 48 80
REMARK H PARENT 14 5 18 23 68 42 42 53
REMARK Flexibility Score: inf
ROOT
ATOM      1  C   UNL     1       7.169   0.854   3.897  1.00  0.00     0.118 C 
ENDROOT
BRANCH   1   2
ATOM      2  N   UNL     1       7.524  -0.470   4.376  1.00  0.00    -0.352 N 
ATOM      3  C   UNL     1       6.764  -1.578   4.653  1.00  0.00     0.251 C 
ATOM      4  O   UNL     1       7.352  -2.620   4.943  1.00  0.00    -0.269 OA
ATOM      5  H   UNL     1       8.488  -0.596   4.531  1.00  0.00     0.163 HD
BRANCH   3   6
ATOM      6  C   UNL     1       5.279  -1.582   4.587  1.00  0.00     0.039 A 
ATOM      7  C   UNL     1       2.466  -1.771   4.479  1.00  0.00     0.008 A 
ATOM      8  C   UNL     1       3.258  -2.872   4.151  1.00  0.00     0.016 A 
ATOM      9  C   UNL     1       3.087  -0.591   4.900  1.00  0.00     0.016 A 
ATOM     10  C   UNL     1       4.653  -2.776   4.200  1.00  0.00     0.015 A 
ATOM     11  C   UNL     1       4.482  -0.501   4.967  1.00  0.00     0.015 A 
BRANCH   7  12
ATOM     12  S   UNL     1       0.685  -1.823   4.473  1.00  0.00    -0.116 SA
BRANCH  12  13
ATOM     13  C   UNL     1       0.329  -2.563   2.844  1.00  0.00     0.175 C 
BRANCH  13  14
ATOM     14  C   UNL     1       0.982  -1.818   1.688  1.00  0.00     0.232 C 
ATOM     15  C   UNL     1       1.156   0.113   0.216  1.00  0.00     0.146 C 
ATOM     16  N   UNL     1       0.522  -0.553   1.342  1.00  0.00    -0.348 N 
ATOM     17  C   UNL     1      -0.527   0.182   2.031  1.00  0.00     0.146 C 
ATOM     18  O   UNL     1       1.877  -2.374   1.042  1.00  0.00    -0.274 OA
ENDBRANCH  13  14
ENDBRANCH  12  13
ENDBRANCH   7  12
ENDBRANCH   3   6
ENDBRANCH   1   2
BRANCH   1  19
ATOM     19  C   UNL     1       7.264   1.899   5.010  1.00  0.00     0.042 C 
BRANCH  19  20
ATOM     20  C   UNL     1       8.694   2.227   5.436  1.00  0.00     0.118 C 
BRANCH  20  21
ATOM     21  N   UNL     1       9.417   2.963   4.412  1.00  0.00    -0.352 N 
ATOM     22  C   UNL     1      10.094   4.154   4.480  1.00  0.00     0.251 C 
ATOM     23  H   UNL     1       9.421   2.537   3.525  1.00  0.00     0.163 HD
ATOM     24  O   UNL     1      10.459   4.687   3.435  1.00  0.00    -0.269 OA
BRANCH  22  25
ATOM     25  C   UNL     1      10.393   4.812   5.774  1.00  0.00     0.039 A 
ATOM     26  C   UNL     1      10.375   6.211   5.821  1.00  0.00     0.014 A 
ATOM     27  C   UNL     1      10.784   4.090   6.906  1.00  0.00     0.014 A 
ATOM     28  C   UNL     1      10.727   6.880   6.995  1.00  0.00     0.010 A 
ATOM     29  C   UNL     1      11.079   4.757   8.097  1.00  0.00     0.010 A 
ATOM     30  C   UNL     1      11.075   6.159   8.147  1.00  0.00    -0.014 A 
BRANCH  30  31
ATOM     31  C   UNL     1      11.474   6.869   9.390  1.00  0.00     0.031 A 
ATOM     32  C   UNL     1      12.893   6.795   9.887  1.00  0.00     0.074 A 
ATOM     33  C   UNL     1      10.556   7.569  10.084  1.00  0.00     0.049 A 
ATOM     34  N   UNL     1      13.428   7.347  10.947  1.00  0.00    -0.248 NA
ATOM     35  C   UNL     1      13.828   5.978   9.100  1.00  0.00     0.031 C 
ATOM     36  C   UNL     1       9.140   7.685   9.735  1.00  0.00     0.029 A 
ATOM     37  N   UNL     1      10.680   8.315  11.229  1.00  0.00    -0.354 N 
ATOM     38  C   UNL     1      14.753   6.931  10.963  1.00  0.00     0.074 A 
ATOM     39  C   UNL     1      14.931   6.047   9.831  1.00  0.00     0.031 C 
ATOM     40  C   UNL     1       8.531   8.477  10.633  1.00  0.00     0.029 A 
ATOM     41  C   UNL     1       9.507   8.906  11.629  1.00  0.00     0.049 A 
ATOM     42  H   UNL     1      11.529   8.416  11.717  1.00  0.00     0.167 HD
ATOM     43  C   UNL     1      15.740   7.269  11.829  1.00  0.00     0.037 A 
ATOM     44  C   UNL     1       9.251   9.713  12.676  1.00  0.00     0.037 A 
ATOM     45  C   UNL     1      15.574   8.171  12.938  1.00  0.00     0.049 A 
ATOM     46  C   UNL     1      10.370  10.105  13.599  1.00  0.00     0.074 A 
ATOM     47  C   UNL     1      16.523   8.608  13.847  1.00  0.00     0.029 A 
ATOM     48  N   UNL     1      14.379   8.780  13.286  1.00  0.00    -0.354 N 
ATOM     49  N   UNL     1      11.630   9.747  13.569  1.00  0.00    -0.248 NA
ATOM     50  C   UNL     1      10.032  11.028  14.692  1.00  0.00     0.031 C 
ATOM     51  C   UNL     1      15.896   9.464  14.759  1.00  0.00     0.029 A 
ATOM     52  C   UNL     1      14.565   9.587  14.397  1.00  0.00     0.049 A 
ATOM     53  H   UNL     1      13.524   8.658  12.814  1.00  0.00     0.167 HD
ATOM     54  C   UNL     1      12.242  10.422  14.617  1.00  0.00     0.074 A 
ATOM     55  C   UNL     1      11.216  11.220  15.257  1.00  0.00     0.031 C 
ATOM     56  C   UNL     1      13.537  10.384  15.014  1.00  0.00     0.037 A 
BRANCH  43  57
ATOM     57  C   UNL     1      17.092   6.660  11.602  1.00  0.00     0.057 A 
ATOM     58  C   UNL     1      17.910   7.059  10.537  1.00  0.00     0.134 A 
ATOM     59  C   UNL     1      17.593   5.681  12.470  1.00  0.00     0.134 A 
ATOM     60  F   UNL     1      17.484   7.982   9.662  1.00  0.00    -0.206 F 
ATOM     61  C   UNL     1      19.167   6.488  10.328  1.00  0.00     0.040 A 
ATOM     62  C   UNL     1      18.858   5.120  12.285  1.00  0.00     0.040 A 
ATOM     63  F   UNL     1      16.864   5.258  13.514  1.00  0.00    -0.206 F 
ATOM     64  C   UNL     1      19.646   5.519  11.207  1.00  0.00     0.006 A 
ENDBRANCH  43  57
BRANCH  44  65
ATOM     65  C   UNL     1       7.881  10.244  12.881  1.00  0.00     0.057 A 
ATOM     66  C   UNL     1       7.585  11.588  12.624  1.00  0.00     0.134 A 
ATOM     67  C   UNL     1       6.842   9.428  13.340  1.00  0.00     0.134 A 
ATOM     68  F   UNL     1       8.546  12.421  12.199  1.00  0.00    -0.206 F 
ATOM     69  C   UNL     1       6.307  12.107  12.832  1.00  0.00     0.040 A 
ATOM     70  C   UNL     1       5.553   9.929  13.534  1.00  0.00     0.040 A 
ATOM     71  F   UNL     1       7.062   8.131  13.597  1.00  0.00    -0.206 F 
ATOM     72  C   UNL     1       5.285  11.274  13.285  1.00  0.00     0.006 A 
ENDBRANCH  44  65
BRANCH  56  73
ATOM     73  C   UNL     1      13.921  11.261  16.168  1.00  0.00     0.057 A 
ATOM     74  C   UNL     1      13.554  10.954  17.484  1.00  0.00     0.134 A 
ATOM     75  C   UNL     1      14.682  12.418  15.959  1.00  0.00     0.134 A 
ATOM     76  F   UNL     1      12.813   9.867  17.747  1.00  0.00    -0.206 F 
ATOM     77  C   UNL     1      13.908  11.783  18.550  1.00  0.00     0.040 A 
ATOM     78  C   UNL     1      15.061  13.242  17.019  1.00  0.00     0.040 A 
ATOM     79  F   UNL     1      15.072  12.763  14.723  1.00  0.00    -0.206 F 
ATOM     80  C   UNL     1      14.667  12.928  18.319  1.00  0.00     0.006 A 
ENDBRANCH  56  73
ENDBRANCH  30  31
ENDBRANCH  22  25
ENDBRANCH  20  21
ENDBRANCH  19  20
ENDBRANCH   1  19
TORSDOF 13
