REMARK SMILES C[N@H+](CC(=O)NCCCNC(=O)c1ccc(-c2c3nc(c(-c4c(F)cccc4F)c4ccc([nH]4)c(-c4c(F)cccc4F)c4nc(c(-c5c(F)cccc5F)c5ccc2[nH]5)C=C4)C=C3)cc1)Cc1nc(-c2ccsc2)no1
REMARK SMILES IDX 7 1 6 2 4 3 5 4 3 6 2 7 1 8 67 10 68 11 69 12 77 13 70 14
REMARK SMILES IDX 76 15 71 16 72 17 75 18 73 19 74 20 8 21 9 22 10 23 11 24
REMARK SMILES IDX 12 26 13 27 14 28 66 29 15 30 65 31 16 32 17 33 18 34 59 35
REMARK SMILES IDX 19 36 64 37 58 38 60 39 20 40 63 41 57 42 56 43 21 45 47 46
REMARK SMILES IDX 30 47 46 48 31 49 34 50 45 51 61 52 32 53 33 54 44 56 62 57
REMARK SMILES IDX 35 58 22 59 23 60 28 61 24 62 25 63 27 64 29 65 26 66 48 67
REMARK SMILES IDX 49 68 54 69 50 70 51 71 53 72 55 73 52 74 36 75 37 76 42 77
REMARK SMILES IDX 38 78 39 79 41 80 43 81 40 82
REMARK H PARENT 6 5 2 9 10 25 60 44 34 55
REMARK Flexibility Score: inf
ROOT
ATOM      1  C   UNL     1      -0.753   0.038   1.875  1.00  0.00     0.118 C 
ENDROOT
BRANCH   1   2
ATOM      2  N   UNL     1      -1.570   0.891   1.028  1.00  0.00    -0.351 N 
ATOM      3  C   UNL     1      -1.582   0.987  -0.338  1.00  0.00     0.275 C 
ATOM      4  O   UNL     1      -2.393   1.741  -0.881  1.00  0.00    -0.269 OA
ATOM      5  H   UNL     1      -2.201   1.480   1.501  1.00  0.00     0.163 HD
BRANCH   3   6
ATOM      6  C   UNL     1      -0.611   0.138  -1.162  1.00  0.00     0.363 C 
BRANCH   6   7
ATOM      7  N   UNL     1       0.778   0.608  -0.982  1.00  0.00    -0.322 N 
ATOM      8  C   UNL     1       1.740  -0.471  -1.161  1.00  0.00     0.333 C 
ATOM      9  H   UNL     1       0.847   0.934  -0.018  1.00  0.00     0.348 HD
BRANCH   7  10
ATOM     10  C   UNL     1       1.104   1.759  -1.856  1.00  0.00     0.364 C 
BRANCH  10  11
ATOM     11  C   UNL     1       0.633   3.083  -1.348  1.00  0.00     0.282 A 
ATOM     12  N   UNL     1       0.394   3.503  -0.123  1.00  0.00    -0.186 NA
ATOM     13  O   UNL     1       0.411   4.039  -2.300  1.00  0.00    -0.333 OA
ATOM     14  C   UNL     1      -0.119   4.754  -0.354  1.00  0.00     0.203 A 
ATOM     15  N   UNL     1      -0.097   5.153  -1.632  1.00  0.00    -0.057 NA
BRANCH  14  16
ATOM     16  C   UNL     1      -0.707   5.519   0.743  1.00  0.00     0.033 A 
ATOM     17  C   UNL     1      -1.800   6.418   0.567  1.00  0.00     0.024 A 
ATOM     18  C   UNL     1      -0.316   5.441   2.060  1.00  0.00     0.077 A 
ATOM     19  C   UNL     1      -2.229   6.949   1.764  1.00  0.00     0.065 A 
ATOM     20  S   UNL     1      -1.292   6.396   3.087  1.00  0.00    -0.152 S 
ENDBRANCH  14  16
ENDBRANCH  10  11
ENDBRANCH   7  10
ENDBRANCH   6   7
ENDBRANCH   3   6
ENDBRANCH   1   2
BRANCH   1  21
ATOM     21  C   UNL     1       0.552   0.682   2.342  1.00  0.00     0.042 C 
BRANCH  21  22
ATOM     22  C   UNL     1       0.372   1.938   3.185  1.00  0.00     0.118 C 
BRANCH  22  23
ATOM     23  N   UNL     1      -0.105   1.657   4.531  1.00  0.00    -0.352 N 
ATOM     24  C   UNL     1       0.458   1.902   5.760  1.00  0.00     0.251 C 
ATOM     25  H   UNL     1      -0.984   1.215   4.567  1.00  0.00     0.163 HD
ATOM     26  O   UNL     1      -0.084   1.443   6.763  1.00  0.00    -0.269 OA
BRANCH  24  27
ATOM     27  C   UNL     1       1.714   2.679   5.910  1.00  0.00     0.039 A 
ATOM     28  C   UNL     1       2.637   2.270   6.878  1.00  0.00     0.014 A 
ATOM     29  C   UNL     1       1.970   3.836   5.173  1.00  0.00     0.014 A 
ATOM     30  C   UNL     1       3.829   2.981   7.062  1.00  0.00     0.010 A 
ATOM     31  C   UNL     1       3.192   4.502   5.300  1.00  0.00     0.010 A 
ATOM     32  C   UNL     1       4.133   4.086   6.252  1.00  0.00    -0.014 A 
BRANCH  32  33
ATOM     33  C   UNL     1       5.426   4.809   6.400  1.00  0.00     0.031 A 
ATOM     34  C   UNL     1       5.460   6.242   6.859  1.00  0.00     0.074 A 
ATOM     35  C   UNL     1       6.580   4.184   6.090  1.00  0.00     0.049 A 
ATOM     36  N   UNL     1       6.492   7.032   7.030  1.00  0.00    -0.248 NA
ATOM     37  C   UNL     1       4.165   6.879   7.143  1.00  0.00     0.031 C 
ATOM     38  C   UNL     1       6.691   2.811   5.596  1.00  0.00     0.029 A 
ATOM     39  N   UNL     1       7.880   4.623   6.146  1.00  0.00    -0.354 N 
ATOM     40  C   UNL     1       5.971   8.256   7.432  1.00  0.00     0.074 A 
ATOM     41  C   UNL     1       4.530   8.120   7.429  1.00  0.00     0.031 C 
ATOM     42  C   UNL     1       7.989   2.510   5.425  1.00  0.00     0.029 A 
ATOM     43  C   UNL     1       8.799   3.676   5.764  1.00  0.00     0.049 A 
ATOM     44  H   UNL     1       8.130   5.531   6.432  1.00  0.00     0.167 HD
ATOM     45  C   UNL     1       6.629   9.384   7.793  1.00  0.00     0.037 A 
ATOM     46  C   UNL     1      10.142   3.736   5.697  1.00  0.00     0.037 A 
ATOM     47  C   UNL     1       8.062   9.520   7.819  1.00  0.00     0.049 A 
ATOM     48  C   UNL     1      10.849   5.001   6.092  1.00  0.00     0.074 A 
ATOM     49  C   UNL     1       8.820  10.607   8.222  1.00  0.00     0.029 A 
ATOM     50  N   UNL     1       8.956   8.537   7.424  1.00  0.00    -0.354 N 
ATOM     51  N   UNL     1      10.344   6.129   6.529  1.00  0.00    -0.248 NA
ATOM     52  C   UNL     1      12.316   5.000   5.989  1.00  0.00     0.031 C 
ATOM     53  C   UNL     1      10.171  10.294   8.037  1.00  0.00     0.029 A 
ATOM     54  C   UNL     1      10.256   8.998   7.556  1.00  0.00     0.049 A 
ATOM     55  H   UNL     1       8.704   7.643   7.098  1.00  0.00     0.167 HD
ATOM     56  C   UNL     1      11.429   6.960   6.778  1.00  0.00     0.074 A 
ATOM     57  C   UNL     1      12.620   6.203   6.454  1.00  0.00     0.031 C 
ATOM     58  C   UNL     1      11.435   8.235   7.237  1.00  0.00     0.037 A 
BRANCH  45  59
ATOM     59  C   UNL     1       5.797  10.566   8.199  1.00  0.00     0.057 A 
ATOM     60  C   UNL     1       5.092  10.588   9.410  1.00  0.00     0.134 A 
ATOM     61  C   UNL     1       5.722  11.705   7.387  1.00  0.00     0.134 A 
ATOM     62  F   UNL     1       5.115   9.526  10.229  1.00  0.00    -0.206 F 
ATOM     63  C   UNL     1       4.317  11.688   9.784  1.00  0.00     0.040 A 
ATOM     64  C   UNL     1       4.971  12.821   7.763  1.00  0.00     0.040 A 
ATOM     65  F   UNL     1       6.381  11.754   6.220  1.00  0.00    -0.206 F 
ATOM     66  C   UNL     1       4.260  12.811   8.961  1.00  0.00     0.006 A 
ENDBRANCH  45  59
BRANCH  46  67
ATOM     67  C   UNL     1      10.915   2.544   5.269  1.00  0.00     0.057 A 
ATOM     68  C   UNL     1      11.675   1.813   6.189  1.00  0.00     0.134 A 
ATOM     69  C   UNL     1      10.918   2.110   3.939  1.00  0.00     0.134 A 
ATOM     70  F   UNL     1      11.727   2.193   7.474  1.00  0.00    -0.206 F 
ATOM     71  C   UNL     1      12.421   0.700   5.800  1.00  0.00     0.040 A 
ATOM     72  C   UNL     1      11.642   0.986   3.539  1.00  0.00     0.040 A 
ATOM     73  F   UNL     1      10.206   2.766   3.011  1.00  0.00    -0.206 F 
ATOM     74  C   UNL     1      12.402   0.281   4.471  1.00  0.00     0.006 A 
ENDBRANCH  46  67
BRANCH  58  75
ATOM     75  C   UNL     1      12.772   8.881   7.447  1.00  0.00     0.057 A 
ATOM     76  C   UNL     1      13.560   9.314   6.374  1.00  0.00     0.134 A 
ATOM     77  C   UNL     1      13.262   9.100   8.741  1.00  0.00     0.134 A 
ATOM     78  F   UNL     1      13.153   9.120   5.110  1.00  0.00    -0.206 F 
ATOM     79  C   UNL     1      14.798   9.925   6.579  1.00  0.00     0.040 A 
ATOM     80  C   UNL     1      14.488   9.730   8.960  1.00  0.00     0.040 A 
ATOM     81  F   UNL     1      12.553   8.714   9.813  1.00  0.00    -0.206 F 
ATOM     82  C   UNL     1      15.262  10.140   7.876  1.00  0.00     0.006 A 
ENDBRANCH  58  75
ENDBRANCH  32  33
ENDBRANCH  24  27
ENDBRANCH  22  23
ENDBRANCH  21  22
ENDBRANCH   1  21
TORSDOF 14
