REMARK SMILES Cn1nc(N2CCC(CC(=O)NCCCNC(=O)c3ccc(-c4c5nc(c(-c6c(F)cccc6F)c6ccc([nH]6)c(-c6c(F)cccc6F)c6nc(c(-c7c(F)cccc7F)c7ccc4[nH]7)C=C6)C=C5)cc3)CC2)c(=O)n(C)c1=O
REMARK SMILES IDX 14 1 13 2 12 3 10 4 11 5 9 7 8 8 5 9 6 10 74 11 7 12 73 13
REMARK SMILES IDX 4 14 1 15 2 16 3 17 79 18 77 19 80 20 75 21 78 22 76 23
REMARK SMILES IDX 15 24 16 25 17 26 18 28 19 29 20 30 72 31 21 32 71 33 22 34
REMARK SMILES IDX 23 35 24 36 65 37 25 38 70 39 64 40 66 41 26 42 69 43 63 44
REMARK SMILES IDX 62 45 27 47 53 48 36 49 52 50 37 51 40 52 51 53 67 54 38 55
REMARK SMILES IDX 39 56 50 58 68 59 41 60 28 61 29 62 34 63 30 64 31 65 33 66
REMARK SMILES IDX 35 67 32 68 54 69 55 70 60 71 56 72 57 73 59 74 61 75 58 76
REMARK SMILES IDX 42 77 43 78 48 79 44 80 45 81 47 82 49 83 46 84
REMARK H PARENT 12 6 16 27 66 46 40 57
REMARK Flexibility Score: inf
ROOT
ATOM      1  C   UNL     1      -0.407  -2.533   6.003  1.00  0.00     0.042 C 
ENDROOT
BRANCH   1   2
ATOM      2  C   UNL     1      -1.864  -2.900   5.704  1.00  0.00     0.117 C 
BRANCH   2   3
ATOM      3  N   UNL     1      -2.787  -2.447   6.739  1.00  0.00    -0.356 N 
ATOM      4  C   UNL     1      -3.757  -1.488   6.733  1.00  0.00     0.220 C 
ATOM      5  O   UNL     1      -4.396  -1.308   7.771  1.00  0.00    -0.275 OA
ATOM      6  H   UNL     1      -2.693  -2.919   7.598  1.00  0.00     0.163 HD
BRANCH   4   7
ATOM      7  C   UNL     1      -4.033  -0.646   5.499  1.00  0.00     0.103 C 
BRANCH   7   8
ATOM      8  C   UNL     1      -3.304   0.715   5.508  1.00  0.00     0.002 C 
ATOM      9  N   UNL     1      -1.446   2.344   4.024  1.00  0.00    -0.351 N 
ATOM     10  C   UNL     1      -0.955   1.729   5.235  1.00  0.00     0.118 C 
ATOM     11  C   UNL     1      -2.830   2.784   4.068  1.00  0.00     0.118 C 
ATOM     12  C   UNL     1      -1.788   0.500   5.536  1.00  0.00     0.025 C 
ATOM     13  C   UNL     1      -3.729   1.562   4.288  1.00  0.00     0.025 C 
BRANCH   9  14
ATOM     14  C   UNL     1      -0.691   2.377   2.865  1.00  0.00     0.215 A 
ATOM     15  C   UNL     1       0.800   0.131   0.481  1.00  0.00     0.180 C 
ATOM     16  N   UNL     1       0.465   1.380   1.143  1.00  0.00    -0.216 N 
ATOM     17  N   UNL     1      -0.289   1.282   2.284  1.00  0.00    -0.145 NA
ATOM     18  C   UNL     1       0.938   2.567   0.591  1.00  0.00     0.346 A 
ATOM     19  N   UNL     1       0.560   3.730   1.229  1.00  0.00    -0.259 N 
ATOM     20  O   UNL     1       1.649   2.573  -0.417  1.00  0.00    -0.246 OA
ATOM     21  C   UNL     1      -0.294   3.745   2.308  1.00  0.00     0.299 A 
ATOM     22  C   UNL     1       1.047   5.006   0.752  1.00  0.00     0.159 C 
ATOM     23  O   UNL     1      -0.716   4.760   2.857  1.00  0.00    -0.265 OA
ENDBRANCH   9  14
ENDBRANCH   7   8
ENDBRANCH   4   7
ENDBRANCH   2   3
ENDBRANCH   1   2
BRANCH   1  24
ATOM     24  C   UNL     1       0.185  -3.243   7.213  1.00  0.00     0.118 C 
BRANCH  24  25
ATOM     25  N   UNL     1       0.874  -4.460   6.826  1.00  0.00    -0.352 N 
ATOM     26  C   UNL     1       2.216  -4.689   6.638  1.00  0.00     0.251 C 
ATOM     27  H   UNL     1       0.292  -5.240   6.676  1.00  0.00     0.163 HD
ATOM     28  O   UNL     1       2.568  -5.696   6.029  1.00  0.00    -0.269 OA
BRANCH  26  29
ATOM     29  C   UNL     1       3.246  -3.750   7.149  1.00  0.00     0.039 A 
ATOM     30  C   UNL     1       4.401  -3.545   6.385  1.00  0.00     0.014 A 
ATOM     31  C   UNL     1       3.144  -3.153   8.409  1.00  0.00     0.014 A 
ATOM     32  C   UNL     1       5.433  -2.735   6.871  1.00  0.00     0.010 A 
ATOM     33  C   UNL     1       4.140  -2.283   8.861  1.00  0.00     0.010 A 
ATOM     34  C   UNL     1       5.309  -2.088   8.111  1.00  0.00    -0.014 A 
BRANCH  34  35
ATOM     35  C   UNL     1       6.421  -1.265   8.659  1.00  0.00     0.031 A 
ATOM     36  C   UNL     1       7.145  -1.710   9.904  1.00  0.00     0.074 A 
ATOM     37  C   UNL     1       6.779  -0.117   8.052  1.00  0.00     0.049 A 
ATOM     38  N   UNL     1       8.120  -1.120  10.550  1.00  0.00    -0.248 NA
ATOM     39  C   UNL     1       6.707  -2.977  10.514  1.00  0.00     0.031 C 
ATOM     40  C   UNL     1       6.147   0.439   6.855  1.00  0.00     0.029 A 
ATOM     41  N   UNL     1       7.766   0.789   8.357  1.00  0.00    -0.354 N 
ATOM     42  C   UNL     1       8.404  -1.937  11.638  1.00  0.00     0.074 A 
ATOM     43  C   UNL     1       7.465  -3.035  11.600  1.00  0.00     0.031 C 
ATOM     44  C   UNL     1       6.780   1.573   6.510  1.00  0.00     0.029 A 
ATOM     45  C   UNL     1       7.840   1.843   7.478  1.00  0.00     0.049 A 
ATOM     46  H   UNL     1       8.364   0.692   9.133  1.00  0.00     0.167 HD
ATOM     47  C   UNL     1       9.379  -1.803  12.568  1.00  0.00     0.037 A 
ATOM     48  C   UNL     1       8.668   2.906   7.455  1.00  0.00     0.037 A 
ATOM     49  C   UNL     1      10.341  -0.733  12.588  1.00  0.00     0.049 A 
ATOM     50  C   UNL     1       9.725   3.045   8.516  1.00  0.00     0.074 A 
ATOM     51  C   UNL     1      11.396  -0.543  13.463  1.00  0.00     0.029 A 
ATOM     52  N   UNL     1      10.368   0.321  11.689  1.00  0.00    -0.354 N 
ATOM     53  N   UNL     1      10.009   2.237   9.509  1.00  0.00    -0.248 NA
ATOM     54  C   UNL     1      10.577   4.242   8.455  1.00  0.00     0.031 C 
ATOM     55  C   UNL     1      12.041   0.647  13.117  1.00  0.00     0.029 A 
ATOM     56  C   UNL     1      11.411   1.176  12.002  1.00  0.00     0.049 A 
ATOM     57  H   UNL     1       9.741   0.443  10.940  1.00  0.00     0.167 HD
ATOM     58  C   UNL     1      11.082   2.817  10.176  1.00  0.00     0.074 A 
ATOM     59  C   UNL     1      11.410   4.034   9.466  1.00  0.00     0.031 C 
ATOM     60  C   UNL     1      11.732   2.380  11.281  1.00  0.00     0.037 A 
BRANCH  47  61
ATOM     61  C   UNL     1       9.482  -2.854  13.633  1.00  0.00     0.057 A 
ATOM     62  C   UNL     1       9.977  -4.134  13.352  1.00  0.00     0.134 A 
ATOM     63  C   UNL     1       9.165  -2.561  14.965  1.00  0.00     0.134 A 
ATOM     64  F   UNL     1      10.290  -4.480  12.094  1.00  0.00    -0.206 F 
ATOM     65  C   UNL     1      10.144  -5.089  14.356  1.00  0.00     0.040 A 
ATOM     66  C   UNL     1       9.350  -3.499  15.982  1.00  0.00     0.040 A 
ATOM     67  F   UNL     1       8.694  -1.351  15.303  1.00  0.00    -0.206 F 
ATOM     68  C   UNL     1       9.840  -4.768  15.678  1.00  0.00     0.006 A 
ENDBRANCH  47  61
BRANCH  48  69
ATOM     69  C   UNL     1       8.549   3.919   6.374  1.00  0.00     0.057 A 
ATOM     70  C   UNL     1       9.538   4.044   5.392  1.00  0.00     0.134 A 
ATOM     71  C   UNL     1       7.456   4.791   6.303  1.00  0.00     0.134 A 
ATOM     72  F   UNL     1      10.620   3.252   5.420  1.00  0.00    -0.206 F 
ATOM     73  C   UNL     1       9.454   5.010   4.388  1.00  0.00     0.040 A 
ATOM     74  C   UNL     1       7.347   5.746   5.290  1.00  0.00     0.040 A 
ATOM     75  F   UNL     1       6.472   4.720   7.212  1.00  0.00    -0.206 F 
ATOM     76  C   UNL     1       8.352   5.861   4.332  1.00  0.00     0.006 A 
ENDBRANCH  48  69
BRANCH  60  77
ATOM     77  C   UNL     1      12.872   3.209  11.792  1.00  0.00     0.057 A 
ATOM     78  C   UNL     1      12.654   4.416  12.467  1.00  0.00     0.134 A 
ATOM     79  C   UNL     1      14.193   2.756  11.681  1.00  0.00     0.134 A 
ATOM     80  F   UNL     1      11.413   4.908  12.598  1.00  0.00    -0.206 F 
ATOM     81  C   UNL     1      13.712   5.148  13.009  1.00  0.00     0.040 A 
ATOM     82  C   UNL     1      15.256   3.467  12.240  1.00  0.00     0.040 A 
ATOM     83  F   UNL     1      14.467   1.601  11.056  1.00  0.00    -0.206 F 
ATOM     84  C   UNL     1      15.016   4.668  12.905  1.00  0.00     0.006 A 
ENDBRANCH  60  77
ENDBRANCH  34  35
ENDBRANCH  26  29
ENDBRANCH  24  25
ENDBRANCH   1  24
TORSDOF 12
