REMARK SMILES CC(C)C[C@H](NC(=O)CNC(=O)[C@@H](NC(=O)OCc1ccccc1)C(C)C)C(=O)NCCCNC(=O)c1ccc(-c2c3nc(c(-c4c(F)cccc4F)c4ccc([nH]4)c(-c4c(F)cccc4F)c4nc(c(-c5c(F)cccc5F)c5ccc2[nH]5)C=C4)C=C3)cc1
REMARK SMILES IDX 5 1 4 2 2 3 1 4 3 5 28 6 29 7 30 8 31 10 32 11 33 12 34 13
REMARK SMILES IDX 35 14 36 16 37 17 38 18 90 19 39 20 89 21 40 22 41 23 42 24
REMARK SMILES IDX 83 25 43 26 88 27 82 28 84 29 44 30 87 31 81 32 80 33 45 35
REMARK SMILES IDX 71 36 54 37 70 38 55 39 58 40 69 41 85 42 56 43 57 44 68 46
REMARK SMILES IDX 86 47 59 48 46 49 47 50 52 51 48 52 49 53 51 54 53 55 50 56
REMARK SMILES IDX 72 57 73 58 78 59 74 60 75 61 77 62 79 63 76 64 60 65 61 66
REMARK SMILES IDX 66 67 62 68 63 69 65 70 67 71 64 72 6 73 7 74 8 76 9 77
REMARK SMILES IDX 10 78 11 79 12 81 13 82 14 83 15 84 16 86 17 87 18 88 19 89
REMARK SMILES IDX 20 90 24 91 21 92 23 93 22 94 25 95 26 96 27 97
REMARK H PARENT 30 9 34 15 84 34 58 45 6 75 10 80 14 85
REMARK Flexibility Score: inf
ROOT
ATOM      1  C   UNL     1      -2.166   1.767   0.149  1.00  0.00     0.171 C 
ENDROOT
BRANCH   1   2
ATOM      2  C   UNL     1      -1.822   3.252   0.290  1.00  0.00     0.038 C 
BRANCH   2   3
ATOM      3  C   UNL     1      -2.885   4.373   0.297  1.00  0.00    -0.015 C 
ATOM      4  C   UNL     1      -3.883   4.289   1.443  1.00  0.00     0.007 C 
ATOM      5  C   UNL     1      -2.180   5.739   0.339  1.00  0.00     0.007 C 
ENDBRANCH   2   3
ENDBRANCH   1   2
BRANCH   1   6
ATOM      6  C   UNL     1      -3.635   1.451  -0.146  1.00  0.00     0.242 C 
ATOM      7  O   UNL     1      -4.331   0.819   0.649  1.00  0.00    -0.273 OA
ATOM      8  N   UNL     1      -4.184   1.851  -1.323  1.00  0.00    -0.354 N 
ATOM      9  H   UNL     1      -5.141   1.655  -1.448  1.00  0.00     0.163 HD
BRANCH   8  10
ATOM     10  C   UNL     1      -3.522   2.531  -2.411  1.00  0.00     0.117 C 
BRANCH  10  11
ATOM     11  C   UNL     1      -3.633   1.765  -3.705  1.00  0.00     0.042 C 
BRANCH  11  12
ATOM     12  C   UNL     1      -5.061   1.758  -4.212  1.00  0.00     0.118 C 
BRANCH  12  13
ATOM     13  N   UNL     1      -5.586   3.106  -4.428  1.00  0.00    -0.352 N 
ATOM     14  C   UNL     1      -6.191   3.618  -5.548  1.00  0.00     0.251 C 
ATOM     15  H   UNL     1      -5.493   3.728  -3.670  1.00  0.00     0.163 HD
ATOM     16  O   UNL     1      -6.421   4.814  -5.658  1.00  0.00    -0.269 OA
BRANCH  14  17
ATOM     17  C   UNL     1      -6.533   2.674  -6.619  1.00  0.00     0.039 A 
ATOM     18  C   UNL     1      -6.100   2.925  -7.920  1.00  0.00     0.014 A 
ATOM     19  C   UNL     1      -7.170   1.478  -6.280  1.00  0.00     0.014 A 
ATOM     20  C   UNL     1      -6.240   1.925  -8.879  1.00  0.00     0.010 A 
ATOM     21  C   UNL     1      -7.194   0.449  -7.200  1.00  0.00     0.010 A 
ATOM     22  C   UNL     1      -6.744   0.667  -8.511  1.00  0.00    -0.014 A 
BRANCH  22  23
ATOM     23  C   UNL     1      -6.852  -0.451  -9.473  1.00  0.00     0.031 A 
ATOM     24  C   UNL     1      -8.206  -1.043  -9.743  1.00  0.00     0.074 A 
ATOM     25  C   UNL     1      -5.740  -0.994 -10.002  1.00  0.00     0.049 A 
ATOM     26  N   UNL     1      -8.518  -2.129 -10.398  1.00  0.00    -0.248 NA
ATOM     27  C   UNL     1      -9.361  -0.344  -9.151  1.00  0.00     0.031 C 
ATOM     28  C   UNL     1      -4.370  -0.532  -9.767  1.00  0.00     0.029 A 
ATOM     29  N   UNL     1      -5.588  -2.075 -10.832  1.00  0.00    -0.354 N 
ATOM     30  C   UNL     1      -9.894  -2.260 -10.267  1.00  0.00     0.074 A 
ATOM     31  C   UNL     1     -10.349  -1.183  -9.418  1.00  0.00     0.031 C 
ATOM     32  C   UNL     1      -3.519  -1.311 -10.455  1.00  0.00     0.029 A 
ATOM     33  C   UNL     1      -4.278  -2.354 -11.137  1.00  0.00     0.049 A 
ATOM     34  H   UNL     1      -6.346  -2.601 -11.176  1.00  0.00     0.167 HD
ATOM     35  C   UNL     1     -10.708  -3.182 -10.828  1.00  0.00     0.037 A 
ATOM     36  C   UNL     1      -3.753  -3.352 -11.872  1.00  0.00     0.037 A 
ATOM     37  C   UNL     1     -10.247  -4.221 -11.706  1.00  0.00     0.049 A 
ATOM     38  C   UNL     1      -4.680  -4.360 -12.495  1.00  0.00     0.074 A 
ATOM     39  C   UNL     1     -10.991  -5.169 -12.384  1.00  0.00     0.029 A 
ATOM     40  N   UNL     1      -8.917  -4.441 -12.031  1.00  0.00    -0.354 N 
ATOM     41  N   UNL     1      -5.987  -4.441 -12.413  1.00  0.00    -0.248 NA
ATOM     42  C   UNL     1      -4.063  -5.412 -13.313  1.00  0.00     0.031 C 
ATOM     43  C   UNL     1     -10.106  -5.990 -13.088  1.00  0.00     0.029 A 
ATOM     44  C   UNL     1      -8.816  -5.520 -12.891  1.00  0.00     0.049 A 
ATOM     45  H   UNL     1      -8.157  -3.910 -11.700  1.00  0.00     0.167 HD
ATOM     46  C   UNL     1      -6.351  -5.526 -13.200  1.00  0.00     0.074 A 
ATOM     47  C   UNL     1      -5.128  -6.071 -13.751  1.00  0.00     0.031 C 
ATOM     48  C   UNL     1      -7.587  -6.024 -13.447  1.00  0.00     0.037 A 
BRANCH  35  49
ATOM     49  C   UNL     1     -12.172  -3.094 -10.514  1.00  0.00     0.057 A 
ATOM     50  C   UNL     1     -12.969  -2.040 -10.983  1.00  0.00     0.134 A 
ATOM     51  C   UNL     1     -12.799  -4.084  -9.747  1.00  0.00     0.134 A 
ATOM     52  F   UNL     1     -12.428  -1.049 -11.709  1.00  0.00    -0.206 F 
ATOM     53  C   UNL     1     -14.328  -1.958 -10.676  1.00  0.00     0.040 A 
ATOM     54  C   UNL     1     -14.164  -4.029  -9.460  1.00  0.00     0.040 A 
ATOM     55  F   UNL     1     -12.097  -5.121  -9.268  1.00  0.00    -0.206 F 
ATOM     56  C   UNL     1     -14.930  -2.960  -9.918  1.00  0.00     0.006 A 
ENDBRANCH  35  49
BRANCH  36  57
ATOM     57  C   UNL     1      -2.286  -3.433 -12.081  1.00  0.00     0.057 A 
ATOM     58  C   UNL     1      -1.723  -3.173 -13.336  1.00  0.00     0.134 A 
ATOM     59  C   UNL     1      -1.412  -3.770 -11.041  1.00  0.00     0.134 A 
ATOM     60  F   UNL     1      -2.510  -2.859 -14.376  1.00  0.00    -0.206 F 
ATOM     61  C   UNL     1      -0.348  -3.268 -13.556  1.00  0.00     0.040 A 
ATOM     62  C   UNL     1      -0.032  -3.844 -11.240  1.00  0.00     0.040 A 
ATOM     63  F   UNL     1      -1.886  -4.019  -9.812  1.00  0.00    -0.206 F 
ATOM     64  C   UNL     1       0.503  -3.600 -12.504  1.00  0.00     0.006 A 
ENDBRANCH  36  57
BRANCH  48  65
ATOM     65  C   UNL     1      -7.689  -7.176 -14.401  1.00  0.00     0.057 A 
ATOM     66  C   UNL     1      -7.304  -8.473 -14.043  1.00  0.00     0.134 A 
ATOM     67  C   UNL     1      -8.255  -6.992 -15.670  1.00  0.00     0.134 A 
ATOM     68  F   UNL     1      -6.746  -8.711 -12.847  1.00  0.00    -0.206 F 
ATOM     69  C   UNL     1      -7.467  -9.546 -14.920  1.00  0.00     0.040 A 
ATOM     70  C   UNL     1      -8.447  -8.061 -16.544  1.00  0.00     0.040 A 
ATOM     71  F   UNL     1      -8.653  -5.774 -16.068  1.00  0.00    -0.206 F 
ATOM     72  C   UNL     1      -8.050  -9.343 -16.170  1.00  0.00     0.006 A 
ENDBRANCH  48  65
ENDBRANCH  22  23
ENDBRANCH  14  17
ENDBRANCH  12  13
ENDBRANCH  11  12
ENDBRANCH  10  11
ENDBRANCH   8  10
ENDBRANCH   1   6
BRANCH   1  73
ATOM     73  N   UNL     1      -1.327   0.868  -0.699  1.00  0.00    -0.343 N 
ATOM     74  C   UNL     1      -0.567   0.802  -1.811  1.00  0.00     0.240 C 
ATOM     75  H   UNL     1      -1.329  -0.025  -0.283  1.00  0.00     0.164 HD
ATOM     76  O   UNL     1      -0.433  -0.357  -2.246  1.00  0.00    -0.273 OA
BRANCH  74  77
ATOM     77  C   UNL     1       0.296   1.884  -2.490  1.00  0.00     0.216 C 
BRANCH  77  78
ATOM     78  N   UNL     1      -0.070   3.272  -2.644  1.00  0.00    -0.345 N 
ATOM     79  C   UNL     1       0.424   4.421  -2.114  1.00  0.00     0.243 C 
ATOM     80  H   UNL     1      -0.830   3.415  -3.254  1.00  0.00     0.164 HD
ATOM     81  O   UNL     1       0.072   5.444  -2.713  1.00  0.00    -0.273 OA
BRANCH  79  82
ATOM     82  C   UNL     1       1.254   4.512  -0.788  1.00  0.00     0.177 C 
BRANCH  82  83
ATOM     83  N   UNL     1       1.337   3.263  -0.030  1.00  0.00    -0.309 N 
ATOM     84  C   UNL     1       2.229   2.255   0.014  1.00  0.00     0.408 C 
ATOM     85  H   UNL     1       0.575   3.131   0.580  1.00  0.00     0.167 HD
ATOM     86  O   UNL     1       1.904   1.192   0.532  1.00  0.00    -0.225 OA
BRANCH  84  87
ATOM     87  O   UNL     1       3.444   2.571  -0.459  1.00  0.00    -0.445 OA
BRANCH  87  88
ATOM     88  C   UNL     1       4.462   1.634  -0.090  1.00  0.00     0.270 C 
BRANCH  88  89
ATOM     89  C   UNL     1       5.000   1.851   1.315  1.00  0.00    -0.011 A 
ATOM     90  C   UNL     1       4.189   2.220   2.404  1.00  0.00     0.007 A 
ATOM     91  C   UNL     1       6.352   1.587   1.568  1.00  0.00     0.007 A 
ATOM     92  C   UNL     1       4.709   2.344   3.692  1.00  0.00     0.000 A 
ATOM     93  C   UNL     1       6.874   1.708   2.858  1.00  0.00     0.000 A 
ATOM     94  C   UNL     1       6.054   2.086   3.919  1.00  0.00     0.000 A 
ENDBRANCH  88  89
ENDBRANCH  87  88
ENDBRANCH  84  87
ENDBRANCH  82  83
BRANCH  82  95
ATOM     95  C   UNL     1       2.554   5.348  -0.888  1.00  0.00     0.015 C 
ATOM     96  C   UNL     1       2.327   6.732  -1.518  1.00  0.00     0.010 C 
ATOM     97  C   UNL     1       3.161   5.591   0.503  1.00  0.00     0.010 C 
ENDBRANCH  82  95
ENDBRANCH  79  82
ENDBRANCH  77  78
ENDBRANCH  74  77
ENDBRANCH   1  73
TORSDOF 21
