REMARK SMILES COc1c(N)cc(-c2ccccc2)cc1C(=O)NCCCNC(=O)c1ccc(-c2c3nc(c(-c4c(F)cccc4F)c4ccc([nH]4)c(-c4c(F)cccc4F)c4nc(c(-c5c(F)cccc5F)c5ccc2[nH]5)C=C4)C=C3)cc1
REMARK SMILES IDX 20 1 19 2 18 3 16 4 17 5 15 7 3 8 4 9 6 10 14 11 7 12 2 13
REMARK SMILES IDX 1 14 5 15 8 18 9 19 13 20 10 21 12 22 11 23 21 24 22 25
REMARK SMILES IDX 23 26 24 28 25 29 26 30 78 31 27 32 77 33 28 34 29 35 30 36
REMARK SMILES IDX 71 37 31 38 76 39 70 40 72 41 32 42 75 43 69 44 68 45 33 47
REMARK SMILES IDX 59 48 42 49 58 50 43 51 46 52 57 53 73 54 44 55 45 56 56 58
REMARK SMILES IDX 74 59 47 60 34 61 35 62 40 63 36 64 37 65 39 66 41 67 38 68
REMARK SMILES IDX 60 69 61 70 66 71 62 72 63 73 65 74 67 75 64 76 48 77 49 78
REMARK SMILES IDX 54 79 50 80 51 81 53 82 55 83 52 84
REMARK H PARENT 18 6 5 16 5 17 22 27 72 46 46 57
REMARK Flexibility Score: inf
ROOT
ATOM      1  C   UNL     1      -1.383  -1.109  -0.922  1.00  0.00     0.042 C 
ENDROOT
BRANCH   1   2
ATOM      2  C   UNL     1      -1.269  -0.482  -2.313  1.00  0.00     0.118 C 
BRANCH   2   3
ATOM      3  N   UNL     1      -1.826   0.857  -2.298  1.00  0.00    -0.352 N 
ATOM      4  C   UNL     1      -1.279   2.102  -2.138  1.00  0.00     0.255 C 
ATOM      5  O   UNL     1      -2.088   3.030  -2.040  1.00  0.00    -0.269 OA
ATOM      6  H   UNL     1      -2.802   0.875  -2.430  1.00  0.00     0.163 HD
BRANCH   4   7
ATOM      7  C   UNL     1       0.176   2.435  -2.166  1.00  0.00     0.084 A 
ATOM      8  C   UNL     1       1.251   1.695  -1.658  1.00  0.00     0.154 A 
ATOM      9  C   UNL     1       2.583   2.130  -1.855  1.00  0.00     0.076 A 
ATOM     10  C   UNL     1       2.813   3.415  -2.350  1.00  0.00     0.038 A 
ATOM     11  C   UNL     1       0.458   3.711  -2.703  1.00  0.00     0.026 A 
ATOM     12  C   UNL     1       1.758   4.237  -2.760  1.00  0.00    -0.015 A 
BRANCH   8  13
ATOM     13  O   UNL     1       1.071   0.529  -0.955  1.00  0.00    -0.494 OA
ATOM     14  C   UNL     1       1.194   0.771   0.452  1.00  0.00     0.278 C 
ENDBRANCH   8  13
BRANCH   9  15
ATOM     15  N   UNL     1       3.666   1.369  -1.408  1.00  0.00    -0.396 N 
ATOM     16  H   UNL     1       3.518   0.461  -1.056  1.00  0.00     0.156 HD
ATOM     17  H   UNL     1       4.577   1.740  -1.443  1.00  0.00     0.156 HD
ENDBRANCH   9  15
BRANCH  12  18
ATOM     18  C   UNL     1       2.002   5.623  -3.194  1.00  0.00    -0.018 A 
ATOM     19  C   UNL     1       2.943   5.921  -4.192  1.00  0.00     0.009 A 
ATOM     20  C   UNL     1       1.321   6.694  -2.589  1.00  0.00     0.009 A 
ATOM     21  C   UNL     1       3.200   7.243  -4.567  1.00  0.00     0.001 A 
ATOM     22  C   UNL     1       1.577   8.015  -2.961  1.00  0.00     0.001 A 
ATOM     23  C   UNL     1       2.519   8.290  -3.949  1.00  0.00     0.000 A 
ENDBRANCH  12  18
ENDBRANCH   4   7
ENDBRANCH   2   3
ENDBRANCH   1   2
BRANCH   1  24
ATOM     24  C   UNL     1      -2.789  -1.580  -0.566  1.00  0.00     0.118 C 
BRANCH  24  25
ATOM     25  N   UNL     1      -3.084  -2.887  -1.128  1.00  0.00    -0.352 N 
ATOM     26  C   UNL     1      -3.346  -4.077  -0.498  1.00  0.00     0.251 C 
ATOM     27  H   UNL     1      -3.098  -2.924  -2.111  1.00  0.00     0.163 HD
ATOM     28  O   UNL     1      -3.337  -5.118  -1.155  1.00  0.00    -0.269 OA
BRANCH  26  29
ATOM     29  C   UNL     1      -3.635  -4.141   0.956  1.00  0.00     0.039 A 
ATOM     30  C   UNL     1      -3.143  -5.229   1.687  1.00  0.00     0.014 A 
ATOM     31  C   UNL     1      -4.449  -3.197   1.590  1.00  0.00     0.014 A 
ATOM     32  C   UNL     1      -3.438  -5.353   3.049  1.00  0.00     0.010 A 
ATOM     33  C   UNL     1      -4.691  -3.288   2.962  1.00  0.00     0.010 A 
ATOM     34  C   UNL     1      -4.203  -4.375   3.702  1.00  0.00    -0.014 A 
BRANCH  34  35
ATOM     35  C   UNL     1      -4.533  -4.495   5.146  1.00  0.00     0.031 A 
ATOM     36  C   UNL     1      -5.958  -4.709   5.581  1.00  0.00     0.074 A 
ATOM     37  C   UNL     1      -3.563  -4.364   6.072  1.00  0.00     0.049 A 
ATOM     38  N   UNL     1      -6.456  -4.761   6.791  1.00  0.00    -0.248 NA
ATOM     39  C   UNL     1      -6.958  -4.863   4.514  1.00  0.00     0.031 C 
ATOM     40  C   UNL     1      -2.149  -4.120   5.787  1.00  0.00     0.029 A 
ATOM     41  N   UNL     1      -3.626  -4.406   7.442  1.00  0.00    -0.354 N 
ATOM     42  C   UNL     1      -7.826  -4.927   6.630  1.00  0.00     0.074 A 
ATOM     43  C   UNL     1      -8.086  -4.934   5.207  1.00  0.00     0.031 C 
ATOM     44  C   UNL     1      -1.474  -4.049   6.947  1.00  0.00     0.029 A 
ATOM     45  C   UNL     1      -2.412  -4.212   8.055  1.00  0.00     0.049 A 
ATOM     46  H   UNL     1      -4.461  -4.560   7.940  1.00  0.00     0.167 HD
ATOM     47  C   UNL     1      -8.780  -5.077   7.580  1.00  0.00     0.037 A 
ATOM     48  C   UNL     1      -2.090  -4.164   9.361  1.00  0.00     0.037 A 
ATOM     49  C   UNL     1      -8.521  -5.111   8.996  1.00  0.00     0.049 A 
ATOM     50  C   UNL     1      -3.163  -4.354  10.396  1.00  0.00     0.074 A 
ATOM     51  C   UNL     1      -9.416  -5.318  10.032  1.00  0.00     0.029 A 
ATOM     52  N   UNL     1      -7.273  -4.940   9.573  1.00  0.00    -0.354 N 
ATOM     53  N   UNL     1      -4.447  -4.555  10.227  1.00  0.00    -0.248 NA
ATOM     54  C   UNL     1      -2.740  -4.316  11.804  1.00  0.00     0.031 C 
ATOM     55  C   UNL     1      -8.711  -5.247  11.239  1.00  0.00     0.029 A 
ATOM     56  C   UNL     1      -7.374  -5.026  10.951  1.00  0.00     0.049 A 
ATOM     57  H   UNL     1      -6.438  -4.781   9.076  1.00  0.00     0.167 HD
ATOM     58  C   UNL     1      -4.981  -4.689  11.501  1.00  0.00     0.074 A 
ATOM     59  C   UNL     1      -3.881  -4.558  12.434  1.00  0.00     0.031 C 
ATOM     60  C   UNL     1      -6.269  -4.902  11.865  1.00  0.00     0.037 A 
BRANCH  47  61
ATOM     61  C   UNL     1     -10.199  -5.219   7.115  1.00  0.00     0.057 A 
ATOM     62  C   UNL     1     -10.662  -6.395   6.511  1.00  0.00     0.134 A 
ATOM     63  C   UNL     1     -11.120  -4.180   7.301  1.00  0.00     0.134 A 
ATOM     64  F   UNL     1      -9.827  -7.422   6.294  1.00  0.00    -0.206 F 
ATOM     65  C   UNL     1     -11.985  -6.524   6.085  1.00  0.00     0.040 A 
ATOM     66  C   UNL     1     -12.451  -4.306   6.900  1.00  0.00     0.040 A 
ATOM     67  F   UNL     1     -10.742  -3.030   7.879  1.00  0.00    -0.206 F 
ATOM     68  C   UNL     1     -12.885  -5.478   6.285  1.00  0.00     0.006 A 
ENDBRANCH  47  61
BRANCH  48  69
ATOM     69  C   UNL     1      -0.680  -3.948   9.767  1.00  0.00     0.057 A 
ATOM     70  C   UNL     1       0.084  -4.996  10.294  1.00  0.00     0.134 A 
ATOM     71  C   UNL     1      -0.065  -2.698   9.639  1.00  0.00     0.134 A 
ATOM     72  F   UNL     1      -0.460  -6.211  10.458  1.00  0.00    -0.206 F 
ATOM     73  C   UNL     1       1.408  -4.805  10.691  1.00  0.00     0.040 A 
ATOM     74  C   UNL     1       1.264  -2.498  10.014  1.00  0.00     0.040 A 
ATOM     75  F   UNL     1      -0.745  -1.657   9.137  1.00  0.00    -0.206 F 
ATOM     76  C   UNL     1       2.003  -3.553  10.547  1.00  0.00     0.006 A 
ENDBRANCH  48  69
BRANCH  60  77
ATOM     77  C   UNL     1      -6.552  -5.034  13.331  1.00  0.00     0.057 A 
ATOM     78  C   UNL     1      -6.575  -3.921  14.179  1.00  0.00     0.134 A 
ATOM     79  C   UNL     1      -6.837  -6.285  13.892  1.00  0.00     0.134 A 
ATOM     80  F   UNL     1      -6.297  -2.698  13.703  1.00  0.00    -0.206 F 
ATOM     81  C   UNL     1      -6.857  -4.049  15.540  1.00  0.00     0.040 A 
ATOM     82  C   UNL     1      -7.139  -6.423  15.247  1.00  0.00     0.040 A 
ATOM     83  F   UNL     1      -6.835  -7.389  13.130  1.00  0.00    -0.206 F 
ATOM     84  C   UNL     1      -7.145  -5.303  16.076  1.00  0.00     0.006 A 
ENDBRANCH  60  77
ENDBRANCH  34  35
ENDBRANCH  26  29
ENDBRANCH  24  25
ENDBRANCH   1  24
TORSDOF 13
