REMARK SMILES CCCc1noc(C2C[NH+](CC(=O)NCCCNC(=O)c3ccc(-c4c5nc(c(-c6c(F)cccc6F)c6ccc([nH]6)c(-c6c(F)cccc6F)c6nc(c(-c7c(F)cccc7F)c7ccc4[nH]7)C=C6)C=C5)cc3)C2)n1
REMARK SMILES IDX 15 1 14 2 12 3 13 4 11 6 10 7 8 8 9 9 75 10 7 12 4 13 5 14
REMARK SMILES IDX 76 15 6 16 3 17 2 18 1 19 16 20 17 21 18 22 19 23 20 25
REMARK SMILES IDX 21 26 22 27 74 28 23 29 73 30 24 31 25 32 26 33 67 34 27 35
REMARK SMILES IDX 72 36 66 37 68 38 28 39 71 40 65 41 64 42 29 44 55 45 38 46
REMARK SMILES IDX 54 47 39 48 42 49 53 50 69 51 40 52 41 53 52 55 70 56 43 57
REMARK SMILES IDX 30 58 31 59 36 60 32 61 33 62 35 63 37 64 34 65 56 66 57 67
REMARK SMILES IDX 62 68 58 69 59 70 61 71 63 72 60 73 44 74 45 75 50 76 46 77
REMARK SMILES IDX 47 78 49 79 51 80 48 81
REMARK H PARENT 14 5 10 11 18 24 68 43 42 54
REMARK Flexibility Score: inf
ROOT
ATOM      1  C   UNL     1      -4.263   6.557   2.192  1.00  0.00     0.118 C 
ENDROOT
BRANCH   1   2
ATOM      2  N   UNL     1      -3.426   6.986   1.083  1.00  0.00    -0.351 N 
ATOM      3  C   UNL     1      -3.294   6.528  -0.197  1.00  0.00     0.275 C 
ATOM      4  O   UNL     1      -2.481   7.120  -0.913  1.00  0.00    -0.269 OA
ATOM      5  H   UNL     1      -2.845   7.752   1.294  1.00  0.00     0.163 HD
BRANCH   3   6
ATOM      6  C   UNL     1      -4.081   5.322  -0.720  1.00  0.00     0.363 C 
BRANCH   6   7
ATOM      7  N   UNL     1      -3.401   3.999  -0.759  1.00  0.00    -0.325 N 
ATOM      8  C   UNL     1      -1.752   4.081   0.587  1.00  0.00     0.188 C 
ATOM      9  C   UNL     1      -1.927   4.029  -0.952  1.00  0.00     0.282 C 
ATOM     10  C   UNL     1      -3.164   3.435   0.583  1.00  0.00     0.282 C 
ATOM     11  H   UNL     1      -3.998   3.547  -1.452  1.00  0.00     0.348 HD
BRANCH   8  12
ATOM     12  C   UNL     1      -0.653   3.248   1.192  1.00  0.00     0.241 A 
ATOM     13  C   UNL     1       0.515   1.696   1.975  1.00  0.00     0.171 A 
ATOM     14  N   UNL     1       1.150   2.794   2.400  1.00  0.00    -0.062 NA
ATOM     15  N   UNL     1      -0.613   1.935   1.229  1.00  0.00    -0.196 NA
ATOM     16  O   UNL     1       0.379   3.828   1.881  1.00  0.00    -0.339 OA
BRANCH  13  17
ATOM     17  C   UNL     1       0.990   0.333   2.321  1.00  0.00     0.081 C 
BRANCH  17  18
ATOM     18  C   UNL     1       0.597  -0.744   1.310  1.00  0.00     0.005 C 
ATOM     19  C   UNL     1       1.201  -0.518  -0.070  1.00  0.00     0.004 C 
ENDBRANCH  17  18
ENDBRANCH  13  17
ENDBRANCH   8  12
ENDBRANCH   6   7
ENDBRANCH   3   6
ENDBRANCH   1   2
BRANCH   1  20
ATOM     20  C   UNL     1      -3.503   5.793   3.282  1.00  0.00     0.042 C 
BRANCH  20  21
ATOM     21  C   UNL     1      -2.321   6.526   3.911  1.00  0.00     0.118 C 
BRANCH  21  22
ATOM     22  N   UNL     1      -2.736   7.474   4.926  1.00  0.00    -0.352 N 
ATOM     23  C   UNL     1      -2.554   7.463   6.288  1.00  0.00     0.251 C 
ATOM     24  H   UNL     1      -3.229   8.254   4.583  1.00  0.00     0.163 HD
ATOM     25  O   UNL     1      -3.182   8.269   6.970  1.00  0.00    -0.269 OA
BRANCH  23  26
ATOM     26  C   UNL     1      -1.638   6.504   6.962  1.00  0.00     0.039 A 
ATOM     27  C   UNL     1      -2.017   6.005   8.214  1.00  0.00     0.014 A 
ATOM     28  C   UNL     1      -0.385   6.163   6.444  1.00  0.00     0.014 A 
ATOM     29  C   UNL     1      -1.167   5.147   8.922  1.00  0.00     0.010 A 
ATOM     30  C   UNL     1       0.439   5.258   7.124  1.00  0.00     0.010 A 
ATOM     31  C   UNL     1       0.064   4.751   8.377  1.00  0.00    -0.014 A 
BRANCH  31  32
ATOM     32  C   UNL     1       0.956   3.822   9.123  1.00  0.00     0.031 A 
ATOM     33  C   UNL     1       2.276   4.295   9.674  1.00  0.00     0.074 A 
ATOM     34  C   UNL     1       0.590   2.538   9.297  1.00  0.00     0.049 A 
ATOM     35  N   UNL     1       3.173   3.627  10.358  1.00  0.00    -0.248 NA
ATOM     36  C   UNL     1       2.643   5.693   9.409  1.00  0.00     0.031 C 
ATOM     37  C   UNL     1      -0.639   1.932   8.783  1.00  0.00     0.029 A 
ATOM     38  N   UNL     1       1.217   1.509   9.957  1.00  0.00    -0.354 N 
ATOM     39  C   UNL     1       4.213   4.518  10.593  1.00  0.00     0.074 A 
ATOM     40  C   UNL     1       3.853   5.763   9.948  1.00  0.00     0.031 C 
ATOM     41  C   UNL     1      -0.688   0.646   9.166  1.00  0.00     0.029 A 
ATOM     42  C   UNL     1       0.514   0.330   9.934  1.00  0.00     0.049 A 
ATOM     43  H   UNL     1       2.088   1.608  10.405  1.00  0.00     0.167 HD
ATOM     44  C   UNL     1       5.356   4.326  11.296  1.00  0.00     0.037 A 
ATOM     45  C   UNL     1       0.798  -0.870  10.474  1.00  0.00     0.037 A 
ATOM     46  C   UNL     1       5.711   3.102  11.967  1.00  0.00     0.049 A 
ATOM     47  C   UNL     1       2.061  -1.052  11.267  1.00  0.00     0.074 A 
ATOM     48  C   UNL     1       6.820   2.840  12.755  1.00  0.00     0.029 A 
ATOM     49  N   UNL     1       4.966   1.935  11.928  1.00  0.00    -0.354 N 
ATOM     50  N   UNL     1       3.003  -0.180  11.532  1.00  0.00    -0.248 NA
ATOM     51  C   UNL     1       2.295  -2.385  11.843  1.00  0.00     0.031 C 
ATOM     52  C   UNL     1       6.759   1.505  13.170  1.00  0.00     0.029 A 
ATOM     53  C   UNL     1       5.597   0.946  12.665  1.00  0.00     0.049 A 
ATOM     54  H   UNL     1       4.113   1.825  11.448  1.00  0.00     0.167 HD
ATOM     55  C   UNL     1       3.931  -0.852  12.317  1.00  0.00     0.074 A 
ATOM     56  C   UNL     1       3.432  -2.199  12.500  1.00  0.00     0.031 C 
ATOM     57  C   UNL     1       5.095  -0.392  12.837  1.00  0.00     0.037 A 
BRANCH  44  58
ATOM     58  C   UNL     1       6.312   5.478  11.383  1.00  0.00     0.057 A 
ATOM     59  C   UNL     1       6.053   6.588  12.198  1.00  0.00     0.134 A 
ATOM     60  C   UNL     1       7.521   5.461  10.677  1.00  0.00     0.134 A 
ATOM     61  F   UNL     1       4.909   6.668  12.893  1.00  0.00    -0.206 F 
ATOM     62  C   UNL     1       6.954   7.650  12.291  1.00  0.00     0.040 A 
ATOM     63  C   UNL     1       8.439   6.508  10.777  1.00  0.00     0.040 A 
ATOM     64  F   UNL     1       7.832   4.424   9.884  1.00  0.00    -0.206 F 
ATOM     65  C   UNL     1       8.154   7.609  11.583  1.00  0.00     0.006 A 
ENDBRANCH  44  58
BRANCH  45  66
ATOM     66  C   UNL     1      -0.152  -1.996  10.310  1.00  0.00     0.057 A 
ATOM     67  C   UNL     1      -0.946  -2.428  11.378  1.00  0.00     0.134 A 
ATOM     68  C   UNL     1      -0.285  -2.666   9.089  1.00  0.00     0.134 A 
ATOM     69  F   UNL     1      -0.844  -1.836  12.577  1.00  0.00    -0.206 F 
ATOM     70  C   UNL     1      -1.831  -3.498  11.242  1.00  0.00     0.040 A 
ATOM     71  C   UNL     1      -1.180  -3.725   8.934  1.00  0.00     0.040 A 
ATOM     72  F   UNL     1       0.447  -2.294   8.029  1.00  0.00    -0.206 F 
ATOM     73  C   UNL     1      -1.953  -4.146  10.014  1.00  0.00     0.006 A 
ENDBRANCH  45  66
BRANCH  57  74
ATOM     74  C   UNL     1       5.897  -1.351  13.663  1.00  0.00     0.057 A 
ATOM     75  C   UNL     1       6.636  -2.386  13.075  1.00  0.00     0.134 A 
ATOM     76  C   UNL     1       5.945  -1.230  15.057  1.00  0.00     0.134 A 
ATOM     77  F   UNL     1       6.618  -2.563  11.746  1.00  0.00    -0.206 F 
ATOM     78  C   UNL     1       7.377  -3.281  13.848  1.00  0.00     0.040 A 
ATOM     79  C   UNL     1       6.698  -2.107  15.839  1.00  0.00     0.040 A 
ATOM     80  F   UNL     1       5.263  -0.258  15.680  1.00  0.00    -0.206 F 
ATOM     81  C   UNL     1       7.412  -3.140  15.235  1.00  0.00     0.006 A 
ENDBRANCH  57  74
ENDBRANCH  31  32
ENDBRANCH  23  26
ENDBRANCH  21  22
ENDBRANCH  20  21
ENDBRANCH   1  20
TORSDOF 14
