REMARK SMILES O=C(NCCCNC(=O)[C@H]1CCCC[C@@H]1c1nc([C@@H]2CSCCS2)no1)c1ccc(-c2c3nc(c(-c4c(F)cccc4F)c4ccc([nH]4)c(-c4c(F)cccc4F)c4nc(c(-c5c(F)cccc5F)c5ccc2[nH]5)C=C4)C=C3)cc1
REMARK SMILES IDX 5 1 4 2 3 3 1 4 2 5 27 7 28 8 80 9 29 10 79 11 30 12 31 13
REMARK SMILES IDX 32 14 73 15 33 16 78 17 72 18 74 19 34 20 77 21 71 22 70 23
REMARK SMILES IDX 35 25 61 26 44 27 60 28 45 29 48 30 59 31 75 32 46 33 47 34
REMARK SMILES IDX 58 36 76 37 49 38 36 39 37 40 42 41 38 42 39 43 41 44 43 45
REMARK SMILES IDX 40 46 62 47 63 48 68 49 64 50 65 51 67 52 69 53 66 54 50 55
REMARK SMILES IDX 51 56 56 57 52 58 53 59 55 60 57 61 54 62 6 63 7 64 8 65
REMARK SMILES IDX 9 67 10 68 11 69 15 70 12 71 14 72 13 73 16 74 17 75 26 76
REMARK SMILES IDX 18 77 25 78 19 79 20 80 24 81 21 82 23 83 22 84
REMARK H PARENT 3 6 74 24 48 35 7 66
REMARK Flexibility Score: inf
ROOT
ATOM      1  C   UNL     1       3.177   3.861   1.516  1.00  0.00     0.042 C 
ENDROOT
BRANCH   1   2
ATOM      2  C   UNL     1       3.180   4.029   0.002  1.00  0.00     0.118 C 
BRANCH   2   3
ATOM      3  N   UNL     1       3.024   2.764  -0.699  1.00  0.00    -0.352 N 
ATOM      4  O   UNL     1       1.944   1.153  -1.845  1.00  0.00    -0.269 OA
ATOM      5  C   UNL     1       1.997   2.334  -1.499  1.00  0.00     0.251 C 
ATOM      6  H   UNL     1       3.763   2.124  -0.582  1.00  0.00     0.163 HD
BRANCH   5   7
ATOM      7  C   UNL     1       0.949   3.277  -1.942  1.00  0.00     0.039 A 
ATOM      8  C   UNL     1       1.285   4.556  -2.394  1.00  0.00     0.014 A 
ATOM      9  C   UNL     1      -0.385   2.858  -1.956  1.00  0.00     0.014 A 
ATOM     10  C   UNL     1       0.284   5.452  -2.753  1.00  0.00     0.010 A 
ATOM     11  C   UNL     1      -1.382   3.729  -2.402  1.00  0.00     0.010 A 
ATOM     12  C   UNL     1      -1.055   5.035  -2.799  1.00  0.00    -0.014 A 
BRANCH  12  13
ATOM     13  C   UNL     1      -2.075   5.930  -3.396  1.00  0.00     0.031 A 
ATOM     14  C   UNL     1      -3.215   6.473  -2.584  1.00  0.00     0.074 A 
ATOM     15  C   UNL     1      -1.966   6.230  -4.706  1.00  0.00     0.049 A 
ATOM     16  N   UNL     1      -4.212   7.226  -2.973  1.00  0.00    -0.248 NA
ATOM     17  C   UNL     1      -3.248   6.123  -1.155  1.00  0.00     0.031 C 
ATOM     18  C   UNL     1      -0.909   5.740  -5.596  1.00  0.00     0.029 A 
ATOM     19  N   UNL     1      -2.748   7.006  -5.521  1.00  0.00    -0.354 N 
ATOM     20  C   UNL     1      -5.003   7.423  -1.848  1.00  0.00     0.074 A 
ATOM     21  C   UNL     1      -4.377   6.701  -0.761  1.00  0.00     0.031 C 
ATOM     22  C   UNL     1      -1.098   6.240  -6.824  1.00  0.00     0.029 A 
ATOM     23  C   UNL     1      -2.325   7.025  -6.828  1.00  0.00     0.049 A 
ATOM     24  H   UNL     1      -3.537   7.502  -5.201  1.00  0.00     0.167 HD
ATOM     25  C   UNL     1      -6.145   8.143  -1.743  1.00  0.00     0.037 A 
ATOM     26  C   UNL     1      -2.884   7.576  -7.921  1.00  0.00     0.037 A 
ATOM     27  C   UNL     1      -6.745   8.874  -2.830  1.00  0.00     0.049 A 
ATOM     28  C   UNL     1      -4.172   8.331  -7.774  1.00  0.00     0.074 A 
ATOM     29  C   UNL     1      -7.855   9.702  -2.799  1.00  0.00     0.029 A 
ATOM     30  N   UNL     1      -6.299   8.853  -4.142  1.00  0.00    -0.354 N 
ATOM     31  N   UNL     1      -4.864   8.576  -6.689  1.00  0.00    -0.248 NA
ATOM     32  C   UNL     1      -4.764   8.876  -9.003  1.00  0.00     0.031 C 
ATOM     33  C   UNL     1      -8.119  10.128  -4.104  1.00  0.00     0.029 A 
ATOM     34  C   UNL     1      -7.141   9.611  -4.939  1.00  0.00     0.049 A 
ATOM     35  H   UNL     1      -5.502   8.371  -4.461  1.00  0.00     0.167 HD
ATOM     36  C   UNL     1      -5.966   9.312  -7.100  1.00  0.00     0.074 A 
ATOM     37  C   UNL     1      -5.835   9.498  -8.530  1.00  0.00     0.031 C 
ATOM     38  C   UNL     1      -6.998   9.784  -6.362  1.00  0.00     0.037 A 
BRANCH  25  39
ATOM     39  C   UNL     1      -6.851   8.169  -0.418  1.00  0.00     0.057 A 
ATOM     40  C   UNL     1      -6.367   8.908   0.668  1.00  0.00     0.134 A 
ATOM     41  C   UNL     1      -8.088   7.528  -0.265  1.00  0.00     0.134 A 
ATOM     42  F   UNL     1      -5.188   9.541   0.588  1.00  0.00    -0.206 F 
ATOM     43  C   UNL     1      -7.086   9.005   1.861  1.00  0.00     0.040 A 
ATOM     44  C   UNL     1      -8.826   7.636   0.915  1.00  0.00     0.040 A 
ATOM     45  F   UNL     1      -8.613   6.812  -1.270  1.00  0.00    -0.206 F 
ATOM     46  C   UNL     1      -8.325   8.377   1.983  1.00  0.00     0.006 A 
ENDBRANCH  25  39
BRANCH  26  47
ATOM     47  C   UNL     1      -2.257   7.385  -9.254  1.00  0.00     0.057 A 
ATOM     48  C   UNL     1      -1.718   8.461  -9.966  1.00  0.00     0.134 A 
ATOM     49  C   UNL     1      -2.202   6.121  -9.856  1.00  0.00     0.134 A 
ATOM     50  F   UNL     1      -1.756   9.698  -9.451  1.00  0.00    -0.206 F 
ATOM     51  C   UNL     1      -1.170   8.292 -11.239  1.00  0.00     0.040 A 
ATOM     52  C   UNL     1      -1.628   5.932 -11.113  1.00  0.00     0.040 A 
ATOM     53  F   UNL     1      -2.695   5.046  -9.222  1.00  0.00    -0.206 F 
ATOM     54  C   UNL     1      -1.120   7.023 -11.813  1.00  0.00     0.006 A 
ENDBRANCH  26  47
BRANCH  38  55
ATOM     55  C   UNL     1      -8.062  10.553  -7.087  1.00  0.00     0.057 A 
ATOM     56  C   UNL     1      -8.981   9.917  -7.931  1.00  0.00     0.134 A 
ATOM     57  C   UNL     1      -8.196  11.935  -6.905  1.00  0.00     0.134 A 
ATOM     58  F   UNL     1      -8.894   8.598  -8.160  1.00  0.00    -0.206 F 
ATOM     59  C   UNL     1      -9.986  10.632  -8.582  1.00  0.00     0.040 A 
ATOM     60  C   UNL     1      -9.214  12.656  -7.529  1.00  0.00     0.040 A 
ATOM     61  F   UNL     1      -7.351  12.603  -6.105  1.00  0.00    -0.206 F 
ATOM     62  C   UNL     1     -10.111  12.004  -8.374  1.00  0.00     0.006 A 
ENDBRANCH  38  55
ENDBRANCH  12  13
ENDBRANCH   5   7
ENDBRANCH   2   3
ENDBRANCH   1   2
BRANCH   1  63
ATOM     63  C   UNL     1       4.396   3.124   2.061  1.00  0.00     0.117 C 
BRANCH  63  64
ATOM     64  N   UNL     1       5.635   3.803   1.726  1.00  0.00    -0.356 N 
ATOM     65  C   UNL     1       6.522   4.478   2.508  1.00  0.00     0.223 C 
ATOM     66  H   UNL     1       5.875   3.769   0.772  1.00  0.00     0.163 HD
ATOM     67  O   UNL     1       7.503   4.967   1.948  1.00  0.00    -0.275 OA
BRANCH  65  68
ATOM     68  C   UNL     1       6.278   4.601   4.011  1.00  0.00     0.091 C 
ATOM     69  C   UNL     1       7.586   4.938   4.758  1.00  0.00     0.014 C 
ATOM     70  C   UNL     1       5.160   5.623   4.305  1.00  0.00     0.091 C 
ATOM     71  C   UNL     1       8.020   6.398   4.639  1.00  0.00     0.001 C 
ATOM     72  C   UNL     1       5.647   7.068   4.118  1.00  0.00     0.014 C 
ATOM     73  C   UNL     1       6.891   7.374   4.944  1.00  0.00     0.001 C 
BRANCH  70  74
ATOM     74  C   UNL     1       4.527   5.442   5.654  1.00  0.00     0.230 A 
ATOM     75  N   UNL     1       3.546   6.125   6.203  1.00  0.00    -0.195 NA
ATOM     76  O   UNL     1       4.950   4.404   6.432  1.00  0.00    -0.339 OA
ATOM     77  C   UNL     1       3.358   5.470   7.398  1.00  0.00     0.185 A 
ATOM     78  N   UNL     1       4.175   4.422   7.585  1.00  0.00    -0.061 NA
BRANCH  77  79
ATOM     79  C   UNL     1       2.296   5.819   8.395  1.00  0.00     0.128 C 
ATOM     80  C   UNL     1       0.868   5.677   7.850  1.00  0.00     0.092 C 
ATOM     81  S   UNL     1       2.621   7.408   9.260  1.00  0.00    -0.149 SA
ATOM     82  S   UNL     1       0.295   6.918   6.638  1.00  0.00    -0.160 SA
ATOM     83  C   UNL     1       2.071   8.595   7.994  1.00  0.00     0.081 C 
ATOM     84  C   UNL     1       0.608   8.428   7.603  1.00  0.00     0.080 C 
ENDBRANCH  77  79
ENDBRANCH  70  74
ENDBRANCH  65  68
ENDBRANCH  63  64
ENDBRANCH   1  63
TORSDOF 12
