REMARK SMILES O=C1C[C@@H](C(=O)NCCCNC(=O)c2ccc(-c3c4nc(c(-c5c(F)cccc5F)c5ccc([nH]5)c(-c5c(F)cccc5F)c5nc(c(-c6c(F)cccc6F)c6ccc3[nH]6)C=C5)C=C4)cc2)C2(CC[NH+](Cc3c[nH]nc3-c3ccc(Cl)cc3)CC2)N1
REMARK SMILES IDX 8 1 7 2 5 3 6 4 4 6 1 7 2 8 3 9 87 10 68 11 69 13 86 14
REMARK SMILES IDX 70 15 85 16 71 17 72 19 73 20 74 21 77 22 75 23 76 24 78 26
REMARK SMILES IDX 79 27 84 28 80 29 83 30 81 31 82 32 9 33 10 34 11 35 12 36
REMARK SMILES IDX 13 38 14 39 15 40 67 41 16 42 66 43 17 44 18 45 19 46 60 47
REMARK SMILES IDX 20 48 65 49 59 50 61 51 21 52 64 53 58 54 57 55 22 57 48 58
REMARK SMILES IDX 31 59 47 60 32 61 35 62 46 63 62 64 33 65 34 66 45 68 63 69
REMARK SMILES IDX 36 70 23 71 24 72 29 73 25 74 26 75 28 76 30 77 27 78 49 79
REMARK SMILES IDX 50 80 55 81 51 82 52 83 54 84 56 85 53 86 37 87 38 88 43 89
REMARK SMILES IDX 39 90 40 91 42 92 44 93 41 94
REMARK H PARENT 7 5 87 12 71 18 75 25 11 37 61 56 35 67
REMARK Flexibility Score: inf
ROOT
ATOM      1  C   UNL     1       1.563   1.751  -1.657  1.00  0.00     0.117 C 
ENDROOT
BRANCH   1   2
ATOM      2  N   UNL     1       2.683   1.620  -2.578  1.00  0.00    -0.356 N 
ATOM      3  C   UNL     1       3.819   0.877  -2.582  1.00  0.00     0.226 C 
ATOM      4  O   UNL     1       4.556   1.024  -3.565  1.00  0.00    -0.275 OA
ATOM      5  H   UNL     1       2.597   2.196  -3.372  1.00  0.00     0.163 HD
BRANCH   3   6
ATOM      6  C   UNL     1       4.273  -0.053  -1.457  1.00  0.00     0.114 C 
ATOM      7  O   UNL     1       1.765  -1.187   0.825  1.00  0.00    -0.275 OA
ATOM      8  C   UNL     1       2.705  -0.699   0.228  1.00  0.00     0.221 C 
ATOM      9  C   UNL     1       3.245  -1.137  -1.108  1.00  0.00     0.116 C 
ATOM     10  N   UNL     1       3.437   0.385   0.658  1.00  0.00    -0.349 N 
ATOM     11  C   UNL     1       4.652   0.604  -0.113  1.00  0.00     0.063 C 
ATOM     12  H   UNL     1       3.165   0.956   1.413  1.00  0.00     0.164 HD
ATOM     13  C   UNL     1       4.977   2.103  -0.207  1.00  0.00     0.091 C 
ATOM     14  C   UNL     1       5.766  -0.212   0.614  1.00  0.00     0.091 C 
ATOM     15  C   UNL     1       6.449   2.407  -0.430  1.00  0.00     0.264 C 
ATOM     16  C   UNL     1       7.186   0.347   0.532  1.00  0.00     0.264 C 
ATOM     17  N   UNL     1       7.293   1.794   0.574  1.00  0.00    -0.331 N 
ATOM     18  H   UNL     1       8.258   1.983   0.304  1.00  0.00     0.348 HD
BRANCH  17  19
ATOM     19  C   UNL     1       7.399   2.470   1.877  1.00  0.00     0.303 C 
BRANCH  19  20
ATOM     20  C   UNL     1       6.165   2.466   2.728  1.00  0.00     0.052 A 
ATOM     21  C   UNL     1       5.703   1.419   3.506  1.00  0.00     0.115 A 
ATOM     22  C   UNL     1       5.269   3.546   3.057  1.00  0.00     0.101 A 
ATOM     23  N   UNL     1       4.539   1.830   4.073  1.00  0.00    -0.285 N 
ATOM     24  N   UNL     1       4.251   3.108   3.818  1.00  0.00    -0.175 NA
ATOM     25  H   UNL     1       3.966   1.244   4.618  1.00  0.00     0.189 HD
BRANCH  22  26
ATOM     26  C   UNL     1       5.346   4.973   2.737  1.00  0.00     0.003 A 
ATOM     27  C   UNL     1       5.336   5.900   3.792  1.00  0.00     0.012 A 
ATOM     28  C   UNL     1       5.394   5.454   1.426  1.00  0.00     0.012 A 
ATOM     29  C   UNL     1       5.412   7.273   3.541  1.00  0.00     0.021 A 
ATOM     30  C   UNL     1       5.479   6.827   1.170  1.00  0.00     0.021 A 
ATOM     31  C   UNL     1       5.494   7.730   2.230  1.00  0.00     0.041 A 
ATOM     32  Cl  UNL     1       5.606   9.416   1.913  1.00  0.00    -0.084 Cl
ENDBRANCH  22  26
ENDBRANCH  19  20
ENDBRANCH  17  19
ENDBRANCH   3   6
ENDBRANCH   1   2
BRANCH   1  33
ATOM     33  C   UNL     1       1.551   3.065  -0.876  1.00  0.00     0.042 C 
BRANCH  33  34
ATOM     34  C   UNL     1       1.363   4.296  -1.754  1.00  0.00     0.118 C 
BRANCH  34  35
ATOM     35  N   UNL     1       0.077   4.273  -2.436  1.00  0.00    -0.352 N 
ATOM     36  C   UNL     1      -1.046   5.032  -2.233  1.00  0.00     0.251 C 
ATOM     37  H   UNL     1       0.003   3.607  -3.157  1.00  0.00     0.163 HD
ATOM     38  O   UNL     1      -2.122   4.642  -2.678  1.00  0.00    -0.269 OA
BRANCH  36  39
ATOM     39  C   UNL     1      -0.973   6.316  -1.504  1.00  0.00     0.039 A 
ATOM     40  C   UNL     1      -2.058   6.704  -0.714  1.00  0.00     0.014 A 
ATOM     41  C   UNL     1       0.120   7.173  -1.656  1.00  0.00     0.014 A 
ATOM     42  C   UNL     1      -2.031   7.935  -0.055  1.00  0.00     0.010 A 
ATOM     43  C   UNL     1       0.187   8.356  -0.925  1.00  0.00     0.010 A 
ATOM     44  C   UNL     1      -0.899   8.761  -0.136  1.00  0.00    -0.014 A 
BRANCH  44  45
ATOM     45  C   UNL     1      -0.851  10.065   0.574  1.00  0.00     0.031 A 
ATOM     46  C   UNL     1      -0.734  11.349  -0.204  1.00  0.00     0.074 A 
ATOM     47  C   UNL     1      -0.878  10.088   1.920  1.00  0.00     0.049 A 
ATOM     48  N   UNL     1      -0.659  12.579   0.237  1.00  0.00    -0.248 NA
ATOM     49  C   UNL     1      -0.666  11.238  -1.671  1.00  0.00     0.031 C 
ATOM     50  C   UNL     1      -0.944   8.908   2.786  1.00  0.00     0.029 A 
ATOM     51  N   UNL     1      -0.854  11.141   2.799  1.00  0.00    -0.354 N 
ATOM     52  C   UNL     1      -0.518  13.379  -0.890  1.00  0.00     0.074 A 
ATOM     53  C   UNL     1      -0.464  12.496  -2.033  1.00  0.00     0.031 C 
ATOM     54  C   UNL     1      -0.994   9.304   4.067  1.00  0.00     0.029 A 
ATOM     55  C   UNL     1      -0.919  10.761   4.117  1.00  0.00     0.049 A 
ATOM     56  H   UNL     1      -0.797  12.081   2.511  1.00  0.00     0.167 HD
ATOM     57  C   UNL     1      -0.464  14.730  -0.968  1.00  0.00     0.037 A 
ATOM     58  C   UNL     1      -0.913  11.504   5.240  1.00  0.00     0.037 A 
ATOM     59  C   UNL     1      -0.549  15.606   0.171  1.00  0.00     0.049 A 
ATOM     60  C   UNL     1      -0.840  13.002   5.123  1.00  0.00     0.074 A 
ATOM     61  C   UNL     1      -0.576  16.989   0.194  1.00  0.00     0.029 A 
ATOM     62  N   UNL     1      -0.615  15.182   1.490  1.00  0.00    -0.354 N 
ATOM     63  N   UNL     1      -0.794  13.748   4.045  1.00  0.00    -0.248 NA
ATOM     64  C   UNL     1      -0.822  13.763   6.380  1.00  0.00     0.031 C 
ATOM     65  C   UNL     1      -0.597  17.403   1.528  1.00  0.00     0.029 A 
ATOM     66  C   UNL     1      -0.650  16.278   2.336  1.00  0.00     0.049 A 
ATOM     67  H   UNL     1      -0.634  14.242   1.782  1.00  0.00     0.167 HD
ATOM     68  C   UNL     1      -0.780  15.063   4.493  1.00  0.00     0.074 A 
ATOM     69  C   UNL     1      -0.838  15.012   5.939  1.00  0.00     0.031 C 
ATOM     70  C   UNL     1      -0.724  16.210   3.773  1.00  0.00     0.037 A 
BRANCH  57  71
ATOM     71  C   UNL     1      -0.306  15.350  -2.327  1.00  0.00     0.057 A 
ATOM     72  C   UNL     1      -1.332  15.319  -3.282  1.00  0.00     0.134 A 
ATOM     73  C   UNL     1       0.868  16.035  -2.666  1.00  0.00     0.134 A 
ATOM     74  F   UNL     1      -2.479  14.671  -3.027  1.00  0.00    -0.206 F 
ATOM     75  C   UNL     1      -1.188  15.928  -4.530  1.00  0.00     0.040 A 
ATOM     76  C   UNL     1       1.012  16.673  -3.900  1.00  0.00     0.040 A 
ATOM     77  F   UNL     1       1.888  16.110  -1.798  1.00  0.00    -0.206 F 
ATOM     78  C   UNL     1      -0.016  16.616  -4.838  1.00  0.00     0.006 A 
ENDBRANCH  57  71
BRANCH  58  79
ATOM     79  C   UNL     1      -0.999  10.854   6.574  1.00  0.00     0.057 A 
ATOM     80  C   UNL     1      -2.121  11.030   7.392  1.00  0.00     0.134 A 
ATOM     81  C   UNL     1       0.047  10.071   7.077  1.00  0.00     0.134 A 
ATOM     82  F   UNL     1      -3.150  11.782   6.975  1.00  0.00    -0.206 F 
ATOM     83  C   UNL     1      -2.187  10.480   8.674  1.00  0.00     0.040 A 
ATOM     84  C   UNL     1      -0.019   9.489   8.344  1.00  0.00     0.040 A 
ATOM     85  F   UNL     1       1.147   9.855   6.342  1.00  0.00    -0.206 F 
ATOM     86  C   UNL     1      -1.134   9.704   9.152  1.00  0.00     0.006 A 
ENDBRANCH  58  79
BRANCH  70  87
ATOM     87  C   UNL     1      -0.772  17.503   4.533  1.00  0.00     0.057 A 
ATOM     88  C   UNL     1       0.296  17.942   5.325  1.00  0.00     0.134 A 
ATOM     89  C   UNL     1      -1.892  18.340   4.438  1.00  0.00     0.134 A 
ATOM     90  F   UNL     1       1.393  17.183   5.469  1.00  0.00    -0.206 F 
ATOM     91  C   UNL     1       0.242  19.152   6.018  1.00  0.00     0.040 A 
ATOM     92  C   UNL     1      -1.945  19.568   5.099  1.00  0.00     0.040 A 
ATOM     93  F   UNL     1      -2.946  17.987   3.687  1.00  0.00    -0.206 F 
ATOM     94  C   UNL     1      -0.879  19.973   5.898  1.00  0.00     0.006 A 
ENDBRANCH  70  87
ENDBRANCH  44  45
ENDBRANCH  36  39
ENDBRANCH  34  35
ENDBRANCH  33  34
ENDBRANCH   1  33
TORSDOF 13
