REMARK SMILES Cc1c(CC(=O)NCCCNC(=O)c2ccc(-c3c4nc(c(-c5c(F)cccc5F)c5ccc([nH]5)c(-c5c(F)cccc5F)c5nc(c(-c6c(F)cccc6F)c6ccc3[nH]6)C=C5)C=C4)cc2)cccc1-c1ccn(C(F)F)c(=O)c1
REMARK SMILES IDX 8 1 7 2 5 3 6 4 4 6 3 7 1 8 2 9 71 10 68 11 70 12 69 13
REMARK SMILES IDX 72 14 73 15 81 16 74 17 79 18 75 19 80 20 76 21 77 22 78 23
REMARK SMILES IDX 9 24 10 25 11 26 12 27 13 29 14 30 15 31 67 32 16 33 66 34
REMARK SMILES IDX 17 35 18 36 19 37 60 38 20 39 65 40 59 41 61 42 21 43 64 44
REMARK SMILES IDX 58 45 57 46 22 48 48 49 31 50 47 51 32 52 35 53 46 54 62 55
REMARK SMILES IDX 33 56 34 57 45 59 63 60 36 61 23 62 24 63 29 64 25 65 26 66
REMARK SMILES IDX 28 67 30 68 27 69 49 70 50 71 55 72 51 73 52 74 54 75 56 76
REMARK SMILES IDX 53 77 37 78 38 79 43 80 39 81 40 82 42 83 44 84 41 85
REMARK H PARENT 7 5 11 28 61 47 35 58
REMARK Flexibility Score: inf
ROOT
ATOM      1  C   UNL     1       2.035  -1.887   2.701  1.00  0.00     0.117 C 
ENDROOT
BRANCH   1   2
ATOM      2  N   UNL     1       1.100  -2.945   2.351  1.00  0.00    -0.356 N 
ATOM      3  C   UNL     1       0.596  -3.293   1.127  1.00  0.00     0.224 C 
ATOM      4  O   UNL     1      -0.189  -4.242   1.071  1.00  0.00    -0.275 OA
ATOM      5  H   UNL     1       0.783  -3.492   3.106  1.00  0.00     0.163 HD
BRANCH   3   6
ATOM      6  C   UNL     1       0.998  -2.532  -0.135  1.00  0.00     0.135 C 
BRANCH   6   7
ATOM      7  C   UNL     1       0.336  -1.170  -0.257  1.00  0.00    -0.035 A 
ATOM      8  C   UNL     1       2.561   0.045  -0.530  1.00  0.00     0.045 C 
ATOM      9  C   UNL     1       1.060   0.048  -0.348  1.00  0.00    -0.040 A 
ATOM     10  C   UNL     1       0.346   1.276  -0.295  1.00  0.00    -0.015 A 
ATOM     11  C   UNL     1      -1.073  -1.133  -0.213  1.00  0.00     0.004 A 
ATOM     12  C   UNL     1      -1.057   1.272  -0.228  1.00  0.00     0.009 A 
ATOM     13  C   UNL     1      -1.763   0.075  -0.203  1.00  0.00     0.001 A 
BRANCH  10  14
ATOM     14  C   UNL     1       1.036   2.584  -0.217  1.00  0.00    -0.011 A 
ATOM     15  C   UNL     1       1.799   3.152  -1.311  1.00  0.00     0.027 A 
ATOM     16  C   UNL     1       1.012   3.226   0.965  1.00  0.00     0.080 A 
ATOM     17  C   UNL     1       2.540   4.250  -1.121  1.00  0.00     0.095 A 
ATOM     18  C   UNL     1       1.785   4.480   1.174  1.00  0.00     0.255 A 
ATOM     19  N   UNL     1       2.558   4.895   0.102  1.00  0.00    -0.258 N 
ATOM     20  O   UNL     1       1.713   5.035   2.265  1.00  0.00    -0.269 OA
BRANCH  19  21
ATOM     21  C   UNL     1       3.390   6.053   0.311  1.00  0.00     0.451 C 
ATOM     22  F   UNL     1       2.643   7.149   0.583  1.00  0.00    -0.185 F 
ATOM     23  F   UNL     1       4.244   5.857   1.345  1.00  0.00    -0.185 F 
ENDBRANCH  19  21
ENDBRANCH  10  14
ENDBRANCH   6   7
ENDBRANCH   3   6
ENDBRANCH   1   2
BRANCH   1  24
ATOM     24  C   UNL     1       1.350  -0.539   2.915  1.00  0.00     0.042 C 
BRANCH  24  25
ATOM     25  C   UNL     1       0.866  -0.306   4.336  1.00  0.00     0.118 C 
BRANCH  25  26
ATOM     26  N   UNL     1       1.765   0.498   5.155  1.00  0.00    -0.352 N 
ATOM     27  C   UNL     1       1.693   0.781   6.510  1.00  0.00     0.251 C 
ATOM     28  H   UNL     1       2.530   0.896   4.679  1.00  0.00     0.163 HD
ATOM     29  O   UNL     1       2.540   1.485   7.037  1.00  0.00    -0.269 OA
BRANCH  27  30
ATOM     30  C   UNL     1       0.665   0.104   7.339  1.00  0.00     0.039 A 
ATOM     31  C   UNL     1       1.086  -0.502   8.527  1.00  0.00     0.014 A 
ATOM     32  C   UNL     1      -0.618  -0.128   6.851  1.00  0.00     0.014 A 
ATOM     33  C   UNL     1       0.331  -1.540   9.066  1.00  0.00     0.010 A 
ATOM     34  C   UNL     1      -1.315  -1.224   7.316  1.00  0.00     0.010 A 
ATOM     35  C   UNL     1      -0.800  -1.976   8.377  1.00  0.00    -0.014 A 
BRANCH  35  36
ATOM     36  C   UNL     1      -1.399  -3.288   8.590  1.00  0.00     0.031 A 
ATOM     37  C   UNL     1      -2.721  -3.430   9.232  1.00  0.00     0.074 A 
ATOM     38  C   UNL     1      -0.766  -4.381   8.108  1.00  0.00     0.049 A 
ATOM     39  N   UNL     1      -3.115  -4.497   9.843  1.00  0.00    -0.248 NA
ATOM     40  C   UNL     1      -3.702  -2.353   9.261  1.00  0.00     0.031 C 
ATOM     41  C   UNL     1      -1.311  -5.727   7.957  1.00  0.00     0.029 A 
ATOM     42  N   UNL     1       0.602  -4.527   7.833  1.00  0.00    -0.354 N 
ATOM     43  C   UNL     1      -4.460  -4.359  10.101  1.00  0.00     0.074 A 
ATOM     44  C   UNL     1      -4.764  -2.985   9.771  1.00  0.00     0.031 C 
ATOM     45  C   UNL     1      -0.295  -6.601   7.898  1.00  0.00     0.029 A 
ATOM     46  C   UNL     1       0.928  -5.861   8.154  1.00  0.00     0.049 A 
ATOM     47  H   UNL     1       1.212  -3.836   7.485  1.00  0.00     0.167 HD
ATOM     48  C   UNL     1      -5.199  -5.455  10.438  1.00  0.00     0.037 A 
ATOM     49  C   UNL     1       1.829  -6.159   9.134  1.00  0.00     0.037 A 
ATOM     50  C   UNL     1      -4.370  -6.655  10.512  1.00  0.00     0.049 A 
ATOM     51  C   UNL     1       1.262  -6.989  10.262  1.00  0.00     0.074 A 
ATOM     52  C   UNL     1      -4.114  -7.668   9.601  1.00  0.00     0.029 A 
ATOM     53  N   UNL     1      -3.419  -6.779  11.517  1.00  0.00    -0.354 N 
ATOM     54  N   UNL     1      -0.014  -7.128  10.490  1.00  0.00    -0.248 NA
ATOM     55  C   UNL     1       2.083  -7.696  11.242  1.00  0.00     0.031 C 
ATOM     56  C   UNL     1      -2.970  -8.376  10.039  1.00  0.00     0.029 A 
ATOM     57  C   UNL     1      -2.542  -7.805  11.224  1.00  0.00     0.049 A 
ATOM     58  H   UNL     1      -3.376  -6.216  12.323  1.00  0.00     0.167 HD
ATOM     59  C   UNL     1      -0.198  -7.879  11.621  1.00  0.00     0.074 A 
ATOM     60  C   UNL     1       1.144  -8.233  12.041  1.00  0.00     0.031 C 
ATOM     61  C   UNL     1      -1.444  -8.127  12.122  1.00  0.00     0.037 A 
BRANCH  48  62
ATOM     62  C   UNL     1      -6.709  -5.481  10.388  1.00  0.00     0.057 A 
ATOM     63  C   UNL     1      -7.407  -6.642  10.001  1.00  0.00     0.134 A 
ATOM     64  C   UNL     1      -7.532  -4.375  10.658  1.00  0.00     0.134 A 
ATOM     65  F   UNL     1      -6.787  -7.816   9.826  1.00  0.00    -0.206 F 
ATOM     66  C   UNL     1      -8.789  -6.661   9.768  1.00  0.00     0.040 A 
ATOM     67  C   UNL     1      -8.906  -4.361  10.377  1.00  0.00     0.040 A 
ATOM     68  F   UNL     1      -7.046  -3.274  11.248  1.00  0.00    -0.206 F 
ATOM     69  C   UNL     1      -9.538  -5.505   9.912  1.00  0.00     0.006 A 
ENDBRANCH  48  62
BRANCH  49  70
ATOM     70  C   UNL     1       2.904  -5.145   9.278  1.00  0.00     0.057 A 
ATOM     71  C   UNL     1       3.825  -4.989   8.228  1.00  0.00     0.134 A 
ATOM     72  C   UNL     1       2.818  -4.109  10.211  1.00  0.00     0.134 A 
ATOM     73  F   UNL     1       3.955  -5.947   7.297  1.00  0.00    -0.206 F 
ATOM     74  C   UNL     1       4.551  -3.808   8.052  1.00  0.00     0.040 A 
ATOM     75  C   UNL     1       3.546  -2.923  10.048  1.00  0.00     0.040 A 
ATOM     76  F   UNL     1       1.944  -4.174  11.225  1.00  0.00    -0.206 F 
ATOM     77  C   UNL     1       4.385  -2.756   8.947  1.00  0.00     0.006 A 
ENDBRANCH  49  70
BRANCH  61  78
ATOM     78  C   UNL     1      -1.761  -8.758  13.454  1.00  0.00     0.057 A 
ATOM     79  C   UNL     1      -0.956  -8.637  14.595  1.00  0.00     0.134 A 
ATOM     80  C   UNL     1      -3.006  -9.395  13.662  1.00  0.00     0.134 A 
ATOM     81  F   UNL     1       0.204  -7.968  14.567  1.00  0.00    -0.206 F 
ATOM     82  C   UNL     1      -1.339  -9.153  15.841  1.00  0.00     0.040 A 
ATOM     83  C   UNL     1      -3.420  -9.867  14.910  1.00  0.00     0.040 A 
ATOM     84  F   UNL     1      -3.885  -9.566  12.663  1.00  0.00    -0.206 F 
ATOM     85  C   UNL     1      -2.580  -9.758  16.006  1.00  0.00     0.006 A 
ENDBRANCH  61  78
ENDBRANCH  35  36
ENDBRANCH  27  30
ENDBRANCH  25  26
ENDBRANCH  24  25
ENDBRANCH   1  24
TORSDOF 13
