REMARK SMILES Cc1cc2c(c(C)c1Cl)C=C(C(=O)NCCCNC(=O)c1ccc(-c3c4nc(c(-c5c(F)cccc5F)c5ccc([nH]5)c(-c5c(F)cccc5F)c5nc(c(-c6c(F)cccc6F)c6ccc3[nH]6)C=C5)C=C4)cc1)[C@@H](C(F)(F)F)O2
REMARK SMILES IDX 16 1 15 2 14 3 12 4 13 5 11 7 1 8 2 9 3 10 8 11 4 12 6 13
REMARK SMILES IDX 9 14 5 15 80 16 7 17 10 18 75 19 76 20 77 21 78 22 79 23
REMARK SMILES IDX 17 24 18 25 19 26 20 28 21 29 22 30 74 31 23 32 73 33 24 34
REMARK SMILES IDX 25 35 26 36 67 37 27 38 72 39 66 40 68 41 28 42 71 43 65 44
REMARK SMILES IDX 64 45 29 47 55 48 38 49 54 50 39 51 42 52 53 53 69 54 40 55
REMARK SMILES IDX 41 56 52 58 70 59 43 60 30 61 31 62 36 63 32 64 33 65 35 66
REMARK SMILES IDX 37 67 34 68 56 69 57 70 62 71 58 72 59 73 61 74 63 75 60 76
REMARK SMILES IDX 44 77 45 78 50 79 46 80 47 81 49 82 51 83 48 84
REMARK H PARENT 14 6 18 27 68 46 42 57
REMARK Flexibility Score: inf
ROOT
ATOM      1  C   UNL     1       0.887  -7.103   6.685  1.00  0.00     0.042 C 
ENDROOT
BRANCH   1   2
ATOM      2  C   UNL     1      -0.431  -6.512   6.210  1.00  0.00     0.118 C 
BRANCH   2   3
ATOM      3  N   UNL     1      -0.733  -5.256   6.880  1.00  0.00    -0.352 N 
ATOM      4  C   UNL     1      -0.778  -3.943   6.556  1.00  0.00     0.251 C 
ATOM      5  O   UNL     1      -1.095  -3.187   7.480  1.00  0.00    -0.270 OA
ATOM      6  H   UNL     1      -0.968  -5.401   7.825  1.00  0.00     0.163 HD
BRANCH   4   7
ATOM      7  C   UNL     1      -0.478  -3.382   5.208  1.00  0.00     0.067 C 
ATOM      8  C   UNL     1       0.928   0.152  -0.063  1.00  0.00     0.046 C 
ATOM      9  C   UNL     1       0.484  -0.334   1.290  1.00  0.00    -0.028 A 
ATOM     10  C   UNL     1       0.648  -1.695   1.560  1.00  0.00     0.052 A 
ATOM     11  C   UNL     1      -0.015   0.504   2.308  1.00  0.00     0.047 A 
ATOM     12  C   UNL     1       0.298  -2.219   2.798  1.00  0.00     0.128 A 
ATOM     13  C   UNL     1      -0.384  -0.020   3.574  1.00  0.00    -0.021 A 
ATOM     14  Cl  UNL     1      -0.146   2.209   1.995  1.00  0.00    -0.084 Cl
ATOM     15  C   UNL     1      -0.211  -1.405   3.814  1.00  0.00     0.022 A 
ATOM     16  O   UNL     1       0.538  -3.553   2.949  1.00  0.00    -0.475 OA
ATOM     17  C   UNL     1      -0.940   0.858   4.672  1.00  0.00     0.047 C 
ATOM     18  C   UNL     1      -0.487  -2.040   5.108  1.00  0.00     0.026 C 
ATOM     19  C   UNL     1      -0.196  -4.223   4.001  1.00  0.00     0.314 C 
BRANCH  19  20
ATOM     20  C   UNL     1      -1.465  -4.868   3.413  1.00  0.00     0.429 C 
ATOM     21  F   UNL     1      -1.133  -5.908   2.607  1.00  0.00    -0.167 F 
ATOM     22  F   UNL     1      -2.285  -5.371   4.366  1.00  0.00    -0.167 F 
ATOM     23  F   UNL     1      -2.201  -4.004   2.680  1.00  0.00    -0.167 F 
ENDBRANCH  19  20
ENDBRANCH   4   7
ENDBRANCH   2   3
ENDBRANCH   1   2
BRANCH   1  24
ATOM     24  C   UNL     1       0.753  -7.772   8.046  1.00  0.00     0.118 C 
BRANCH  24  25
ATOM     25  N   UNL     1      -0.152  -8.918   7.998  1.00  0.00    -0.352 N 
ATOM     26  C   UNL     1       0.121 -10.261   8.016  1.00  0.00     0.251 C 
ATOM     27  H   UNL     1      -1.108  -8.690   7.945  1.00  0.00     0.163 HD
ATOM     28  O   UNL     1      -0.743 -11.068   7.678  1.00  0.00    -0.269 OA
BRANCH  26  29
ATOM     29  C   UNL     1       1.451 -10.735   8.438  1.00  0.00     0.039 A 
ATOM     30  C   UNL     1       2.048 -11.802   7.762  1.00  0.00     0.014 A 
ATOM     31  C   UNL     1       2.099 -10.133   9.519  1.00  0.00     0.014 A 
ATOM     32  C   UNL     1       3.326 -12.218   8.133  1.00  0.00     0.010 A 
ATOM     33  C   UNL     1       3.409 -10.477   9.816  1.00  0.00     0.010 A 
ATOM     34  C   UNL     1       4.029 -11.534   9.139  1.00  0.00    -0.014 A 
BRANCH  34  35
ATOM     35  C   UNL     1       5.403 -11.928   9.528  1.00  0.00     0.031 A 
ATOM     36  C   UNL     1       5.668 -12.417  10.925  1.00  0.00     0.074 A 
ATOM     37  C   UNL     1       6.410 -11.796   8.644  1.00  0.00     0.049 A 
ATOM     38  N   UNL     1       6.806 -12.744  11.482  1.00  0.00    -0.248 NA
ATOM     39  C   UNL     1       4.508 -12.526  11.826  1.00  0.00     0.031 C 
ATOM     40  C   UNL     1       6.275 -11.295   7.274  1.00  0.00     0.029 A 
ATOM     41  N   UNL     1       7.748 -12.072   8.765  1.00  0.00    -0.354 N 
ATOM     42  C   UNL     1       6.497 -13.093  12.790  1.00  0.00     0.074 A 
ATOM     43  C   UNL     1       5.081 -12.869  12.970  1.00  0.00     0.031 C 
ATOM     44  C   UNL     1       7.473 -11.338   6.670  1.00  0.00     0.029 A 
ATOM     45  C   UNL     1       8.467 -11.828   7.620  1.00  0.00     0.049 A 
ATOM     46  H   UNL     1       8.155 -12.412   9.594  1.00  0.00     0.167 HD
ATOM     47  C   UNL     1       7.314 -13.593  13.744  1.00  0.00     0.037 A 
ATOM     48  C   UNL     1       9.780 -11.983   7.368  1.00  0.00     0.037 A 
ATOM     49  C   UNL     1       8.716 -13.842  13.548  1.00  0.00     0.049 A 
ATOM     50  C   UNL     1      10.673 -12.510   8.458  1.00  0.00     0.074 A 
ATOM     51  C   UNL     1       9.626 -14.382  14.439  1.00  0.00     0.029 A 
ATOM     52  N   UNL     1       9.408 -13.575  12.376  1.00  0.00    -0.354 N 
ATOM     53  N   UNL     1      10.358 -12.883   9.675  1.00  0.00    -0.248 NA
ATOM     54  C   UNL     1      12.102 -12.640   8.141  1.00  0.00     0.031 C 
ATOM     55  C   UNL     1      10.878 -14.402  13.821  1.00  0.00     0.029 A 
ATOM     56  C   UNL     1      10.739 -13.922  12.528  1.00  0.00     0.049 A 
ATOM     57  H   UNL     1       9.012 -13.195  11.559  1.00  0.00     0.167 HD
ATOM     58  C   UNL     1      11.541 -13.317  10.259  1.00  0.00     0.074 A 
ATOM     59  C   UNL     1      12.577 -13.175   9.257  1.00  0.00     0.031 C 
ATOM     60  C   UNL     1      11.751 -13.786  11.512  1.00  0.00     0.037 A 
BRANCH  47  61
ATOM     61  C   UNL     1       6.712 -13.934  15.074  1.00  0.00     0.057 A 
ATOM     62  C   UNL     1       5.852 -15.030  15.228  1.00  0.00     0.134 A 
ATOM     63  C   UNL     1       7.048 -13.210  16.224  1.00  0.00     0.134 A 
ATOM     64  F   UNL     1       5.479 -15.757  14.164  1.00  0.00    -0.206 F 
ATOM     65  C   UNL     1       5.340 -15.387  16.477  1.00  0.00     0.040 A 
ATOM     66  C   UNL     1       6.564 -13.573  17.482  1.00  0.00     0.040 A 
ATOM     67  F   UNL     1       7.868 -12.151  16.148  1.00  0.00    -0.206 F 
ATOM     68  C   UNL     1       5.707 -14.664  17.610  1.00  0.00     0.006 A 
ENDBRANCH  47  61
BRANCH  48  69
ATOM     69  C   UNL     1      10.323 -11.674   6.020  1.00  0.00     0.057 A 
ATOM     70  C   UNL     1      10.793 -12.693   5.184  1.00  0.00     0.134 A 
ATOM     71  C   UNL     1      10.384 -10.363   5.533  1.00  0.00     0.134 A 
ATOM     72  F   UNL     1      10.775 -13.968   5.599  1.00  0.00    -0.206 F 
ATOM     73  C   UNL     1      11.320 -12.420   3.921  1.00  0.00     0.040 A 
ATOM     74  C   UNL     1      10.885 -10.077   4.261  1.00  0.00     0.040 A 
ATOM     75  F   UNL     1       9.942  -9.340   6.280  1.00  0.00    -0.206 F 
ATOM     76  C   UNL     1      11.361 -11.108   3.454  1.00  0.00     0.006 A 
ENDBRANCH  48  69
BRANCH  60  77
ATOM     77  C   UNL     1      13.145 -14.207  11.872  1.00  0.00     0.057 A 
ATOM     78  C   UNL     1      14.162 -13.270  12.092  1.00  0.00     0.134 A 
ATOM     79  C   UNL     1      13.448 -15.557  12.088  1.00  0.00     0.134 A 
ATOM     80  F   UNL     1      13.937 -11.963  11.893  1.00  0.00    -0.206 F 
ATOM     81  C   UNL     1      15.436 -13.663  12.503  1.00  0.00     0.040 A 
ATOM     82  C   UNL     1      14.710 -15.960  12.528  1.00  0.00     0.040 A 
ATOM     83  F   UNL     1      12.514 -16.503  11.909  1.00  0.00    -0.206 F 
ATOM     84  C   UNL     1      15.709 -15.010  12.734  1.00  0.00     0.006 A 
ENDBRANCH  60  77
ENDBRANCH  34  35
ENDBRANCH  26  29
ENDBRANCH  24  25
ENDBRANCH   1  24
TORSDOF 11
