REMARK SMILES O=C(NCCCNC(=O)c1ccccc1Nc1nc(Cl)nc(Nc2ccc(N3CCOCC3=O)cc2)n1)c1ccc(-c2c3nc(c(-c4c(F)cccc4F)c4ccc([nH]4)c(-c4c(F)cccc4F)c4nc(c(-c5c(F)cccc5F)c5ccc2[nH]5)C=C4)C=C3)cc1
REMARK SMILES IDX 7 1 8 2 9 3 6 5 5 6 4 7 3 8 1 9 2 10 38 12 39 13 91 14 40 15
REMARK SMILES IDX 90 16 41 17 42 18 43 19 84 20 44 21 89 22 83 23 85 24 45 25
REMARK SMILES IDX 88 26 82 27 81 28 46 30 72 31 55 32 71 33 56 34 59 35 70 36
REMARK SMILES IDX 86 37 57 38 58 39 69 41 87 42 60 43 47 44 48 45 53 46 49 47
REMARK SMILES IDX 50 48 52 49 54 50 51 51 73 52 74 53 79 54 75 55 76 56 78 57
REMARK SMILES IDX 80 58 77 59 61 60 62 61 67 62 63 63 64 64 66 65 68 66 65 67
REMARK SMILES IDX 10 68 11 69 15 70 12 71 14 72 13 73 16 74 17 76 18 77 37 78
REMARK SMILES IDX 19 79 22 80 20 81 21 82 23 83 24 85 25 86 36 87 26 88 35 89
REMARK SMILES IDX 27 90 28 91 29 92 33 93 30 94 32 95 34 96 31 97
REMARK H PARENT 7 4 3 11 85 29 59 40 16 75 23 84
REMARK Flexibility Score: inf
ROOT
ATOM      1  N   UNL     1       4.879  -2.479  -3.522  1.00  0.00    -0.352 N 
ATOM      2  C   UNL     1       5.627  -3.104  -4.487  1.00  0.00     0.253 C 
ATOM      3  O   UNL     1       5.953  -2.485  -5.497  1.00  0.00    -0.269 OA
ATOM      4  H   UNL     1       4.577  -1.571  -3.752  1.00  0.00     0.163 HD
ENDROOT
BRANCH   1   5
ATOM      5  C   UNL     1       4.463  -2.953  -2.208  1.00  0.00     0.118 C 
BRANCH   5   6
ATOM      6  C   UNL     1       4.963  -2.072  -1.075  1.00  0.00     0.042 C 
BRANCH   6   7
ATOM      7  C   UNL     1       4.534  -0.615  -1.169  1.00  0.00     0.118 C 
BRANCH   7   8
ATOM      8  N   UNL     1       3.097  -0.419  -1.021  1.00  0.00    -0.352 N 
ATOM      9  O   UNL     1       1.134   0.076  -0.035  1.00  0.00    -0.269 OA
ATOM     10  C   UNL     1       2.361   0.135   0.001  1.00  0.00     0.251 C 
ATOM     11  H   UNL     1       2.561  -0.736  -1.783  1.00  0.00     0.163 HD
BRANCH  10  12
ATOM     12  C   UNL     1       3.029   0.765   1.162  1.00  0.00     0.039 A 
ATOM     13  C   UNL     1       4.155   1.567   0.997  1.00  0.00     0.014 A 
ATOM     14  C   UNL     1       2.513   0.555   2.446  1.00  0.00     0.014 A 
ATOM     15  C   UNL     1       4.886   1.970   2.107  1.00  0.00     0.010 A 
ATOM     16  C   UNL     1       3.183   1.069   3.562  1.00  0.00     0.010 A 
ATOM     17  C   UNL     1       4.407   1.734   3.406  1.00  0.00    -0.014 A 
BRANCH  17  18
ATOM     18  C   UNL     1       5.201   2.224   4.565  1.00  0.00     0.031 A 
ATOM     19  C   UNL     1       5.770   1.271   5.582  1.00  0.00     0.074 A 
ATOM     20  C   UNL     1       5.466   3.542   4.659  1.00  0.00     0.049 A 
ATOM     21  N   UNL     1       6.541   1.529   6.610  1.00  0.00    -0.248 NA
ATOM     22  C   UNL     1       5.425  -0.151   5.440  1.00  0.00     0.031 C 
ATOM     23  C   UNL     1       4.961   4.569   3.743  1.00  0.00     0.029 A 
ATOM     24  N   UNL     1       6.253   4.242   5.537  1.00  0.00    -0.354 N 
ATOM     25  C   UNL     1       6.745   0.313   7.252  1.00  0.00     0.074 A 
ATOM     26  C   UNL     1       6.001  -0.682   6.510  1.00  0.00     0.031 C 
ATOM     27  C   UNL     1       5.512   5.749   4.058  1.00  0.00     0.029 A 
ATOM     28  C   UNL     1       6.352   5.579   5.237  1.00  0.00     0.049 A 
ATOM     29  H   UNL     1       6.702   3.826   6.308  1.00  0.00     0.167 HD
ATOM     30  C   UNL     1       7.488   0.050   8.354  1.00  0.00     0.037 A 
ATOM     31  C   UNL     1       7.040   6.563   5.844  1.00  0.00     0.037 A 
ATOM     32  C   UNL     1       8.258   1.035   9.070  1.00  0.00     0.049 A 
ATOM     33  C   UNL     1       7.859   6.241   7.058  1.00  0.00     0.074 A 
ATOM     34  C   UNL     1       9.081   0.854  10.169  1.00  0.00     0.029 A 
ATOM     35  N   UNL     1       8.300   2.385   8.759  1.00  0.00    -0.354 N 
ATOM     36  N   UNL     1       8.063   5.081   7.632  1.00  0.00    -0.248 NA
ATOM     37  C   UNL     1       8.535   7.368   7.714  1.00  0.00     0.031 C 
ATOM     38  C   UNL     1       9.590   2.102  10.546  1.00  0.00     0.029 A 
ATOM     39  C   UNL     1       9.118   3.053   9.656  1.00  0.00     0.049 A 
ATOM     40  H   UNL     1       7.819   2.808   8.010  1.00  0.00     0.167 HD
ATOM     41  C   UNL     1       8.902   5.334   8.708  1.00  0.00     0.074 A 
ATOM     42  C   UNL     1       9.185   6.755   8.693  1.00  0.00     0.031 C 
ATOM     43  C   UNL     1       9.390   4.467   9.628  1.00  0.00     0.037 A 
BRANCH  30  44
ATOM     44  C   UNL     1       7.490  -1.360   8.871  1.00  0.00     0.057 A 
ATOM     45  C   UNL     1       8.171  -2.393   8.214  1.00  0.00     0.134 A 
ATOM     46  C   UNL     1       6.834  -1.679  10.067  1.00  0.00     0.134 A 
ATOM     47  F   UNL     1       8.811  -2.159   7.058  1.00  0.00    -0.206 F 
ATOM     48  C   UNL     1       8.181  -3.696   8.717  1.00  0.00     0.040 A 
ATOM     49  C   UNL     1       6.856  -2.972  10.592  1.00  0.00     0.040 A 
ATOM     50  F   UNL     1       6.169  -0.736  10.751  1.00  0.00    -0.206 F 
ATOM     51  C   UNL     1       7.527  -3.987   9.913  1.00  0.00     0.006 A 
ENDBRANCH  30  44
BRANCH  31  52
ATOM     52  C   UNL     1       6.987   7.942   5.301  1.00  0.00     0.057 A 
ATOM     53  C   UNL     1       8.105   8.520   4.689  1.00  0.00     0.134 A 
ATOM     54  C   UNL     1       5.817   8.708   5.366  1.00  0.00     0.134 A 
ATOM     55  F   UNL     1       9.259   7.841   4.611  1.00  0.00    -0.206 F 
ATOM     56  C   UNL     1       8.065   9.814   4.168  1.00  0.00     0.040 A 
ATOM     57  C   UNL     1       5.755   9.993   4.827  1.00  0.00     0.040 A 
ATOM     58  F   UNL     1       4.710   8.207   5.934  1.00  0.00    -0.206 F 
ATOM     59  C   UNL     1       6.884  10.552   4.231  1.00  0.00     0.006 A 
ENDBRANCH  31  52
BRANCH  43  60
ATOM     60  C   UNL     1      10.301   5.034  10.674  1.00  0.00     0.057 A 
ATOM     61  C   UNL     1       9.817   5.828  11.722  1.00  0.00     0.134 A 
ATOM     62  C   UNL     1      11.677   4.775  10.638  1.00  0.00     0.134 A 
ATOM     63  F   UNL     1       8.512   6.126  11.802  1.00  0.00    -0.206 F 
ATOM     64  C   UNL     1      10.674   6.365  12.683  1.00  0.00     0.040 A 
ATOM     65  C   UNL     1      12.540   5.287  11.607  1.00  0.00     0.040 A 
ATOM     66  F   UNL     1      12.202   4.017   9.664  1.00  0.00    -0.206 F 
ATOM     67  C   UNL     1      12.040   6.091  12.630  1.00  0.00     0.006 A 
ENDBRANCH  43  60
ENDBRANCH  17  18
ENDBRANCH  10  12
ENDBRANCH   7   8
ENDBRANCH   6   7
ENDBRANCH   5   6
ENDBRANCH   1   5
BRANCH   2  68
ATOM     68  C   UNL     1       6.067  -4.505  -4.319  1.00  0.00     0.063 A 
ATOM     69  C   UNL     1       7.444  -4.748  -4.445  1.00  0.00     0.016 A 
ATOM     70  C   UNL     1       5.166  -5.560  -4.079  1.00  0.00     0.054 A 
ATOM     71  C   UNL     1       7.946  -6.036  -4.271  1.00  0.00     0.001 A 
ATOM     72  C   UNL     1       5.705  -6.837  -3.851  1.00  0.00     0.027 A 
ATOM     73  C   UNL     1       7.078  -7.076  -3.956  1.00  0.00     0.002 A 
BRANCH  70  74
ATOM     74  N   UNL     1       3.778  -5.356  -4.044  1.00  0.00    -0.323 N 
ATOM     75  H   UNL     1       3.446  -4.655  -4.650  1.00  0.00     0.170 HD
BRANCH  74  76
ATOM     76  C   UNL     1       2.800  -5.989  -3.288  1.00  0.00     0.233 A 
ATOM     77  N   UNL     1       3.116  -6.521  -2.118  1.00  0.00    -0.182 NA
ATOM     78  N   UNL     1       1.574  -5.989  -3.796  1.00  0.00    -0.176 NA
ATOM     79  C   UNL     1       2.089  -7.050  -1.480  1.00  0.00     0.228 A 
ATOM     80  C   UNL     1       0.636  -6.619  -3.094  1.00  0.00     0.233 A 
ATOM     81  Cl  UNL     1       2.427  -7.733   0.049  1.00  0.00    -0.041 Cl
ATOM     82  N   UNL     1       0.841  -7.143  -1.897  1.00  0.00    -0.182 NA
BRANCH  80  83
ATOM     83  N   UNL     1      -0.574  -6.816  -3.754  1.00  0.00    -0.324 N 
ATOM     84  H   UNL     1      -0.663  -6.372  -4.628  1.00  0.00     0.170 HD
BRANCH  83  85
ATOM     85  C   UNL     1      -1.679  -7.562  -3.337  1.00  0.00     0.041 A 
ATOM     86  C   UNL     1      -2.153  -8.602  -4.143  1.00  0.00     0.028 A 
ATOM     87  C   UNL     1      -2.259  -7.377  -2.081  1.00  0.00     0.028 A 
ATOM     88  C   UNL     1      -3.170  -9.452  -3.693  1.00  0.00     0.028 A 
ATOM     89  C   UNL     1      -3.314  -8.186  -1.652  1.00  0.00     0.028 A 
ATOM     90  C   UNL     1      -3.765  -9.247  -2.444  1.00  0.00     0.044 A 
BRANCH  90  91
ATOM     91  N   UNL     1      -4.770 -10.137  -1.962  1.00  0.00    -0.308 N 
ATOM     92  C   UNL     1      -4.440 -11.568  -1.965  1.00  0.00     0.154 C 
ATOM     93  C   UNL     1      -5.859  -9.659  -1.222  1.00  0.00     0.253 C 
ATOM     94  C   UNL     1      -5.639 -12.465  -1.686  1.00  0.00     0.183 C 
ATOM     95  C   UNL     1      -6.791 -10.736  -0.643  1.00  0.00     0.260 C 
ATOM     96  O   UNL     1      -6.155  -8.469  -1.101  1.00  0.00    -0.272 OA
ATOM     97  O   UNL     1      -6.274 -12.047  -0.482  1.00  0.00    -0.370 OA
ENDBRANCH  90  91
ENDBRANCH  83  85
ENDBRANCH  80  83
ENDBRANCH  74  76
ENDBRANCH  70  74
ENDBRANCH   2  68
TORSDOF 15
