REMARK SMILES O=Cc1ccc2c(c1)C=C(C(=O)NCCCNC(=O)c1ccc(-c3c4nc(c(-c5c(F)cccc5F)c5ccc([nH]5)c(-c5c(F)cccc5F)c5nc(c(-c6c(F)cccc6F)c6ccc3[nH]6)C=C5)C=C4)cc1)[C@H](C(F)(F)F)O2
REMARK SMILES IDX 15 1 14 2 13 3 11 4 12 5 10 7 3 8 4 9 8 10 5 11 7 12 6 13
REMARK SMILES IDX 9 14 79 15 74 16 2 17 1 18 75 19 76 20 77 21 78 22 16 23
REMARK SMILES IDX 17 24 18 25 19 27 20 28 21 29 73 30 22 31 72 32 23 33 24 34
REMARK SMILES IDX 25 35 66 36 26 37 71 38 65 39 67 40 27 41 70 42 64 43 63 44
REMARK SMILES IDX 28 46 54 47 37 48 53 49 38 50 41 51 52 52 68 53 39 54 40 55
REMARK SMILES IDX 51 57 69 58 42 59 29 60 30 61 35 62 31 63 32 64 34 65 36 66
REMARK SMILES IDX 33 67 55 68 56 69 61 70 57 71 58 72 60 73 62 74 59 75 43 76
REMARK SMILES IDX 44 77 49 78 45 79 46 80 48 81 50 82 47 83
REMARK H PARENT 13 6 17 26 67 45 41 56
REMARK Flexibility Score: inf
ROOT
ATOM      1  C   UNL     1       7.532  -3.637   2.660  1.00  0.00     0.042 C 
ENDROOT
BRANCH   1   2
ATOM      2  C   UNL     1       8.166  -3.637   1.265  1.00  0.00     0.118 C 
BRANCH   2   3
ATOM      3  N   UNL     1       8.001  -4.931   0.622  1.00  0.00    -0.352 N 
ATOM      4  C   UNL     1       7.073  -5.421  -0.241  1.00  0.00     0.251 C 
ATOM      5  O   UNL     1       7.128  -6.611  -0.537  1.00  0.00    -0.270 OA
ATOM      6  H   UNL     1       8.702  -5.581   0.858  1.00  0.00     0.163 HD
BRANCH   4   7
ATOM      7  C   UNL     1       6.040  -4.567  -0.883  1.00  0.00     0.067 C 
ATOM      8  C   UNL     1       2.770  -1.016  -0.929  1.00  0.00     0.015 A 
ATOM      9  C   UNL     1       2.542  -1.233  -2.290  1.00  0.00     0.015 A 
ATOM     10  C   UNL     1       3.688  -1.805  -0.232  1.00  0.00     0.023 A 
ATOM     11  C   UNL     1       3.248  -2.235  -2.958  1.00  0.00     0.048 A 
ATOM     12  C   UNL     1       4.388  -2.814  -0.905  1.00  0.00     0.018 A 
ATOM     13  C   UNL     1       4.167  -3.023  -2.265  1.00  0.00     0.128 A 
ATOM     14  C   UNL     1       5.393  -3.604  -0.213  1.00  0.00     0.025 C 
ATOM     15  O   UNL     1       4.859  -3.938  -3.000  1.00  0.00    -0.475 OA
ATOM     16  C   UNL     1       5.625  -4.962  -2.297  1.00  0.00     0.314 C 
BRANCH   8  17
ATOM     17  C   UNL     1       2.060   0.064  -0.216  1.00  0.00     0.260 C 
ATOM     18  O   UNL     1       1.211   0.756  -0.762  1.00  0.00    -0.298 OA
ENDBRANCH   8  17
BRANCH  16  19
ATOM     19  C   UNL     1       6.773  -5.395  -3.238  1.00  0.00     0.429 C 
ATOM     20  F   UNL     1       7.116  -6.693  -3.083  1.00  0.00    -0.167 F 
ATOM     21  F   UNL     1       6.412  -5.266  -4.542  1.00  0.00    -0.167 F 
ATOM     22  F   UNL     1       7.886  -4.644  -3.064  1.00  0.00    -0.167 F 
ENDBRANCH  16  19
ENDBRANCH   4   7
ENDBRANCH   2   3
ENDBRANCH   1   2
BRANCH   1  23
ATOM     23  C   UNL     1       8.335  -4.417   3.700  1.00  0.00     0.118 C 
BRANCH  23  24
ATOM     24  N   UNL     1       9.541  -3.709   4.091  1.00  0.00    -0.352 N 
ATOM     25  C   UNL     1       9.999  -3.363   5.337  1.00  0.00     0.251 C 
ATOM     26  H   UNL     1      10.122  -3.435   3.345  1.00  0.00     0.163 HD
ATOM     27  O   UNL     1      10.935  -2.574   5.426  1.00  0.00    -0.269 OA
BRANCH  25  28
ATOM     28  C   UNL     1       9.390  -3.916   6.570  1.00  0.00     0.039 A 
ATOM     29  C   UNL     1       9.316  -3.090   7.698  1.00  0.00     0.014 A 
ATOM     30  C   UNL     1       8.981  -5.250   6.663  1.00  0.00     0.014 A 
ATOM     31  C   UNL     1       8.822  -3.592   8.904  1.00  0.00     0.010 A 
ATOM     32  C   UNL     1       8.430  -5.734   7.852  1.00  0.00     0.010 A 
ATOM     33  C   UNL     1       8.367  -4.917   8.990  1.00  0.00    -0.014 A 
BRANCH  33  34
ATOM     34  C   UNL     1       7.871  -5.465  10.279  1.00  0.00     0.031 A 
ATOM     35  C   UNL     1       8.643  -6.543  10.991  1.00  0.00     0.074 A 
ATOM     36  C   UNL     1       6.714  -5.012  10.798  1.00  0.00     0.049 A 
ATOM     37  N   UNL     1       8.364  -7.156  12.114  1.00  0.00    -0.248 NA
ATOM     38  C   UNL     1       9.880  -7.009  10.345  1.00  0.00     0.031 C 
ATOM     39  C   UNL     1       5.850  -4.002  10.185  1.00  0.00     0.029 A 
ATOM     40  N   UNL     1       6.066  -5.345  11.960  1.00  0.00    -0.354 N 
ATOM     41  C   UNL     1       9.377  -8.090  12.298  1.00  0.00     0.074 A 
ATOM     42  C   UNL     1      10.252  -7.994  11.149  1.00  0.00     0.031 C 
ATOM     43  C   UNL     1       4.797  -3.781  10.988  1.00  0.00     0.029 A 
ATOM     44  C   UNL     1       4.899  -4.648  12.159  1.00  0.00     0.049 A 
ATOM     45  H   UNL     1       6.404  -6.021  12.592  1.00  0.00     0.167 HD
ATOM     46  C   UNL     1       9.575  -8.935  13.338  1.00  0.00     0.037 A 
ATOM     47  C   UNL     1       4.017  -4.697  13.173  1.00  0.00     0.037 A 
ATOM     48  C   UNL     1       8.724  -9.008  14.497  1.00  0.00     0.049 A 
ATOM     49  C   UNL     1       4.276  -5.617  14.333  1.00  0.00     0.074 A 
ATOM     50  C   UNL     1       8.868  -9.795  15.627  1.00  0.00     0.029 A 
ATOM     51  N   UNL     1       7.572  -8.258  14.677  1.00  0.00    -0.354 N 
ATOM     52  N   UNL     1       5.269  -6.452  14.519  1.00  0.00    -0.248 NA
ATOM     53  C   UNL     1       3.299  -5.589  15.431  1.00  0.00     0.031 C 
ATOM     54  C   UNL     1       7.787  -9.541  16.478  1.00  0.00     0.029 A 
ATOM     55  C   UNL     1       6.991  -8.569  15.895  1.00  0.00     0.049 A 
ATOM     56  H   UNL     1       7.219  -7.601  14.033  1.00  0.00     0.167 HD
ATOM     57  C   UNL     1       5.053  -7.028  15.764  1.00  0.00     0.074 A 
ATOM     58  C   UNL     1       3.841  -6.437  16.294  1.00  0.00     0.031 C 
ATOM     59  C   UNL     1       5.790  -7.963  16.411  1.00  0.00     0.037 A 
BRANCH  46  60
ATOM     60  C   UNL     1      10.764  -9.848  13.268  1.00  0.00     0.057 A 
ATOM     61  C   UNL     1      12.072  -9.367  13.418  1.00  0.00     0.134 A 
ATOM     62  C   UNL     1      10.601 -11.225  13.074  1.00  0.00     0.134 A 
ATOM     63  F   UNL     1      12.298  -8.056  13.593  1.00  0.00    -0.206 F 
ATOM     64  C   UNL     1      13.176 -10.219  13.348  1.00  0.00     0.040 A 
ATOM     65  C   UNL     1      11.696 -12.090  13.029  1.00  0.00     0.040 A 
ATOM     66  F   UNL     1       9.376 -11.752  12.930  1.00  0.00    -0.206 F 
ATOM     67  C   UNL     1      12.989 -11.586  13.159  1.00  0.00     0.006 A 
ENDBRANCH  46  60
BRANCH  47  68
ATOM     68  C   UNL     1       2.824  -3.815  13.160  1.00  0.00     0.057 A 
ATOM     69  C   UNL     1       2.730  -2.717  14.023  1.00  0.00     0.134 A 
ATOM     70  C   UNL     1       1.752  -4.048  12.291  1.00  0.00     0.134 A 
ATOM     71  F   UNL     1       3.719  -2.454  14.889  1.00  0.00    -0.206 F 
ATOM     72  C   UNL     1       1.605  -1.892  14.036  1.00  0.00     0.040 A 
ATOM     73  C   UNL     1       0.630  -3.219  12.278  1.00  0.00     0.040 A 
ATOM     74  F   UNL     1       1.787  -5.080  11.434  1.00  0.00    -0.206 F 
ATOM     75  C   UNL     1       0.552  -2.140  13.158  1.00  0.00     0.006 A 
ENDBRANCH  47  68
BRANCH  59  76
ATOM     76  C   UNL     1       5.326  -8.373  17.776  1.00  0.00     0.057 A 
ATOM     77  C   UNL     1       4.201  -9.187  17.961  1.00  0.00     0.134 A 
ATOM     78  C   UNL     1       6.026  -7.964  18.919  1.00  0.00     0.134 A 
ATOM     79  F   UNL     1       3.481  -9.600  16.907  1.00  0.00    -0.206 F 
ATOM     80  C   UNL     1       3.773  -9.558  19.236  1.00  0.00     0.040 A 
ATOM     81  C   UNL     1       5.621  -8.348  20.197  1.00  0.00     0.040 A 
ATOM     82  F   UNL     1       7.116  -7.190  18.809  1.00  0.00    -0.206 F 
ATOM     83  C   UNL     1       4.487  -9.142  20.359  1.00  0.00     0.006 A 
ENDBRANCH  59  76
ENDBRANCH  33  34
ENDBRANCH  25  28
ENDBRANCH  23  24
ENDBRANCH   1  23
TORSDOF 12
