REMARK SMILES C[NH+]1CCC2(CC1)OC[C@H](C(=O)NCCCNC(=O)c1ccc(-c3c4nc(c(-c5c(F)cccc5F)c5ccc([nH]5)c(-c5c(F)cccc5F)c5nc(c(-c6c(F)cccc6F)c6ccc3[nH]6)C=C5)C=C4)cc1)N2C(=O)c1cc(C(F)(F)F)cc(C(F)(F)F)c1
REMARK SMILES IDX 14 1 13 2 11 3 12 4 10 6 1 7 2 8 3 9 7 10 4 12 6 13 5 14
REMARK SMILES IDX 8 15 74 16 9 17 75 18 76 19 77 20 78 21 90 22 79 23 85 24
REMARK SMILES IDX 84 25 80 26 81 27 82 28 83 29 86 30 87 31 88 32 89 33 15 34
REMARK SMILES IDX 16 35 17 36 18 37 19 39 20 40 21 41 73 42 22 43 72 44 23 45
REMARK SMILES IDX 24 46 25 47 66 48 26 49 71 50 65 51 67 52 27 53 70 54 64 55
REMARK SMILES IDX 63 56 28 58 54 59 37 60 53 61 38 62 41 63 52 64 68 65 39 66
REMARK SMILES IDX 40 67 51 69 69 70 42 71 29 72 30 73 35 74 31 75 32 76 34 77
REMARK SMILES IDX 36 78 33 79 55 80 56 81 61 82 57 83 58 84 60 85 62 86 59 87
REMARK SMILES IDX 43 88 44 89 49 90 45 91 46 92 48 93 50 94 47 95
REMARK H PARENT 13 5 2 11 17 38 67 57 41 68
REMARK Flexibility Score: inf
ROOT
ATOM      1  C   UNL     1      -1.582   7.648  -2.715  1.00  0.00     0.117 C 
ENDROOT
BRANCH   1   2
ATOM      2  N   UNL     1      -2.048   6.461  -2.025  1.00  0.00    -0.354 N 
ATOM      3  C   UNL     1      -1.528   5.198  -2.050  1.00  0.00     0.245 C 
ATOM      4  O   UNL     1      -2.264   4.283  -1.673  1.00  0.00    -0.273 OA
ATOM      5  H   UNL     1      -2.847   6.582  -1.462  1.00  0.00     0.163 HD
BRANCH   3   6
ATOM      6  C   UNL     1      -0.076   4.986  -2.521  1.00  0.00     0.203 C 
ATOM      7  C   UNL     1       1.335  -0.245   0.850  1.00  0.00     0.332 C 
ATOM      8  N   UNL     1       0.941   0.392  -0.401  1.00  0.00    -0.337 N 
ATOM      9  C   UNL     1      -0.260   1.208  -0.236  1.00  0.00     0.267 C 
ATOM     10  C   UNL     1       2.067   0.975  -1.132  1.00  0.00     0.267 C 
ATOM     11  H   UNL     1       0.640  -0.331  -1.055  1.00  0.00     0.347 HD
ATOM     12  C   UNL     1      -0.017   2.689  -0.104  1.00  0.00     0.120 C 
ATOM     13  C   UNL     1       2.214   2.489  -1.166  1.00  0.00     0.120 C 
ATOM     14  C   UNL     1       0.899   3.260  -1.192  1.00  0.00     0.155 C 
ATOM     15  O   UNL     1       1.254   4.573  -0.635  1.00  0.00    -0.352 OA
ATOM     16  N   UNL     1       0.302   3.582  -2.514  1.00  0.00    -0.295 N 
ATOM     17  C   UNL     1       0.909   5.600  -1.564  1.00  0.00     0.198 C 
BRANCH  16  18
ATOM     18  C   UNL     1       0.031   2.904  -3.701  1.00  0.00     0.256 C 
ATOM     19  O   UNL     1      -0.449   3.473  -4.685  1.00  0.00    -0.269 OA
BRANCH  18  20
ATOM     20  C   UNL     1       0.355   1.489  -3.921  1.00  0.00     0.041 A 
ATOM     21  C   UNL     1       1.431   1.137  -4.745  1.00  0.00     0.027 A 
ATOM     22  C   UNL     1      -0.488   0.497  -3.427  1.00  0.00     0.027 A 
ATOM     23  C   UNL     1       1.750  -0.218  -4.955  1.00  0.00     0.057 A 
ATOM     24  C   UNL     1      -0.109  -0.851  -3.497  1.00  0.00     0.057 A 
ATOM     25  C   UNL     1       1.002  -1.200  -4.282  1.00  0.00     0.026 A 
BRANCH  23  26
ATOM     26  C   UNL     1       2.883  -0.606  -5.875  1.00  0.00     0.416 C 
ATOM     27  F   UNL     1       2.624  -0.297  -7.175  1.00  0.00    -0.166 F 
ATOM     28  F   UNL     1       4.048   0.023  -5.562  1.00  0.00    -0.166 F 
ATOM     29  F   UNL     1       3.162  -1.939  -5.857  1.00  0.00    -0.166 F 
ENDBRANCH  23  26
BRANCH  24  30
ATOM     30  C   UNL     1      -0.821  -1.899  -2.672  1.00  0.00     0.416 C 
ATOM     31  F   UNL     1      -1.417  -2.849  -3.441  1.00  0.00    -0.166 F 
ATOM     32  F   UNL     1       0.030  -2.571  -1.846  1.00  0.00    -0.166 F 
ATOM     33  F   UNL     1      -1.800  -1.396  -1.870  1.00  0.00    -0.166 F 
ENDBRANCH  24  30
ENDBRANCH  18  20
ENDBRANCH  16  18
ENDBRANCH   3   6
ENDBRANCH   1   2
BRANCH   1  34
ATOM     34  C   UNL     1      -2.398   7.900  -3.979  1.00  0.00     0.042 C 
BRANCH  34  35
ATOM     35  C   UNL     1      -3.882   8.156  -3.717  1.00  0.00     0.118 C 
BRANCH  35  36
ATOM     36  N   UNL     1      -4.117   9.373  -2.952  1.00  0.00    -0.352 N 
ATOM     37  C   UNL     1      -4.827  10.503  -3.280  1.00  0.00     0.251 C 
ATOM     38  H   UNL     1      -3.702   9.389  -2.059  1.00  0.00     0.163 HD
ATOM     39  O   UNL     1      -4.760  11.494  -2.563  1.00  0.00    -0.269 OA
BRANCH  37  40
ATOM     40  C   UNL     1      -5.648  10.538  -4.510  1.00  0.00     0.039 A 
ATOM     41  C   UNL     1      -5.579  11.668  -5.331  1.00  0.00     0.014 A 
ATOM     42  C   UNL     1      -6.484   9.473  -4.855  1.00  0.00     0.014 A 
ATOM     43  C   UNL     1      -6.276  11.690  -6.541  1.00  0.00     0.010 A 
ATOM     44  C   UNL     1      -7.123   9.467  -6.093  1.00  0.00     0.010 A 
ATOM     45  C   UNL     1      -7.012  10.568  -6.956  1.00  0.00    -0.014 A 
BRANCH  45  46
ATOM     46  C   UNL     1      -7.632  10.506  -8.305  1.00  0.00     0.031 A 
ATOM     47  C   UNL     1      -9.123  10.394  -8.457  1.00  0.00     0.074 A 
ATOM     48  C   UNL     1      -6.839  10.471  -9.395  1.00  0.00     0.049 A 
ATOM     49  N   UNL     1      -9.831  10.209  -9.542  1.00  0.00    -0.248 NA
ATOM     50  C   UNL     1      -9.921  10.485  -7.224  1.00  0.00     0.031 C 
ATOM     51  C   UNL     1      -5.376  10.537  -9.381  1.00  0.00     0.029 A 
ATOM     52  N   UNL     1      -7.151  10.346 -10.727  1.00  0.00    -0.354 N 
ATOM     53  C   UNL     1     -11.155  10.159  -9.126  1.00  0.00     0.074 A 
ATOM     54  C   UNL     1     -11.149  10.282  -7.683  1.00  0.00     0.031 C 
ATOM     55  C   UNL     1      -4.919  10.456 -10.640  1.00  0.00     0.029 A 
ATOM     56  C   UNL     1      -6.050  10.282 -11.546  1.00  0.00     0.049 A 
ATOM     57  H   UNL     1      -8.076  10.307 -11.062  1.00  0.00     0.167 HD
ATOM     58  C   UNL     1     -12.275  10.043  -9.879  1.00  0.00     0.037 A 
ATOM     59  C   UNL     1      -5.956  10.076 -12.874  1.00  0.00     0.037 A 
ATOM     60  C   UNL     1     -12.280   9.921 -11.314  1.00  0.00     0.049 A 
ATOM     61  C   UNL     1      -7.214   9.897 -13.680  1.00  0.00     0.074 A 
ATOM     62  C   UNL     1     -13.366   9.827 -12.167  1.00  0.00     0.029 A 
ATOM     63  N   UNL     1     -11.144   9.869 -12.108  1.00  0.00    -0.354 N 
ATOM     64  N   UNL     1      -8.462   9.907 -13.278  1.00  0.00    -0.248 NA
ATOM     65  C   UNL     1      -7.051   9.682 -15.124  1.00  0.00     0.031 C 
ATOM     66  C   UNL     1     -12.888   9.669 -13.472  1.00  0.00     0.029 A 
ATOM     67  C   UNL     1     -11.504   9.721 -13.439  1.00  0.00     0.049 A 
ATOM     68  H   UNL     1     -10.219   9.929 -11.776  1.00  0.00     0.167 HD
ATOM     69  C   UNL     1      -9.230   9.724 -14.421  1.00  0.00     0.074 A 
ATOM     70  C   UNL     1      -8.310   9.631 -15.534  1.00  0.00     0.031 C 
ATOM     71  C   UNL     1     -10.578   9.637 -14.539  1.00  0.00     0.037 A 
BRANCH  58  72
ATOM     72  C   UNL     1     -13.597  10.050  -9.166  1.00  0.00     0.057 A 
ATOM     73  C   UNL     1     -14.105  11.213  -8.571  1.00  0.00     0.134 A 
ATOM     74  C   UNL     1     -14.398   8.902  -9.125  1.00  0.00     0.134 A 
ATOM     75  F   UNL     1     -13.384  12.345  -8.567  1.00  0.00    -0.206 F 
ATOM     76  C   UNL     1     -15.352  11.229  -7.946  1.00  0.00     0.040 A 
ATOM     77  C   UNL     1     -15.659   8.912  -8.527  1.00  0.00     0.040 A 
ATOM     78  F   UNL     1     -13.977   7.756  -9.682  1.00  0.00    -0.206 F 
ATOM     79  C   UNL     1     -16.137  10.078  -7.930  1.00  0.00     0.006 A 
ENDBRANCH  58  72
BRANCH  59  80
ATOM     80  C   UNL     1      -4.625  10.003 -13.530  1.00  0.00     0.057 A 
ATOM     81  C   UNL     1      -4.211  10.978 -14.445  1.00  0.00     0.134 A 
ATOM     82  C   UNL     1      -3.749   8.938 -13.286  1.00  0.00     0.134 A 
ATOM     83  F   UNL     1      -5.013  12.013 -14.737  1.00  0.00    -0.206 F 
ATOM     84  C   UNL     1      -2.991  10.880 -15.117  1.00  0.00     0.040 A 
ATOM     85  C   UNL     1      -2.513   8.844 -13.927  1.00  0.00     0.040 A 
ATOM     86  F   UNL     1      -4.080   7.974 -12.414  1.00  0.00    -0.206 F 
ATOM     87  C   UNL     1      -2.137   9.812 -14.856  1.00  0.00     0.006 A 
ENDBRANCH  59  80
BRANCH  71  88
ATOM     88  C   UNL     1     -11.138   9.464 -15.921  1.00  0.00     0.057 A 
ATOM     89  C   UNL     1     -10.996   8.267 -16.635  1.00  0.00     0.134 A 
ATOM     90  C   UNL     1     -11.856  10.500 -16.534  1.00  0.00     0.134 A 
ATOM     91  F   UNL     1     -10.307   7.242 -16.112  1.00  0.00    -0.206 F 
ATOM     92  C   UNL     1     -11.525   8.115 -17.917  1.00  0.00     0.040 A 
ATOM     93  C   UNL     1     -12.416  10.349 -17.803  1.00  0.00     0.040 A 
ATOM     94  F   UNL     1     -12.038  11.670 -15.903  1.00  0.00    -0.206 F 
ATOM     95  C   UNL     1     -12.245   9.156 -18.502  1.00  0.00     0.006 A 
ENDBRANCH  71  88
ENDBRANCH  45  46
ENDBRANCH  37  40
ENDBRANCH  35  36
ENDBRANCH  34  35
ENDBRANCH   1  34
TORSDOF 14
