REMARK SMILES C[C@H](CNS(=O)(=O)CCC(=O)NCCCNC(=O)c1ccc(-c2c3nc(c(-c4c(F)cccc4F)c4ccc([nH]4)c(-c4c(F)cccc4F)c4nc(c(-c5c(F)cccc5F)c5ccc2[nH]5)C=C4)C=C3)cc1)c1ccccc1
REMARK SMILES IDX 10 1 11 2 12 3 9 5 8 6 5 7 6 8 7 9 4 10 3 12 2 13 1 14 73 15
REMARK SMILES IDX 74 16 78 17 75 18 77 19 76 20 13 21 14 22 15 23 16 24 17 25
REMARK SMILES IDX 18 27 19 28 20 29 72 30 21 31 71 32 22 33 23 34 24 35 65 36
REMARK SMILES IDX 25 37 70 38 64 39 66 40 26 41 69 42 63 43 62 44 27 46 53 47
REMARK SMILES IDX 36 48 52 49 37 50 40 51 51 52 67 53 38 54 39 55 50 57 68 58
REMARK SMILES IDX 41 59 28 60 29 61 34 62 30 63 31 64 33 65 35 66 32 67 54 68
REMARK SMILES IDX 55 69 60 70 56 71 57 72 59 73 61 74 58 75 42 76 43 77 48 78
REMARK SMILES IDX 44 79 45 80 47 81 49 82 46 83
REMARK H PARENT 12 4 4 11 16 26 66 45 40 56
REMARK Flexibility Score: inf
ROOT
ATOM      1  C   UNL     1       3.535   1.935   0.674  1.00  0.00     0.221 C 
ATOM      2  O   UNL     1       4.027   0.969   1.261  1.00  0.00    -0.275 OA
ATOM      3  N   UNL     1       2.525   2.601   1.301  1.00  0.00    -0.356 N 
ATOM      4  H   UNL     1       2.237   2.178   2.143  1.00  0.00     0.163 HD
ENDROOT
BRANCH   1   5
ATOM      5  C   UNL     1       3.975   2.271  -0.728  1.00  0.00     0.117 C 
BRANCH   5   6
ATOM      6  C   UNL     1       3.544   1.186  -1.706  1.00  0.00     0.164 C 
BRANCH   6   7
ATOM      7  S   UNL     1       1.783   1.174  -2.007  1.00  0.00     0.212 S 
ATOM      8  O   UNL     1       1.502   0.216  -3.046  1.00  0.00    -0.212 OA
ATOM      9  O   UNL     1       1.363   2.555  -2.131  1.00  0.00    -0.212 OA
BRANCH   7  10
ATOM     10  N   UNL     1       1.137   0.589  -0.567  1.00  0.00    -0.215 NA
ATOM     11  H   UNL     1       1.566   1.115   0.194  1.00  0.00     0.141 HD
BRANCH  10  12
ATOM     12  C   UNL     1       1.311  -0.849  -0.260  1.00  0.00     0.106 C 
BRANCH  12  13
ATOM     13  C   UNL     1       0.532  -1.324   0.994  1.00  0.00     0.031 C 
ATOM     14  C   UNL     1       0.892  -0.597   2.293  1.00  0.00     0.014 C 
BRANCH  13  15
ATOM     15  C   UNL     1      -0.971  -1.465   0.807  1.00  0.00    -0.044 A 
ATOM     16  C   UNL     1      -1.740  -0.570   0.056  1.00  0.00     0.004 A 
ATOM     17  C   UNL     1      -1.614  -2.584   1.370  1.00  0.00     0.004 A 
ATOM     18  C   UNL     1      -3.085  -0.836  -0.204  1.00  0.00     0.000 A 
ATOM     19  C   UNL     1      -2.962  -2.840   1.123  1.00  0.00     0.000 A 
ATOM     20  C   UNL     1      -3.692  -1.979   0.312  1.00  0.00     0.000 A 
ENDBRANCH  13  15
ENDBRANCH  12  13
ENDBRANCH  10  12
ENDBRANCH   7  10
ENDBRANCH   6   7
ENDBRANCH   5   6
ENDBRANCH   1   5
BRANCH   3  21
ATOM     21  C   UNL     1       1.783   3.818   0.973  1.00  0.00     0.117 C 
BRANCH  21  22
ATOM     22  C   UNL     1       0.264   3.634   0.768  1.00  0.00     0.042 C 
BRANCH  22  23
ATOM     23  C   UNL     1      -0.512   2.840   1.831  1.00  0.00     0.118 C 
BRANCH  23  24
ATOM     24  N   UNL     1      -1.236   3.690   2.757  1.00  0.00    -0.352 N 
ATOM     25  C   UNL     1      -2.571   3.727   3.085  1.00  0.00     0.251 C 
ATOM     26  H   UNL     1      -0.679   4.351   3.229  1.00  0.00     0.163 HD
ATOM     27  O   UNL     1      -2.969   4.612   3.840  1.00  0.00    -0.269 OA
BRANCH  25  28
ATOM     28  C   UNL     1      -3.562   2.756   2.554  1.00  0.00     0.039 A 
ATOM     29  C   UNL     1      -4.700   3.252   1.910  1.00  0.00     0.014 A 
ATOM     30  C   UNL     1      -3.488   1.390   2.822  1.00  0.00     0.014 A 
ATOM     31  C   UNL     1      -5.730   2.386   1.495  1.00  0.00     0.010 A 
ATOM     32  C   UNL     1      -4.515   0.527   2.379  1.00  0.00     0.010 A 
ATOM     33  C   UNL     1      -5.645   0.993   1.676  1.00  0.00    -0.014 A 
BRANCH  33  34
ATOM     34  C   UNL     1      -6.688   0.064   1.082  1.00  0.00     0.031 A 
ATOM     35  C   UNL     1      -7.383  -1.020   1.892  1.00  0.00     0.074 A 
ATOM     36  C   UNL     1      -6.989   0.119  -0.240  1.00  0.00     0.049 A 
ATOM     37  N   UNL     1      -8.272  -1.909   1.499  1.00  0.00    -0.248 NA
ATOM     38  C   UNL     1      -7.016  -1.150   3.308  1.00  0.00     0.031 C 
ATOM     39  C   UNL     1      -6.364   1.010  -1.219  1.00  0.00     0.029 A 
ATOM     40  N   UNL     1      -7.888  -0.607  -1.000  1.00  0.00    -0.354 N 
ATOM     41  C   UNL     1      -8.545  -2.710   2.605  1.00  0.00     0.074 A 
ATOM     42  C   UNL     1      -7.685  -2.238   3.670  1.00  0.00     0.031 C 
ATOM     43  C   UNL     1      -6.906   0.799  -2.429  1.00  0.00     0.029 A 
ATOM     44  C   UNL     1      -7.901  -0.266  -2.335  1.00  0.00     0.049 A 
ATOM     45  H   UNL     1      -8.467  -1.307  -0.620  1.00  0.00     0.167 HD
ATOM     46  C   UNL     1      -9.442  -3.720   2.748  1.00  0.00     0.037 A 
ATOM     47  C   UNL     1      -8.612  -0.740  -3.381  1.00  0.00     0.037 A 
ATOM     48  C   UNL     1     -10.364  -4.175   1.734  1.00  0.00     0.049 A 
ATOM     49  C   UNL     1      -9.629  -1.835  -3.188  1.00  0.00     0.074 A 
ATOM     50  C   UNL     1     -11.390  -5.101   1.861  1.00  0.00     0.029 A 
ATOM     51  N   UNL     1     -10.377  -3.754   0.416  1.00  0.00    -0.354 N 
ATOM     52  N   UNL     1      -9.964  -2.471  -2.094  1.00  0.00    -0.248 NA
ATOM     53  C   UNL     1     -10.380  -2.270  -4.379  1.00  0.00     0.031 C 
ATOM     54  C   UNL     1     -11.983  -5.284   0.609  1.00  0.00     0.029 A 
ATOM     55  C   UNL     1     -11.370  -4.426  -0.285  1.00  0.00     0.049 A 
ATOM     56  H   UNL     1      -9.771  -3.080   0.033  1.00  0.00     0.167 HD
ATOM     57  C   UNL     1     -10.985  -3.343  -2.458  1.00  0.00     0.074 A 
ATOM     58  C   UNL     1     -11.230  -3.147  -3.868  1.00  0.00     0.031 C 
ATOM     59  C   UNL     1     -11.654  -4.228  -1.682  1.00  0.00     0.037 A 
BRANCH  46  60
ATOM     60  C   UNL     1      -9.519  -4.416   4.081  1.00  0.00     0.057 A 
ATOM     61  C   UNL     1     -10.051  -3.784   5.213  1.00  0.00     0.134 A 
ATOM     62  C   UNL     1      -9.166  -5.768   4.206  1.00  0.00     0.134 A 
ATOM     63  F   UNL     1     -10.420  -2.495   5.160  1.00  0.00    -0.206 F 
ATOM     64  C   UNL     1     -10.202  -4.459   6.425  1.00  0.00     0.040 A 
ATOM     65  C   UNL     1      -9.341  -6.462   5.405  1.00  0.00     0.040 A 
ATOM     66  F   UNL     1      -8.677  -6.445   3.156  1.00  0.00    -0.206 F 
ATOM     67  C   UNL     1      -9.856  -5.806   6.521  1.00  0.00     0.006 A 
ENDBRANCH  46  60
BRANCH  47  68
ATOM     68  C   UNL     1      -8.408  -0.182  -4.747  1.00  0.00     0.057 A 
ATOM     69  C   UNL     1      -9.417   0.546  -5.392  1.00  0.00     0.134 A 
ATOM     70  C   UNL     1      -7.237  -0.436  -5.471  1.00  0.00     0.134 A 
ATOM     71  F   UNL     1     -10.575   0.798  -4.762  1.00  0.00    -0.206 F 
ATOM     72  C   UNL     1      -9.290   0.960  -6.719  1.00  0.00     0.040 A 
ATOM     73  C   UNL     1      -7.082   0.002  -6.788  1.00  0.00     0.040 A 
ATOM     74  F   UNL     1      -6.231  -1.123  -4.912  1.00  0.00    -0.206 F 
ATOM     75  C   UNL     1      -8.117   0.688  -7.421  1.00  0.00     0.006 A 
ENDBRANCH  47  68
BRANCH  59  76
ATOM     76  C   UNL     1     -12.767  -5.022  -2.308  1.00  0.00     0.057 A 
ATOM     77  C   UNL     1     -12.530  -6.028  -3.255  1.00  0.00     0.134 A 
ATOM     78  C   UNL     1     -14.099  -4.806  -1.925  1.00  0.00     0.134 A 
ATOM     79  F   UNL     1     -11.283  -6.283  -3.678  1.00  0.00    -0.206 F 
ATOM     80  C   UNL     1     -13.574  -6.772  -3.812  1.00  0.00     0.040 A 
ATOM     81  C   UNL     1     -15.148  -5.563  -2.452  1.00  0.00     0.040 A 
ATOM     82  F   UNL     1     -14.403  -3.865  -1.019  1.00  0.00    -0.206 F 
ATOM     83  C   UNL     1     -14.887  -6.546  -3.403  1.00  0.00     0.006 A 
ENDBRANCH  59  76
ENDBRANCH  33  34
ENDBRANCH  25  28
ENDBRANCH  23  24
ENDBRANCH  22  23
ENDBRANCH  21  22
ENDBRANCH   3  21
TORSDOF 16
