REMARK SMILES CCc1c(C)nc(Nc2cc(Cl)ccc2C)nc1OCC(=O)NCCCNC(=O)c1ccc(-c2c3nc(c(-c4c(F)cccc4F)c4ccc([nH]4)c(-c4c(F)cccc4F)c4nc(c(-c5c(F)cccc5F)c5ccc2[nH]5)C=C4)C=C3)cc1
REMARK SMILES IDX 24 1 23 2 21 3 22 4 20 6 19 7 18 8 3 9 4 10 5 11 6 12 17 13
REMARK SMILES IDX 7 14 2 15 1 16 8 17 9 19 10 20 15 21 11 22 14 23 16 24 12 25
REMARK SMILES IDX 13 26 25 27 26 28 27 29 28 30 29 32 30 33 31 34 83 35 32 36
REMARK SMILES IDX 82 37 33 38 34 39 35 40 76 41 36 42 81 43 75 44 77 45 37 46
REMARK SMILES IDX 80 47 74 48 73 49 38 51 64 52 47 53 63 54 48 55 51 56 62 57
REMARK SMILES IDX 78 58 49 59 50 60 61 62 79 63 52 64 39 65 40 66 45 67 41 68
REMARK SMILES IDX 42 69 44 70 46 71 43 72 65 73 66 74 71 75 67 76 68 77 70 78
REMARK SMILES IDX 72 79 69 80 53 81 54 82 59 83 55 84 56 85 58 86 60 87 57 88
REMARK H PARENT 23 5 8 18 27 31 77 50 51 61
REMARK Flexibility Score: inf
ROOT
ATOM      1  C   UNL     1       5.146  -0.178  -1.354  1.00  0.00     0.117 C 
ENDROOT
BRANCH   1   2
ATOM      2  N   UNL     1       4.300  -0.275  -0.182  1.00  0.00    -0.353 N 
ATOM      3  C   UNL     1       2.945  -0.216  -0.088  1.00  0.00     0.258 C 
ATOM      4  O   UNL     1       2.462  -0.158   1.044  1.00  0.00    -0.271 OA
ATOM      5  H   UNL     1       4.775  -0.403   0.670  1.00  0.00     0.163 HD
BRANCH   3   6
ATOM      6  C   UNL     1       2.076  -0.323  -1.356  1.00  0.00     0.331 C 
BRANCH   6   7
ATOM      7  O   UNL     1       1.396   0.710  -2.030  1.00  0.00    -0.467 OA
BRANCH   7   8
ATOM      8  C   UNL     1       1.299   1.950  -1.480  1.00  0.00     0.222 A 
ATOM      9  C   UNL     1       0.606   2.249  -0.315  1.00  0.00     0.035 A 
ATOM     10  C   UNL     1       0.592   3.611  -0.014  1.00  0.00     0.050 A 
ATOM     11  C   UNL     1      -0.035   4.190   1.222  1.00  0.00     0.067 C 
ATOM     12  N   UNL     1       1.048   4.553  -0.854  1.00  0.00    -0.218 NA
ATOM     13  N   UNL     1       1.758   2.900  -2.342  1.00  0.00    -0.177 NA
ATOM     14  C   UNL     1       1.581   4.185  -2.015  1.00  0.00     0.230 A 
BRANCH   9  15
ATOM     15  C   UNL     1      -0.137   1.326   0.619  1.00  0.00     0.040 C 
ATOM     16  C   UNL     1      -0.676  -0.019   0.162  1.00  0.00     0.009 C 
ENDBRANCH   9  15
BRANCH  14  17
ATOM     17  N   UNL     1       1.879   5.184  -2.954  1.00  0.00    -0.324 N 
ATOM     18  H   UNL     1       2.306   4.894  -3.792  1.00  0.00     0.170 HD
BRANCH  17  19
ATOM     19  C   UNL     1       1.625   6.566  -2.812  1.00  0.00     0.045 A 
ATOM     20  C   UNL     1       0.672   7.175  -3.649  1.00  0.00     0.047 A 
ATOM     21  C   UNL     1       2.191   7.335  -1.769  1.00  0.00    -0.027 A 
ATOM     22  C   UNL     1       0.263   8.493  -3.425  1.00  0.00     0.043 A 
ATOM     23  C   UNL     1       1.750   8.654  -1.547  1.00  0.00     0.007 A 
ATOM     24  C   UNL     1       3.281   6.790  -0.884  1.00  0.00     0.046 C 
ATOM     25  Cl  UNL     1      -0.927   9.210  -4.445  1.00  0.00    -0.084 Cl
ATOM     26  C   UNL     1       0.786   9.230  -2.368  1.00  0.00     0.021 A 
ENDBRANCH  17  19
ENDBRANCH  14  17
ENDBRANCH   7   8
ENDBRANCH   6   7
ENDBRANCH   3   6
ENDBRANCH   1   2
BRANCH   1  27
ATOM     27  C   UNL     1       5.765   1.206  -1.461  1.00  0.00     0.042 C 
BRANCH  27  28
ATOM     28  C   UNL     1       6.548   1.617  -0.219  1.00  0.00     0.118 C 
BRANCH  28  29
ATOM     29  N   UNL     1       7.591   0.656   0.130  1.00  0.00    -0.352 N 
ATOM     30  C   UNL     1       8.955   0.787   0.087  1.00  0.00     0.251 C 
ATOM     31  H   UNL     1       7.265  -0.218   0.444  1.00  0.00     0.163 HD
ATOM     32  O   UNL     1       9.676  -0.202   0.201  1.00  0.00    -0.269 OA
BRANCH  30  33
ATOM     33  C   UNL     1       9.550   2.120  -0.110  1.00  0.00     0.039 A 
ATOM     34  C   UNL     1      10.606   2.273  -1.010  1.00  0.00     0.014 A 
ATOM     35  C   UNL     1       9.053   3.219   0.593  1.00  0.00     0.014 A 
ATOM     36  C   UNL     1      11.117   3.548  -1.257  1.00  0.00     0.010 A 
ATOM     37  C   UNL     1       9.492   4.495   0.272  1.00  0.00     0.010 A 
ATOM     38  C   UNL     1      10.537   4.672  -0.646  1.00  0.00    -0.014 A 
BRANCH  38  39
ATOM     39  C   UNL     1      11.021   6.045  -0.925  1.00  0.00     0.031 A 
ATOM     40  C   UNL     1      11.585   6.877   0.193  1.00  0.00     0.074 A 
ATOM     41  C   UNL     1      10.878   6.567  -2.159  1.00  0.00     0.049 A 
ATOM     42  N   UNL     1      11.963   8.129   0.184  1.00  0.00    -0.248 NA
ATOM     43  C   UNL     1      11.706   6.224   1.507  1.00  0.00     0.031 C 
ATOM     44  C   UNL     1      10.302   5.874  -3.312  1.00  0.00     0.029 A 
ATOM     45  N   UNL     1      11.196   7.811  -2.643  1.00  0.00    -0.354 N 
ATOM     46  C   UNL     1      12.347   8.415   1.488  1.00  0.00     0.074 A 
ATOM     47  C   UNL     1      12.095   7.229   2.275  1.00  0.00     0.031 C 
ATOM     48  C   UNL     1      10.330   6.693  -4.376  1.00  0.00     0.029 A 
ATOM     49  C   UNL     1      10.881   7.982  -3.969  1.00  0.00     0.049 A 
ATOM     50  H   UNL     1      11.610   8.514  -2.092  1.00  0.00     0.167 HD
ATOM     51  C   UNL     1      12.886   9.556   1.980  1.00  0.00     0.037 A 
ATOM     52  C   UNL     1      11.012   9.061  -4.763  1.00  0.00     0.037 A 
ATOM     53  C   UNL     1      13.155  10.724   1.185  1.00  0.00     0.049 A 
ATOM     54  C   UNL     1      11.600  10.322  -4.189  1.00  0.00     0.074 A 
ATOM     55  C   UNL     1      13.751  11.911   1.571  1.00  0.00     0.029 A 
ATOM     56  N   UNL     1      12.840  10.852  -0.161  1.00  0.00    -0.354 N 
ATOM     57  N   UNL     1      12.022  10.559  -2.970  1.00  0.00    -0.248 NA
ATOM     58  C   UNL     1      11.735  11.464  -5.104  1.00  0.00     0.031 C 
ATOM     59  C   UNL     1      13.748  12.777   0.473  1.00  0.00     0.029 A 
ATOM     60  C   UNL     1      13.207  12.108  -0.613  1.00  0.00     0.049 A 
ATOM     61  H   UNL     1      12.418  10.153  -0.711  1.00  0.00     0.167 HD
ATOM     62  C   UNL     1      12.502  11.862  -2.980  1.00  0.00     0.074 A 
ATOM     63  C   UNL     1      12.331  12.359  -4.329  1.00  0.00     0.031 C 
ATOM     64  C   UNL     1      13.039  12.582  -1.964  1.00  0.00     0.037 A 
BRANCH  51  65
ATOM     65  C   UNL     1      13.217   9.589   3.444  1.00  0.00     0.057 A 
ATOM     66  C   UNL     1      14.245   8.808   3.990  1.00  0.00     0.134 A 
ATOM     67  C   UNL     1      12.515  10.429   4.317  1.00  0.00     0.134 A 
ATOM     68  F   UNL     1      14.950   7.971   3.213  1.00  0.00    -0.206 F 
ATOM     69  C   UNL     1      14.540   8.836   5.355  1.00  0.00     0.040 A 
ATOM     70  C   UNL     1      12.822  10.490   5.678  1.00  0.00     0.040 A 
ATOM     71  F   UNL     1      11.522  11.208   3.863  1.00  0.00    -0.206 F 
ATOM     72  C   UNL     1      13.832   9.685   6.201  1.00  0.00     0.006 A 
ENDBRANCH  51  65
BRANCH  52  73
ATOM     73  C   UNL     1      10.599   8.994  -6.188  1.00  0.00     0.057 A 
ATOM     74  C   UNL     1      11.547   9.042  -7.217  1.00  0.00     0.134 A 
ATOM     75  C   UNL     1       9.253   8.889  -6.557  1.00  0.00     0.134 A 
ATOM     76  F   UNL     1      12.851   9.158  -6.928  1.00  0.00    -0.206 F 
ATOM     77  C   UNL     1      11.171   9.012  -8.561  1.00  0.00     0.040 A 
ATOM     78  C   UNL     1       8.864   8.830  -7.897  1.00  0.00     0.040 A 
ATOM     79  F   UNL     1       8.296   8.828  -5.620  1.00  0.00    -0.206 F 
ATOM     80  C   UNL     1       9.825   8.901  -8.904  1.00  0.00     0.006 A 
ENDBRANCH  52  73
BRANCH  64  81
ATOM     81  C   UNL     1      13.524  13.967  -2.282  1.00  0.00     0.057 A 
ATOM     82  C   UNL     1      12.642  15.020  -2.555  1.00  0.00     0.134 A 
ATOM     83  C   UNL     1      14.895  14.258  -2.269  1.00  0.00     0.134 A 
ATOM     84  F   UNL     1      11.318  14.805  -2.595  1.00  0.00    -0.206 F 
ATOM     85  C   UNL     1      13.107  16.307  -2.829  1.00  0.00     0.040 A 
ATOM     86  C   UNL     1      15.369  15.548  -2.509  1.00  0.00     0.040 A 
ATOM     87  F   UNL     1      15.793  13.298  -2.004  1.00  0.00    -0.206 F 
ATOM     88  C   UNL     1      14.474  16.575  -2.798  1.00  0.00     0.006 A 
ENDBRANCH  64  81
ENDBRANCH  38  39
ENDBRANCH  30  33
ENDBRANCH  28  29
ENDBRANCH  27  28
ENDBRANCH   1  27
TORSDOF 15
