REMARK SMILES O=C(C[C@@H]([NH2+]Cc1cccnc1)C(=O)NCCCNC(=O)c1ccc(-c2c3nc(c(-c4c(F)cccc4F)c4ccc([nH]4)c(-c4c(F)cccc4F)c4nc(c(-c5c(F)cccc5F)c5ccc2[nH]5)C=C4)C=C3)cc1)Nc1ccc2ccccc2c1
REMARK SMILES IDX 16 1 15 2 13 3 14 4 4 6 3 7 2 8 1 9 76 10 77 12 78 13 86 14
REMARK SMILES IDX 79 15 85 16 80 17 84 18 81 19 83 20 82 21 5 22 6 25 7 26
REMARK SMILES IDX 8 27 12 28 9 29 11 30 10 31 17 32 18 33 19 34 20 35 21 37
REMARK SMILES IDX 22 38 23 39 75 40 24 41 74 42 25 43 26 44 27 45 68 46 28 47
REMARK SMILES IDX 73 48 67 49 69 50 29 51 72 52 66 53 65 54 30 56 56 57 39 58
REMARK SMILES IDX 55 59 40 60 43 61 54 62 70 63 41 64 42 65 53 67 71 68 44 69
REMARK SMILES IDX 31 70 32 71 37 72 33 73 34 74 36 75 38 76 35 77 57 78 58 79
REMARK SMILES IDX 63 80 59 81 60 82 62 83 64 84 61 85 45 86 46 87 51 88 47 89
REMARK SMILES IDX 48 90 50 91 52 92 49 93
REMARK H PARENT 15 5 76 11 5 23 5 24 19 36 69 55 43 66
REMARK Flexibility Score: inf
ROOT
ATOM      1  C   UNL     1       5.991  -1.354   1.743  1.00  0.00     0.118 C 
ENDROOT
BRANCH   1   2
ATOM      2  N   UNL     1       5.488  -2.625   1.254  1.00  0.00    -0.351 N 
ATOM      3  C   UNL     1       4.492  -2.895   0.363  1.00  0.00     0.278 C 
ATOM      4  O   UNL     1       4.258  -4.081   0.116  1.00  0.00    -0.268 OA
ATOM      5  H   UNL     1       5.939  -3.418   1.623  1.00  0.00     0.163 HD
BRANCH   3   6
ATOM      6  C   UNL     1       3.716  -1.768  -0.348  1.00  0.00     0.282 C 
BRANCH   6   7
ATOM      7  C   UNL     1       2.858  -0.993   0.677  1.00  0.00     0.175 C 
BRANCH   7   8
ATOM      8  C   UNL     1       2.027   0.128   0.079  1.00  0.00     0.230 C 
ATOM      9  O   UNL     1       0.802   0.093   0.074  1.00  0.00    -0.274 OA
ATOM     10  N   UNL     1       2.814   1.133  -0.464  1.00  0.00    -0.326 N 
ATOM     11  H   UNL     1       3.761   1.185  -0.202  1.00  0.00     0.169 HD
BRANCH  10  12
ATOM     12  C   UNL     1       2.313   2.077  -1.372  1.00  0.00     0.041 A 
ATOM     13  C   UNL     1       2.873   2.097  -2.648  1.00  0.00     0.027 A 
ATOM     14  C   UNL     1       1.312   2.985  -1.034  1.00  0.00     0.034 A 
ATOM     15  C   UNL     1       2.344   2.924  -3.632  1.00  0.00     0.011 A 
ATOM     16  C   UNL     1       0.880   3.938  -1.979  1.00  0.00    -0.016 A 
ATOM     17  C   UNL     1       1.355   3.855  -3.310  1.00  0.00    -0.018 A 
ATOM     18  C   UNL     1       0.013   4.990  -1.642  1.00  0.00     0.009 A 
ATOM     19  C   UNL     1       0.864   4.733  -4.285  1.00  0.00     0.009 A 
ATOM     20  C   UNL     1      -0.397   5.916  -2.606  1.00  0.00     0.001 A 
ATOM     21  C   UNL     1      -0.000   5.766  -3.932  1.00  0.00     0.001 A 
ENDBRANCH  10  12
ENDBRANCH   7   8
ENDBRANCH   6   7
BRANCH   6  22
ATOM     22  N   UNL     1       4.630  -0.892  -1.148  1.00  0.00    -0.332 N 
ATOM     23  H   UNL     1       5.191  -0.340  -0.499  1.00  0.00     0.347 HD
ATOM     24  H   UNL     1       4.034  -0.321  -1.746  1.00  0.00     0.347 HD
BRANCH  22  25
ATOM     25  C   UNL     1       5.548  -1.624  -2.045  1.00  0.00     0.299 C 
BRANCH  25  26
ATOM     26  C   UNL     1       4.849  -2.287  -3.198  1.00  0.00     0.024 A 
ATOM     27  C   UNL     1       4.806  -3.676  -3.326  1.00  0.00     0.013 A 
ATOM     28  C   UNL     1       4.194  -1.538  -4.173  1.00  0.00     0.120 A 
ATOM     29  C   UNL     1       4.096  -4.248  -4.378  1.00  0.00     0.021 A 
ATOM     30  N   UNL     1       3.490  -2.063  -5.198  1.00  0.00    -0.264 NA
ATOM     31  C   UNL     1       3.449  -3.409  -5.270  1.00  0.00     0.111 A 
ENDBRANCH  25  26
ENDBRANCH  22  25
ENDBRANCH   6  22
ENDBRANCH   3   6
ENDBRANCH   1   2
BRANCH   1  32
ATOM     32  C   UNL     1       5.596  -1.129   3.199  1.00  0.00     0.042 C 
BRANCH  32  33
ATOM     33  C   UNL     1       6.279  -2.087   4.166  1.00  0.00     0.118 C 
BRANCH  33  34
ATOM     34  N   UNL     1       7.717  -1.875   4.232  1.00  0.00    -0.352 N 
ATOM     35  C   UNL     1       8.508  -1.514   5.295  1.00  0.00     0.251 C 
ATOM     36  H   UNL     1       8.197  -2.013   3.383  1.00  0.00     0.163 HD
ATOM     37  O   UNL     1       9.670  -1.179   5.100  1.00  0.00    -0.269 OA
BRANCH  35  38
ATOM     38  C   UNL     1       7.955  -1.510   6.666  1.00  0.00     0.039 A 
ATOM     39  C   UNL     1       8.297  -0.463   7.526  1.00  0.00     0.014 A 
ATOM     40  C   UNL     1       7.122  -2.539   7.112  1.00  0.00     0.014 A 
ATOM     41  C   UNL     1       7.750  -0.416   8.810  1.00  0.00     0.010 A 
ATOM     42  C   UNL     1       6.510  -2.445   8.358  1.00  0.00     0.010 A 
ATOM     43  C   UNL     1       6.822  -1.386   9.223  1.00  0.00    -0.014 A 
BRANCH  43  44
ATOM     44  C   UNL     1       6.170  -1.311  10.555  1.00  0.00     0.031 A 
ATOM     45  C   UNL     1       6.387  -2.402  11.568  1.00  0.00     0.074 A 
ATOM     46  C   UNL     1       5.337  -0.290  10.831  1.00  0.00     0.049 A 
ATOM     47  N   UNL     1       5.860  -2.543  12.757  1.00  0.00    -0.248 NA
ATOM     48  C   UNL     1       7.297  -3.492  11.182  1.00  0.00     0.031 C 
ATOM     49  C   UNL     1       5.012   0.809   9.919  1.00  0.00     0.029 A 
ATOM     50  N   UNL     1       4.604  -0.013  11.958  1.00  0.00    -0.354 N 
ATOM     51  C   UNL     1       6.367  -3.737  13.256  1.00  0.00     0.074 A 
ATOM     52  C   UNL     1       7.191  -4.313  12.216  1.00  0.00     0.031 C 
ATOM     53  C   UNL     1       4.172   1.656  10.534  1.00  0.00     0.029 A 
ATOM     54  C   UNL     1       3.862   1.140  11.862  1.00  0.00     0.049 A 
ATOM     55  H   UNL     1       4.609  -0.586  12.758  1.00  0.00     0.167 HD
ATOM     56  C   UNL     1       6.184  -4.291  14.479  1.00  0.00     0.037 A 
ATOM     57  C   UNL     1       3.021   1.711  12.745  1.00  0.00     0.037 A 
ATOM     58  C   UNL     1       5.369  -3.710  15.514  1.00  0.00     0.049 A 
ATOM     59  C   UNL     1       2.804   1.056  14.081  1.00  0.00     0.074 A 
ATOM     60  C   UNL     1       5.154  -4.170  16.802  1.00  0.00     0.029 A 
ATOM     61  N   UNL     1       4.629  -2.545  15.377  1.00  0.00    -0.354 N 
ATOM     62  N   UNL     1       3.340  -0.038  14.564  1.00  0.00    -0.248 NA
ATOM     63  C   UNL     1       1.865   1.720  14.997  1.00  0.00     0.031 C 
ATOM     64  C   UNL     1       4.242  -3.312  17.425  1.00  0.00     0.029 A 
ATOM     65  C   UNL     1       3.936  -2.284  16.548  1.00  0.00     0.049 A 
ATOM     66  H   UNL     1       4.601  -1.985  14.568  1.00  0.00     0.167 HD
ATOM     67  C   UNL     1       2.833  -0.176  15.850  1.00  0.00     0.074 A 
ATOM     68  C   UNL     1       1.956   0.955  16.075  1.00  0.00     0.031 C 
ATOM     69  C   UNL     1       3.072  -1.150  16.762  1.00  0.00     0.037 A 
BRANCH  56  70
ATOM     70  C   UNL     1       6.879  -5.593  14.757  1.00  0.00     0.057 A 
ATOM     71  C   UNL     1       8.274  -5.679  14.870  1.00  0.00     0.134 A 
ATOM     72  C   UNL     1       6.146  -6.774  14.935  1.00  0.00     0.134 A 
ATOM     73  F   UNL     1       9.038  -4.589  14.699  1.00  0.00    -0.206 F 
ATOM     74  C   UNL     1       8.916  -6.895  15.114  1.00  0.00     0.040 A 
ATOM     75  C   UNL     1       6.775  -7.990  15.212  1.00  0.00     0.040 A 
ATOM     76  F   UNL     1       4.808  -6.766  14.849  1.00  0.00    -0.206 F 
ATOM     77  C   UNL     1       8.164  -8.054  15.292  1.00  0.00     0.006 A 
ENDBRANCH  56  70
BRANCH  57  78
ATOM     78  C   UNL     1       2.339   2.987  12.406  1.00  0.00     0.057 A 
ATOM     79  C   UNL     1       2.662   4.174  13.074  1.00  0.00     0.134 A 
ATOM     80  C   UNL     1       1.345   3.051  11.422  1.00  0.00     0.134 A 
ATOM     81  F   UNL     1       3.593   4.174  14.039  1.00  0.00    -0.206 F 
ATOM     82  C   UNL     1       2.006   5.374  12.793  1.00  0.00     0.040 A 
ATOM     83  C   UNL     1       0.701   4.249  11.111  1.00  0.00     0.040 A 
ATOM     84  F   UNL     1       0.996   1.951  10.740  1.00  0.00    -0.206 F 
ATOM     85  C   UNL     1       1.025   5.414  11.804  1.00  0.00     0.006 A 
ENDBRANCH  57  78
BRANCH  69  86
ATOM     86  C   UNL     1       2.412  -1.012  18.104  1.00  0.00     0.057 A 
ATOM     87  C   UNL     1       1.033  -1.188  18.277  1.00  0.00     0.134 A 
ATOM     88  C   UNL     1       3.176  -0.735  19.246  1.00  0.00     0.134 A 
ATOM     89  F   UNL     1       0.243  -1.442  17.223  1.00  0.00    -0.206 F 
ATOM     90  C   UNL     1       0.434  -1.066  19.532  1.00  0.00     0.040 A 
ATOM     91  C   UNL     1       2.593  -0.642  20.510  1.00  0.00     0.040 A 
ATOM     92  F   UNL     1       4.503  -0.565  19.154  1.00  0.00    -0.206 F 
ATOM     93  C   UNL     1       1.216  -0.800  20.654  1.00  0.00     0.006 A 
ENDBRANCH  69  86
ENDBRANCH  43  44
ENDBRANCH  35  38
ENDBRANCH  33  34
ENDBRANCH  32  33
ENDBRANCH   1  32
TORSDOF 16
