REMARK SMILES CC(C)[NH2+]CC[C@H](c1ccccc1)c1cc(C(=O)NCCCNC(=O)c2ccc(-c3c4nc(c(-c5c(F)cccc5F)c5ccc([nH]5)c(-c5c(F)cccc5F)c5nc(c(-c6c(F)cccc6F)c6ccc3[nH]6)C=C5)C=C4)cc2)ccc1O
REMARK SMILES IDX 17 1 18 2 19 3 16 5 14 6 15 7 82 8 81 9 80 10 7 11 6 12 5 13
REMARK SMILES IDX 4 14 2 17 1 18 3 19 8 20 9 21 13 22 10 23 12 24 11 25 83 26
REMARK SMILES IDX 20 28 21 29 22 30 23 31 24 32 25 34 26 35 27 36 79 37 28 38
REMARK SMILES IDX 78 39 29 40 30 41 31 42 72 43 32 44 77 45 71 46 73 47 33 48
REMARK SMILES IDX 76 49 70 50 69 51 34 53 60 54 43 55 59 56 44 57 47 58 58 59
REMARK SMILES IDX 74 60 45 61 46 62 57 64 75 65 48 66 35 67 36 68 41 69 37 70
REMARK SMILES IDX 38 71 40 72 42 73 39 74 61 75 62 76 67 77 63 78 64 79 66 80
REMARK SMILES IDX 68 81 65 82 49 83 50 84 55 85 51 86 52 87 54 88 56 89 53 90
REMARK H PARENT 19 4 4 15 4 16 83 27 23 33 73 52 47 63
REMARK Flexibility Score: inf
ROOT
ATOM      1  C   UNL     1       2.248   7.209   1.251  1.00  0.00     0.251 C 
ATOM      2  O   UNL     1       3.122   6.347   1.200  1.00  0.00    -0.269 OA
ATOM      3  N   UNL     1       2.553   8.467   1.726  1.00  0.00    -0.352 N 
ATOM      4  H   UNL     1       3.494   8.593   1.983  1.00  0.00     0.163 HD
ENDROOT
BRANCH   1   5
ATOM      5  C   UNL     1       0.855   6.877   0.873  1.00  0.00     0.040 A 
ATOM      6  C   UNL     1      -1.087   5.419   1.211  1.00  0.00     0.002 A 
ATOM      7  C   UNL     1       0.301   5.665   1.307  1.00  0.00     0.022 A 
ATOM      8  C   UNL     1      -1.865   6.494   0.764  1.00  0.00     0.119 A 
ATOM      9  C   UNL     1      -1.302   7.621   0.170  1.00  0.00     0.047 A 
ATOM     10  C   UNL     1       0.074   7.771   0.150  1.00  0.00     0.017 A 
BRANCH   6  11
ATOM     11  C   UNL     1      -1.603   3.985   1.430  1.00  0.00     0.059 C 
BRANCH  11  12
ATOM     12  C   UNL     1      -3.128   3.698   1.516  1.00  0.00     0.074 C 
BRANCH  12  13
ATOM     13  C   UNL     1      -4.036   3.872   0.272  1.00  0.00     0.261 C 
BRANCH  13  14
ATOM     14  N   UNL     1      -3.446   4.503  -0.915  1.00  0.00    -0.344 N 
ATOM     15  H   UNL     1      -3.759   5.473  -0.951  1.00  0.00     0.346 HD
ATOM     16  H   UNL     1      -2.433   4.421  -0.820  1.00  0.00     0.346 HD
BRANCH  14  17
ATOM     17  C   UNL     1      -3.809   3.853  -2.179  1.00  0.00     0.176 C 
ATOM     18  C   UNL     1      -3.311   4.755  -3.312  1.00  0.00     0.075 C 
ATOM     19  C   UNL     1      -3.150   2.475  -2.293  1.00  0.00     0.075 C 
ENDBRANCH  14  17
ENDBRANCH  13  14
ENDBRANCH  12  13
ENDBRANCH  11  12
BRANCH  11  20
ATOM     20  C   UNL     1      -0.920   3.274   2.608  1.00  0.00    -0.040 A 
ATOM     21  C   UNL     1      -1.099   3.717   3.927  1.00  0.00     0.004 A 
ATOM     22  C   UNL     1      -0.091   2.162   2.374  1.00  0.00     0.004 A 
ATOM     23  C   UNL     1      -0.458   3.066   4.983  1.00  0.00     0.000 A 
ATOM     24  C   UNL     1       0.549   1.516   3.432  1.00  0.00     0.000 A 
ATOM     25  C   UNL     1       0.366   1.969   4.736  1.00  0.00     0.000 A 
ENDBRANCH  11  20
ENDBRANCH   6  11
BRANCH   8  26
ATOM     26  O   UNL     1      -3.222   6.509   0.856  1.00  0.00    -0.508 OA
ATOM     27  H   UNL     1      -3.673   5.786   1.244  1.00  0.00     0.293 HD
ENDBRANCH   8  26
ENDBRANCH   1   5
BRANCH   3  28
ATOM     28  C   UNL     1       1.706   9.641   1.910  1.00  0.00     0.118 C 
BRANCH  28  29
ATOM     29  C   UNL     1       1.647  10.161   3.334  1.00  0.00     0.042 C 
BRANCH  29  30
ATOM     30  C   UNL     1       2.974  10.643   3.889  1.00  0.00     0.118 C 
BRANCH  30  31
ATOM     31  N   UNL     1       3.592  11.678   3.071  1.00  0.00    -0.352 N 
ATOM     32  C   UNL     1       3.740  13.031   3.247  1.00  0.00     0.251 C 
ATOM     33  H   UNL     1       3.977  11.343   2.230  1.00  0.00     0.163 HD
ATOM     34  O   UNL     1       4.148  13.705   2.304  1.00  0.00    -0.269 OA
BRANCH  32  35
ATOM     35  C   UNL     1       3.405  13.700   4.526  1.00  0.00     0.039 A 
ATOM     36  C   UNL     1       2.925  15.015   4.485  1.00  0.00     0.014 A 
ATOM     37  C   UNL     1       3.613  13.090   5.762  1.00  0.00     0.014 A 
ATOM     38  C   UNL     1       2.605  15.684   5.670  1.00  0.00     0.010 A 
ATOM     39  C   UNL     1       3.189  13.712   6.934  1.00  0.00     0.010 A 
ATOM     40  C   UNL     1       2.702  15.025   6.904  1.00  0.00    -0.014 A 
BRANCH  40  41
ATOM     41  C   UNL     1       2.336  15.703   8.174  1.00  0.00     0.031 A 
ATOM     42  C   UNL     1       3.370  15.908   9.251  1.00  0.00     0.074 A 
ATOM     43  C   UNL     1       1.062  16.084   8.385  1.00  0.00     0.049 A 
ATOM     44  N   UNL     1       3.229  16.424  10.446  1.00  0.00    -0.248 NA
ATOM     45  C   UNL     1       4.734  15.437   8.961  1.00  0.00     0.031 C 
ATOM     46  C   UNL     1      -0.050  15.882   7.453  1.00  0.00     0.029 A 
ATOM     47  N   UNL     1       0.485  16.718   9.456  1.00  0.00    -0.354 N 
ATOM     48  C   UNL     1       4.472  16.309  11.056  1.00  0.00     0.074 A 
ATOM     49  C   UNL     1       5.342  15.630  10.122  1.00  0.00     0.031 C 
ATOM     50  C   UNL     1      -1.165  16.416   7.977  1.00  0.00     0.029 A 
ATOM     51  C   UNL     1      -0.854  16.972   9.290  1.00  0.00     0.049 A 
ATOM     52  H   UNL     1       0.985  16.968  10.267  1.00  0.00     0.167 HD
ATOM     53  C   UNL     1       4.864  16.752  12.275  1.00  0.00     0.037 A 
ATOM     54  C   UNL     1      -1.730  17.593  10.101  1.00  0.00     0.037 A 
ATOM     55  C   UNL     1       4.017  17.478  13.183  1.00  0.00     0.049 A 
ATOM     56  C   UNL     1      -1.254  18.141  11.416  1.00  0.00     0.074 A 
ATOM     57  C   UNL     1       4.336  18.027  14.412  1.00  0.00     0.029 A 
ATOM     58  N   UNL     1       2.682  17.768  12.949  1.00  0.00    -0.354 N 
ATOM     59  N   UNL     1      -0.061  18.075  11.954  1.00  0.00    -0.248 NA
ATOM     60  C   UNL     1      -2.243  18.862  12.228  1.00  0.00     0.031 C 
ATOM     61  C   UNL     1       3.187  18.634  14.932  1.00  0.00     0.029 A 
ATOM     62  C   UNL     1       2.162  18.489  14.011  1.00  0.00     0.049 A 
ATOM     63  H   UNL     1       2.177  17.502  12.146  1.00  0.00     0.167 HD
ATOM     64  C   UNL     1      -0.148  18.767  13.155  1.00  0.00     0.074 A 
ATOM     65  C   UNL     1      -1.508  19.256  13.258  1.00  0.00     0.031 C 
ATOM     66  C   UNL     1       0.810  18.977  14.089  1.00  0.00     0.037 A 
BRANCH  53  67
ATOM     67  C   UNL     1       6.281  16.476  12.684  1.00  0.00     0.057 A 
ATOM     68  C   UNL     1       7.363  17.143  12.093  1.00  0.00     0.134 A 
ATOM     69  C   UNL     1       6.568  15.544  13.689  1.00  0.00     0.134 A 
ATOM     70  F   UNL     1       7.157  18.036  11.113  1.00  0.00    -0.206 F 
ATOM     71  C   UNL     1       8.680  16.873  12.466  1.00  0.00     0.040 A 
ATOM     72  C   UNL     1       7.880  15.284  14.089  1.00  0.00     0.040 A 
ATOM     73  F   UNL     1       5.580  14.873  14.299  1.00  0.00    -0.206 F 
ATOM     74  C   UNL     1       8.941  15.944  13.472  1.00  0.00     0.006 A 
ENDBRANCH  53  67
BRANCH  54  75
ATOM     75  C   UNL     1      -3.135  17.781   9.666  1.00  0.00     0.057 A 
ATOM     76  C   UNL     1      -3.599  19.041   9.268  1.00  0.00     0.134 A 
ATOM     77  C   UNL     1      -4.042  16.717   9.632  1.00  0.00     0.134 A 
ATOM     78  F   UNL     1      -2.778  20.101   9.295  1.00  0.00    -0.206 F 
ATOM     79  C   UNL     1      -4.921  19.240   8.870  1.00  0.00     0.040 A 
ATOM     80  C   UNL     1      -5.362  16.898   9.216  1.00  0.00     0.040 A 
ATOM     81  F   UNL     1      -3.654  15.485   9.992  1.00  0.00    -0.206 F 
ATOM     82  C   UNL     1      -5.806  18.164   8.839  1.00  0.00     0.006 A 
ENDBRANCH  54  75
BRANCH  66  83
ATOM     83  C   UNL     1       0.428  19.800  15.281  1.00  0.00     0.057 A 
ATOM     84  C   UNL     1      -0.382  19.287  16.302  1.00  0.00     0.134 A 
ATOM     85  C   UNL     1       0.893  21.113  15.418  1.00  0.00     0.134 A 
ATOM     86  F   UNL     1      -0.869  18.039  16.221  1.00  0.00    -0.206 F 
ATOM     87  C   UNL     1      -0.738  20.062  17.406  1.00  0.00     0.040 A 
ATOM     88  C   UNL     1       0.562  21.891  16.528  1.00  0.00     0.040 A 
ATOM     89  F   UNL     1       1.678  21.660  14.477  1.00  0.00    -0.206 F 
ATOM     90  C   UNL     1      -0.261  21.367  17.523  1.00  0.00     0.006 A 
ENDBRANCH  66  83
ENDBRANCH  40  41
ENDBRANCH  32  35
ENDBRANCH  30  31
ENDBRANCH  29  30
ENDBRANCH  28  29
ENDBRANCH   3  28
TORSDOF 17
