REMARK SMILES Nc1nonc1C(=O)N1[C@@H]2CC[C@H]1C[C@H](CC(=O)NCCCNC(=O)c1ccc(-c3c4nc(c(-c5c(F)cccc5F)c5ccc([nH]5)c(-c5c(F)cccc5F)c5nc(c(-c6c(F)cccc6F)c6ccc3[nH]6)C=C5)C=C4)cc1)C2
REMARK SMILES IDX 20 1 19 2 17 3 18 4 16 6 15 7 9 8 10 9 13 10 11 11 80 12
REMARK SMILES IDX 12 13 14 14 7 15 8 16 6 17 2 18 3 19 4 20 5 21 1 22 21 25
REMARK SMILES IDX 22 26 23 27 24 28 25 30 26 31 27 32 79 33 28 34 78 35 29 36
REMARK SMILES IDX 30 37 31 38 72 39 32 40 77 41 71 42 73 43 33 44 76 45 70 46
REMARK SMILES IDX 69 47 34 49 60 50 43 51 59 52 44 53 47 54 58 55 74 56 45 57
REMARK SMILES IDX 46 58 57 60 75 61 48 62 35 63 36 64 41 65 37 66 38 67 40 68
REMARK SMILES IDX 42 69 39 70 61 71 62 72 67 73 63 74 64 75 66 76 68 77 65 78
REMARK SMILES IDX 49 79 50 80 55 81 51 82 52 83 54 84 56 85 53 86
REMARK H PARENT 19 5 1 23 1 24 23 29 73 48 47 59
REMARK Flexibility Score: inf
ROOT
ATOM      1  C   UNL     1       5.405   0.690   0.305  1.00  0.00     0.117 C 
ENDROOT
BRANCH   1   2
ATOM      2  N   UNL     1       6.375  -0.213  -0.302  1.00  0.00    -0.356 N 
ATOM      3  C   UNL     1       6.247  -1.159  -1.276  1.00  0.00     0.220 C 
ATOM      4  O   UNL     1       7.240  -1.829  -1.564  1.00  0.00    -0.275 OA
ATOM      5  H   UNL     1       7.287  -0.124   0.057  1.00  0.00     0.163 HD
BRANCH   3   6
ATOM      6  C   UNL     1       4.924  -1.397  -1.977  1.00  0.00     0.103 C 
BRANCH   6   7
ATOM      7  C   UNL     1       4.189  -2.665  -1.489  1.00  0.00     0.002 C 
ATOM      8  N   UNL     1       1.530  -2.990  -0.427  1.00  0.00    -0.331 N 
ATOM      9  C   UNL     1       1.835  -3.704  -1.661  1.00  0.00     0.086 C 
ATOM     10  C   UNL     1       2.615  -3.349   0.467  1.00  0.00     0.086 C 
ATOM     11  C   UNL     1       2.336  -5.080  -1.187  1.00  0.00     0.027 C 
ATOM     12  C   UNL     1       2.940  -2.913  -2.376  1.00  0.00     0.029 C 
ATOM     13  C   UNL     1       2.808  -4.848   0.252  1.00  0.00     0.027 C 
ATOM     14  C   UNL     1       3.840  -2.550   0.010  1.00  0.00     0.029 C 
BRANCH   8  15
ATOM     15  C   UNL     1       0.215  -3.023   0.035  1.00  0.00     0.280 C 
ATOM     16  O   UNL     1      -0.294  -4.069   0.439  1.00  0.00    -0.267 OA
BRANCH  15  17
ATOM     17  C   UNL     1      -0.510  -1.757  -0.046  1.00  0.00     0.216 A 
ATOM     18  C   UNL     1      -0.067  -0.412   0.061  1.00  0.00     0.201 A 
ATOM     19  N   UNL     1      -1.099   0.412  -0.099  1.00  0.00    -0.032 NA
ATOM     20  O   UNL     1      -2.200  -0.410  -0.275  1.00  0.00    -0.242 OA
ATOM     21  N   UNL     1      -1.840  -1.747  -0.231  1.00  0.00    -0.042 NA
BRANCH  18  22
ATOM     22  N   UNL     1       1.175   0.027   0.326  1.00  0.00    -0.379 N 
ATOM     23  H   UNL     1       1.356   0.993   0.374  1.00  0.00     0.158 HD
ATOM     24  H   UNL     1       1.905  -0.618   0.472  1.00  0.00     0.158 HD
ENDBRANCH  18  22
ENDBRANCH  15  17
ENDBRANCH   8  15
ENDBRANCH   6   7
ENDBRANCH   3   6
ENDBRANCH   1   2
BRANCH   1  25
ATOM     25  C   UNL     1       5.011   0.253   1.718  1.00  0.00     0.042 C 
BRANCH  25  26
ATOM     26  C   UNL     1       6.102   0.440   2.765  1.00  0.00     0.118 C 
BRANCH  26  27
ATOM     27  N   UNL     1       5.925   1.670   3.513  1.00  0.00    -0.352 N 
ATOM     28  C   UNL     1       5.642   1.880   4.841  1.00  0.00     0.251 C 
ATOM     29  H   UNL     1       6.023   2.492   2.979  1.00  0.00     0.163 HD
ATOM     30  O   UNL     1       5.314   3.011   5.193  1.00  0.00    -0.269 OA
BRANCH  28  31
ATOM     31  C   UNL     1       5.714   0.795   5.858  1.00  0.00     0.039 A 
ATOM     32  C   UNL     1       4.848   0.867   6.958  1.00  0.00     0.014 A 
ATOM     33  C   UNL     1       6.672  -0.221   5.818  1.00  0.00     0.014 A 
ATOM     34  C   UNL     1       4.933  -0.073   7.992  1.00  0.00     0.010 A 
ATOM     35  C   UNL     1       6.708  -1.204   6.813  1.00  0.00     0.010 A 
ATOM     36  C   UNL     1       5.861  -1.122   7.928  1.00  0.00    -0.014 A 
BRANCH  36  37
ATOM     37  C   UNL     1       6.000  -2.087   9.052  1.00  0.00     0.031 A 
ATOM     38  C   UNL     1       7.262  -2.115   9.877  1.00  0.00     0.074 A 
ATOM     39  C   UNL     1       5.009  -2.955   9.332  1.00  0.00     0.049 A 
ATOM     40  N   UNL     1       7.575  -2.891  10.886  1.00  0.00    -0.248 NA
ATOM     41  C   UNL     1       8.320  -1.163   9.505  1.00  0.00     0.031 C 
ATOM     42  C   UNL     1       3.752  -3.074   8.592  1.00  0.00     0.029 A 
ATOM     43  N   UNL     1       4.905  -3.902  10.320  1.00  0.00    -0.354 N 
ATOM     44  C   UNL     1       8.871  -2.542  11.245  1.00  0.00     0.074 A 
ATOM     45  C   UNL     1       9.299  -1.507  10.329  1.00  0.00     0.031 C 
ATOM     46  C   UNL     1       2.992  -4.020   9.170  1.00  0.00     0.029 A 
ATOM     47  C   UNL     1       3.712  -4.582  10.309  1.00  0.00     0.049 A 
ATOM     48  H   UNL     1       5.619  -4.078  10.976  1.00  0.00     0.167 HD
ATOM     49  C   UNL     1       9.633  -3.022  12.257  1.00  0.00     0.037 A 
ATOM     50  C   UNL     1       3.245  -5.541  11.131  1.00  0.00     0.037 A 
ATOM     51  C   UNL     1       9.201  -4.007  13.212  1.00  0.00     0.049 A 
ATOM     52  C   UNL     1       4.077  -6.002  12.293  1.00  0.00     0.074 A 
ATOM     53  C   UNL     1       9.887  -4.511  14.304  1.00  0.00     0.029 A 
ATOM     54  N   UNL     1       7.962  -4.626  13.197  1.00  0.00    -0.354 N 
ATOM     55  N   UNL     1       5.281  -5.627  12.646  1.00  0.00    -0.248 NA
ATOM     56  C   UNL     1       3.476  -7.009  13.181  1.00  0.00     0.031 C 
ATOM     57  C   UNL     1       9.064  -5.444  14.945  1.00  0.00     0.029 A 
ATOM     58  C   UNL     1       7.861  -5.505  14.262  1.00  0.00     0.049 A 
ATOM     59  H   UNL     1       7.258  -4.465  12.528  1.00  0.00     0.167 HD
ATOM     60  C   UNL     1       5.573  -6.332  13.806  1.00  0.00     0.074 A 
ATOM     61  C   UNL     1       4.418  -7.152  14.103  1.00  0.00     0.031 C 
ATOM     62  C   UNL     1       6.700  -6.300  14.557  1.00  0.00     0.037 A 
BRANCH  49  63
ATOM     63  C   UNL     1      11.021  -2.473  12.389  1.00  0.00     0.057 A 
ATOM     64  C   UNL     1      11.259  -1.194  12.907  1.00  0.00     0.134 A 
ATOM     65  C   UNL     1      12.131  -3.240  12.017  1.00  0.00     0.134 A 
ATOM     66  F   UNL     1      10.235  -0.406  13.267  1.00  0.00    -0.206 F 
ATOM     67  C   UNL     1      12.553  -0.688  13.032  1.00  0.00     0.040 A 
ATOM     68  C   UNL     1      13.432  -2.753  12.155  1.00  0.00     0.040 A 
ATOM     69  F   UNL     1      11.970  -4.474  11.517  1.00  0.00    -0.206 F 
ATOM     70  C   UNL     1      13.645  -1.471  12.659  1.00  0.00     0.006 A 
ENDBRANCH  49  63
BRANCH  50  71
ATOM     71  C   UNL     1       1.887  -6.094  10.916  1.00  0.00     0.057 A 
ATOM     72  C   UNL     1       0.818  -5.705  11.731  1.00  0.00     0.134 A 
ATOM     73  C   UNL     1       1.628  -7.019   9.899  1.00  0.00     0.134 A 
ATOM     74  F   UNL     1       1.016  -4.836  12.733  1.00  0.00    -0.206 F 
ATOM     75  C   UNL     1      -0.463  -6.226  11.549  1.00  0.00     0.040 A 
ATOM     76  C   UNL     1       0.348  -7.536   9.697  1.00  0.00     0.040 A 
ATOM     77  F   UNL     1       2.614  -7.425   9.086  1.00  0.00    -0.206 F 
ATOM     78  C   UNL     1      -0.701  -7.141  10.526  1.00  0.00     0.006 A 
ENDBRANCH  50  71
BRANCH  62  79
ATOM     79  C   UNL     1       6.725  -7.150  15.789  1.00  0.00     0.057 A 
ATOM     80  C   UNL     1       6.948  -8.530  15.725  1.00  0.00     0.134 A 
ATOM     81  C   UNL     1       6.559  -6.575  17.055  1.00  0.00     0.134 A 
ATOM     82  F   UNL     1       7.103  -9.139  14.540  1.00  0.00    -0.206 F 
ATOM     83  C   UNL     1       6.989  -9.314  16.879  1.00  0.00     0.040 A 
ATOM     84  C   UNL     1       6.612  -7.346  18.216  1.00  0.00     0.040 A 
ATOM     85  F   UNL     1       6.346  -5.256  17.181  1.00  0.00    -0.206 F 
ATOM     86  C   UNL     1       6.825  -8.720  18.130  1.00  0.00     0.006 A 
ENDBRANCH  62  79
ENDBRANCH  36  37
ENDBRANCH  28  31
ENDBRANCH  26  27
ENDBRANCH  25  26
ENDBRANCH   1  25
TORSDOF 14
