REMARK SMILES Cc1nc(-c2ccccc2Cl)nc2sc(C(=O)NCCCNC(=O)c3ccc(-c4c5nc(c(-c6c(F)cccc6F)c6ccc([nH]6)c(-c6c(F)cccc6F)c6nc(c(-c7c(F)cccc7F)c7ccc4[nH]7)C=C6)C=C5)cc3)c(N)c12
REMARK SMILES IDX 20 1 19 2 18 3 16 4 17 5 15 7 1 8 2 9 3 10 81 11 4 12 13 13
REMARK SMILES IDX 79 14 12 15 14 16 5 17 6 18 10 19 7 20 9 21 11 22 8 23 80 24
REMARK SMILES IDX 21 27 22 28 23 29 24 31 25 32 26 33 78 34 27 35 77 36 28 37
REMARK SMILES IDX 29 38 30 39 71 40 31 41 76 42 70 43 72 44 32 45 75 46 69 47
REMARK SMILES IDX 68 48 33 50 59 51 42 52 58 53 43 54 46 55 57 56 73 57 44 58
REMARK SMILES IDX 45 59 56 61 74 62 47 63 34 64 35 65 40 66 36 67 37 68 39 69
REMARK SMILES IDX 41 70 38 71 60 72 61 73 66 74 62 75 63 76 65 77 67 78 64 79
REMARK SMILES IDX 48 80 49 81 54 82 50 83 51 84 53 85 55 86 52 87
REMARK H PARENT 18 6 80 25 80 26 22 30 72 49 46 60
REMARK Flexibility Score: inf
ROOT
ATOM      1  C   UNL     1      -5.292  -5.177  -0.135  1.00  0.00     0.042 C 
ENDROOT
BRANCH   1   2
ATOM      2  C   UNL     1      -5.088  -4.247  -1.342  1.00  0.00     0.118 C 
BRANCH   2   3
ATOM      3  N   UNL     1      -5.383  -2.848  -1.040  1.00  0.00    -0.351 N 
ATOM      4  C   UNL     1      -4.559  -1.806  -0.648  1.00  0.00     0.263 C 
ATOM      5  O   UNL     1      -5.072  -0.682  -0.672  1.00  0.00    -0.268 OA
ATOM      6  H   UNL     1      -6.332  -2.604  -1.130  1.00  0.00     0.163 HD
BRANCH   4   7
ATOM      7  C   UNL     1      -3.163  -2.015  -0.285  1.00  0.00     0.118 A 
ATOM      8  C   UNL     1       0.991   0.094  -0.048  1.00  0.00     0.067 C 
ATOM      9  C   UNL     1       0.528  -1.329  -0.029  1.00  0.00     0.052 A 
ATOM     10  N   UNL     1       1.502  -2.291   0.064  1.00  0.00    -0.233 NA
ATOM     11  C   UNL     1      -0.823  -1.736  -0.063  1.00  0.00     0.056 A 
ATOM     12  C   UNL     1       1.142  -3.582   0.183  1.00  0.00     0.162 A 
ATOM     13  C   UNL     1      -1.018  -3.085   0.154  1.00  0.00     0.130 A 
ATOM     14  C   UNL     1      -2.108  -1.103  -0.279  1.00  0.00     0.067 A 
ATOM     15  N   UNL     1      -0.102  -4.042   0.263  1.00  0.00    -0.217 NA
ATOM     16  S   UNL     1      -2.626  -3.486   0.385  1.00  0.00    -0.108 S 
BRANCH  12  17
ATOM     17  C   UNL     1       2.151  -4.631   0.261  1.00  0.00     0.038 A 
ATOM     18  C   UNL     1       2.247  -5.569  -0.791  1.00  0.00     0.013 A 
ATOM     19  C   UNL     1       2.898  -4.863   1.424  1.00  0.00     0.052 A 
ATOM     20  C   UNL     1       3.048  -6.706  -0.678  1.00  0.00     0.001 A 
ATOM     21  C   UNL     1       3.701  -6.004   1.535  1.00  0.00     0.021 A 
ATOM     22  Cl  UNL     1       2.799  -3.819   2.801  1.00  0.00    -0.084 Cl
ATOM     23  C   UNL     1       3.770  -6.926   0.490  1.00  0.00     0.002 A 
ENDBRANCH  12  17
BRANCH  14  24
ATOM     24  N   UNL     1      -2.286   0.213  -0.532  1.00  0.00    -0.397 N 
ATOM     25  H   UNL     1      -3.193   0.569  -0.668  1.00  0.00     0.156 HD
ATOM     26  H   UNL     1      -1.508   0.814  -0.581  1.00  0.00     0.156 HD
ENDBRANCH  14  24
ENDBRANCH   4   7
ENDBRANCH   2   3
ENDBRANCH   1   2
BRANCH   1  27
ATOM     27  C   UNL     1      -6.683  -5.769  -0.111  1.00  0.00     0.118 C 
BRANCH  27  28
ATOM     28  N   UNL     1      -6.879  -6.780  -1.153  1.00  0.00    -0.352 N 
ATOM     29  C   UNL     1      -7.977  -7.600  -1.349  1.00  0.00     0.251 C 
ATOM     30  H   UNL     1      -6.138  -6.891  -1.792  1.00  0.00     0.163 HD
ATOM     31  O   UNL     1      -7.911  -8.597  -2.043  1.00  0.00    -0.269 OA
BRANCH  29  32
ATOM     32  C   UNL     1      -9.242  -7.219  -0.697  1.00  0.00     0.039 A 
ATOM     33  C   UNL     1     -10.086  -8.162  -0.104  1.00  0.00     0.014 A 
ATOM     34  C   UNL     1      -9.543  -5.863  -0.656  1.00  0.00     0.014 A 
ATOM     35  C   UNL     1     -11.208  -7.710   0.585  1.00  0.00     0.010 A 
ATOM     36  C   UNL     1     -10.506  -5.414   0.195  1.00  0.00     0.010 A 
ATOM     37  C   UNL     1     -11.399  -6.329   0.733  1.00  0.00    -0.014 A 
BRANCH  37  38
ATOM     38  C   UNL     1     -12.484  -5.771   1.522  1.00  0.00     0.031 A 
ATOM     39  C   UNL     1     -12.438  -6.136   2.963  1.00  0.00     0.074 A 
ATOM     40  C   UNL     1     -13.258  -4.780   1.024  1.00  0.00     0.049 A 
ATOM     41  N   UNL     1     -13.307  -6.811   3.638  1.00  0.00    -0.248 NA
ATOM     42  C   UNL     1     -11.205  -5.838   3.716  1.00  0.00     0.031 C 
ATOM     43  C   UNL     1     -13.162  -4.111  -0.283  1.00  0.00     0.029 A 
ATOM     44  N   UNL     1     -14.236  -4.067   1.641  1.00  0.00    -0.354 N 
ATOM     45  C   UNL     1     -12.835  -6.836   4.948  1.00  0.00     0.074 A 
ATOM     46  C   UNL     1     -11.463  -6.404   4.896  1.00  0.00     0.031 C 
ATOM     47  C   UNL     1     -13.871  -2.961  -0.264  1.00  0.00     0.029 A 
ATOM     48  C   UNL     1     -14.609  -2.897   0.981  1.00  0.00     0.049 A 
ATOM     49  H   UNL     1     -14.649  -4.355   2.487  1.00  0.00     0.167 HD
ATOM     50  C   UNL     1     -13.684  -6.964   6.004  1.00  0.00     0.037 A 
ATOM     51  C   UNL     1     -15.441  -1.941   1.468  1.00  0.00     0.037 A 
ATOM     52  C   UNL     1     -14.976  -7.438   5.581  1.00  0.00     0.049 A 
ATOM     53  C   UNL     1     -16.203  -2.564   2.580  1.00  0.00     0.074 A 
ATOM     54  C   UNL     1     -15.424  -8.583   4.951  1.00  0.00     0.029 A 
ATOM     55  N   UNL     1     -15.972  -6.506   5.411  1.00  0.00    -0.354 N 
ATOM     56  N   UNL     1     -17.074  -3.520   2.411  1.00  0.00    -0.248 NA
ATOM     57  C   UNL     1     -15.630  -2.463   3.913  1.00  0.00     0.031 C 
ATOM     58  C   UNL     1     -16.407  -8.130   4.022  1.00  0.00     0.029 A 
ATOM     59  C   UNL     1     -16.567  -6.755   4.198  1.00  0.00     0.049 A 
ATOM     60  H   UNL     1     -16.214  -5.791   6.042  1.00  0.00     0.167 HD
ATOM     61  C   UNL     1     -16.847  -4.394   3.463  1.00  0.00     0.074 A 
ATOM     62  C   UNL     1     -15.985  -3.660   4.390  1.00  0.00     0.031 C 
ATOM     63  C   UNL     1     -17.122  -5.727   3.347  1.00  0.00     0.037 A 
BRANCH  50  64
ATOM     64  C   UNL     1     -13.452  -6.329   7.350  1.00  0.00     0.057 A 
ATOM     65  C   UNL     1     -14.245  -6.708   8.446  1.00  0.00     0.134 A 
ATOM     66  C   UNL     1     -12.661  -5.179   7.552  1.00  0.00     0.134 A 
ATOM     67  F   UNL     1     -15.071  -7.762   8.364  1.00  0.00    -0.206 F 
ATOM     68  C   UNL     1     -14.270  -5.978   9.641  1.00  0.00     0.040 A 
ATOM     69  C   UNL     1     -12.636  -4.475   8.758  1.00  0.00     0.040 A 
ATOM     70  F   UNL     1     -11.950  -4.617   6.566  1.00  0.00    -0.206 F 
ATOM     71  C   UNL     1     -13.462  -4.858   9.801  1.00  0.00     0.006 A 
ENDBRANCH  50  64
BRANCH  51  72
ATOM     72  C   UNL     1     -15.387  -0.470   1.291  1.00  0.00     0.057 A 
ATOM     73  C   UNL     1     -16.476   0.336   1.657  1.00  0.00     0.134 A 
ATOM     74  C   UNL     1     -14.174   0.201   1.061  1.00  0.00     0.134 A 
ATOM     75  F   UNL     1     -17.668  -0.214   1.927  1.00  0.00    -0.206 F 
ATOM     76  C   UNL     1     -16.355   1.722   1.829  1.00  0.00     0.040 A 
ATOM     77  C   UNL     1     -14.041   1.585   1.226  1.00  0.00     0.040 A 
ATOM     78  F   UNL     1     -13.055  -0.474   0.763  1.00  0.00    -0.206 F 
ATOM     79  C   UNL     1     -15.130   2.349   1.631  1.00  0.00     0.006 A 
ENDBRANCH  51  72
BRANCH  63  80
ATOM     80  C   UNL     1     -17.866  -6.190   2.119  1.00  0.00     0.057 A 
ATOM     81  C   UNL     1     -17.366  -6.103   0.808  1.00  0.00     0.134 A 
ATOM     82  C   UNL     1     -19.061  -6.896   2.283  1.00  0.00     0.134 A 
ATOM     83  F   UNL     1     -16.184  -5.531   0.553  1.00  0.00    -0.206 F 
ATOM     84  C   UNL     1     -18.039  -6.660  -0.285  1.00  0.00     0.040 A 
ATOM     85  C   UNL     1     -19.727  -7.486   1.205  1.00  0.00     0.040 A 
ATOM     86  F   UNL     1     -19.577  -7.071   3.510  1.00  0.00    -0.206 F 
ATOM     87  C   UNL     1     -19.221  -7.363  -0.086  1.00  0.00     0.006 A 
ENDBRANCH  63  80
ENDBRANCH  37  38
ENDBRANCH  29  32
ENDBRANCH  27  28
ENDBRANCH   1  27
TORSDOF 12
