REMARK SMILES CC[C@H](C)[C@H](NC(=O)[C@H](C)Oc1ccc2c(C)c(C)c(=O)oc2c1C)C(=O)NCCCNC(=O)c1ccc(-c2c3nc(c(-c4c(F)cccc4F)c4ccc([nH]4)c(-c4c(F)cccc4F)c4nc(c(-c5c(F)cccc5F)c5ccc2[nH]5)C=C4)C=C3)cc1
REMARK SMILES IDX 29 1 28 2 26 3 27 4 5 6 3 7 4 8 2 9 1 10 6 11 7 12 8 14 9 15
REMARK SMILES IDX 10 16 11 17 12 18 13 19 24 20 14 21 23 22 25 23 15 24 22 25
REMARK SMILES IDX 16 26 20 27 17 28 18 29 21 30 19 31 30 32 31 33 32 34 33 35
REMARK SMILES IDX 34 37 35 38 36 39 88 40 37 41 87 42 38 43 39 44 40 45 81 46
REMARK SMILES IDX 41 47 86 48 80 49 82 50 42 51 85 52 79 53 78 54 43 56 69 57
REMARK SMILES IDX 52 58 68 59 53 60 56 61 67 62 83 63 54 64 55 65 66 67 84 68
REMARK SMILES IDX 57 69 44 70 45 71 50 72 46 73 47 74 49 75 51 76 48 77 70 78
REMARK SMILES IDX 71 79 76 80 72 81 73 82 75 83 77 84 74 85 58 86 59 87 64 88
REMARK SMILES IDX 60 89 61 90 63 91 65 92 62 93
REMARK H PARENT 28 5 6 13 32 36 82 55 56 66
REMARK Flexibility Score: inf
ROOT
ATOM      1  C   UNL     1       1.338  -3.133  -4.134  1.00  0.00     0.117 C 
ENDROOT
BRANCH   1   2
ATOM      2  N   UNL     1       2.463  -3.675  -5.023  1.00  0.00    -0.354 N 
ATOM      3  C   UNL     1       3.574  -4.497  -5.027  1.00  0.00     0.242 C 
ATOM      4  O   UNL     1       4.505  -4.295  -5.809  1.00  0.00    -0.273 OA
ATOM      5  H   UNL     1       2.353  -3.298  -5.925  1.00  0.00     0.163 HD
BRANCH   3   6
ATOM      6  C   UNL     1       3.725  -5.737  -4.185  1.00  0.00     0.174 C 
BRANCH   6   7
ATOM      7  C   UNL     1       3.667  -6.953  -5.153  1.00  0.00     0.018 C 
ATOM      8  C   UNL     1       2.650  -6.740  -6.298  1.00  0.00     0.010 C 
BRANCH   7   9
ATOM      9  C   UNL     1       5.056  -7.225  -5.827  1.00  0.00     0.002 C 
ATOM     10  C   UNL     1       6.235  -7.406  -4.877  1.00  0.00     0.004 C 
ENDBRANCH   7   9
ENDBRANCH   6   7
BRANCH   6  11
ATOM     11  N   UNL     1       2.785  -5.564  -3.144  1.00  0.00    -0.341 N 
ATOM     12  C   UNL     1       2.886  -4.426  -2.369  1.00  0.00     0.261 C 
ATOM     13  H   UNL     1       2.081  -6.232  -2.977  1.00  0.00     0.164 HD
ATOM     14  O   UNL     1       2.163  -4.392  -1.368  1.00  0.00    -0.271 OA
BRANCH  12  15
ATOM     15  C   UNL     1       3.984  -3.139  -2.802  1.00  0.00     0.258 C 
ATOM     16  C   UNL     1       4.398  -2.785  -1.307  1.00  0.00     0.064 C 
BRANCH  15  17
ATOM     17  O   UNL     1       4.173  -1.981  -3.948  1.00  0.00    -0.480 OA
BRANCH  17  18
ATOM     18  C   UNL     1       3.403  -1.246  -4.945  1.00  0.00     0.127 A 
ATOM     19  C   UNL     1       2.474  -0.226  -4.662  1.00  0.00     0.047 A 
ATOM     20  C   UNL     1       3.541  -1.320  -6.360  1.00  0.00     0.035 A 
ATOM     21  C   UNL     1       1.571   0.445  -5.510  1.00  0.00     0.016 A 
ATOM     22  C   UNL     1       2.539  -0.708  -7.250  1.00  0.00     0.145 A 
ATOM     23  C   UNL     1       4.655  -2.035  -7.062  1.00  0.00     0.052 C 
ATOM     24  C   UNL     1       1.536   0.154  -6.835  1.00  0.00     0.021 A 
ATOM     25  O   UNL     1       2.547  -1.043  -8.631  1.00  0.00    -0.422 OA
ATOM     26  C   UNL     1       0.546   0.756  -7.735  1.00  0.00    -0.030 A 
ATOM     27  C   UNL     1       1.560  -0.609  -9.524  1.00  0.00     0.339 A 
ATOM     28  C   UNL     1      -0.447   1.751  -7.164  1.00  0.00     0.045 C 
ATOM     29  C   UNL     1       0.561   0.383  -9.028  1.00  0.00     0.038 A 
ATOM     30  O   UNL     1       1.525  -1.026 -10.676  1.00  0.00    -0.246 OA
ATOM     31  C   UNL     1      -0.419   0.933 -10.032  1.00  0.00     0.052 C 
ENDBRANCH  17  18
ENDBRANCH  15  17
ENDBRANCH  12  15
ENDBRANCH   6  11
ENDBRANCH   3   6
ENDBRANCH   1   2
BRANCH   1  32
ATOM     32  C   UNL     1       1.296  -2.025  -2.831  1.00  0.00     0.042 C 
BRANCH  32  33
ATOM     33  C   UNL     1       2.158  -0.868  -1.931  1.00  0.00     0.118 C 
BRANCH  33  34
ATOM     34  N   UNL     1       3.594  -0.381  -2.188  1.00  0.00    -0.352 N 
ATOM     35  C   UNL     1       4.249   0.820  -2.389  1.00  0.00     0.251 C 
ATOM     36  H   UNL     1       4.223  -1.137  -2.219  1.00  0.00     0.163 HD
ATOM     37  O   UNL     1       5.388   0.888  -2.842  1.00  0.00    -0.269 OA
BRANCH  35  38
ATOM     38  C   UNL     1       3.489   2.020  -2.144  1.00  0.00     0.039 A 
ATOM     39  C   UNL     1       2.984   2.763  -3.224  1.00  0.00     0.014 A 
ATOM     40  C   UNL     1       3.007   2.091  -0.851  1.00  0.00     0.014 A 
ATOM     41  C   UNL     1       1.826   3.490  -3.019  1.00  0.00     0.010 A 
ATOM     42  C   UNL     1       1.829   2.753  -0.671  1.00  0.00     0.010 A 
ATOM     43  C   UNL     1       1.234   3.432  -1.753  1.00  0.00    -0.014 A 
BRANCH  43  44
ATOM     44  C   UNL     1       0.047   4.202  -1.401  1.00  0.00     0.031 A 
ATOM     45  C   UNL     1       0.287   5.354  -0.485  1.00  0.00     0.074 A 
ATOM     46  C   UNL     1      -1.170   3.725  -1.700  1.00  0.00     0.049 A 
ATOM     47  N   UNL     1      -0.558   6.005   0.258  1.00  0.00    -0.248 NA
ATOM     48  C   UNL     1       1.699   5.757  -0.313  1.00  0.00     0.031 C 
ATOM     49  C   UNL     1      -1.459   2.553  -2.532  1.00  0.00     0.029 A 
ATOM     50  N   UNL     1      -2.397   4.154  -1.284  1.00  0.00    -0.354 N 
ATOM     51  C   UNL     1       0.222   6.883   0.993  1.00  0.00     0.074 A 
ATOM     52  C   UNL     1       1.606   6.604   0.695  1.00  0.00     0.031 C 
ATOM     53  C   UNL     1      -2.791   2.363  -2.567  1.00  0.00     0.029 A 
ATOM     54  C   UNL     1      -3.433   3.376  -1.736  1.00  0.00     0.049 A 
ATOM     55  H   UNL     1      -2.526   4.946  -0.714  1.00  0.00     0.167 HD
ATOM     56  C   UNL     1      -0.193   7.874   1.809  1.00  0.00     0.037 A 
ATOM     57  C   UNL     1      -4.746   3.495  -1.480  1.00  0.00     0.037 A 
ATOM     58  C   UNL     1      -1.578   8.126   2.075  1.00  0.00     0.049 A 
ATOM     59  C   UNL     1      -5.184   4.606  -0.559  1.00  0.00     0.074 A 
ATOM     60  C   UNL     1      -2.148   9.103   2.864  1.00  0.00     0.029 A 
ATOM     61  N   UNL     1      -2.616   7.378   1.533  1.00  0.00    -0.354 N 
ATOM     62  N   UNL     1      -4.455   5.487   0.087  1.00  0.00    -0.248 NA
ATOM     63  C   UNL     1      -6.629   4.745  -0.342  1.00  0.00     0.031 C 
ATOM     64  C   UNL     1      -3.538   8.938   2.809  1.00  0.00     0.029 A 
ATOM     65  C   UNL     1      -3.829   7.878   1.961  1.00  0.00     0.049 A 
ATOM     66  H   UNL     1      -2.503   6.606   0.933  1.00  0.00     0.167 HD
ATOM     67  C   UNL     1      -5.353   6.311   0.753  1.00  0.00     0.074 A 
ATOM     68  C   UNL     1      -6.679   5.829   0.417  1.00  0.00     0.031 C 
ATOM     69  C   UNL     1      -5.119   7.368   1.571  1.00  0.00     0.037 A 
BRANCH  56  70
ATOM     70  C   UNL     1       0.876   8.738   2.399  1.00  0.00     0.057 A 
ATOM     71  C   UNL     1       1.190   8.678   3.759  1.00  0.00     0.134 A 
ATOM     72  C   UNL     1       1.656   9.580   1.589  1.00  0.00     0.134 A 
ATOM     73  F   UNL     1       0.496   7.880   4.585  1.00  0.00    -0.206 F 
ATOM     74  C   UNL     1       2.247   9.417   4.293  1.00  0.00     0.040 A 
ATOM     75  C   UNL     1       2.734  10.298   2.104  1.00  0.00     0.040 A 
ATOM     76  F   UNL     1       1.430   9.650   0.267  1.00  0.00    -0.206 F 
ATOM     77  C   UNL     1       3.029  10.220   3.463  1.00  0.00     0.006 A 
ENDBRANCH  56  70
BRANCH  57  78
ATOM     78  C   UNL     1      -5.742   2.604  -2.123  1.00  0.00     0.057 A 
ATOM     79  C   UNL     1      -5.888   1.262  -1.762  1.00  0.00     0.134 A 
ATOM     80  C   UNL     1      -6.624   3.111  -3.088  1.00  0.00     0.134 A 
ATOM     81  F   UNL     1      -5.066   0.709  -0.859  1.00  0.00    -0.206 F 
ATOM     82  C   UNL     1      -6.891   0.462  -2.317  1.00  0.00     0.040 A 
ATOM     83  C   UNL     1      -7.645   2.332  -3.632  1.00  0.00     0.040 A 
ATOM     84  F   UNL     1      -6.538   4.395  -3.469  1.00  0.00    -0.206 F 
ATOM     85  C   UNL     1      -7.782   1.002  -3.243  1.00  0.00     0.006 A 
ENDBRANCH  57  78
BRANCH  69  86
ATOM     86  C   UNL     1      -6.324   8.086   2.093  1.00  0.00     0.057 A 
ATOM     87  C   UNL     1      -6.650   9.360   1.611  1.00  0.00     0.134 A 
ATOM     88  C   UNL     1      -7.146   7.530   3.080  1.00  0.00     0.134 A 
ATOM     89  F   UNL     1      -5.893   9.948   0.672  1.00  0.00    -0.206 F 
ATOM     90  C   UNL     1      -7.758  10.055   2.091  1.00  0.00     0.040 A 
ATOM     91  C   UNL     1      -8.274   8.203   3.546  1.00  0.00     0.040 A 
ATOM     92  F   UNL     1      -6.891   6.306   3.567  1.00  0.00    -0.206 F 
ATOM     93  C   UNL     1      -8.579   9.472   3.054  1.00  0.00     0.006 A 
ENDBRANCH  69  86
ENDBRANCH  43  44
ENDBRANCH  35  38
ENDBRANCH  33  34
ENDBRANCH  32  33
ENDBRANCH   1  32
TORSDOF 16
