REMARK SMILES Cc1cccc(NC(=O)COc2ccc(N3C[C@@H](C(=O)NCCCNC(=O)c4ccc(-c5c6nc(c(-c7c(F)cccc7F)c7ccc([nH]7)c(-c7c(F)cccc7F)c7nc(c(-c8c(F)cccc8F)c8ccc5[nH]8)C=C7)C=C6)cc4)CC3=O)cc2)c1
REMARK SMILES IDX 19 1 20 2 21 3 18 5 16 6 17 7 83 8 82 9 84 10 15 11 12 12
REMARK SMILES IDX 13 13 86 14 14 15 85 16 11 17 10 18 8 19 7 20 9 22 6 23 1 24
REMARK SMILES IDX 2 25 3 26 87 27 4 28 5 29 22 30 23 31 24 32 25 33 26 34
REMARK SMILES IDX 27 36 28 37 29 38 81 39 30 40 80 41 31 42 32 43 33 44 74 45
REMARK SMILES IDX 34 46 79 47 73 48 75 49 35 50 78 51 72 52 71 53 36 55 62 56
REMARK SMILES IDX 45 57 61 58 46 59 49 60 60 61 76 62 47 63 48 64 59 66 77 67
REMARK SMILES IDX 50 68 37 69 38 70 43 71 39 72 40 73 42 74 44 75 41 76 63 77
REMARK SMILES IDX 64 78 69 79 65 80 66 81 68 82 70 83 67 84 51 85 52 86 57 87
REMARK SMILES IDX 53 88 54 89 56 90 58 91 55 92
REMARK H PARENT 21 4 7 21 25 35 75 54 49 65
REMARK Flexibility Score: inf
ROOT
ATOM      1  C   UNL     1      -7.032   3.293  -8.946  1.00  0.00     0.225 C 
ATOM      2  O   UNL     1      -7.682   2.963  -9.943  1.00  0.00    -0.275 OA
ATOM      3  N   UNL     1      -7.456   4.394  -8.273  1.00  0.00    -0.356 N 
ATOM      4  H   UNL     1      -8.236   4.833  -8.682  1.00  0.00     0.163 HD
ENDROOT
BRANCH   1   5
ATOM      5  C   UNL     1      -5.824   2.468  -8.543  1.00  0.00     0.107 C 
ATOM      6  N   UNL     1      -4.781   2.248  -6.437  1.00  0.00    -0.312 N 
ATOM      7  C   UNL     1      -5.943   1.821  -7.179  1.00  0.00     0.139 C 
ATOM      8  C   UNL     1      -3.958   3.111  -7.165  1.00  0.00     0.227 C 
ATOM      9  C   UNL     1      -4.508   3.221  -8.564  1.00  0.00     0.116 C 
ATOM     10  O   UNL     1      -2.940   3.668  -6.814  1.00  0.00    -0.274 OA
BRANCH   6  11
ATOM     11  C   UNL     1      -4.579   1.864  -5.090  1.00  0.00     0.044 A 
ATOM     12  C   UNL     1      -4.252   1.112  -2.393  1.00  0.00     0.120 A 
ATOM     13  C   UNL     1      -4.883   0.256  -3.292  1.00  0.00     0.048 A 
ATOM     14  C   UNL     1      -3.754   2.328  -2.847  1.00  0.00     0.048 A 
ATOM     15  C   UNL     1      -5.072   0.640  -4.622  1.00  0.00     0.030 A 
ATOM     16  C   UNL     1      -3.900   2.691  -4.192  1.00  0.00     0.030 A 
BRANCH  12  17
ATOM     17  O   UNL     1      -4.108   0.620  -1.131  1.00  0.00    -0.484 OA
BRANCH  17  18
ATOM     18  C   UNL     1      -4.261   1.532  -0.059  1.00  0.00     0.329 C 
BRANCH  18  19
ATOM     19  C   UNL     1      -3.144   2.520   0.269  1.00  0.00     0.262 C 
ATOM     20  N   UNL     1      -1.828   2.181   0.322  1.00  0.00    -0.323 N 
ATOM     21  H   UNL     1      -1.241   2.960   0.455  1.00  0.00     0.170 HD
ATOM     22  O   UNL     1      -3.426   3.707   0.485  1.00  0.00    -0.271 OA
BRANCH  20  23
ATOM     23  C   UNL     1      -1.114   0.975   0.229  1.00  0.00     0.041 A 
ATOM     24  C   UNL     1       2.600   0.109  -0.071  1.00  0.00     0.044 C 
ATOM     25  C   UNL     1       1.110  -0.033   0.026  1.00  0.00    -0.049 A 
ATOM     26  C   UNL     1       0.528  -1.301   0.036  1.00  0.00     0.003 A 
ATOM     27  C   UNL     1       0.282   1.095   0.120  1.00  0.00     0.029 A 
ATOM     28  C   UNL     1      -0.852  -1.434   0.162  1.00  0.00     0.002 A 
ATOM     29  C   UNL     1      -1.666  -0.302   0.274  1.00  0.00     0.026 A 
ENDBRANCH  20  23
ENDBRANCH  18  19
ENDBRANCH  17  18
ENDBRANCH  12  17
ENDBRANCH   6  11
ENDBRANCH   1   5
BRANCH   3  30
ATOM     30  C   UNL     1      -6.978   5.048  -7.064  1.00  0.00     0.117 C 
BRANCH  30  31
ATOM     31  C   UNL     1      -6.102   6.257  -7.355  1.00  0.00     0.042 C 
BRANCH  31  32
ATOM     32  C   UNL     1      -6.873   7.479  -7.819  1.00  0.00     0.118 C 
BRANCH  32  33
ATOM     33  N   UNL     1      -7.350   8.333  -6.739  1.00  0.00    -0.352 N 
ATOM     34  C   UNL     1      -7.892   9.606  -6.776  1.00  0.00     0.251 C 
ATOM     35  H   UNL     1      -7.275   7.941  -5.839  1.00  0.00     0.163 HD
ATOM     36  O   UNL     1      -8.155  10.173  -5.718  1.00  0.00    -0.269 OA
BRANCH  34  37
ATOM     37  C   UNL     1      -8.351  10.203  -8.059  1.00  0.00     0.039 A 
ATOM     38  C   UNL     1      -9.590  10.860  -8.023  1.00  0.00     0.014 A 
ATOM     39  C   UNL     1      -7.832   9.774  -9.271  1.00  0.00     0.014 A 
ATOM     40  C   UNL     1     -10.451  10.732  -9.101  1.00  0.00     0.010 A 
ATOM     41  C   UNL     1      -8.722   9.493 -10.271  1.00  0.00     0.010 A 
ATOM     42  C   UNL     1     -10.047   9.907 -10.139  1.00  0.00    -0.014 A 
BRANCH  42  43
ATOM     43  C   UNL     1     -10.919   9.399 -11.169  1.00  0.00     0.031 A 
ATOM     44  C   UNL     1     -10.922  10.096 -12.455  1.00  0.00     0.074 A 
ATOM     45  C   UNL     1     -11.485   8.190 -10.970  1.00  0.00     0.049 A 
ATOM     46  N   UNL     1     -11.846   9.980 -13.335  1.00  0.00    -0.248 NA
ATOM     47  C   UNL     1      -9.859  11.020 -12.843  1.00  0.00     0.031 C 
ATOM     48  C   UNL     1     -12.093   7.289 -11.941  1.00  0.00     0.029 A 
ATOM     49  N   UNL     1     -11.774   7.601  -9.733  1.00  0.00    -0.354 N 
ATOM     50  C   UNL     1     -11.352  10.513 -14.503  1.00  0.00     0.074 A 
ATOM     51  C   UNL     1     -10.167  11.243 -14.122  1.00  0.00     0.031 C 
ATOM     52  C   UNL     1     -12.927   6.456 -11.290  1.00  0.00     0.029 A 
ATOM     53  C   UNL     1     -13.001   6.921  -9.914  1.00  0.00     0.049 A 
ATOM     54  H   UNL     1     -11.237   7.650  -8.910  1.00  0.00     0.167 HD
ATOM     55  C   UNL     1     -11.915  10.119 -15.678  1.00  0.00     0.037 A 
ATOM     56  C   UNL     1     -14.123   7.414  -9.305  1.00  0.00     0.037 A 
ATOM     57  C   UNL     1     -13.027   9.200 -15.424  1.00  0.00     0.049 A 
ATOM     58  C   UNL     1     -15.158   7.954 -10.282  1.00  0.00     0.074 A 
ATOM     59  C   UNL     1     -13.156   7.820 -15.421  1.00  0.00     0.029 A 
ATOM     60  N   UNL     1     -14.116   9.675 -14.720  1.00  0.00    -0.354 N 
ATOM     61  N   UNL     1     -14.978   8.064 -11.571  1.00  0.00    -0.248 NA
ATOM     62  C   UNL     1     -16.447   8.498  -9.860  1.00  0.00     0.031 C 
ATOM     63  C   UNL     1     -14.339   7.484 -14.694  1.00  0.00     0.029 A 
ATOM     64  C   UNL     1     -14.936   8.659 -14.273  1.00  0.00     0.049 A 
ATOM     65  H   UNL     1     -14.288  10.630 -14.555  1.00  0.00     0.167 HD
ATOM     66  C   UNL     1     -16.044   8.713 -12.140  1.00  0.00     0.074 A 
ATOM     67  C   UNL     1     -16.929   8.979 -11.018  1.00  0.00     0.031 C 
ATOM     68  C   UNL     1     -16.101   9.017 -13.475  1.00  0.00     0.037 A 
BRANCH  55  69
ATOM     69  C   UNL     1     -11.289  10.346 -17.030  1.00  0.00     0.057 A 
ATOM     70  C   UNL     1     -11.523   9.441 -18.082  1.00  0.00     0.134 A 
ATOM     71  C   UNL     1     -10.431  11.412 -17.360  1.00  0.00     0.134 A 
ATOM     72  F   UNL     1     -12.382   8.422 -17.956  1.00  0.00    -0.206 F 
ATOM     73  C   UNL     1     -10.885   9.534 -19.324  1.00  0.00     0.040 A 
ATOM     74  C   UNL     1      -9.746  11.489 -18.582  1.00  0.00     0.040 A 
ATOM     75  F   UNL     1     -10.257  12.457 -16.542  1.00  0.00    -0.206 F 
ATOM     76  C   UNL     1      -9.967  10.542 -19.570  1.00  0.00     0.006 A 
ENDBRANCH  55  69
BRANCH  56  77
ATOM     77  C   UNL     1     -13.801   8.016  -7.969  1.00  0.00     0.057 A 
ATOM     78  C   UNL     1     -13.150   7.208  -7.011  1.00  0.00     0.134 A 
ATOM     79  C   UNL     1     -13.700   9.399  -7.798  1.00  0.00     0.134 A 
ATOM     80  F   UNL     1     -13.217   5.869  -7.099  1.00  0.00    -0.206 F 
ATOM     81  C   UNL     1     -12.292   7.749  -6.049  1.00  0.00     0.040 A 
ATOM     82  C   UNL     1     -12.873   9.950  -6.811  1.00  0.00     0.040 A 
ATOM     83  F   UNL     1     -14.290  10.242  -8.658  1.00  0.00    -0.206 F 
ATOM     84  C   UNL     1     -12.120   9.126  -5.977  1.00  0.00     0.006 A 
ENDBRANCH  56  77
BRANCH  68  85
ATOM     85  C   UNL     1     -17.255   9.738 -14.137  1.00  0.00     0.057 A 
ATOM     86  C   UNL     1     -18.591   9.535 -13.768  1.00  0.00     0.134 A 
ATOM     87  C   UNL     1     -17.076  10.603 -15.243  1.00  0.00     0.134 A 
ATOM     88  F   UNL     1     -18.927   8.621 -12.846  1.00  0.00    -0.206 F 
ATOM     89  C   UNL     1     -19.651  10.235 -14.363  1.00  0.00     0.040 A 
ATOM     90  C   UNL     1     -18.128  11.262 -15.881  1.00  0.00     0.040 A 
ATOM     91  F   UNL     1     -15.872  10.872 -15.764  1.00  0.00    -0.206 F 
ATOM     92  C   UNL     1     -19.421  11.106 -15.419  1.00  0.00     0.006 A 
ENDBRANCH  68  85
ENDBRANCH  42  43
ENDBRANCH  34  37
ENDBRANCH  32  33
ENDBRANCH  31  32
ENDBRANCH  30  31
ENDBRANCH   3  30
TORSDOF 15
