REMARK SMILES COc1ncnc(N2CCCC[C@H]2CC(=O)NCCCNC(=O)c2ccc(-c3c4nc(c(-c5c(F)cccc5F)c5ccc([nH]5)c(-c5c(F)cccc5F)c5nc(c(-c6c(F)cccc6F)c6ccc3[nH]6)C=C5)C=C4)cc2)c1[N+](=O)[O-]
REMARK SMILES IDX 18 1 17 2 15 3 16 4 14 6 13 7 8 8 9 9 10 10 12 11 11 12 7 13
REMARK SMILES IDX 3 14 4 15 78 16 5 17 6 18 2 19 1 20 79 21 80 22 81 23 19 24
REMARK SMILES IDX 20 25 21 26 22 27 23 29 24 30 25 31 77 32 26 33 76 34 27 35
REMARK SMILES IDX 28 36 29 37 70 38 30 39 75 40 69 41 71 42 31 43 74 44 68 45
REMARK SMILES IDX 67 46 32 48 58 49 41 50 57 51 42 52 45 53 56 54 72 55 43 56
REMARK SMILES IDX 44 57 55 59 73 60 46 61 33 62 34 63 39 64 35 65 36 66 38 67
REMARK SMILES IDX 40 68 37 69 59 70 60 71 65 72 61 73 62 74 64 75 66 76 63 77
REMARK SMILES IDX 47 78 48 79 53 80 49 81 50 82 52 83 54 84 51 85
REMARK H PARENT 17 5 21 28 71 47 45 58
REMARK Flexibility Score: inf
ROOT
ATOM      1  C   UNL     1       8.515  -3.859   3.933  1.00  0.00     0.117 C 
ENDROOT
BRANCH   1   2
ATOM      2  N   UNL     1       7.976  -4.444   2.717  1.00  0.00    -0.356 N 
ATOM      3  C   UNL     1       6.939  -4.099   1.907  1.00  0.00     0.222 C 
ATOM      4  O   UNL     1       6.772  -4.795   0.903  1.00  0.00    -0.275 OA
ATOM      5  H   UNL     1       8.456  -5.250   2.421  1.00  0.00     0.163 HD
BRANCH   3   6
ATOM      6  C   UNL     1       6.059  -2.906   2.202  1.00  0.00     0.125 C 
BRANCH   6   7
ATOM      7  C   UNL     1       4.688  -3.140   2.863  1.00  0.00     0.093 C 
ATOM      8  N   UNL     1       3.657  -3.653   1.935  1.00  0.00    -0.347 N 
ATOM      9  C   UNL     1       3.632  -5.103   1.681  1.00  0.00     0.118 C 
ATOM     10  C   UNL     1       3.644  -5.919   2.974  1.00  0.00     0.022 C 
ATOM     11  C   UNL     1       4.670  -3.958   4.156  1.00  0.00     0.026 C 
ATOM     12  C   UNL     1       4.740  -5.464   3.930  1.00  0.00     0.004 C 
BRANCH   8  13
ATOM     13  C   UNL     1       2.406  -3.031   2.016  1.00  0.00     0.215 A 
ATOM     14  C   UNL     1       0.914  -1.215   1.721  1.00  0.00     0.299 A 
ATOM     15  N   UNL     1      -0.096  -1.881   2.308  1.00  0.00    -0.196 NA
ATOM     16  C   UNL     1       2.174  -1.743   1.576  1.00  0.00     0.372 A 
ATOM     17  C   UNL     1       0.201  -3.121   2.710  1.00  0.00     0.228 A 
ATOM     18  N   UNL     1       1.394  -3.727   2.580  1.00  0.00    -0.212 NA
BRANCH  14  19
ATOM     19  O   UNL     1       0.619   0.070   1.348  1.00  0.00    -0.476 OA
ATOM     20  C   UNL     1       0.150   0.099  -0.000  1.00  0.00     0.280 C 
ENDBRANCH  14  19
BRANCH  16  21
ATOM     21  N   UNL     1       3.177  -0.988   0.906  1.00  0.00     0.072 N 
ATOM     22  O   UNL     1       3.280  -1.145  -0.318  1.00  0.00    -0.258 OA
ATOM     23  O   UNL     1       3.851  -0.205   1.592  1.00  0.00    -0.258 OA
ENDBRANCH  16  21
ENDBRANCH   8  13
ENDBRANCH   6   7
ENDBRANCH   3   6
ENDBRANCH   1   2
BRANCH   1  24
ATOM     24  C   UNL     1       8.164  -4.639   5.201  1.00  0.00     0.042 C 
BRANCH  24  25
ATOM     25  C   UNL     1       8.351  -6.152   5.124  1.00  0.00     0.118 C 
BRANCH  25  26
ATOM     26  N   UNL     1       9.722  -6.548   5.378  1.00  0.00    -0.352 N 
ATOM     27  C   UNL     1      10.225  -7.317   6.399  1.00  0.00     0.251 C 
ATOM     28  H   UNL     1      10.385  -6.221   4.728  1.00  0.00     0.163 HD
ATOM     29  O   UNL     1      11.438  -7.372   6.577  1.00  0.00    -0.269 OA
BRANCH  27  30
ATOM     30  C   UNL     1       9.320  -8.071   7.300  1.00  0.00     0.039 A 
ATOM     31  C   UNL     1       9.576  -8.048   8.675  1.00  0.00     0.014 A 
ATOM     32  C   UNL     1       8.271  -8.851   6.801  1.00  0.00     0.014 A 
ATOM     33  C   UNL     1       8.767  -8.779   9.550  1.00  0.00     0.010 A 
ATOM     34  C   UNL     1       7.434  -9.543   7.681  1.00  0.00     0.010 A 
ATOM     35  C   UNL     1       7.683  -9.526   9.062  1.00  0.00    -0.014 A 
BRANCH  35  36
ATOM     36  C   UNL     1       6.827 -10.313   9.987  1.00  0.00     0.031 A 
ATOM     37  C   UNL     1       6.873 -11.816   9.972  1.00  0.00     0.074 A 
ATOM     38  C   UNL     1       5.986  -9.680  10.828  1.00  0.00     0.049 A 
ATOM     39  N   UNL     1       6.190 -12.672  10.692  1.00  0.00    -0.248 NA
ATOM     40  C   UNL     1       7.794 -12.441   9.010  1.00  0.00     0.031 C 
ATOM     41  C   UNL     1       5.818  -8.230  10.922  1.00  0.00     0.029 A 
ATOM     42  N   UNL     1       5.109 -10.180  11.758  1.00  0.00    -0.354 N 
ATOM     43  C   UNL     1       6.591 -13.931  10.265  1.00  0.00     0.074 A 
ATOM     44  C   UNL     1       7.547 -13.730   9.197  1.00  0.00     0.031 C 
ATOM     45  C   UNL     1       4.904  -7.956  11.868  1.00  0.00     0.029 A 
ATOM     46  C   UNL     1       4.406  -9.210  12.428  1.00  0.00     0.049 A 
ATOM     47  H   UNL     1       4.995 -11.143  11.928  1.00  0.00     0.167 HD
ATOM     48  C   UNL     1       6.212 -15.146  10.731  1.00  0.00     0.037 A 
ATOM     49  C   UNL     1       3.464  -9.317  13.385  1.00  0.00     0.037 A 
ATOM     50  C   UNL     1       5.284 -15.353  11.811  1.00  0.00     0.049 A 
ATOM     51  C   UNL     1       3.058 -10.675  13.883  1.00  0.00     0.074 A 
ATOM     52  C   UNL     1       4.896 -16.547  12.398  1.00  0.00     0.029 A 
ATOM     53  N   UNL     1       4.595 -14.345  12.466  1.00  0.00    -0.354 N 
ATOM     54  N   UNL     1       3.496 -11.854  13.515  1.00  0.00    -0.248 NA
ATOM     55  C   UNL     1       2.031 -10.716  14.934  1.00  0.00     0.031 C 
ATOM     56  C   UNL     1       3.946 -16.262  13.384  1.00  0.00     0.029 A 
ATOM     57  C   UNL     1       3.768 -14.889  13.434  1.00  0.00     0.049 A 
ATOM     58  H   UNL     1       4.682 -13.383  12.271  1.00  0.00     0.167 HD
ATOM     59  C   UNL     1       2.813 -12.774  14.300  1.00  0.00     0.074 A 
ATOM     60  C   UNL     1       1.941 -12.017  15.174  1.00  0.00     0.031 C 
ATOM     61  C   UNL     1       2.903 -14.126  14.296  1.00  0.00     0.037 A 
BRANCH  48  62
ATOM     62  C   UNL     1       6.810 -16.354  10.074  1.00  0.00     0.057 A 
ATOM     63  C   UNL     1       8.140 -16.731  10.299  1.00  0.00     0.134 A 
ATOM     64  C   UNL     1       6.036 -17.171   9.241  1.00  0.00     0.134 A 
ATOM     65  F   UNL     1       8.935 -15.984  11.079  1.00  0.00    -0.206 F 
ATOM     66  C   UNL     1       8.685 -17.868   9.702  1.00  0.00     0.040 A 
ATOM     67  C   UNL     1       6.564 -18.322   8.655  1.00  0.00     0.040 A 
ATOM     68  F   UNL     1       4.753 -16.868   8.990  1.00  0.00    -0.206 F 
ATOM     69  C   UNL     1       7.894 -18.671   8.881  1.00  0.00     0.006 A 
ENDBRANCH  48  62
BRANCH  49  70
ATOM     70  C   UNL     1       2.847  -8.093  13.951  1.00  0.00     0.057 A 
ATOM     71  C   UNL     1       3.163  -7.658  15.243  1.00  0.00     0.134 A 
ATOM     72  C   UNL     1       1.927  -7.334  13.218  1.00  0.00     0.134 A 
ATOM     73  F   UNL     1       4.021  -8.358  15.999  1.00  0.00    -0.206 F 
ATOM     74  C   UNL     1       2.577  -6.518  15.792  1.00  0.00     0.040 A 
ATOM     75  C   UNL     1       1.348  -6.181  13.748  1.00  0.00     0.040 A 
ATOM     76  F   UNL     1       1.587  -7.700  11.973  1.00  0.00    -0.206 F 
ATOM     77  C   UNL     1       1.669  -5.772  15.041  1.00  0.00     0.006 A 
ENDBRANCH  49  70
BRANCH  61  78
ATOM     78  C   UNL     1       2.047 -14.873  15.275  1.00  0.00     0.057 A 
ATOM     79  C   UNL     1       0.670 -15.031  15.075  1.00  0.00     0.134 A 
ATOM     80  C   UNL     1       2.611 -15.468  16.410  1.00  0.00     0.134 A 
ATOM     81  F   UNL     1       0.069 -14.472  14.014  1.00  0.00    -0.206 F 
ATOM     82  C   UNL     1      -0.119 -15.741  15.980  1.00  0.00     0.040 A 
ATOM     83  C   UNL     1       1.835 -16.198  17.311  1.00  0.00     0.040 A 
ATOM     84  F   UNL     1       3.926 -15.357  16.655  1.00  0.00    -0.206 F 
ATOM     85  C   UNL     1       0.465 -16.332  17.099  1.00  0.00     0.006 A 
ENDBRANCH  61  78
ENDBRANCH  35  36
ENDBRANCH  27  30
ENDBRANCH  25  26
ENDBRANCH  24  25
ENDBRANCH   1  24
TORSDOF 14
