REMARK SMILES O=C(NCCCNC(=O)c1ccccc1-c1ccccc1C(=O)NCCc1ccccc1)c1ccc(-c2c3nc(c(-c4c(F)cccc4F)c4ccc([nH]4)c(-c4c(F)cccc4F)c4nc(c(-c5c(F)cccc5F)c5ccc2[nH]5)C=C4)C=C3)cc1
REMARK SMILES IDX 7 1 8 2 9 3 6 5 5 6 4 7 3 8 1 9 2 10 33 12 34 13 86 14 35 15
REMARK SMILES IDX 85 16 36 17 37 18 38 19 79 20 39 21 84 22 78 23 80 24 40 25
REMARK SMILES IDX 83 26 77 27 76 28 41 30 67 31 50 32 66 33 51 34 54 35 65 36
REMARK SMILES IDX 81 37 52 38 53 39 64 41 82 42 55 43 42 44 43 45 48 46 44 47
REMARK SMILES IDX 45 48 47 49 49 50 46 51 68 52 69 53 74 54 70 55 71 56 73 57
REMARK SMILES IDX 75 58 72 59 56 60 57 61 62 62 58 63 59 64 61 65 63 66 60 67
REMARK SMILES IDX 10 68 11 69 15 70 12 71 14 72 13 73 16 74 17 75 21 76 18 77
REMARK SMILES IDX 20 78 19 79 22 80 23 81 24 82 25 84 26 85 27 86 28 87 32 88
REMARK SMILES IDX 29 89 31 90 30 91
REMARK H PARENT 7 4 3 11 80 29 54 40 24 83
REMARK Flexibility Score: inf
ROOT
ATOM      1  N   UNL     1       5.304  -3.755  -0.186  1.00  0.00    -0.352 N 
ATOM      2  C   UNL     1       6.144  -4.821  -0.105  1.00  0.00     0.251 C 
ATOM      3  O   UNL     1       6.754  -5.197  -1.103  1.00  0.00    -0.269 OA
ATOM      4  H   UNL     1       5.058  -3.482  -1.099  1.00  0.00     0.163 HD
ENDROOT
BRANCH   1   5
ATOM      5  C   UNL     1       4.718  -2.961   0.877  1.00  0.00     0.118 C 
BRANCH   5   6
ATOM      6  C   UNL     1       5.048  -1.496   0.703  1.00  0.00     0.042 C 
BRANCH   6   7
ATOM      7  C   UNL     1       4.505  -0.965  -0.614  1.00  0.00     0.118 C 
BRANCH   7   8
ATOM      8  N   UNL     1       3.047  -0.862  -0.617  1.00  0.00    -0.352 N 
ATOM      9  O   UNL     1       1.031  -0.004  -0.058  1.00  0.00    -0.269 OA
ATOM     10  C   UNL     1       2.230   0.168  -0.202  1.00  0.00     0.251 C 
ATOM     11  H   UNL     1       2.576  -1.650  -0.970  1.00  0.00     0.163 HD
BRANCH  10  12
ATOM     12  C   UNL     1       2.840   1.477   0.111  1.00  0.00     0.039 A 
ATOM     13  C   UNL     1       3.855   1.971  -0.700  1.00  0.00     0.014 A 
ATOM     14  C   UNL     1       2.429   2.197   1.235  1.00  0.00     0.014 A 
ATOM     15  C   UNL     1       4.637   3.017  -0.253  1.00  0.00     0.010 A 
ATOM     16  C   UNL     1       3.104   3.371   1.583  1.00  0.00     0.010 A 
ATOM     17  C   UNL     1       4.244   3.765   0.866  1.00  0.00    -0.014 A 
BRANCH  17  18
ATOM     18  C   UNL     1       5.011   4.994   1.188  1.00  0.00     0.031 A 
ATOM     19  C   UNL     1       5.686   5.173   2.517  1.00  0.00     0.074 A 
ATOM     20  C   UNL     1       5.140   5.928   0.224  1.00  0.00     0.049 A 
ATOM     21  N   UNL     1       6.400   6.185   2.943  1.00  0.00    -0.248 NA
ATOM     22  C   UNL     1       5.533   4.092   3.501  1.00  0.00     0.031 C 
ATOM     23  C   UNL     1       4.527   5.854  -1.107  1.00  0.00     0.029 A 
ATOM     24  N   UNL     1       5.858   7.093   0.188  1.00  0.00    -0.354 N 
ATOM     25  C   UNL     1       6.745   5.883   4.254  1.00  0.00     0.074 A 
ATOM     26  C   UNL     1       6.151   4.599   4.559  1.00  0.00     0.031 C 
ATOM     27  C   UNL     1       4.969   6.871  -1.856  1.00  0.00     0.029 A 
ATOM     28  C   UNL     1       5.804   7.728  -1.029  1.00  0.00     0.049 A 
ATOM     29  H   UNL     1       6.363   7.441   0.958  1.00  0.00     0.167 HD
ATOM     30  C   UNL     1       7.489   6.615   5.118  1.00  0.00     0.037 A 
ATOM     31  C   UNL     1       6.342   8.891  -1.433  1.00  0.00     0.037 A 
ATOM     32  C   UNL     1       8.095   7.880   4.787  1.00  0.00     0.049 A 
ATOM     33  C   UNL     1       7.141   9.688  -0.451  1.00  0.00     0.074 A 
ATOM     34  C   UNL     1       8.891   8.690   5.579  1.00  0.00     0.029 A 
ATOM     35  N   UNL     1       7.970   8.521   3.562  1.00  0.00    -0.354 N 
ATOM     36  N   UNL     1       7.456   9.391   0.787  1.00  0.00    -0.248 NA
ATOM     37  C   UNL     1       7.641  10.987  -0.911  1.00  0.00     0.031 C 
ATOM     38  C   UNL     1       9.209   9.841   4.849  1.00  0.00     0.029 A 
ATOM     39  C   UNL     1       8.654   9.726   3.584  1.00  0.00     0.049 A 
ATOM     40  H   UNL     1       7.469   8.171   2.790  1.00  0.00     0.167 HD
ATOM     41  C   UNL     1       8.201  10.463   1.254  1.00  0.00     0.074 A 
ATOM     42  C   UNL     1       8.308  11.405   0.156  1.00  0.00     0.031 C 
ATOM     43  C   UNL     1       8.743  10.651   2.481  1.00  0.00     0.037 A 
BRANCH  30  44
ATOM     44  C   UNL     1       7.654   6.083   6.514  1.00  0.00     0.057 A 
ATOM     45  C   UNL     1       8.439   4.958   6.799  1.00  0.00     0.134 A 
ATOM     46  C   UNL     1       7.029   6.721   7.594  1.00  0.00     0.134 A 
ATOM     47  F   UNL     1       9.055   4.290   5.812  1.00  0.00    -0.206 F 
ATOM     48  C   UNL     1       8.572   4.471   8.102  1.00  0.00     0.040 A 
ATOM     49  C   UNL     1       7.175   6.259   8.903  1.00  0.00     0.040 A 
ATOM     50  F   UNL     1       6.267   7.807   7.395  1.00  0.00    -0.206 F 
ATOM     51  C   UNL     1       7.943   5.125   9.159  1.00  0.00     0.006 A 
ENDBRANCH  30  44
BRANCH  31  52
ATOM     52  C   UNL     1       6.117   9.359  -2.822  1.00  0.00     0.057 A 
ATOM     53  C   UNL     1       7.160   9.389  -3.752  1.00  0.00     0.134 A 
ATOM     54  C   UNL     1       4.843   9.737  -3.267  1.00  0.00     0.134 A 
ATOM     55  F   UNL     1       8.404   9.050  -3.383  1.00  0.00    -0.206 F 
ATOM     56  C   UNL     1       6.947   9.780  -5.075  1.00  0.00     0.040 A 
ATOM     57  C   UNL     1       4.609  10.102  -4.593  1.00  0.00     0.040 A 
ATOM     58  F   UNL     1       3.798   9.716  -2.426  1.00  0.00    -0.206 F 
ATOM     59  C   UNL     1       5.666  10.128  -5.500  1.00  0.00     0.006 A 
ENDBRANCH  31  52
BRANCH  43  60
ATOM     60  C   UNL     1       9.524  11.915   2.682  1.00  0.00     0.057 A 
ATOM     61  C   UNL     1       8.895  13.162   2.788  1.00  0.00     0.134 A 
ATOM     62  C   UNL     1      10.920  11.880   2.783  1.00  0.00     0.134 A 
ATOM     63  F   UNL     1       7.561  13.263   2.681  1.00  0.00    -0.206 F 
ATOM     64  C   UNL     1       9.631  14.334   2.962  1.00  0.00     0.040 A 
ATOM     65  C   UNL     1      11.664  13.041   2.983  1.00  0.00     0.040 A 
ATOM     66  F   UNL     1      11.580  10.715   2.693  1.00  0.00    -0.206 F 
ATOM     67  C   UNL     1      11.020  14.274   3.066  1.00  0.00     0.006 A 
ENDBRANCH  43  60
ENDBRANCH  17  18
ENDBRANCH  10  12
ENDBRANCH   7   8
ENDBRANCH   6   7
ENDBRANCH   5   6
ENDBRANCH   1   5
BRANCH   2  68
ATOM     68  C   UNL     1       6.314  -5.553   1.164  1.00  0.00     0.047 A 
ATOM     69  C   UNL     1       7.641  -5.914   1.467  1.00  0.00     0.014 A 
ATOM     70  C   UNL     1       5.232  -6.060   1.922  1.00  0.00    -0.005 A 
ATOM     71  C   UNL     1       7.922  -6.767   2.530  1.00  0.00     0.001 A 
ATOM     72  C   UNL     1       5.563  -6.894   3.020  1.00  0.00     0.009 A 
ATOM     73  C   UNL     1       6.882  -7.253   3.310  1.00  0.00     0.001 A 
BRANCH  70  74
ATOM     74  C   UNL     1       3.788  -5.810   1.660  1.00  0.00    -0.005 A 
ATOM     75  C   UNL     1       3.085  -5.199   2.742  1.00  0.00     0.009 A 
ATOM     76  C   UNL     1       3.066  -6.036   0.458  1.00  0.00     0.047 A 
ATOM     77  C   UNL     1       1.762  -4.772   2.644  1.00  0.00     0.001 A 
ATOM     78  C   UNL     1       1.720  -5.583   0.389  1.00  0.00     0.014 A 
ATOM     79  C   UNL     1       1.079  -4.952   1.457  1.00  0.00     0.001 A 
BRANCH  76  80
ATOM     80  C   UNL     1       3.533  -6.618  -0.852  1.00  0.00     0.251 C 
ATOM     81  O   UNL     1       3.086  -6.126  -1.892  1.00  0.00    -0.269 OA
ATOM     82  N   UNL     1       4.357  -7.712  -0.980  1.00  0.00    -0.352 N 
ATOM     83  H   UNL     1       4.407  -8.101  -1.883  1.00  0.00     0.163 HD
BRANCH  82  84
ATOM     84  C   UNL     1       5.155  -8.367   0.022  1.00  0.00     0.121 C 
BRANCH  84  85
ATOM     85  C   UNL     1       5.534  -9.820  -0.208  1.00  0.00     0.057 C 
BRANCH  85  86
ATOM     86  C   UNL     1       6.664 -10.167  -1.148  1.00  0.00    -0.046 A 
ATOM     87  C   UNL     1       6.847 -11.534  -1.422  1.00  0.00     0.004 A 
ATOM     88  C   UNL     1       7.592  -9.255  -1.669  1.00  0.00     0.004 A 
ATOM     89  C   UNL     1       7.913 -11.980  -2.200  1.00  0.00     0.000 A 
ATOM     90  C   UNL     1       8.664  -9.705  -2.450  1.00  0.00     0.000 A 
ATOM     91  C   UNL     1       8.823 -11.064  -2.716  1.00  0.00     0.000 A 
ENDBRANCH  85  86
ENDBRANCH  84  85
ENDBRANCH  82  84
ENDBRANCH  76  80
ENDBRANCH  70  74
ENDBRANCH   2  68
TORSDOF 15
