REMARK SMILES O=C(C[C@@H]1C(=O)O[C@H]2[C@@H]3OC(=O)c4cc(O)c(O)c(O)c4-c4ccccc4C(=O)OC[C@@H]2O[C@@H](OC(=O)c2cc(O)c(O)c(O)c2)[C@@H]3OC(=O)c2cc(O)c(O)c3c2[C@H]1[C@H](O)C(=O)O3)NCCCNC(=O)c1ccc(-c2c3nc(c(-c4c(F)cccc4F)c4ccc([nH]4)c(-c4c(F)cccc4F)c4nc(c(-c5c(F)cccc5F)c5ccc2[nH]5)C=C4)C=C3)cc1
REMARK SMILES IDX 51 1 52 2 53 3 55 4 57 5 58 6 59 7 60 8 62 9 63 10 64 11
REMARK SMILES IDX 4 12 3 14 2 15 1 16 65 17 66 19 67 20 68 21 69 22 70 23
REMARK SMILES IDX 71 25 72 26 73 27 125 28 74 29 124 30 75 31 76 32 77 33
REMARK SMILES IDX 118 34 78 35 123 36 117 37 119 38 79 39 122 40 116 41 115 42
REMARK SMILES IDX 80 44 106 45 89 46 105 47 90 48 93 49 104 50 120 51 91 52
REMARK SMILES IDX 92 53 103 55 121 56 94 57 81 58 82 59 87 60 83 61 84 62
REMARK SMILES IDX 86 63 88 64 85 65 107 66 108 67 113 68 109 69 110 70 112 71
REMARK SMILES IDX 114 72 111 73 95 74 96 75 101 76 97 77 98 78 100 79 102 80
REMARK SMILES IDX 99 81 61 82 49 84 50 85 48 86 47 87 9 88 34 89 8 90 33 91
REMARK SMILES IDX 32 92 10 94 11 95 12 96 13 97 14 98 21 99 15 100 19 101
REMARK SMILES IDX 17 102 22 103 23 104 27 105 24 106 26 107 25 108 28 109
REMARK SMILES IDX 29 110 30 111 31 112 16 114 20 116 18 118 35 120 36 121
REMARK SMILES IDX 37 122 38 123 39 124 46 125 40 126 44 127 42 128 41 129
REMARK SMILES IDX 45 131 43 133 7 135 5 136 6 137 56 139 54 141
REMARK H PARENT 65 18 69 24 119 43 93 54 61 83 16 115 20 117 18 119 41 130
REMARK H PARENT 45 132 43 134 56 140 54 142
REMARK Flexibility Score: 170.00
ROOT
ATOM      1  C   UNL     1       3.015   2.051   1.432  1.00  0.00     0.071 A 
ATOM      2  C   UNL     1       2.593   3.394   1.584  1.00  0.00     0.066 A 
ATOM      3  C   UNL     1       1.760   3.788   2.607  1.00  0.00     0.162 A 
ATOM      4  C   UNL     1       1.155   2.851   3.418  1.00  0.00     0.201 A 
ATOM      5  C   UNL     1       1.449   1.494   3.269  1.00  0.00     0.180 A 
ATOM      6  C   UNL     1       2.504   1.039   2.436  1.00  0.00     0.021 A 
ATOM      7  C   UNL     1       3.235  -0.248   3.204  1.00  0.00     0.079 C 
ATOM      8  C   UNL     1       2.521  -0.740   4.530  1.00  0.00     0.232 C 
ATOM      9  C   UNL     1       1.028  -0.669   4.387  1.00  0.00     0.341 C 
ATOM     10  O   UNL     1       0.257  -1.541   4.757  1.00  0.00    -0.249 OA
ATOM     11  O   UNL     1       0.619   0.602   3.999  1.00  0.00    -0.420 OA
ENDROOT
BRANCH   7  12
ATOM     12  C   UNL     1       4.553  -1.207   2.587  1.00  0.00     0.119 CG0
ATOM     13  G   UNL     1       6.535  -0.472   2.317  1.00  0.00     0.000 G0
BRANCH  12  14
ATOM     14  C   UNL     1       3.869  -2.768   2.567  1.00  0.00     0.116 C 
BRANCH  14  15
ATOM     15  C   UNL     1       2.782  -3.046   1.418  1.00  0.00     0.220 C 
ATOM     16  O   UNL     1       2.855  -4.083   0.756  1.00  0.00    -0.275 OA
ATOM     17  N   UNL     1       1.780  -2.108   1.152  1.00  0.00    -0.356 N 
ATOM     18  H   UNL     1       1.573  -1.425   1.830  1.00  0.00     0.163 HD
BRANCH  17  19
ATOM     19  C   UNL     1       1.021  -2.113  -0.117  1.00  0.00     0.117 C 
BRANCH  19  20
ATOM     20  C   UNL     1      -0.488  -1.845  -0.070  1.00  0.00     0.042 C 
BRANCH  20  21
ATOM     21  C   UNL     1      -0.927  -0.375  -0.174  1.00  0.00     0.118 C 
BRANCH  21  22
ATOM     22  N   UNL     1      -0.762   0.259  -1.487  1.00  0.00    -0.352 N 
ATOM     23  C   UNL     1      -1.649   0.957  -2.291  1.00  0.00     0.251 C 
ATOM     24  H   UNL     1       0.142   0.173  -1.865  1.00  0.00     0.163 HD
ATOM     25  O   UNL     1      -1.258   1.453  -3.345  1.00  0.00    -0.269 OA
BRANCH  23  26
ATOM     26  C   UNL     1      -3.090   1.054  -1.958  1.00  0.00     0.039 A 
ATOM     27  C   UNL     1      -3.529   1.310  -0.663  1.00  0.00     0.014 A 
ATOM     28  C   UNL     1      -4.032   0.837  -2.974  1.00  0.00     0.014 A 
ATOM     29  C   UNL     1      -4.862   1.082  -0.332  1.00  0.00     0.010 A 
ATOM     30  C   UNL     1      -5.389   0.708  -2.658  1.00  0.00     0.010 A 
ATOM     31  C   UNL     1      -5.802   0.738  -1.318  1.00  0.00    -0.014 A 
BRANCH  31  32
ATOM     32  C   UNL     1      -7.184   0.344  -0.924  1.00  0.00     0.031 A 
ATOM     33  C   UNL     1      -7.686  -1.055  -1.195  1.00  0.00     0.074 A 
ATOM     34  C   UNL     1      -7.968   1.214  -0.260  1.00  0.00     0.049 A 
ATOM     35  N   UNL     1      -8.859  -1.580  -0.939  1.00  0.00    -0.248 NA
ATOM     36  C   UNL     1      -6.747  -1.986  -1.841  1.00  0.00     0.031 C 
ATOM     37  C   UNL     1      -7.596   2.584   0.097  1.00  0.00     0.029 A 
ATOM     38  N   UNL     1      -9.234   1.071   0.249  1.00  0.00    -0.354 N 
ATOM     39  C   UNL     1      -8.804  -2.890  -1.405  1.00  0.00     0.074 A 
ATOM     40  C   UNL     1      -7.495  -3.070  -1.994  1.00  0.00     0.031 C 
ATOM     41  C   UNL     1      -8.593   3.142   0.799  1.00  0.00     0.029 A 
ATOM     42  C   UNL     1      -9.703   2.198   0.877  1.00  0.00     0.049 A 
ATOM     43  H   UNL     1      -9.756   0.239   0.171  1.00  0.00     0.167 HD
ATOM     44  C   UNL     1      -9.750  -3.859  -1.340  1.00  0.00     0.037 A 
ATOM     45  C   UNL     1     -10.905   2.458   1.425  1.00  0.00     0.037 A 
ATOM     46  C   UNL     1     -11.051  -3.684  -0.746  1.00  0.00     0.049 A 
ATOM     47  C   UNL     1     -11.969   1.397   1.397  1.00  0.00     0.074 A 
ATOM     48  C   UNL     1     -12.072  -4.610  -0.612  1.00  0.00     0.029 A 
ATOM     49  N   UNL     1     -11.514  -2.500  -0.192  1.00  0.00    -0.354 N 
ATOM     50  N   UNL     1     -11.898   0.163   0.963  1.00  0.00    -0.248 NA
ATOM     51  C   UNL     1     -13.287   1.775   1.924  1.00  0.00     0.031 C 
ATOM     52  C   UNL     1     -13.173  -3.970  -0.031  1.00  0.00     0.029 A 
ATOM     53  C   UNL     1     -12.818  -2.660   0.249  1.00  0.00     0.049 A 
ATOM     54  H   UNL     1     -10.993  -1.668  -0.123  1.00  0.00     0.167 HD
ATOM     55  C   UNL     1     -13.156  -0.387   1.174  1.00  0.00     0.074 A 
ATOM     56  C   UNL     1     -13.959   0.640   1.806  1.00  0.00     0.031 C 
ATOM     57  C   UNL     1     -13.610  -1.626   0.865  1.00  0.00     0.037 A 
BRANCH  44  58
ATOM     58  C   UNL     1      -9.423  -5.193  -1.954  1.00  0.00     0.057 A 
ATOM     59  C   UNL     1     -10.082  -5.626  -3.113  1.00  0.00     0.134 A 
ATOM     60  C   UNL     1      -8.480  -6.063  -1.390  1.00  0.00     0.134 A 
ATOM     61  F   UNL     1     -11.006  -4.851  -3.701  1.00  0.00    -0.206 F 
ATOM     62  C   UNL     1      -9.814  -6.870  -3.688  1.00  0.00     0.040 A 
ATOM     63  C   UNL     1      -8.182  -7.298  -1.972  1.00  0.00     0.040 A 
ATOM     64  F   UNL     1      -7.804  -5.710  -0.286  1.00  0.00    -0.206 F 
ATOM     65  C   UNL     1      -8.855  -7.706  -3.122  1.00  0.00     0.006 A 
ENDBRANCH  44  58
BRANCH  45  66
ATOM     66  C   UNL     1     -11.185   3.795   2.009  1.00  0.00     0.057 A 
ATOM     67  C   UNL     1     -11.254   4.940   1.205  1.00  0.00     0.134 A 
ATOM     68  C   UNL     1     -11.424   3.954   3.378  1.00  0.00     0.134 A 
ATOM     69  F   UNL     1     -11.034   4.856  -0.116  1.00  0.00    -0.206 F 
ATOM     70  C   UNL     1     -11.537   6.195   1.742  1.00  0.00     0.040 A 
ATOM     71  C   UNL     1     -11.740   5.198   3.925  1.00  0.00     0.040 A 
ATOM     72  F   UNL     1     -11.395   2.891   4.196  1.00  0.00    -0.206 F 
ATOM     73  C   UNL     1     -11.793   6.325   3.106  1.00  0.00     0.006 A 
ENDBRANCH  45  66
BRANCH  57  74
ATOM     74  C   UNL     1     -15.036  -1.934   1.221  1.00  0.00     0.057 A 
ATOM     75  C   UNL     1     -15.341  -2.828   2.256  1.00  0.00     0.134 A 
ATOM     76  C   UNL     1     -16.110  -1.347   0.538  1.00  0.00     0.134 A 
ATOM     77  F   UNL     1     -14.361  -3.431   2.946  1.00  0.00    -0.206 F 
ATOM     78  C   UNL     1     -16.660  -3.123   2.600  1.00  0.00     0.040 A 
ATOM     79  C   UNL     1     -17.434  -1.611   0.894  1.00  0.00     0.040 A 
ATOM     80  F   UNL     1     -15.887  -0.468  -0.452  1.00  0.00    -0.206 F 
ATOM     81  C   UNL     1     -17.711  -2.506   1.925  1.00  0.00     0.006 A 
ENDBRANCH  57  74
ENDBRANCH  31  32
ENDBRANCH  23  26
ENDBRANCH  21  22
ENDBRANCH  20  21
ENDBRANCH  19  20
ENDBRANCH  17  19
ENDBRANCH  14  15
ENDBRANCH  12  14
ENDBRANCH   7  12
BRANCH   8  82
ATOM     82  O   UNL     1       3.145  -1.857   5.121  1.00  0.00    -0.381 OA
ATOM     83  H   UNL     1       3.101  -2.611   4.512  1.00  0.00     0.211 HD
ENDBRANCH   8  82
BRANCH   1  84
ATOM     84  C   UNL     1       4.093   2.128   0.228  1.00  0.00     0.339 C 
ATOM     85  O   UNL     1       3.944   2.965  -0.659  1.00  0.00    -0.246 OA
BRANCH  84  86
ATOM     86  O   UNL     1       5.234   1.370   0.183  1.00  0.00    -0.448 OA
BRANCH  86  87
ATOM     87  C   UNL     1       5.067   0.314   1.061  1.00  0.00     0.290 C 
ATOM     88  C   UNL     1       5.327   1.104   2.792  1.00  0.00     0.267 C 
ATOM     89  C   UNL     1       5.776  -1.529   0.705  1.00  0.00     0.357 C 
ATOM     90  C   UNL     1       5.906  -0.090   3.949  1.00  0.00     0.254 C 
ATOM     91  O   UNL     1       6.399  -2.409   2.252  1.00  0.00    -0.329 OA
ATOM     92  C   UNL     1       6.363  -1.691   3.955  1.00  0.00     0.205 CG1
ATOM     93  G   UNL     1       7.796  -1.279   4.896  1.00  0.00     0.000 G1
BRANCH  88  94
ATOM     94  O   UNL     1       4.650   2.173   3.513  1.00  0.00    -0.450 OA
BRANCH  94  95
ATOM     95  C   UNL     1       4.595   2.154   4.892  1.00  0.00     0.339 C 
ATOM     96  O   UNL     1       4.395   1.224   5.655  1.00  0.00    -0.246 OA
BRANCH  95  97
ATOM     97  C   UNL     1       4.635   3.469   5.442  1.00  0.00     0.075 A 
ATOM     98  C   UNL     1       3.570   3.721   6.330  1.00  0.00     0.066 A 
ATOM     99  C   UNL     1       5.525   4.396   4.902  1.00  0.00     0.043 A 
ATOM    100  C   UNL     1       3.204   5.014   6.547  1.00  0.00     0.162 A 
ATOM    101  C   UNL     1       5.052   5.720   5.099  1.00  0.00     0.170 A 
ATOM    102  C   UNL     1       3.903   6.008   5.890  1.00  0.00     0.200 A 
BRANCH  99 103
ATOM    103  C   UNL     1       6.647   3.925   3.964  1.00  0.00     0.001 A 
ATOM    104  C   UNL     1       6.533   4.522   2.666  1.00  0.00     0.010 A 
ATOM    105  C   UNL     1       7.626   2.803   4.117  1.00  0.00     0.068 A 
ATOM    106  C   UNL     1       7.376   4.202   1.610  1.00  0.00     0.001 A 
ATOM    107  C   UNL     1       8.522   2.598   3.042  1.00  0.00     0.016 A 
ATOM    108  C   UNL     1       8.392   3.280   1.814  1.00  0.00     0.001 A 
BRANCH 105 109
ATOM    109  C   UNL     1       7.853   1.820   5.346  1.00  0.00     0.338 C 
ATOM    110  O   UNL     1       7.928   2.448   6.407  1.00  0.00    -0.246 OA
BRANCH 109 111
ATOM    111  O   UNL     1       7.996   0.396   5.428  1.00  0.00    -0.459 OA
BRANCH 111 112
ATOM    112  C   UNL     1       7.796  -1.279   4.896  1.00  0.00     0.269 CG1
ATOM    113  G   UNL     1       6.363  -1.691   3.955  1.00  0.00     0.000 G1
ENDBRANCH 111 112
ENDBRANCH 109 111
ENDBRANCH 105 109
ENDBRANCH  99 103
BRANCH 100 114
ATOM    114  O   UNL     1       2.104   5.265   7.306  1.00  0.00    -0.504 OA
ATOM    115  H   UNL     1       1.660   4.560   7.734  1.00  0.00     0.293 HD
ENDBRANCH 100 114
BRANCH 101 116
ATOM    116  O   UNL     1       5.573   6.833   4.480  1.00  0.00    -0.504 OA
ATOM    117  H   UNL     1       5.211   7.679   4.657  1.00  0.00     0.293 HD
ENDBRANCH 101 116
BRANCH 102 118
ATOM    118  O   UNL     1       3.395   7.280   5.972  1.00  0.00    -0.502 OA
ATOM    119  H   UNL     1       2.638   7.449   6.498  1.00  0.00     0.293 HD
ENDBRANCH 102 118
ENDBRANCH  95  97
ENDBRANCH  94  95
ENDBRANCH  88  94
BRANCH  89 120
ATOM    120  O   UNL     1       4.968  -2.378  -0.192  1.00  0.00    -0.428 OA
BRANCH 120 121
ATOM    121  C   UNL     1       4.303  -1.665  -1.137  1.00  0.00     0.340 C 
ATOM    122  O   UNL     1       4.113  -0.462  -1.056  1.00  0.00    -0.246 OA
BRANCH 121 123
ATOM    123  C   UNL     1       3.645  -2.294  -2.291  1.00  0.00     0.067 A 
ATOM    124  C   UNL     1       2.751  -1.433  -2.979  1.00  0.00     0.066 A 
ATOM    125  C   UNL     1       3.797  -3.612  -2.701  1.00  0.00     0.066 A 
ATOM    126  C   UNL     1       1.928  -1.910  -3.970  1.00  0.00     0.162 A 
ATOM    127  C   UNL     1       3.011  -4.052  -3.773  1.00  0.00     0.162 A 
ATOM    128  C   UNL     1       2.060  -3.219  -4.375  1.00  0.00     0.200 A 
BRANCH 126 129
ATOM    129  O   UNL     1       0.981  -1.077  -4.475  1.00  0.00    -0.504 OA
ATOM    130  H   UNL     1       0.925  -0.193  -4.171  1.00  0.00     0.293 HD
ENDBRANCH 126 129
BRANCH 127 131
ATOM    131  O   UNL     1       3.119  -5.322  -4.270  1.00  0.00    -0.504 OA
ATOM    132  H   UNL     1       2.582  -5.591  -4.989  1.00  0.00     0.293 HD
ENDBRANCH 127 131
BRANCH 128 133
ATOM    133  O   UNL     1       1.236  -3.681  -5.362  1.00  0.00    -0.502 OA
ATOM    134  H   UNL     1       0.606  -3.108  -5.753  1.00  0.00     0.293 HD
ENDBRANCH 128 133
ENDBRANCH 121 123
ENDBRANCH 120 121
ENDBRANCH  89 120
BRANCH  90 135
ATOM    135  O   UNL     1       7.065   0.157   3.358  1.00  0.00    -0.455 OA
BRANCH 135 136
ATOM    136  C   UNL     1       6.535  -0.472   2.317  1.00  0.00     0.310 CG0
ATOM    137  O   UNL     1       7.342  -0.334   1.410  1.00  0.00    -0.252 OA
ATOM    138  G   UNL     1       4.553  -1.207   2.587  1.00  0.00     0.000 G0
ENDBRANCH 135 136
ENDBRANCH  90 135
ENDBRANCH  86  87
ENDBRANCH  84  86
ENDBRANCH   1  84
BRANCH   4 139
ATOM    139  O   UNL     1       0.349   3.325   4.414  1.00  0.00    -0.502 OA
ATOM    140  H   UNL     1       0.176   4.244   4.479  1.00  0.00     0.293 HD
ENDBRANCH   4 139
BRANCH   3 141
ATOM    141  O   UNL     1       1.586   5.124   2.811  1.00  0.00    -0.504 OA
ATOM    142  H   UNL     1       2.007   5.743   2.247  1.00  0.00     0.293 HD
ENDBRANCH   3 141
TORSDOF 23
