REMARK SMILES CCC(CC)NC(=O)N[C@@H]1C=C[C@@H](C(=O)NCCCNC(=O)c2ccc(-c3c4nc(c(-c5c(F)cccc5F)c5ccc([nH]5)c(-c5c(F)cccc5F)c5nc(c(-c6c(F)cccc6F)c6ccc3[nH]6)C=C5)C=C4)cc2)C1
REMARK SMILES IDX 17 1 16 2 14 3 15 4 13 6 10 7 11 8 77 9 12 10 9 11 6 12 7 13
REMARK SMILES IDX 8 15 3 17 2 18 1 19 4 20 5 21 18 22 19 23 20 24 21 25 22 27
REMARK SMILES IDX 23 28 24 29 76 30 25 31 75 32 26 33 27 34 28 35 69 36 29 37
REMARK SMILES IDX 74 38 68 39 70 40 30 41 73 42 67 43 66 44 31 46 57 47 40 48
REMARK SMILES IDX 56 49 41 50 44 51 55 52 71 53 42 54 43 55 54 57 72 58 45 59
REMARK SMILES IDX 32 60 33 61 38 62 34 63 35 64 37 65 39 66 36 67 58 68 59 69
REMARK SMILES IDX 64 70 60 71 61 72 63 73 65 74 62 75 46 76 47 77 52 78 48 79
REMARK SMILES IDX 49 80 51 81 53 82 50 83
REMARK H PARENT 16 5 6 14 9 16 20 26 70 45 44 56
REMARK Flexibility Score: inf
ROOT
ATOM      1  C   UNL     1       0.186  -2.106  -3.173  1.00  0.00     0.117 C 
ENDROOT
BRANCH   1   2
ATOM      2  N   UNL     1       0.601  -3.304  -2.462  1.00  0.00    -0.356 N 
ATOM      3  C   UNL     1       1.751  -3.629  -1.810  1.00  0.00     0.227 C 
ATOM      4  O   UNL     1       1.810  -4.760  -1.317  1.00  0.00    -0.274 OA
ATOM      5  H   UNL     1      -0.080  -4.016  -2.449  1.00  0.00     0.163 HD
BRANCH   3   6
ATOM      6  C   UNL     1       2.900  -2.641  -1.605  1.00  0.00     0.103 C 
ATOM      7  C   UNL     1       3.415  -0.470  -2.712  1.00  0.00     0.107 C 
ATOM      8  C   UNL     1       2.628  -0.340  -1.456  1.00  0.00    -0.006 C 
ATOM      9  C   UNL     1       3.517  -2.012  -2.867  1.00  0.00     0.047 C 
ATOM     10  C   UNL     1       2.384  -1.486  -0.826  1.00  0.00    -0.016 C 
BRANCH   7  11
ATOM     11  N   UNL     1       4.706   0.162  -2.537  1.00  0.00    -0.332 N 
ATOM     12  N   UNL     1       4.417   2.525  -2.482  1.00  0.00    -0.335 N 
ATOM     13  C   UNL     1       5.166   1.417  -2.510  1.00  0.00     0.315 C 
ATOM     14  H   UNL     1       4.957   3.341  -2.583  1.00  0.00     0.165 HD
ATOM     15  O   UNL     1       6.391   1.566  -2.509  1.00  0.00    -0.249 OA
ATOM     16  H   UNL     1       5.426  -0.497  -2.403  1.00  0.00     0.165 HD
BRANCH  12  17
ATOM     17  C   UNL     1       2.992   2.821  -2.338  1.00  0.00     0.083 C 
BRANCH  17  18
ATOM     18  C   UNL     1       2.632   2.983  -0.844  1.00  0.00     0.021 C 
ATOM     19  C   UNL     1       1.125   3.018  -0.600  1.00  0.00     0.006 C 
ENDBRANCH  17  18
BRANCH  17  20
ATOM     20  C   UNL     1       2.608   4.054  -3.185  1.00  0.00     0.021 C 
ATOM     21  C   UNL     1       2.980   5.403  -2.580  1.00  0.00     0.006 C 
ENDBRANCH  17  20
ENDBRANCH  12  17
ENDBRANCH   7  11
ENDBRANCH   3   6
ENDBRANCH   1   2
BRANCH   1  22
ATOM     22  C   UNL     1       0.066  -2.360  -4.667  1.00  0.00     0.042 C 
BRANCH  22  23
ATOM     23  C   UNL     1      -1.076  -3.301  -5.018  1.00  0.00     0.118 C 
BRANCH  23  24
ATOM     24  N   UNL     1      -2.384  -2.698  -4.801  1.00  0.00    -0.352 N 
ATOM     25  C   UNL     1      -3.407  -2.473  -5.695  1.00  0.00     0.251 C 
ATOM     26  H   UNL     1      -2.563  -2.406  -3.878  1.00  0.00     0.163 HD
ATOM     27  O   UNL     1      -4.366  -1.793  -5.372  1.00  0.00    -0.269 OA
BRANCH  25  28
ATOM     28  C   UNL     1      -3.317  -3.034  -7.062  1.00  0.00     0.039 A 
ATOM     29  C   UNL     1      -3.648  -2.221  -8.149  1.00  0.00     0.014 A 
ATOM     30  C   UNL     1      -2.882  -4.345  -7.270  1.00  0.00     0.014 A 
ATOM     31  C   UNL     1      -3.452  -2.694  -9.448  1.00  0.00     0.010 A 
ATOM     32  C   UNL     1      -2.604  -4.781  -8.560  1.00  0.00     0.010 A 
ATOM     33  C   UNL     1      -2.879  -3.957  -9.662  1.00  0.00    -0.014 A 
BRANCH  33  34
ATOM     34  C   UNL     1      -2.536  -4.438 -11.023  1.00  0.00     0.031 A 
ATOM     35  C   UNL     1      -3.188  -5.677 -11.570  1.00  0.00     0.074 A 
ATOM     36  C   UNL     1      -1.568  -3.817 -11.725  1.00  0.00     0.049 A 
ATOM     37  N   UNL     1      -2.930  -6.329 -12.674  1.00  0.00    -0.248 NA
ATOM     38  C   UNL     1      -4.253  -6.279 -10.751  1.00  0.00     0.031 C 
ATOM     39  C   UNL     1      -0.830  -2.631 -11.286  1.00  0.00     0.029 A 
ATOM     40  N   UNL     1      -1.023  -4.110 -12.950  1.00  0.00    -0.354 N 
ATOM     41  C   UNL     1      -3.783  -7.424 -12.674  1.00  0.00     0.074 A 
ATOM     42  C   UNL     1      -4.532  -7.378 -11.437  1.00  0.00     0.031 C 
ATOM     43  C   UNL     1       0.059  -2.289 -12.232  1.00  0.00     0.029 A 
ATOM     44  C   UNL     1      -0.011  -3.257 -13.322  1.00  0.00     0.049 A 
ATOM     45  H   UNL     1      -1.328  -4.860 -13.510  1.00  0.00     0.167 HD
ATOM     46  C   UNL     1      -3.943  -8.371 -13.628  1.00  0.00     0.037 A 
ATOM     47  C   UNL     1       0.785  -3.267 -14.407  1.00  0.00     0.037 A 
ATOM     48  C   UNL     1      -3.214  -8.399 -14.868  1.00  0.00     0.049 A 
ATOM     49  C   UNL     1       0.608  -4.346 -15.438  1.00  0.00     0.074 A 
ATOM     50  C   UNL     1      -3.354  -9.275 -15.930  1.00  0.00     0.029 A 
ATOM     51  N   UNL     1      -2.203  -7.513 -15.210  1.00  0.00    -0.354 N 
ATOM     52  N   UNL     1      -0.251  -5.336 -15.458  1.00  0.00    -0.248 NA
ATOM     53  C   UNL     1       1.514  -4.314 -16.596  1.00  0.00     0.031 C 
ATOM     54  C   UNL     1      -2.395  -8.949 -16.893  1.00  0.00     0.029 A 
ATOM     55  C   UNL     1      -1.689  -7.841 -16.453  1.00  0.00     0.049 A 
ATOM     56  H   UNL     1      -1.897  -6.762 -14.651  1.00  0.00     0.167 HD
ATOM     57  C   UNL     1      -0.005  -6.030 -16.635  1.00  0.00     0.074 A 
ATOM     58  C   UNL     1       1.074  -5.340 -17.311  1.00  0.00     0.031 C 
ATOM     59  C   UNL     1      -0.617  -7.141 -17.113  1.00  0.00     0.037 A 
BRANCH  46  60
ATOM     60  C   UNL     1      -4.947  -9.455 -13.368  1.00  0.00     0.057 A 
ATOM     61  C   UNL     1      -6.325  -9.203 -13.372  1.00  0.00     0.134 A 
ATOM     62  C   UNL     1      -4.533 -10.775 -13.148  1.00  0.00     0.134 A 
ATOM     63  F   UNL     1      -6.787  -7.958 -13.565  1.00  0.00    -0.206 F 
ATOM     64  C   UNL     1      -7.255 -10.218 -13.142  1.00  0.00     0.040 A 
ATOM     65  C   UNL     1      -5.454 -11.804 -12.944  1.00  0.00     0.040 A 
ATOM     66  F   UNL     1      -3.229 -11.088 -13.137  1.00  0.00    -0.206 F 
ATOM     67  C   UNL     1      -6.819 -11.525 -12.935  1.00  0.00     0.006 A 
ENDBRANCH  46  60
BRANCH  47  68
ATOM     68  C   UNL     1       1.823  -2.219 -14.578  1.00  0.00     0.057 A 
ATOM     69  C   UNL     1       1.702  -1.240 -15.571  1.00  0.00     0.134 A 
ATOM     70  C   UNL     1       2.959  -2.171 -13.761  1.00  0.00     0.134 A 
ATOM     71  F   UNL     1       0.646  -1.245 -16.397  1.00  0.00    -0.206 F 
ATOM     72  C   UNL     1       2.681  -0.263 -15.758  1.00  0.00     0.040 A 
ATOM     73  C   UNL     1       3.934  -1.184 -13.920  1.00  0.00     0.040 A 
ATOM     74  F   UNL     1       3.131  -3.076 -12.786  1.00  0.00    -0.206 F 
ATOM     75  C   UNL     1       3.799  -0.230 -14.927  1.00  0.00     0.006 A 
ENDBRANCH  47  68
BRANCH  59  76
ATOM     76  C   UNL     1      -0.151  -7.669 -18.437  1.00  0.00     0.057 A 
ATOM     77  C   UNL     1       1.071  -8.339 -18.574  1.00  0.00     0.134 A 
ATOM     78  C   UNL     1      -0.962  -7.560 -19.574  1.00  0.00     0.134 A 
ATOM     79  F   UNL     1       1.899  -8.464 -17.525  1.00  0.00    -0.206 F 
ATOM     80  C   UNL     1       1.476  -8.870 -19.799  1.00  0.00     0.040 A 
ATOM     81  C   UNL     1      -0.579  -8.109 -20.798  1.00  0.00     0.040 A 
ATOM     82  F   UNL     1      -2.148  -6.937 -19.508  1.00  0.00    -0.206 F 
ATOM     83  C   UNL     1       0.646  -8.764 -20.913  1.00  0.00     0.006 A 
ENDBRANCH  59  76
ENDBRANCH  33  34
ENDBRANCH  25  28
ENDBRANCH  23  24
ENDBRANCH  22  23
ENDBRANCH   1  22
TORSDOF 14
