REMARK SMILES CCOC(=O)c1c(S(=O)(=O)N2CCC[C@@H](C(=O)NCCCNC(=O)c3ccc(-c4c5nc(c(-c6c(F)cccc6F)c6ccc([nH]6)c(-c6c(F)cccc6F)c6nc(c(-c7c(F)cccc7F)c7ccc4[nH]7)C=C6)C=C5)cc3)C2)c(C)n(C)c1C
REMARK SMILES IDX 16 1 17 2 18 3 15 5 11 6 12 7 79 8 13 9 14 10 8 11 9 12
REMARK SMILES IDX 10 13 7 14 6 15 84 16 80 17 82 18 85 19 81 20 83 21 4 22
REMARK SMILES IDX 5 23 3 24 2 25 1 26 19 27 20 28 21 29 22 30 23 31 24 33
REMARK SMILES IDX 25 34 26 35 78 36 27 37 77 38 28 39 29 40 30 41 71 42 31 43
REMARK SMILES IDX 76 44 70 45 72 46 32 47 75 48 69 49 68 50 33 52 59 53 42 54
REMARK SMILES IDX 58 55 43 56 46 57 57 58 73 59 44 60 45 61 56 63 74 64 47 65
REMARK SMILES IDX 34 66 35 67 40 68 36 69 37 70 39 71 41 72 38 73 60 74 61 75
REMARK SMILES IDX 66 76 62 77 63 78 65 79 67 80 64 81 48 82 49 83 54 84 50 85
REMARK SMILES IDX 51 86 53 87 55 88 52 89
REMARK H PARENT 18 4 22 32 72 51 46 62
REMARK Flexibility Score: inf
ROOT
ATOM      1  C   UNL     1       1.955  -1.043  -2.241  1.00  0.00     0.224 C 
ATOM      2  O   UNL     1       1.271  -0.276  -2.925  1.00  0.00    -0.275 OA
ATOM      3  N   UNL     1       1.405  -2.259  -1.983  1.00  0.00    -0.356 N 
ATOM      4  H   UNL     1       0.485  -2.367  -2.316  1.00  0.00     0.163 HD
ENDROOT
BRANCH   1   5
ATOM      5  C   UNL     1       3.355  -0.657  -1.751  1.00  0.00     0.093 C 
ATOM      6  N   UNL     1       4.815   1.414  -1.580  1.00  0.00    -0.197 NA
ATOM      7  C   UNL     1       5.339   1.007  -0.266  1.00  0.00     0.102 C 
ATOM      8  C   UNL     1       3.594   0.806  -2.149  1.00  0.00     0.116 C 
ATOM      9  C   UNL     1       4.998  -0.419   0.111  1.00  0.00     0.018 C 
ATOM     10  C   UNL     1       3.579  -0.811  -0.251  1.00  0.00     0.016 C 
BRANCH   6  11
ATOM     11  S   UNL     1       5.102   3.026  -2.006  1.00  0.00     0.245 S 
ATOM     12  O   UNL     1       4.861   3.138  -3.432  1.00  0.00    -0.207 OA
ATOM     13  O   UNL     1       6.377   3.413  -1.438  1.00  0.00    -0.207 OA
BRANCH  11  14
ATOM     14  C   UNL     1       3.997   4.212  -1.344  1.00  0.00     0.118 A 
ATOM     15  C   UNL     1       2.841   4.068  -0.506  1.00  0.00     0.101 A 
ATOM     16  C   UNL     1       2.315   5.354  -0.332  1.00  0.00     0.030 A 
ATOM     17  C   UNL     1       4.130   5.570  -1.644  1.00  0.00     0.035 A 
ATOM     18  N   UNL     1       3.107   6.244  -1.022  1.00  0.00    -0.350 N 
ATOM     19  C   UNL     1       1.139   5.803   0.476  1.00  0.00     0.065 C 
ATOM     20  C   UNL     1       5.171   6.240  -2.486  1.00  0.00     0.066 C 
ATOM     21  C   UNL     1       2.923   7.682  -1.075  1.00  0.00     0.149 C 
BRANCH  15  22
ATOM     22  C   UNL     1       2.269   2.905   0.162  1.00  0.00     0.341 C 
ATOM     23  O   UNL     1       2.899   2.192   0.926  1.00  0.00    -0.246 OA
BRANCH  22  24
ATOM     24  O   UNL     1       0.925   2.779  -0.065  1.00  0.00    -0.462 OA
BRANCH  24  25
ATOM     25  C   UNL     1       0.208   1.902   0.821  1.00  0.00     0.230 C 
ATOM     26  C   UNL     1      -0.121   0.596   0.132  1.00  0.00     0.049 C 
ENDBRANCH  24  25
ENDBRANCH  22  24
ENDBRANCH  15  22
ENDBRANCH  11  14
ENDBRANCH   6  11
ENDBRANCH   1   5
BRANCH   3  27
ATOM     27  C   UNL     1       1.936  -3.428  -1.303  1.00  0.00     0.117 C 
BRANCH  27  28
ATOM     28  C   UNL     1       1.447  -3.555   0.147  1.00  0.00     0.042 C 
BRANCH  28  29
ATOM     29  C   UNL     1      -0.032  -3.874   0.255  1.00  0.00     0.118 C 
BRANCH  29  30
ATOM     30  N   UNL     1      -0.386  -5.203  -0.248  1.00  0.00    -0.352 N 
ATOM     31  C   UNL     1      -1.628  -5.811  -0.306  1.00  0.00     0.251 C 
ATOM     32  H   UNL     1       0.365  -5.739  -0.592  1.00  0.00     0.163 HD
ATOM     33  O   UNL     1      -1.719  -7.026  -0.446  1.00  0.00    -0.269 OA
BRANCH  31  34
ATOM     34  C   UNL     1      -2.844  -4.986  -0.194  1.00  0.00     0.039 A 
ATOM     35  C   UNL     1      -4.022  -5.463   0.392  1.00  0.00     0.014 A 
ATOM     36  C   UNL     1      -2.794  -3.695  -0.697  1.00  0.00     0.014 A 
ATOM     37  C   UNL     1      -5.115  -4.603   0.497  1.00  0.00     0.010 A 
ATOM     38  C   UNL     1      -3.753  -2.790  -0.358  1.00  0.00     0.010 A 
ATOM     39  C   UNL     1      -4.964  -3.263   0.114  1.00  0.00    -0.014 A 
BRANCH  39  40
ATOM     40  C   UNL     1      -6.040  -2.290   0.216  1.00  0.00     0.031 A 
ATOM     41  C   UNL     1      -6.567  -2.097   1.587  1.00  0.00     0.074 A 
ATOM     42  C   UNL     1      -6.332  -1.440  -0.795  1.00  0.00     0.049 A 
ATOM     43  N   UNL     1      -7.743  -2.384   2.033  1.00  0.00    -0.248 NA
ATOM     44  C   UNL     1      -5.623  -1.656   2.627  1.00  0.00     0.031 C 
ATOM     45  C   UNL     1      -5.643  -1.278  -2.086  1.00  0.00     0.029 A 
ATOM     46  N   UNL     1      -7.248  -0.437  -0.829  1.00  0.00    -0.354 N 
ATOM     47  C   UNL     1      -7.759  -1.950   3.355  1.00  0.00     0.074 A 
ATOM     48  C   UNL     1      -6.387  -1.718   3.718  1.00  0.00     0.031 C 
ATOM     49  C   UNL     1      -6.004  -0.107  -2.654  1.00  0.00     0.029 A 
ATOM     50  C   UNL     1      -7.077   0.469  -1.869  1.00  0.00     0.049 A 
ATOM     51  H   UNL     1      -7.974  -0.359  -0.169  1.00  0.00     0.167 HD
ATOM     52  C   UNL     1      -8.921  -1.554   3.945  1.00  0.00     0.037 A 
ATOM     53  C   UNL     1      -7.758   1.626  -2.051  1.00  0.00     0.037 A 
ATOM     54  C   UNL     1     -10.065  -2.025   3.198  1.00  0.00     0.049 A 
ATOM     55  C   UNL     1      -8.991   1.541  -1.230  1.00  0.00     0.074 A 
ATOM     56  C   UNL     1     -10.519  -3.266   2.794  1.00  0.00     0.029 A 
ATOM     57  N   UNL     1     -10.736  -1.117   2.415  1.00  0.00    -0.354 N 
ATOM     58  N   UNL     1      -9.972   0.717  -1.472  1.00  0.00    -0.248 NA
ATOM     59  C   UNL     1      -8.926   2.052   0.131  1.00  0.00     0.031 C 
ATOM     60  C   UNL     1     -11.040  -3.059   1.481  1.00  0.00     0.029 A 
ATOM     61  C   UNL     1     -10.938  -1.698   1.190  1.00  0.00     0.049 A 
ATOM     62  H   UNL     1     -11.021  -0.213   2.685  1.00  0.00     0.167 HD
ATOM     63  C   UNL     1     -10.377   0.272  -0.222  1.00  0.00     0.074 A 
ATOM     64  C   UNL     1      -9.763   1.199   0.727  1.00  0.00     0.031 C 
ATOM     65  C   UNL     1     -10.923  -0.969  -0.058  1.00  0.00     0.037 A 
BRANCH  52  66
ATOM     66  C   UNL     1      -9.025  -0.420   4.943  1.00  0.00     0.057 A 
ATOM     67  C   UNL     1     -10.274  -0.152   5.534  1.00  0.00     0.134 A 
ATOM     68  C   UNL     1      -8.056   0.589   5.125  1.00  0.00     0.134 A 
ATOM     69  F   UNL     1     -11.284  -1.029   5.438  1.00  0.00    -0.206 F 
ATOM     70  C   UNL     1     -10.564   1.065   6.164  1.00  0.00     0.040 A 
ATOM     71  C   UNL     1      -8.319   1.784   5.800  1.00  0.00     0.040 A 
ATOM     72  F   UNL     1      -6.834   0.531   4.585  1.00  0.00    -0.206 F 
ATOM     73  C   UNL     1      -9.588   2.044   6.288  1.00  0.00     0.006 A 
ENDBRANCH  52  66
BRANCH  53  74
ATOM     74  C   UNL     1      -7.290   2.895  -2.650  1.00  0.00     0.057 A 
ATOM     75  C   UNL     1      -8.198   3.879  -3.063  1.00  0.00     0.134 A 
ATOM     76  C   UNL     1      -5.942   3.290  -2.574  1.00  0.00     0.134 A 
ATOM     77  F   UNL     1      -9.510   3.608  -3.130  1.00  0.00    -0.206 F 
ATOM     78  C   UNL     1      -7.796   5.189  -3.355  1.00  0.00     0.040 A 
ATOM     79  C   UNL     1      -5.526   4.593  -2.870  1.00  0.00     0.040 A 
ATOM     80  F   UNL     1      -4.999   2.451  -2.121  1.00  0.00    -0.206 F 
ATOM     81  C   UNL     1      -6.457   5.553  -3.246  1.00  0.00     0.006 A 
ENDBRANCH  53  74
BRANCH  65  82
ATOM     82  C   UNL     1     -11.312  -1.736  -1.295  1.00  0.00     0.057 A 
ATOM     83  C   UNL     1     -10.404  -2.174  -2.272  1.00  0.00     0.134 A 
ATOM     84  C   UNL     1     -12.634  -2.175  -1.426  1.00  0.00     0.134 A 
ATOM     85  F   UNL     1      -9.100  -1.892  -2.183  1.00  0.00    -0.206 F 
ATOM     86  C   UNL     1     -10.801  -2.973  -3.349  1.00  0.00     0.040 A 
ATOM     87  C   UNL     1     -13.037  -3.002  -2.478  1.00  0.00     0.040 A 
ATOM     88  F   UNL     1     -13.549  -1.845  -0.501  1.00  0.00    -0.206 F 
ATOM     89  C   UNL     1     -12.122  -3.396  -3.450  1.00  0.00     0.006 A 
ENDBRANCH  65  82
ENDBRANCH  39  40
ENDBRANCH  31  34
ENDBRANCH  29  30
ENDBRANCH  28  29
ENDBRANCH  27  28
ENDBRANCH   3  27
TORSDOF 15
