REMARK SMILES O=C1OC(c2ccc(Cl)cc2)=N/C1=C/Nc1ccc(O)c(C(=O)NCCCNC(=O)c2ccc(-c3c4nc(c(-c5c(F)cccc5F)c5ccc([nH]5)c(-c5c(F)cccc5F)c5nc(c(-c6c(F)cccc6F)c6ccc3[nH]6)C=C5)C=C4)cc2)c1
REMARK SMILES IDX 25 1 24 2 22 3 23 4 21 6 16 7 17 8 85 9 18 10 19 11 15 12
REMARK SMILES IDX 14 14 1 15 2 16 3 17 13 18 4 19 12 20 5 21 6 22 11 23 7 24
REMARK SMILES IDX 10 25 8 26 9 27 20 28 26 30 27 31 28 32 29 33 30 35 31 36
REMARK SMILES IDX 32 37 84 38 33 39 83 40 34 41 35 42 36 43 77 44 37 45 82 46
REMARK SMILES IDX 76 47 78 48 38 49 81 50 75 51 74 52 39 54 65 55 48 56 64 57
REMARK SMILES IDX 49 58 52 59 63 60 79 61 50 62 51 63 62 65 80 66 53 67 40 68
REMARK SMILES IDX 41 69 46 70 42 71 43 72 45 73 47 74 44 75 66 76 67 77 72 78
REMARK SMILES IDX 68 79 69 80 71 81 73 82 70 83 54 84 55 85 60 86 56 87 57 88
REMARK SMILES IDX 59 89 61 90 58 91
REMARK H PARENT 24 5 15 13 20 29 28 34 78 53 52 64
REMARK Flexibility Score: inf
ROOT
ATOM      1  C   UNL     1      -1.969  -9.448  -1.328  1.00  0.00     0.118 C 
ENDROOT
BRANCH   1   2
ATOM      2  N   UNL     1      -2.819  -8.334  -1.687  1.00  0.00    -0.352 N 
ATOM      3  C   UNL     1      -2.871  -7.034  -1.262  1.00  0.00     0.255 C 
ATOM      4  O   UNL     1      -3.795  -6.358  -1.729  1.00  0.00    -0.269 OA
ATOM      5  H   UNL     1      -3.493  -8.554  -2.370  1.00  0.00     0.163 HD
BRANCH   3   6
ATOM      6  C   UNL     1      -1.866  -6.360  -0.382  1.00  0.00     0.083 A 
ATOM      7  C   UNL     1      -0.845  -4.168   0.095  1.00  0.00     0.039 A 
ATOM      8  C   UNL     1       0.009  -4.780   1.011  1.00  0.00     0.030 A 
ATOM      9  C   UNL     1      -1.753  -4.970  -0.605  1.00  0.00     0.043 A 
ATOM     10  C   UNL     1      -0.115  -6.137   1.294  1.00  0.00     0.049 A 
ATOM     11  C   UNL     1      -1.068  -6.915   0.626  1.00  0.00     0.128 A 
BRANCH   7  12
ATOM     12  N   UNL     1      -0.779  -2.799  -0.184  1.00  0.00    -0.360 N 
ATOM     13  H   UNL     1      -1.621  -2.357  -0.440  1.00  0.00     0.166 HD
BRANCH  12  14
ATOM     14  C   UNL     1       0.341  -2.012  -0.138  1.00  0.00     0.119 C 
ATOM     15  O   UNL     1      -1.897   0.013  -0.006  1.00  0.00    -0.244 OA
ATOM     16  C   UNL     1      -0.708   0.253  -0.011  1.00  0.00     0.365 C 
ATOM     17  O   UNL     1      -0.099   1.471   0.083  1.00  0.00    -0.402 OA
ATOM     18  C   UNL     1       0.446  -0.682  -0.109  1.00  0.00     0.168 C 
ATOM     19  C   UNL     1       1.228   1.230  -0.008  1.00  0.00     0.231 C 
ATOM     20  N   UNL     1       1.627   0.007  -0.127  1.00  0.00    -0.204 NA
BRANCH  19  21
ATOM     21  C   UNL     1       2.075   2.416  -0.025  1.00  0.00     0.037 A 
ATOM     22  C   UNL     1       1.978   3.373   0.988  1.00  0.00     0.015 A 
ATOM     23  C   UNL     1       3.014   2.548  -1.053  1.00  0.00     0.015 A 
ATOM     24  C   UNL     1       2.837   4.474   0.969  1.00  0.00     0.021 A 
ATOM     25  C   UNL     1       3.855   3.660  -1.077  1.00  0.00     0.021 A 
ATOM     26  C   UNL     1       3.767   4.615  -0.063  1.00  0.00     0.041 A 
ATOM     27  Cl  UNL     1       4.821   5.974  -0.083  1.00  0.00    -0.084 Cl
ENDBRANCH  19  21
ENDBRANCH  12  14
ENDBRANCH   7  12
BRANCH  11  28
ATOM     28  O   UNL     1      -1.210  -8.199   1.057  1.00  0.00    -0.507 OA
ATOM     29  H   UNL     1      -0.654  -8.530   1.734  1.00  0.00     0.293 HD
ENDBRANCH  11  28
ENDBRANCH   3   6
ENDBRANCH   1   2
BRANCH   1  30
ATOM     30  C   UNL     1      -2.624 -10.282  -0.225  1.00  0.00     0.042 C 
BRANCH  30  31
ATOM     31  C   UNL     1      -3.693 -11.232  -0.747  1.00  0.00     0.118 C 
BRANCH  31  32
ATOM     32  N   UNL     1      -3.111 -12.321  -1.521  1.00  0.00    -0.352 N 
ATOM     33  C   UNL     1      -3.108 -13.670  -1.279  1.00  0.00     0.251 C 
ATOM     34  H   UNL     1      -2.649 -12.045  -2.345  1.00  0.00     0.163 HD
ATOM     35  O   UNL     1      -2.338 -14.398  -1.897  1.00  0.00    -0.269 OA
BRANCH  33  36
ATOM     36  C   UNL     1      -4.020 -14.251  -0.271  1.00  0.00     0.039 A 
ATOM     37  C   UNL     1      -3.548 -15.276   0.554  1.00  0.00     0.014 A 
ATOM     38  C   UNL     1      -5.342 -13.813  -0.157  1.00  0.00     0.014 A 
ATOM     39  C   UNL     1      -4.381 -15.813   1.537  1.00  0.00     0.010 A 
ATOM     40  C   UNL     1      -6.146 -14.292   0.872  1.00  0.00     0.010 A 
ATOM     41  C   UNL     1      -5.672 -15.295   1.730  1.00  0.00    -0.014 A 
BRANCH  41  42
ATOM     42  C   UNL     1      -6.532 -15.767   2.844  1.00  0.00     0.031 A 
ATOM     43  C   UNL     1      -7.836 -16.456   2.560  1.00  0.00     0.074 A 
ATOM     44  C   UNL     1      -6.167 -15.502   4.113  1.00  0.00     0.049 A 
ATOM     45  N   UNL     1      -8.753 -16.867   3.398  1.00  0.00    -0.248 NA
ATOM     46  C   UNL     1      -8.163 -16.693   1.145  1.00  0.00     0.031 C 
ATOM     47  C   UNL     1      -4.942 -14.806   4.512  1.00  0.00     0.029 A 
ATOM     48  N   UNL     1      -6.795 -15.777   5.301  1.00  0.00    -0.354 N 
ATOM     49  C   UNL     1      -9.767 -17.402   2.614  1.00  0.00     0.074 A 
ATOM     50  C   UNL     1      -9.379 -17.211   1.233  1.00  0.00     0.031 C 
ATOM     51  C   UNL     1      -4.896 -14.731   5.851  1.00  0.00     0.029 A 
ATOM     52  C   UNL     1      -6.108 -15.326   6.402  1.00  0.00     0.049 A 
ATOM     53  H   UNL     1      -7.656 -16.251   5.359  1.00  0.00     0.167 HD
ATOM     54  C   UNL     1     -10.908 -18.016   3.011  1.00  0.00     0.037 A 
ATOM     55  C   UNL     1      -6.427 -15.374   7.709  1.00  0.00     0.037 A 
ATOM     56  C   UNL     1     -11.287 -18.199   4.388  1.00  0.00     0.049 A 
ATOM     57  C   UNL     1      -7.723 -16.012   8.122  1.00  0.00     0.074 A 
ATOM     58  C   UNL     1     -12.398 -18.848   4.899  1.00  0.00     0.029 A 
ATOM     59  N   UNL     1     -10.572 -17.717   5.476  1.00  0.00    -0.354 N 
ATOM     60  N   UNL     1      -8.641 -16.578   7.376  1.00  0.00    -0.248 NA
ATOM     61  C   UNL     1      -8.029 -16.018   9.559  1.00  0.00     0.031 C 
ATOM     62  C   UNL     1     -12.386 -18.706   6.290  1.00  0.00     0.029 A 
ATOM     63  C   UNL     1     -11.236 -18.023   6.653  1.00  0.00     0.049 A 
ATOM     64  H   UNL     1      -9.718 -17.230   5.420  1.00  0.00     0.167 HD
ATOM     65  C   UNL     1      -9.619 -17.030   8.252  1.00  0.00     0.074 A 
ATOM     66  C   UNL     1      -9.174 -16.686   9.587  1.00  0.00     0.031 C 
ATOM     67  C   UNL     1     -10.781 -17.673   7.976  1.00  0.00     0.037 A 
BRANCH  54  68
ATOM     68  C   UNL     1     -11.831 -18.520   1.937  1.00  0.00     0.057 A 
ATOM     69  C   UNL     1     -11.479 -19.586   1.097  1.00  0.00     0.134 A 
ATOM     70  C   UNL     1     -13.093 -17.943   1.747  1.00  0.00     0.134 A 
ATOM     71  F   UNL     1     -10.282 -20.180   1.217  1.00  0.00    -0.206 F 
ATOM     72  C   UNL     1     -12.331 -20.034   0.086  1.00  0.00     0.040 A 
ATOM     73  C   UNL     1     -13.967 -18.403   0.761  1.00  0.00     0.040 A 
ATOM     74  F   UNL     1     -13.501 -16.925   2.520  1.00  0.00    -0.206 F 
ATOM     75  C   UNL     1     -13.582 -19.445  -0.081  1.00  0.00     0.006 A 
ENDBRANCH  54  68
BRANCH  55  76
ATOM     76  C   UNL     1      -5.494 -14.815   8.720  1.00  0.00     0.057 A 
ATOM     77  C   UNL     1      -4.808 -15.653   9.606  1.00  0.00     0.134 A 
ATOM     78  C   UNL     1      -5.256 -13.439   8.819  1.00  0.00     0.134 A 
ATOM     79  F   UNL     1      -5.006 -16.979   9.571  1.00  0.00    -0.206 F 
ATOM     80  C   UNL     1      -3.932 -15.143  10.565  1.00  0.00     0.040 A 
ATOM     81  C   UNL     1      -4.361 -12.917   9.755  1.00  0.00     0.040 A 
ATOM     82  F   UNL     1      -5.874 -12.582   7.992  1.00  0.00    -0.206 F 
ATOM     83  C   UNL     1      -3.701 -13.770  10.636  1.00  0.00     0.006 A 
ENDBRANCH  55  76
BRANCH  67  84
ATOM     84  C   UNL     1     -11.640 -18.072   9.141  1.00  0.00     0.057 A 
ATOM     85  C   UNL     1     -12.346 -17.129   9.899  1.00  0.00     0.134 A 
ATOM     86  C   UNL     1     -11.800 -19.422   9.479  1.00  0.00     0.134 A 
ATOM     87  F   UNL     1     -12.226 -15.818   9.638  1.00  0.00    -0.206 F 
ATOM     88  C   UNL     1     -13.165 -17.513  10.963  1.00  0.00     0.040 A 
ATOM     89  C   UNL     1     -12.639 -19.821  10.520  1.00  0.00     0.040 A 
ATOM     90  F   UNL     1     -11.159 -20.378   8.790  1.00  0.00    -0.206 F 
ATOM     91  C   UNL     1     -13.320 -18.864  11.270  1.00  0.00     0.006 A 
ENDBRANCH  67  84
ENDBRANCH  41  42
ENDBRANCH  33  36
ENDBRANCH  31  32
ENDBRANCH  30  31
ENDBRANCH   1  30
TORSDOF 14
