REMARK SMILES CC1(C)CCC[C@@H]1Nc1cccc(F)c1C(=O)NCCCNC(=O)c1ccc(-c2c3nc(c(-c4c(F)cccc4F)c4ccc([nH]4)c(-c4c(F)cccc4F)c4nc(c(-c5c(F)cccc5F)c5ccc2[nH]5)C=C4)C=C3)cc1
REMARK SMILES IDX 20 1 19 2 18 3 16 4 17 5 15 7 9 8 10 9 11 10 13 11 12 12
REMARK SMILES IDX 14 13 8 14 7 16 1 17 2 18 3 19 4 20 5 21 6 22 21 23 22 24
REMARK SMILES IDX 23 25 24 27 25 28 26 29 78 30 27 31 77 32 28 33 29 34 30 35
REMARK SMILES IDX 71 36 31 37 76 38 70 39 72 40 32 41 75 42 69 43 68 44 33 46
REMARK SMILES IDX 59 47 42 48 58 49 43 50 46 51 57 52 73 53 44 54 45 55 56 57
REMARK SMILES IDX 74 58 47 59 34 60 35 61 40 62 36 63 37 64 39 65 41 66 38 67
REMARK SMILES IDX 60 68 61 69 66 70 62 71 63 72 65 73 67 74 64 75 48 76 49 77
REMARK SMILES IDX 54 78 50 79 51 80 53 81 55 82 52 83
REMARK H PARENT 18 6 8 15 22 26 72 45 46 56
REMARK Flexibility Score: inf
ROOT
ATOM      1  C   UNL     1      -1.466   6.483  -4.930  1.00  0.00     0.042 C 
ENDROOT
BRANCH   1   2
ATOM      2  C   UNL     1      -2.129   5.258  -4.294  1.00  0.00     0.118 C 
BRANCH   2   3
ATOM      3  N   UNL     1      -1.128   4.267  -3.949  1.00  0.00    -0.352 N 
ATOM      4  C   UNL     1      -0.452   3.950  -2.799  1.00  0.00     0.256 C 
ATOM      5  O   UNL     1       0.426   3.091  -2.942  1.00  0.00    -0.269 OA
ATOM      6  H   UNL     1      -0.879   3.694  -4.709  1.00  0.00     0.163 HD
BRANCH   4   7
ATOM      7  C   UNL     1      -0.748   4.479  -1.428  1.00  0.00     0.098 A 
ATOM      8  C   UNL     1      -0.479   3.637  -0.305  1.00  0.00     0.050 A 
ATOM      9  C   UNL     1      -0.813   4.094   0.984  1.00  0.00     0.027 A 
ATOM     10  C   UNL     1      -1.375   5.351   1.189  1.00  0.00     0.005 A 
ATOM     11  C   UNL     1      -1.251   5.760  -1.183  1.00  0.00     0.138 A 
ATOM     12  C   UNL     1      -1.585   6.187   0.103  1.00  0.00     0.040 A 
ATOM     13  F   UNL     1      -1.381   6.670  -2.153  1.00  0.00    -0.206 F 
BRANCH   8  14
ATOM     14  N   UNL     1       0.111   2.384  -0.467  1.00  0.00    -0.381 N 
ATOM     15  H   UNL     1       0.816   2.295  -1.148  1.00  0.00     0.160 HD
BRANCH  14  16
ATOM     16  C   UNL     1      -0.240   1.203   0.297  1.00  0.00     0.084 C 
ATOM     17  C   UNL     1       1.991   0.062   0.788  1.00  0.00     0.013 C 
ATOM     18  C   UNL     1       0.680  -0.009  -0.003  1.00  0.00    -0.015 C 
ATOM     19  C   UNL     1       1.013  -0.206  -1.496  1.00  0.00     0.013 C 
ATOM     20  C   UNL     1      -0.203  -1.167   0.495  1.00  0.00     0.008 C 
ATOM     21  C   UNL     1      -1.611  -0.810   0.028  1.00  0.00     0.003 C 
ATOM     22  C   UNL     1      -1.651   0.715  -0.059  1.00  0.00     0.025 C 
ENDBRANCH  14  16
ENDBRANCH   8  14
ENDBRANCH   4   7
ENDBRANCH   2   3
ENDBRANCH   1   2
BRANCH   1  23
ATOM     23  C   UNL     1      -0.974   6.240  -6.357  1.00  0.00     0.118 C 
BRANCH  23  24
ATOM     24  N   UNL     1      -2.076   6.116  -7.300  1.00  0.00    -0.352 N 
ATOM     25  C   UNL     1      -2.383   6.866  -8.407  1.00  0.00     0.251 C 
ATOM     26  H   UNL     1      -2.699   5.377  -7.115  1.00  0.00     0.163 HD
ATOM     27  O   UNL     1      -3.486   6.742  -8.932  1.00  0.00    -0.269 OA
BRANCH  25  28
ATOM     28  C   UNL     1      -1.408   7.824  -8.975  1.00  0.00     0.039 A 
ATOM     29  C   UNL     1      -1.877   9.049  -9.460  1.00  0.00     0.014 A 
ATOM     30  C   UNL     1      -0.053   7.501  -9.096  1.00  0.00     0.014 A 
ATOM     31  C   UNL     1      -0.984   9.966 -10.021  1.00  0.00     0.010 A 
ATOM     32  C   UNL     1       0.847   8.443  -9.594  1.00  0.00     0.010 A 
ATOM     33  C   UNL     1       0.390   9.682 -10.067  1.00  0.00    -0.014 A 
BRANCH  33  34
ATOM     34  C   UNL     1       1.360  10.668 -10.608  1.00  0.00     0.031 A 
ATOM     35  C   UNL     1       2.143  10.361 -11.854  1.00  0.00     0.074 A 
ATOM     36  C   UNL     1       1.570  11.823  -9.948  1.00  0.00     0.049 A 
ATOM     37  N   UNL     1       3.078  11.067 -12.438  1.00  0.00    -0.248 NA
ATOM     38  C   UNL     1       1.851   9.083 -12.523  1.00  0.00     0.031 C 
ATOM     39  C   UNL     1       0.895  12.224  -8.712  1.00  0.00     0.029 A 
ATOM     40  N   UNL     1       2.412  12.872 -10.221  1.00  0.00    -0.354 N 
ATOM     41  C   UNL     1       3.493  10.317 -13.531  1.00  0.00     0.074 A 
ATOM     42  C   UNL     1       2.744   9.079 -13.502  1.00  0.00     0.031 C 
ATOM     43  C   UNL     1       1.325  13.443  -8.352  1.00  0.00     0.029 A 
ATOM     44  C   UNL     1       2.334  13.893  -9.306  1.00  0.00     0.049 A 
ATOM     45  H   UNL     1       3.015  12.890 -10.999  1.00  0.00     0.167 HD
ATOM     46  C   UNL     1       4.397  10.642 -14.485  1.00  0.00     0.037 A 
ATOM     47  C   UNL     1       3.003  15.060  -9.240  1.00  0.00     0.037 A 
ATOM     48  C   UNL     1       5.123  11.884 -14.523  1.00  0.00     0.049 A 
ATOM     49  C   UNL     1       4.015  15.390 -10.300  1.00  0.00     0.074 A 
ATOM     50  C   UNL     1       6.031  12.322 -15.472  1.00  0.00     0.029 A 
ATOM     51  N   UNL     1       5.019  12.890 -13.574  1.00  0.00    -0.354 N 
ATOM     52  N   UNL     1       4.371  14.686 -11.347  1.00  0.00    -0.248 NA
ATOM     53  C   UNL     1       4.718  16.674 -10.171  1.00  0.00     0.031 C 
ATOM     54  C   UNL     1       6.506  13.575 -15.076  1.00  0.00     0.029 A 
ATOM     55  C   UNL     1       5.859  13.940 -13.907  1.00  0.00     0.049 A 
ATOM     56  H   UNL     1       4.435  12.862 -12.782  1.00  0.00     0.167 HD
ATOM     57  C   UNL     1       5.320  15.449 -12.014  1.00  0.00     0.074 A 
ATOM     58  C   UNL     1       5.476  16.676 -11.259  1.00  0.00     0.031 C 
ATOM     59  C   UNL     1       6.000  15.158 -13.149  1.00  0.00     0.037 A 
BRANCH  46  60
ATOM     60  C   UNL     1       4.645   9.644 -15.579  1.00  0.00     0.057 A 
ATOM     61  C   UNL     1       5.872   8.975 -15.677  1.00  0.00     0.134 A 
ATOM     62  C   UNL     1       3.690   9.390 -16.572  1.00  0.00     0.134 A 
ATOM     63  F   UNL     1       6.834   9.177 -14.765  1.00  0.00    -0.206 F 
ATOM     64  C   UNL     1       6.141   8.095 -16.728  1.00  0.00     0.040 A 
ATOM     65  C   UNL     1       3.938   8.493 -17.612  1.00  0.00     0.040 A 
ATOM     66  F   UNL     1       2.491   9.991 -16.531  1.00  0.00    -0.206 F 
ATOM     67  C   UNL     1       5.170   7.849 -17.697  1.00  0.00     0.006 A 
ENDBRANCH  46  60
BRANCH  47  68
ATOM     68  C   UNL     1       2.700  16.018  -8.147  1.00  0.00     0.057 A 
ATOM     69  C   UNL     1       3.064  15.759  -6.820  1.00  0.00     0.134 A 
ATOM     70  C   UNL     1       2.007  17.205  -8.406  1.00  0.00     0.134 A 
ATOM     71  F   UNL     1       3.723  14.635  -6.505  1.00  0.00    -0.206 F 
ATOM     72  C   UNL     1       2.732  16.638  -5.787  1.00  0.00     0.040 A 
ATOM     73  C   UNL     1       1.689  18.104  -7.387  1.00  0.00     0.040 A 
ATOM     74  F   UNL     1       1.647  17.516  -9.660  1.00  0.00    -0.206 F 
ATOM     75  C   UNL     1       2.045  17.817  -6.071  1.00  0.00     0.006 A 
ENDBRANCH  47  68
BRANCH  59  76
ATOM     76  C   UNL     1       6.961  16.187 -13.666  1.00  0.00     0.057 A 
ATOM     77  C   UNL     1       6.678  16.900 -14.839  1.00  0.00     0.134 A 
ATOM     78  C   UNL     1       8.196  16.416 -13.050  1.00  0.00     0.134 A 
ATOM     79  F   UNL     1       5.515  16.718 -15.483  1.00  0.00    -0.206 F 
ATOM     80  C   UNL     1       7.598  17.794 -15.388  1.00  0.00     0.040 A 
ATOM     81  C   UNL     1       9.114  17.327 -13.576  1.00  0.00     0.040 A 
ATOM     82  F   UNL     1       8.522  15.773 -11.919  1.00  0.00    -0.206 F 
ATOM     83  C   UNL     1       8.819  18.011 -14.755  1.00  0.00     0.006 A 
ENDBRANCH  59  76
ENDBRANCH  33  34
ENDBRANCH  25  28
ENDBRANCH  23  24
ENDBRANCH   1  23
TORSDOF 12
