REMARK SMILES O=C(NCCCNC(=O)c1[nH]ncc1C[N@H+]1CCC[C@@H](c2nc3ccccc3o2)C1)c1ccc(-c2c3nc(c(-c4c(F)cccc4F)c4ccc([nH]4)c(-c4c(F)cccc4F)c4nc(c(-c5c(F)cccc5F)c5ccc2[nH]5)C=C4)C=C3)cc1
REMARK SMILES IDX 5 1 4 2 3 3 1 4 2 5 31 7 32 8 84 9 33 10 83 11 34 12 35 13
REMARK SMILES IDX 36 14 77 15 37 16 82 17 76 18 78 19 38 20 81 21 75 22 74 23
REMARK SMILES IDX 39 25 65 26 48 27 64 28 49 29 52 30 63 31 79 32 50 33 51 34
REMARK SMILES IDX 62 36 80 37 53 38 40 39 41 40 46 41 42 42 43 43 45 44 47 45
REMARK SMILES IDX 44 46 66 47 67 48 72 49 68 50 69 51 71 52 73 53 70 54 54 55
REMARK SMILES IDX 55 56 60 57 56 58 57 59 59 60 61 61 58 62 6 63 7 64 8 65
REMARK SMILES IDX 9 67 10 68 11 69 14 70 12 71 13 73 15 74 16 75 17 76 30 77
REMARK SMILES IDX 18 79 20 80 19 81 21 82 22 83 29 84 23 85 28 86 24 87 27 88
REMARK SMILES IDX 25 89 26 90
REMARK H PARENT 3 6 78 24 52 35 7 66 11 72 16 78
REMARK Flexibility Score: inf
ROOT
ATOM      1  C   UNL     1       5.150   2.137   0.666  1.00  0.00     0.042 C 
ENDROOT
BRANCH   1   2
ATOM      2  C   UNL     1       4.689   0.761   1.131  1.00  0.00     0.118 C 
BRANCH   2   3
ATOM      3  N   UNL     1       3.257   0.566   0.960  1.00  0.00    -0.352 N 
ATOM      4  O   UNL     1       1.332   0.034  -0.058  1.00  0.00    -0.269 OA
ATOM      5  C   UNL     1       2.547  -0.138   0.021  1.00  0.00     0.251 C 
ATOM      6  H   UNL     1       2.701   1.018   1.636  1.00  0.00     0.163 HD
BRANCH   5   7
ATOM      7  C   UNL     1       3.207  -1.094  -0.895  1.00  0.00     0.039 A 
ATOM      8  C   UNL     1       4.220  -1.948  -0.454  1.00  0.00     0.014 A 
ATOM      9  C   UNL     1       2.725  -1.211  -2.205  1.00  0.00     0.014 A 
ATOM     10  C   UNL     1       4.822  -2.834  -1.343  1.00  0.00     0.010 A 
ATOM     11  C   UNL     1       3.278  -2.155  -3.077  1.00  0.00     0.010 A 
ATOM     12  C   UNL     1       4.343  -2.963  -2.655  1.00  0.00    -0.014 A 
BRANCH  12  13
ATOM     13  C   UNL     1       4.908  -4.019  -3.530  1.00  0.00     0.031 A 
ATOM     14  C   UNL     1       5.727  -3.677  -4.739  1.00  0.00     0.074 A 
ATOM     15  C   UNL     1       4.694  -5.307  -3.201  1.00  0.00     0.049 A 
ATOM     16  N   UNL     1       6.335  -4.485  -5.570  1.00  0.00    -0.248 NA
ATOM     17  C   UNL     1       5.877  -2.252  -5.067  1.00  0.00     0.031 C 
ATOM     18  C   UNL     1       3.886  -5.765  -2.068  1.00  0.00     0.029 A 
ATOM     19  N   UNL     1       5.158  -6.465  -3.769  1.00  0.00    -0.354 N 
ATOM     20  C   UNL     1       6.917  -3.672  -6.532  1.00  0.00     0.074 A 
ATOM     21  C   UNL     1       6.586  -2.305  -6.187  1.00  0.00     0.031 C 
ATOM     22  C   UNL     1       3.957  -7.102  -1.990  1.00  0.00     0.029 A 
ATOM     23  C   UNL     1       4.782  -7.596  -3.087  1.00  0.00     0.049 A 
ATOM     24  H   UNL     1       5.707  -6.484  -4.585  1.00  0.00     0.167 HD
ATOM     25  C   UNL     1       7.664  -4.034  -7.602  1.00  0.00     0.037 A 
ATOM     26  C   UNL     1       5.068  -8.889  -3.317  1.00  0.00     0.037 A 
ATOM     27  C   UNL     1       8.037  -5.386  -7.921  1.00  0.00     0.049 A 
ATOM     28  C   UNL     1       5.910  -9.259  -4.498  1.00  0.00     0.074 A 
ATOM     29  C   UNL     1       8.877  -5.837  -8.925  1.00  0.00     0.029 A 
ATOM     30  N   UNL     1       7.589  -6.507  -7.240  1.00  0.00    -0.354 N 
ATOM     31  N   UNL     1       6.490  -8.474  -5.371  1.00  0.00    -0.248 NA
ATOM     32  C   UNL     1       6.117 -10.694  -4.739  1.00  0.00     0.031 C 
ATOM     33  C   UNL     1       8.917  -7.236  -8.867  1.00  0.00     0.029 A 
ATOM     34  C   UNL     1       8.111  -7.651  -7.820  1.00  0.00     0.049 A 
ATOM     35  H   UNL     1       6.989  -6.492  -6.460  1.00  0.00     0.167 HD
ATOM     36  C   UNL     1       7.116  -9.316  -6.277  1.00  0.00     0.074 A 
ATOM     37  C   UNL     1       6.867 -10.673  -5.833  1.00  0.00     0.031 C 
ATOM     38  C   UNL     1       7.824  -8.991  -7.384  1.00  0.00     0.037 A 
BRANCH  25  39
ATOM     39  C   UNL     1       8.129  -2.944  -8.515  1.00  0.00     0.057 A 
ATOM     40  C   UNL     1       9.270  -2.186  -8.230  1.00  0.00     0.134 A 
ATOM     41  C   UNL     1       7.453  -2.684  -9.713  1.00  0.00     0.134 A 
ATOM     42  F   UNL     1       9.951  -2.384  -7.092  1.00  0.00    -0.206 F 
ATOM     43  C   UNL     1       9.721  -1.198  -9.107  1.00  0.00     0.040 A 
ATOM     44  C   UNL     1       7.899  -1.704 -10.601  1.00  0.00     0.040 A 
ATOM     45  F   UNL     1       6.352  -3.378 -10.037  1.00  0.00    -0.206 F 
ATOM     46  C   UNL     1       9.037  -0.958 -10.298  1.00  0.00     0.006 A 
ENDBRANCH  25  39
BRANCH  26  47
ATOM     47  C   UNL     1       4.540  -9.924  -2.402  1.00  0.00     0.057 A 
ATOM     48  C   UNL     1       5.356 -10.503  -1.426  1.00  0.00     0.134 A 
ATOM     49  C   UNL     1       3.200 -10.324  -2.455  1.00  0.00     0.134 A 
ATOM     50  F   UNL     1       6.650 -10.163  -1.340  1.00  0.00    -0.206 F 
ATOM     51  C   UNL     1       4.856 -11.447  -0.528  1.00  0.00     0.040 A 
ATOM     52  C   UNL     1       2.684 -11.257  -1.556  1.00  0.00     0.040 A 
ATOM     53  F   UNL     1       2.373  -9.797  -3.370  1.00  0.00    -0.206 F 
ATOM     54  C   UNL     1       3.514 -11.821  -0.589  1.00  0.00     0.006 A 
ENDBRANCH  26  47
BRANCH  38  55
ATOM     55  C   UNL     1       8.338 -10.127  -8.208  1.00  0.00     0.057 A 
ATOM     56  C   UNL     1       7.511 -10.773  -9.135  1.00  0.00     0.134 A 
ATOM     57  C   UNL     1       9.659 -10.572  -8.086  1.00  0.00     0.134 A 
ATOM     58  F   UNL     1       6.232 -10.397  -9.281  1.00  0.00    -0.206 F 
ATOM     59  C   UNL     1       7.980 -11.832  -9.910  1.00  0.00     0.040 A 
ATOM     60  C   UNL     1      10.142 -11.625  -8.863  1.00  0.00     0.040 A 
ATOM     61  F   UNL     1      10.494  -9.993  -7.212  1.00  0.00    -0.206 F 
ATOM     62  C   UNL     1       9.301 -12.259  -9.777  1.00  0.00     0.006 A 
ENDBRANCH  38  55
ENDBRANCH  12  13
ENDBRANCH   5   7
ENDBRANCH   2   3
ENDBRANCH   1   2
BRANCH   1  63
ATOM     63  C   UNL     1       4.503   3.297   1.411  1.00  0.00     0.118 C 
BRANCH  63  64
ATOM     64  N   UNL     1       4.786   3.274   2.839  1.00  0.00    -0.351 N 
ATOM     65  C   UNL     1       5.552   4.122   3.592  1.00  0.00     0.269 C 
ATOM     66  H   UNL     1       4.364   2.538   3.338  1.00  0.00     0.163 HD
ATOM     67  O   UNL     1       5.887   3.756   4.717  1.00  0.00    -0.268 OA
BRANCH  65  68
ATOM     68  C   UNL     1       5.984   5.367   3.033  1.00  0.00     0.131 A 
ATOM     69  N   UNL     1       7.275   5.803   3.172  1.00  0.00    -0.272 N 
ATOM     70  C   UNL     1       5.316   6.395   2.374  1.00  0.00     0.057 A 
ATOM     71  N   UNL     1       7.544   6.927   2.497  1.00  0.00    -0.183 NA
ATOM     72  H   UNL     1       7.945   5.332   3.720  1.00  0.00     0.190 HD
ATOM     73  C   UNL     1       6.354   7.297   2.026  1.00  0.00     0.145 A 
BRANCH  70  74
ATOM     74  C   UNL     1       3.861   6.515   2.052  1.00  0.00     0.303 C 
BRANCH  74  75
ATOM     75  N   UNL     1       3.122   7.478   2.872  1.00  0.00    -0.330 N 
ATOM     76  C   UNL     1       3.112   7.165   4.303  1.00  0.00     0.262 C 
ATOM     77  C   UNL     1       3.497   8.872   2.619  1.00  0.00     0.275 C 
ATOM     78  H   UNL     1       2.156   7.376   2.560  1.00  0.00     0.348 HD
ATOM     79  C   UNL     1       2.127   8.079   5.040  1.00  0.00     0.062 C 
ATOM     80  C   UNL     1       2.524   9.851   3.296  1.00  0.00     0.131 C 
ATOM     81  C   UNL     1       2.433   9.558   4.797  1.00  0.00     0.025 C 
BRANCH  80  82
ATOM     82  C   UNL     1       2.988  11.241   3.027  1.00  0.00     0.204 A 
ATOM     83  N   UNL     1       4.158  11.781   3.316  1.00  0.00    -0.213 NA
ATOM     84  O   UNL     1       2.159  12.028   2.270  1.00  0.00    -0.440 OA
ATOM     85  C   UNL     1       4.116  12.997   2.685  1.00  0.00     0.109 A 
ATOM     86  C   UNL     1       2.896  13.155   2.049  1.00  0.00     0.154 A 
ATOM     87  C   UNL     1       5.074  14.013   2.583  1.00  0.00     0.032 A 
ATOM     88  C   UNL     1       2.531  14.269   1.304  1.00  0.00     0.049 A 
ATOM     89  C   UNL     1       4.748  15.152   1.832  1.00  0.00     0.003 A 
ATOM     90  C   UNL     1       3.500  15.276   1.207  1.00  0.00     0.004 A 
ENDBRANCH  80  82
ENDBRANCH  74  75
ENDBRANCH  70  74
ENDBRANCH  65  68
ENDBRANCH  63  64
ENDBRANCH   1  63
TORSDOF 13
