REMARK SMILES O=C(NCCCNC(=O)c1ccc(F)cc1NC(=O)[C@H]1CCS(=O)(=O)C1)c1ccc(-c2c3nc(c(-c4c(F)cccc4F)c4ccc([nH]4)c(-c4c(F)cccc4F)c4nc(c(-c5c(F)cccc5F)c5ccc2[nH]5)C=C4)C=C3)cc1
REMARK SMILES IDX 5 1 4 2 3 3 1 4 2 5 27 7 28 8 80 9 29 10 79 11 30 12 31 13
REMARK SMILES IDX 32 14 73 15 33 16 78 17 72 18 74 19 34 20 77 21 71 22 70 23
REMARK SMILES IDX 35 25 61 26 44 27 60 28 45 29 48 30 59 31 75 32 46 33 47 34
REMARK SMILES IDX 58 36 76 37 49 38 36 39 37 40 42 41 38 42 39 43 41 44 43 45
REMARK SMILES IDX 40 46 62 47 63 48 68 49 64 50 65 51 67 52 69 53 66 54 50 55
REMARK SMILES IDX 51 56 56 57 52 58 53 59 55 60 57 61 54 62 6 63 7 64 8 65
REMARK SMILES IDX 9 67 10 68 11 69 16 70 12 71 15 72 13 73 14 74 17 75 18 76
REMARK SMILES IDX 19 78 20 79 21 80 26 81 22 82 23 83 24 84 25 85
REMARK H PARENT 3 6 74 24 48 35 7 66 17 77
REMARK Flexibility Score: inf
ROOT
ATOM      1  C   UNL     1       9.695  -1.004   3.952  1.00  0.00     0.042 C 
ENDROOT
BRANCH   1   2
ATOM      2  C   UNL     1      10.749  -0.285   4.777  1.00  0.00     0.118 C 
BRANCH   2   3
ATOM      3  N   UNL     1      10.820   1.143   4.491  1.00  0.00    -0.352 N 
ATOM      4  O   UNL     1      10.462   3.347   4.780  1.00  0.00    -0.269 OA
ATOM      5  C   UNL     1      10.488   2.224   5.273  1.00  0.00     0.251 C 
ATOM      6  H   UNL     1      11.159   1.369   3.595  1.00  0.00     0.163 HD
BRANCH   5   7
ATOM      7  C   UNL     1      10.133   2.032   6.695  1.00  0.00     0.039 A 
ATOM      8  C   UNL     1      10.848   1.141   7.494  1.00  0.00     0.014 A 
ATOM      9  C   UNL     1       9.071   2.760   7.240  1.00  0.00     0.014 A 
ATOM     10  C   UNL     1      10.387   0.831   8.766  1.00  0.00     0.010 A 
ATOM     11  C   UNL     1       8.684   2.537   8.565  1.00  0.00     0.010 A 
ATOM     12  C   UNL     1       9.313   1.540   9.326  1.00  0.00    -0.014 A 
BRANCH  12  13
ATOM     13  C   UNL     1       8.917   1.264  10.729  1.00  0.00     0.031 A 
ATOM     14  C   UNL     1       7.551   0.741  11.068  1.00  0.00     0.074 A 
ATOM     15  C   UNL     1       9.826   1.459  11.705  1.00  0.00     0.049 A 
ATOM     16  N   UNL     1       7.055   0.435  12.241  1.00  0.00    -0.248 NA
ATOM     17  C   UNL     1       6.614   0.541   9.952  1.00  0.00     0.031 C 
ATOM     18  C   UNL     1      11.186   1.962  11.496  1.00  0.00     0.029 A 
ATOM     19  N   UNL     1       9.758   1.240  13.056  1.00  0.00    -0.354 N 
ATOM     20  C   UNL     1       5.751   0.020  12.008  1.00  0.00     0.074 A 
ATOM     21  C   UNL     1       5.517   0.149  10.585  1.00  0.00     0.031 C 
ATOM     22  C   UNL     1      11.841   1.957  12.664  1.00  0.00     0.029 A 
ATOM     23  C   UNL     1      10.927   1.528  13.716  1.00  0.00     0.049 A 
ATOM     24  H   UNL     1       8.949   0.909  13.509  1.00  0.00     0.167 HD
ATOM     25  C   UNL     1       4.839  -0.438  12.899  1.00  0.00     0.037 A 
ATOM     26  C   UNL     1      11.232   1.474  15.025  1.00  0.00     0.037 A 
ATOM     27  C   UNL     1       5.083  -0.564  14.314  1.00  0.00     0.049 A 
ATOM     28  C   UNL     1      10.189   1.017  15.999  1.00  0.00     0.074 A 
ATOM     29  C   UNL     1       4.229  -1.036  15.296  1.00  0.00     0.029 A 
ATOM     30  N   UNL     1       6.264  -0.209  14.951  1.00  0.00    -0.354 N 
ATOM     31  N   UNL     1       8.965   0.613  15.762  1.00  0.00    -0.248 NA
ATOM     32  C   UNL     1      10.563   1.013  17.418  1.00  0.00     0.031 C 
ATOM     33  C   UNL     1       4.869  -0.908  16.532  1.00  0.00     0.029 A 
ATOM     34  C   UNL     1       6.149  -0.425  16.316  1.00  0.00     0.049 A 
ATOM     35  H   UNL     1       7.066   0.144  14.501  1.00  0.00     0.167 HD
ATOM     36  C   UNL     1       8.428   0.285  16.999  1.00  0.00     0.074 A 
ATOM     37  C   UNL     1       9.465   0.528  17.982  1.00  0.00     0.031 C 
ATOM     38  C   UNL     1       7.187  -0.179  17.288  1.00  0.00     0.037 A 
BRANCH  25  39
ATOM     39  C   UNL     1       3.482  -0.823  12.376  1.00  0.00     0.057 A 
ATOM     40  C   UNL     1       2.344  -0.087  12.732  1.00  0.00     0.134 A 
ATOM     41  C   UNL     1       3.290  -1.950  11.566  1.00  0.00     0.134 A 
ATOM     42  F   UNL     1       2.450   0.999  13.513  1.00  0.00    -0.206 F 
ATOM     43  C   UNL     1       1.067  -0.460  12.307  1.00  0.00     0.040 A 
ATOM     44  C   UNL     1       2.022  -2.316  11.109  1.00  0.00     0.040 A 
ATOM     45  F   UNL     1       4.336  -2.696  11.179  1.00  0.00    -0.206 F 
ATOM     46  C   UNL     1       0.904  -1.574  11.487  1.00  0.00     0.006 A 
ENDBRANCH  25  39
BRANCH  26  47
ATOM     47  C   UNL     1      12.599   1.851  15.461  1.00  0.00     0.057 A 
ATOM     48  C   UNL     1      13.057   3.172  15.365  1.00  0.00     0.134 A 
ATOM     49  C   UNL     1      13.505   0.884  15.907  1.00  0.00     0.134 A 
ATOM     50  F   UNL     1      12.240   4.142  14.930  1.00  0.00    -0.206 F 
ATOM     51  C   UNL     1      14.377   3.511  15.663  1.00  0.00     0.040 A 
ATOM     52  C   UNL     1      14.821   1.214  16.235  1.00  0.00     0.040 A 
ATOM     53  F   UNL     1      13.121  -0.395  16.031  1.00  0.00    -0.206 F 
ATOM     54  C   UNL     1      15.264   2.529  16.100  1.00  0.00     0.006 A 
ENDBRANCH  26  47
BRANCH  38  55
ATOM     55  C   UNL     1       6.878  -0.487  18.725  1.00  0.00     0.057 A 
ATOM     56  C   UNL     1       6.682  -1.811  19.141  1.00  0.00     0.134 A 
ATOM     57  C   UNL     1       6.697   0.523  19.678  1.00  0.00     0.134 A 
ATOM     58  F   UNL     1       6.831  -2.826  18.276  1.00  0.00    -0.206 F 
ATOM     59  C   UNL     1       6.296  -2.118  20.446  1.00  0.00     0.040 A 
ATOM     60  C   UNL     1       6.340   0.227  20.995  1.00  0.00     0.040 A 
ATOM     61  F   UNL     1       6.882   1.810  19.349  1.00  0.00    -0.206 F 
ATOM     62  C   UNL     1       6.127  -1.097  21.378  1.00  0.00     0.006 A 
ENDBRANCH  38  55
ENDBRANCH  12  13
ENDBRANCH   5   7
ENDBRANCH   2   3
ENDBRANCH   1   2
BRANCH   1  63
ATOM     63  C   UNL     1       9.984  -1.012   2.460  1.00  0.00     0.118 C 
BRANCH  63  64
ATOM     64  N   UNL     1      11.216  -1.721   2.138  1.00  0.00    -0.352 N 
ATOM     65  C   UNL     1      11.407  -2.870   1.411  1.00  0.00     0.253 C 
ATOM     66  H   UNL     1      12.038  -1.314   2.497  1.00  0.00     0.163 HD
ATOM     67  O   UNL     1      12.486  -3.453   1.464  1.00  0.00    -0.269 OA
BRANCH  65  68
ATOM     68  C   UNL     1      10.303  -3.433   0.597  1.00  0.00     0.063 A 
ATOM     69  C   UNL     1       9.553  -2.540  -0.196  1.00  0.00     0.019 A 
ATOM     70  C   UNL     1      10.026  -4.822   0.595  1.00  0.00     0.056 A 
ATOM     71  C   UNL     1       8.425  -2.980  -0.873  1.00  0.00     0.040 A 
ATOM     72  C   UNL     1       8.864  -5.224  -0.071  1.00  0.00     0.066 A 
ATOM     73  C   UNL     1       8.078  -4.313  -0.779  1.00  0.00     0.125 A 
ATOM     74  F   UNL     1       6.970  -4.747  -1.392  1.00  0.00    -0.207 F 
BRANCH  70  75
ATOM     75  N   UNL     1      10.934  -5.704   1.247  1.00  0.00    -0.325 N 
ATOM     76  C   UNL     1      11.112  -7.060   1.290  1.00  0.00     0.228 C 
ATOM     77  H   UNL     1      11.590  -5.222   1.801  1.00  0.00     0.169 HD
ATOM     78  O   UNL     1      12.040  -7.516   1.963  1.00  0.00    -0.274 OA
BRANCH  76  79
ATOM     79  C   UNL     1      10.195  -7.989   0.545  1.00  0.00     0.095 C 
ATOM     80  C   UNL     1      10.782  -9.356   0.160  1.00  0.00     0.030 C 
ATOM     81  C   UNL     1       8.999  -8.351   1.420  1.00  0.00     0.150 C 
ATOM     82  C   UNL     1       9.607 -10.128  -0.450  1.00  0.00     0.138 C 
ATOM     83  S   UNL     1       8.157  -9.579   0.452  1.00  0.00     0.151 S 
ATOM     84  O   UNL     1       7.280  -8.877  -0.466  1.00  0.00    -0.229 OA
ATOM     85  O   UNL     1       7.689 -10.630   1.324  1.00  0.00    -0.229 OA
ENDBRANCH  76  79
ENDBRANCH  70  75
ENDBRANCH  65  68
ENDBRANCH  63  64
ENDBRANCH   1  63
TORSDOF 12
