REMARK SMILES O=C(NCCCNC(=O)c1ccc(-c2c3nc(c(-c4c(F)cccc4F)c4ccc([nH]4)c(-c4c(F)cccc4F)c4nc(c(-c5c(F)cccc5F)c5ccc2[nH]5)C=C4)C=C3)cc1)C1=Cc2cc(Cl)cc(-c3ccccc3)c2O[C@@H]1C(F)(F)F
REMARK SMILES IDX 5 1 4 2 3 3 1 4 2 5 64 7 65 8 80 9 66 10 79 11 67 12 78 13
REMARK SMILES IDX 68 14 71 15 69 16 70 17 81 18 82 19 83 20 84 21 72 22 73 23
REMARK SMILES IDX 77 24 74 25 76 26 75 27 6 28 7 29 8 30 9 32 10 33 11 34
REMARK SMILES IDX 63 35 12 36 62 37 13 38 14 39 15 40 56 41 16 42 61 43 55 44
REMARK SMILES IDX 57 45 17 46 60 47 54 48 53 49 18 51 44 52 27 53 43 54 28 55
REMARK SMILES IDX 31 56 42 57 58 58 29 59 30 60 41 62 59 63 32 64 19 65 20 66
REMARK SMILES IDX 25 67 21 68 22 69 24 70 26 71 23 72 45 73 46 74 51 75 47 76
REMARK SMILES IDX 48 77 50 78 52 79 49 80 33 81 34 82 39 83 35 84 36 85 38 86
REMARK SMILES IDX 40 87 37 88
REMARK H PARENT 3 6 7 31 57 50 31 61
REMARK Flexibility Score: inf
ROOT
ATOM      1  C   UNL     1       3.941   2.668   1.344  1.00  0.00     0.042 C 
ENDROOT
BRANCH   1   2
ATOM      2  C   UNL     1       2.911   1.537   1.339  1.00  0.00     0.118 C 
BRANCH   2   3
ATOM      3  N   UNL     1       2.089   1.528   0.125  1.00  0.00    -0.352 N 
ATOM      4  O   UNL     1       1.215   0.671  -1.787  1.00  0.00    -0.270 OA
ATOM      5  C   UNL     1       2.100   0.667  -0.944  1.00  0.00     0.251 C 
ATOM      6  H   UNL     1       1.425   2.253   0.067  1.00  0.00     0.163 HD
BRANCH   5   7
ATOM      7  C   UNL     1       3.201  -0.304  -0.993  1.00  0.00     0.067 C 
ATOM      8  C   UNL     1       4.439   0.178  -1.144  1.00  0.00     0.025 C 
ATOM      9  C   UNL     1       2.925  -1.695  -0.523  1.00  0.00     0.314 C 
ATOM     10  C   UNL     1       5.455  -0.509  -0.343  1.00  0.00     0.019 A 
ATOM     11  O   UNL     1       3.798  -2.057   0.575  1.00  0.00    -0.475 OA
ATOM     12  C   UNL     1       6.718   0.083  -0.253  1.00  0.00     0.032 A 
ATOM     13  C   UNL     1       5.040  -1.461   0.615  1.00  0.00     0.135 A 
ATOM     14  C   UNL     1       7.519  -0.190   0.849  1.00  0.00     0.042 A 
ATOM     15  C   UNL     1       5.827  -1.698   1.757  1.00  0.00     0.026 A 
ATOM     16  Cl  UNL     1       8.999   0.664   1.045  1.00  0.00    -0.084 Cl
ATOM     17  C   UNL     1       7.072  -1.047   1.855  1.00  0.00     0.033 A 
BRANCH   9  18
ATOM     18  C   UNL     1       2.983  -2.712  -1.676  1.00  0.00     0.429 C 
ATOM     19  F   UNL     1       2.629  -3.951  -1.256  1.00  0.00    -0.167 F 
ATOM     20  F   UNL     1       2.131  -2.384  -2.677  1.00  0.00    -0.167 F 
ATOM     21  F   UNL     1       4.219  -2.812  -2.221  1.00  0.00    -0.167 F 
ENDBRANCH   9  18
BRANCH  15  22
ATOM     22  C   UNL     1       5.324  -2.441   2.925  1.00  0.00    -0.015 A 
ATOM     23  C   UNL     1       4.846  -1.741   4.048  1.00  0.00     0.009 A 
ATOM     24  C   UNL     1       5.351  -3.837   2.988  1.00  0.00     0.009 A 
ATOM     25  C   UNL     1       4.464  -2.398   5.215  1.00  0.00     0.001 A 
ATOM     26  C   UNL     1       4.958  -4.502   4.156  1.00  0.00     0.001 A 
ATOM     27  C   UNL     1       4.529  -3.783   5.272  1.00  0.00     0.000 A 
ENDBRANCH  15  22
ENDBRANCH   5   7
ENDBRANCH   2   3
ENDBRANCH   1   2
BRANCH   1  28
ATOM     28  C   UNL     1       4.448   2.999   2.746  1.00  0.00     0.118 C 
BRANCH  28  29
ATOM     29  N   UNL     1       5.194   1.938   3.403  1.00  0.00    -0.352 N 
ATOM     30  C   UNL     1       5.922   1.975   4.577  1.00  0.00     0.251 C 
ATOM     31  H   UNL     1       5.178   1.067   2.945  1.00  0.00     0.163 HD
ATOM     32  O   UNL     1       6.483   0.958   4.978  1.00  0.00    -0.269 OA
BRANCH  30  33
ATOM     33  C   UNL     1       6.144   3.254   5.294  1.00  0.00     0.039 A 
ATOM     34  C   UNL     1       7.428   3.507   5.792  1.00  0.00     0.014 A 
ATOM     35  C   UNL     1       5.166   4.241   5.379  1.00  0.00     0.014 A 
ATOM     36  C   UNL     1       7.771   4.793   6.210  1.00  0.00     0.010 A 
ATOM     37  C   UNL     1       5.534   5.544   5.686  1.00  0.00     0.010 A 
ATOM     38  C   UNL     1       6.851   5.840   6.063  1.00  0.00    -0.014 A 
BRANCH  38  39
ATOM     39  C   UNL     1       7.256   7.258   6.215  1.00  0.00     0.031 A 
ATOM     40  C   UNL     1       6.567   8.136   7.219  1.00  0.00     0.074 A 
ATOM     41  C   UNL     1       8.153   7.778   5.353  1.00  0.00     0.049 A 
ATOM     42  N   UNL     1       6.669   9.427   7.395  1.00  0.00    -0.248 NA
ATOM     43  C   UNL     1       5.596   7.481   8.110  1.00  0.00     0.031 C 
ATOM     44  C   UNL     1       8.822   7.040   4.276  1.00  0.00     0.029 A 
ATOM     45  N   UNL     1       8.649   9.051   5.233  1.00  0.00    -0.354 N 
ATOM     46  C   UNL     1       5.748   9.744   8.386  1.00  0.00     0.074 A 
ATOM     47  C   UNL     1       5.063   8.519   8.735  1.00  0.00     0.031 C 
ATOM     48  C   UNL     1       9.667   7.862   3.634  1.00  0.00     0.029 A 
ATOM     49  C   UNL     1       9.571   9.191   4.223  1.00  0.00     0.049 A 
ATOM     50  H   UNL     1       8.370   9.794   5.815  1.00  0.00     0.167 HD
ATOM     51  C   UNL     1       5.514  10.944   8.967  1.00  0.00     0.037 A 
ATOM     52  C   UNL     1      10.262  10.274   3.821  1.00  0.00     0.037 A 
ATOM     53  C   UNL     1       6.243  12.142   8.649  1.00  0.00     0.049 A 
ATOM     54  C   UNL     1      10.044  11.575   4.536  1.00  0.00     0.074 A 
ATOM     55  C   UNL     1       6.140  13.397   9.223  1.00  0.00     0.029 A 
ATOM     56  N   UNL     1       7.228  12.226   7.675  1.00  0.00    -0.354 N 
ATOM     57  N   UNL     1       9.210  11.849   5.511  1.00  0.00    -0.248 NA
ATOM     58  C   UNL     1      10.863  12.715   4.104  1.00  0.00     0.031 C 
ATOM     59  C   UNL     1       7.052  14.244   8.584  1.00  0.00     0.029 A 
ATOM     60  C   UNL     1       7.743  13.510   7.632  1.00  0.00     0.049 A 
ATOM     61  H   UNL     1       7.517  11.482   7.098  1.00  0.00     0.167 HD
ATOM     62  C   UNL     1       9.419  13.184   5.825  1.00  0.00     0.074 A 
ATOM     63  C   UNL     1      10.468  13.661   4.946  1.00  0.00     0.031 C 
ATOM     64  C   UNL     1       8.797  13.949   6.755  1.00  0.00     0.037 A 
BRANCH  51  65
ATOM     65  C   UNL     1       4.438  11.001  10.010  1.00  0.00     0.057 A 
ATOM     66  C   UNL     1       4.590  10.389  11.262  1.00  0.00     0.134 A 
ATOM     67  C   UNL     1       3.230  11.664   9.760  1.00  0.00     0.134 A 
ATOM     68  F   UNL     1       5.716   9.722  11.559  1.00  0.00    -0.206 F 
ATOM     69  C   UNL     1       3.567  10.400  12.211  1.00  0.00     0.040 A 
ATOM     70  C   UNL     1       2.210  11.706  10.712  1.00  0.00     0.040 A 
ATOM     71  F   UNL     1       3.018  12.275   8.585  1.00  0.00    -0.206 F 
ATOM     72  C   UNL     1       2.373  11.064  11.938  1.00  0.00     0.006 A 
ENDBRANCH  51  65
BRANCH  52  73
ATOM     73  C   UNL     1      11.256  10.159   2.725  1.00  0.00     0.057 A 
ATOM     74  C   UNL     1      12.629  10.203   2.997  1.00  0.00     0.134 A 
ATOM     75  C   UNL     1      10.869   9.992   1.390  1.00  0.00     0.134 A 
ATOM     76  F   UNL     1      13.061  10.374   4.255  1.00  0.00    -0.206 F 
ATOM     77  C   UNL     1      13.581  10.103   1.981  1.00  0.00     0.040 A 
ATOM     78  C   UNL     1      11.811   9.869   0.366  1.00  0.00     0.040 A 
ATOM     79  F   UNL     1       9.569   9.929   1.065  1.00  0.00    -0.206 F 
ATOM     80  C   UNL     1      13.172   9.931   0.660  1.00  0.00     0.006 A 
ENDBRANCH  52  73
BRANCH  64  81
ATOM     81  C   UNL     1       9.261  15.367   6.886  1.00  0.00     0.057 A 
ATOM     82  C   UNL     1       8.907  16.345   5.949  1.00  0.00     0.134 A 
ATOM     83  C   UNL     1      10.035  15.763   7.983  1.00  0.00     0.134 A 
ATOM     84  F   UNL     1       8.180  16.021   4.870  1.00  0.00    -0.206 F 
ATOM     85  C   UNL     1       9.320  17.670   6.093  1.00  0.00     0.040 A 
ATOM     86  C   UNL     1      10.436  17.088   8.149  1.00  0.00     0.040 A 
ATOM     87  F   UNL     1      10.401  14.870   8.916  1.00  0.00    -0.206 F 
ATOM     88  C   UNL     1      10.081  18.045   7.200  1.00  0.00     0.006 A 
ENDBRANCH  64  81
ENDBRANCH  38  39
ENDBRANCH  30  33
ENDBRANCH  28  29
ENDBRANCH   1  28
TORSDOF 12
