REMARK SMILES O=C(NCCCNC(=O)[C@@H]1[C@@H](C(=O)Nc2cccc([N+](=O)[O-])c2)[C@@H]2C=C[C@H]1O2)c1ccc(-c2c3nc(c(-c4c(F)cccc4F)c4ccc([nH]4)c(-c4c(F)cccc4F)c4nc(c(-c5c(F)cccc5F)c5ccc2[nH]5)C=C4)C=C3)cc1
REMARK SMILES IDX 5 1 4 2 3 3 1 4 2 5 29 7 30 8 82 9 31 10 81 11 32 12 33 13
REMARK SMILES IDX 34 14 75 15 35 16 80 17 74 18 76 19 36 20 79 21 73 22 72 23
REMARK SMILES IDX 37 25 63 26 46 27 62 28 47 29 50 30 61 31 77 32 48 33 49 34
REMARK SMILES IDX 60 36 78 37 51 38 38 39 39 40 44 41 40 42 41 43 43 44 45 45
REMARK SMILES IDX 42 46 64 47 65 48 70 49 66 50 67 51 69 52 71 53 68 54 52 55
REMARK SMILES IDX 53 56 58 57 54 58 55 59 57 60 59 61 56 62 6 63 7 64 8 65
REMARK SMILES IDX 9 67 10 68 11 69 27 70 24 71 26 72 28 73 25 74 12 75 13 76
REMARK SMILES IDX 14 77 15 79 16 80 23 81 17 82 19 83 18 84 20 85 21 86 22 87
REMARK H PARENT 3 6 76 24 50 35 7 66 14 78
REMARK Flexibility Score: inf
ROOT
ATOM      1  C   UNL     1       5.230   1.514   0.504  1.00  0.00     0.042 C 
ENDROOT
BRANCH   1   2
ATOM      2  C   UNL     1       4.422   0.624   1.429  1.00  0.00     0.118 C 
BRANCH   2   3
ATOM      3  N   UNL     1       3.021   0.516   1.034  1.00  0.00    -0.352 N 
ATOM      4  O   UNL     1       1.210  -0.022  -0.182  1.00  0.00    -0.269 OA
ATOM      5  C   UNL     1       2.388  -0.256   0.088  1.00  0.00     0.251 C 
ATOM      6  H   UNL     1       2.416   1.107   1.539  1.00  0.00     0.163 HD
BRANCH   5   7
ATOM      7  C   UNL     1       3.098  -1.337  -0.633  1.00  0.00     0.039 A 
ATOM      8  C   UNL     1       4.073  -2.098   0.002  1.00  0.00     0.014 A 
ATOM      9  C   UNL     1       2.741  -1.652  -1.951  1.00  0.00     0.014 A 
ATOM     10  C   UNL     1       4.824  -3.016  -0.713  1.00  0.00     0.010 A 
ATOM     11  C   UNL     1       3.388  -2.696  -2.626  1.00  0.00     0.010 A 
ATOM     12  C   UNL     1       4.450  -3.375  -2.014  1.00  0.00    -0.014 A 
BRANCH  12  13
ATOM     13  C   UNL     1       5.104  -4.564  -2.616  1.00  0.00     0.031 A 
ATOM     14  C   UNL     1       5.910  -4.468  -3.877  1.00  0.00     0.074 A 
ATOM     15  C   UNL     1       5.003  -5.737  -1.954  1.00  0.00     0.049 A 
ATOM     16  N   UNL     1       6.569  -5.413  -4.497  1.00  0.00    -0.248 NA
ATOM     17  C   UNL     1       5.983  -3.155  -4.535  1.00  0.00     0.031 C 
ATOM     18  C   UNL     1       4.225  -5.945  -0.726  1.00  0.00     0.029 A 
ATOM     19  N   UNL     1       5.577  -6.959  -2.185  1.00  0.00    -0.354 N 
ATOM     20  C   UNL     1       7.109  -4.821  -5.631  1.00  0.00     0.074 A 
ATOM     21  C   UNL     1       6.696  -3.434  -5.620  1.00  0.00     0.031 C 
ATOM     22  C   UNL     1       4.432  -7.188  -0.274  1.00  0.00     0.029 A 
ATOM     23  C   UNL     1       5.273  -7.896  -1.227  1.00  0.00     0.049 A 
ATOM     24  H   UNL     1       6.151  -7.147  -2.962  1.00  0.00     0.167 HD
ATOM     25  C   UNL     1       7.875  -5.392  -6.590  1.00  0.00     0.037 A 
ATOM     26  C   UNL     1       5.604  -9.196  -1.137  1.00  0.00     0.037 A 
ATOM     27  C   UNL     1       8.305  -6.768  -6.569  1.00  0.00     0.049 A 
ATOM     28  C   UNL     1       6.445  -9.796  -2.221  1.00  0.00     0.074 A 
ATOM     29  C   UNL     1       9.134  -7.424  -7.464  1.00  0.00     0.029 A 
ATOM     30  N   UNL     1       7.937  -7.699  -5.609  1.00  0.00    -0.354 N 
ATOM     31  N   UNL     1       6.975  -9.212  -3.268  1.00  0.00    -0.248 NA
ATOM     32  C   UNL     1       6.718 -11.235  -2.127  1.00  0.00     0.031 C 
ATOM     33  C   UNL     1       9.229  -8.762  -7.071  1.00  0.00     0.029 A 
ATOM     34  C   UNL     1       8.495  -8.931  -5.908  1.00  0.00     0.049 A 
ATOM     35  H   UNL     1       7.365  -7.511  -4.830  1.00  0.00     0.167 HD
ATOM     36  C   UNL     1       7.638 -10.211  -3.962  1.00  0.00     0.074 A 
ATOM     37  C   UNL     1       7.476 -11.431  -3.195  1.00  0.00     0.031 C 
ATOM     38  C   UNL     1       8.309 -10.132  -5.136  1.00  0.00     0.037 A 
BRANCH  25  39
ATOM     39  C   UNL     1       8.289  -4.550  -7.760  1.00  0.00     0.057 A 
ATOM     40  C   UNL     1       9.298  -3.586  -7.662  1.00  0.00     0.134 A 
ATOM     41  C   UNL     1       7.729  -4.775  -9.025  1.00  0.00     0.134 A 
ATOM     42  F   UNL     1       9.868  -3.315  -6.479  1.00  0.00    -0.206 F 
ATOM     43  C   UNL     1       9.736  -2.873  -8.781  1.00  0.00     0.040 A 
ATOM     44  C   UNL     1       8.171  -4.082 -10.154  1.00  0.00     0.040 A 
ATOM     45  F   UNL     1       6.761  -5.689  -9.188  1.00  0.00    -0.206 F 
ATOM     46  C   UNL     1       9.178  -3.128 -10.033  1.00  0.00     0.006 A 
ENDBRANCH  25  39
BRANCH  26  47
ATOM     47  C   UNL     1       5.089 -10.020  -0.014  1.00  0.00     0.057 A 
ATOM     48  C   UNL     1       5.945 -10.549   0.957  1.00  0.00     0.134 A 
ATOM     49  C   UNL     1       3.721 -10.294   0.114  1.00  0.00     0.134 A 
ATOM     50  F   UNL     1       7.267 -10.336   0.881  1.00  0.00    -0.206 F 
ATOM     51  C   UNL     1       5.462 -11.334   2.006  1.00  0.00     0.040 A 
ATOM     52  C   UNL     1       3.221 -11.049   1.174  1.00  0.00     0.040 A 
ATOM     53  F   UNL     1       2.846  -9.809  -0.779  1.00  0.00    -0.206 F 
ATOM     54  C   UNL     1       4.095 -11.579   2.120  1.00  0.00     0.006 A 
ENDBRANCH  26  47
BRANCH  38  55
ATOM     55  C   UNL     1       8.911 -11.403  -5.650  1.00  0.00     0.057 A 
ATOM     56  C   UNL     1       8.117 -12.417  -6.200  1.00  0.00     0.134 A 
ATOM     57  C   UNL     1      10.294 -11.610  -5.605  1.00  0.00     0.134 A 
ATOM     58  F   UNL     1       6.782 -12.283  -6.252  1.00  0.00    -0.206 F 
ATOM     59  C   UNL     1       8.677 -13.605  -6.667  1.00  0.00     0.040 A 
ATOM     60  C   UNL     1      10.868 -12.784  -6.092  1.00  0.00     0.040 A 
ATOM     61  F   UNL     1      11.107 -10.674  -5.093  1.00  0.00    -0.206 F 
ATOM     62  C   UNL     1      10.058 -13.788  -6.618  1.00  0.00     0.006 A 
ENDBRANCH  38  55
ENDBRANCH  12  13
ENDBRANCH   5   7
ENDBRANCH   2   3
ENDBRANCH   1   2
BRANCH   1  63
ATOM     63  C   UNL     1       4.900   2.980   0.684  1.00  0.00     0.117 C 
BRANCH  63  64
ATOM     64  N   UNL     1       5.290   3.537   1.965  1.00  0.00    -0.356 N 
ATOM     65  C   UNL     1       5.501   4.830   2.333  1.00  0.00     0.227 C 
ATOM     66  H   UNL     1       5.423   2.875   2.681  1.00  0.00     0.163 HD
ATOM     67  O   UNL     1       5.434   5.061   3.545  1.00  0.00    -0.275 OA
BRANCH  65  68
ATOM     68  C   UNL     1       5.947   5.913   1.364  1.00  0.00     0.127 C 
ATOM     69  C   UNL     1       5.437   7.350   1.823  1.00  0.00     0.127 C 
ATOM     70  C   UNL     1       5.477   5.870  -0.099  1.00  0.00     0.155 C 
ATOM     71  C   UNL     1       4.739   7.785   0.531  1.00  0.00     0.155 C 
ATOM     72  C   UNL     1       3.983   5.796  -0.215  1.00  0.00     0.004 C 
ATOM     73  O   UNL     1       5.649   7.256  -0.461  1.00  0.00    -0.365 OA
ATOM     74  C   UNL     1       3.523   6.956   0.254  1.00  0.00     0.004 C 
BRANCH  69  75
ATOM     75  C   UNL     1       6.638   8.193   2.281  1.00  0.00     0.231 C 
ATOM     76  O   UNL     1       7.601   7.657   2.845  1.00  0.00    -0.274 OA
ATOM     77  N   UNL     1       6.726   9.550   2.116  1.00  0.00    -0.325 N 
ATOM     78  H   UNL     1       7.543   9.969   2.470  1.00  0.00     0.169 HD
BRANCH  77  79
ATOM     79  C   UNL     1       5.816  10.419   1.515  1.00  0.00     0.048 A 
ATOM     80  C   UNL     1       6.222  11.059   0.338  1.00  0.00     0.026 A 
ATOM     81  C   UNL     1       4.495  10.513   1.960  1.00  0.00     0.111 A 
ATOM     82  C   UNL     1       5.275  11.684  -0.476  1.00  0.00     0.009 A 
ATOM     83  C   UNL     1       3.550  11.140   1.132  1.00  0.00     0.271 A 
ATOM     84  C   UNL     1       3.932  11.710  -0.092  1.00  0.00     0.086 A 
BRANCH  83  85
ATOM     85  N   UNL     1       2.127  11.060   1.479  1.00  0.00     0.062 N 
ATOM     86  O   UNL     1       1.321  11.652   0.749  1.00  0.00    -0.258 OA
ATOM     87  O   UNL     1       1.815  10.374   2.462  1.00  0.00    -0.258 OA
ENDBRANCH  83  85
ENDBRANCH  77  79
ENDBRANCH  69  75
ENDBRANCH  65  68
ENDBRANCH  63  64
ENDBRANCH   1  63
TORSDOF 13
