REMARK SMILES CC[C@@](C)(NS(=O)(=O)c1ccc(F)c(F)c1)C(=O)NCCCNC(=O)c1ccc(-c2c3nc(c(-c4c(F)cccc4F)c4ccc([nH]4)c(-c4c(F)cccc4F)c4nc(c(-c5c(F)cccc5F)c5ccc2[nH]5)C=C4)C=C3)cc1
REMARK SMILES IDX 20 1 19 2 17 3 18 4 3 6 4 7 2 8 1 9 5 10 6 12 7 13 8 14 9 15
REMARK SMILES IDX 10 16 16 17 11 18 14 19 12 20 15 21 13 22 21 23 22 24 23 25
REMARK SMILES IDX 24 26 25 28 26 29 27 30 79 31 28 32 78 33 29 34 30 35 31 36
REMARK SMILES IDX 72 37 32 38 77 39 71 40 73 41 33 42 76 43 70 44 69 45 34 47
REMARK SMILES IDX 60 48 43 49 59 50 44 51 47 52 58 53 74 54 45 55 46 56 57 58
REMARK SMILES IDX 75 59 48 60 35 61 36 62 41 63 37 64 38 65 40 66 42 67 39 68
REMARK SMILES IDX 61 69 62 70 67 71 63 72 64 73 66 74 68 75 65 76 49 77 50 78
REMARK SMILES IDX 55 79 51 80 52 81 54 82 56 83 53 84
REMARK H PARENT 19 5 5 11 23 27 73 46 47 57
REMARK Flexibility Score: inf
ROOT
ATOM      1  C   UNL     1       2.118  -2.330   4.749  1.00  0.00     0.117 C 
ENDROOT
BRANCH   1   2
ATOM      2  N   UNL     1       2.687  -1.901   3.471  1.00  0.00    -0.354 N 
ATOM      3  C   UNL     1       2.197  -1.474   2.267  1.00  0.00     0.241 C 
ATOM      4  O   UNL     1       2.987  -0.731   1.665  1.00  0.00    -0.273 OA
ATOM      5  H   UNL     1       3.671  -1.925   3.480  1.00  0.00     0.163 HD
BRANCH   3   6
ATOM      6  C   UNL     1       0.896  -1.947   1.554  1.00  0.00     0.108 C 
ATOM      7  C   UNL     1      -0.337  -1.784   2.443  1.00  0.00     0.040 C 
BRANCH   6   8
ATOM      8  C   UNL     1       0.631  -1.113   0.223  1.00  0.00     0.030 C 
ATOM      9  C   UNL     1       0.721   0.402   0.215  1.00  0.00     0.006 C 
ENDBRANCH   6   8
BRANCH   6  10
ATOM     10  N   UNL     1       0.978  -3.307   0.943  1.00  0.00    -0.196 NA
ATOM     11  H   UNL     1       1.622  -3.182   0.162  1.00  0.00     0.142 HD
BRANCH  10  12
ATOM     12  S   UNL     1       1.409  -4.764   1.571  1.00  0.00     0.241 S 
ATOM     13  O   UNL     1       0.931  -4.831   2.925  1.00  0.00    -0.207 OA
ATOM     14  O   UNL     1       0.924  -5.707   0.581  1.00  0.00    -0.207 OA
BRANCH  12  15
ATOM     15  C   UNL     1       3.178  -4.955   1.555  1.00  0.00     0.085 A 
ATOM     16  C   UNL     1       3.684  -6.262   1.646  1.00  0.00     0.025 A 
ATOM     17  C   UNL     1       4.074  -3.894   1.459  1.00  0.00     0.064 A 
ATOM     18  C   UNL     1       5.063  -6.485   1.729  1.00  0.00     0.044 A 
ATOM     19  C   UNL     1       5.439  -4.114   1.625  1.00  0.00     0.160 A 
ATOM     20  C   UNL     1       5.933  -5.402   1.760  1.00  0.00     0.158 A 
ATOM     21  F   UNL     1       6.267  -3.063   1.695  1.00  0.00    -0.204 F 
ATOM     22  F   UNL     1       7.244  -5.609   1.937  1.00  0.00    -0.204 F 
ENDBRANCH  12  15
ENDBRANCH  10  12
ENDBRANCH   6  10
ENDBRANCH   3   6
ENDBRANCH   1   2
BRANCH   1  23
ATOM     23  C   UNL     1       2.495  -3.719   5.307  1.00  0.00     0.042 C 
BRANCH  23  24
ATOM     24  C   UNL     1       3.926  -4.247   5.175  1.00  0.00     0.118 C 
BRANCH  24  25
ATOM     25  N   UNL     1       4.784  -3.919   6.299  1.00  0.00    -0.352 N 
ATOM     26  C   UNL     1       5.625  -4.726   7.034  1.00  0.00     0.251 C 
ATOM     27  H   UNL     1       4.762  -2.975   6.579  1.00  0.00     0.163 HD
ATOM     28  O   UNL     1       6.219  -4.250   8.000  1.00  0.00    -0.269 OA
BRANCH  26  29
ATOM     29  C   UNL     1       5.815  -6.167   6.720  1.00  0.00     0.039 A 
ATOM     30  C   UNL     1       5.680  -7.093   7.761  1.00  0.00     0.014 A 
ATOM     31  C   UNL     1       6.226  -6.612   5.461  1.00  0.00     0.014 A 
ATOM     32  C   UNL     1       5.914  -8.456   7.534  1.00  0.00     0.010 A 
ATOM     33  C   UNL     1       6.427  -7.986   5.226  1.00  0.00     0.010 A 
ATOM     34  C   UNL     1       6.273  -8.927   6.259  1.00  0.00    -0.014 A 
BRANCH  34  35
ATOM     35  C   UNL     1       6.472 -10.393   6.030  1.00  0.00     0.031 A 
ATOM     36  C   UNL     1       7.832 -10.965   5.715  1.00  0.00     0.074 A 
ATOM     37  C   UNL     1       5.421 -11.235   6.119  1.00  0.00     0.049 A 
ATOM     38  N   UNL     1       8.184 -12.217   5.536  1.00  0.00    -0.248 NA
ATOM     39  C   UNL     1       8.938 -10.009   5.571  1.00  0.00     0.031 C 
ATOM     40  C   UNL     1       4.041 -10.832   6.392  1.00  0.00     0.029 A 
ATOM     41  N   UNL     1       5.347 -12.603   5.994  1.00  0.00    -0.354 N 
ATOM     42  C   UNL     1       9.547 -12.199   5.263  1.00  0.00     0.074 A 
ATOM     43  C   UNL     1       9.948 -10.807   5.251  1.00  0.00     0.031 C 
ATOM     44  C   UNL     1       3.265 -11.927   6.442  1.00  0.00     0.029 A 
ATOM     45  C   UNL     1       4.080 -13.108   6.170  1.00  0.00     0.049 A 
ATOM     46  H   UNL     1       6.129 -13.168   5.797  1.00  0.00     0.167 HD
ATOM     47  C   UNL     1      10.393 -13.241   5.060  1.00  0.00     0.037 A 
ATOM     48  C   UNL     1       3.618 -14.374   6.118  1.00  0.00     0.037 A 
ATOM     49  C   UNL     1      10.007 -14.631   5.075  1.00  0.00     0.049 A 
ATOM     50  C   UNL     1       4.570 -15.510   5.854  1.00  0.00     0.074 A 
ATOM     51  C   UNL     1      10.811 -15.750   4.926  1.00  0.00     0.029 A 
ATOM     52  N   UNL     1       8.711 -15.095   5.234  1.00  0.00    -0.354 N 
ATOM     53  N   UNL     1       5.867 -15.477   5.670  1.00  0.00    -0.248 NA
ATOM     54  C   UNL     1       3.993 -16.862   5.798  1.00  0.00     0.031 C 
ATOM     55  C   UNL     1       9.995 -16.885   4.937  1.00  0.00     0.029 A 
ATOM     56  C   UNL     1       8.689 -16.480   5.156  1.00  0.00     0.049 A 
ATOM     57  H   UNL     1       7.921 -14.525   5.382  1.00  0.00     0.167 HD
ATOM     58  C   UNL     1       6.263 -16.800   5.509  1.00  0.00     0.074 A 
ATOM     59  C   UNL     1       5.073 -17.613   5.631  1.00  0.00     0.031 C 
ATOM     60  C   UNL     1       7.506 -17.292   5.282  1.00  0.00     0.037 A 
BRANCH  47  61
ATOM     61  C   UNL     1      11.839 -12.922   4.796  1.00  0.00     0.057 A 
ATOM     62  C   UNL     1      12.681 -12.418   5.797  1.00  0.00     0.134 A 
ATOM     63  C   UNL     1      12.413 -13.178   3.543  1.00  0.00     0.134 A 
ATOM     64  F   UNL     1      12.198 -12.149   7.019  1.00  0.00    -0.206 F 
ATOM     65  C   UNL     1      14.030 -12.153   5.553  1.00  0.00     0.040 A 
ATOM     66  C   UNL     1      13.768 -12.945   3.296  1.00  0.00     0.040 A 
ATOM     67  F   UNL     1      11.671 -13.677   2.543  1.00  0.00    -0.206 F 
ATOM     68  C   UNL     1      14.579 -12.423   4.301  1.00  0.00     0.006 A 
ENDBRANCH  47  61
BRANCH  48  69
ATOM     69  C   UNL     1       2.171 -14.647   6.330  1.00  0.00     0.057 A 
ATOM     70  C   UNL     1       1.718 -15.334   7.462  1.00  0.00     0.134 A 
ATOM     71  C   UNL     1       1.211 -14.248   5.392  1.00  0.00     0.134 A 
ATOM     72  F   UNL     1       2.591 -15.765   8.385  1.00  0.00    -0.206 F 
ATOM     73  C   UNL     1       0.366 -15.632   7.645  1.00  0.00     0.040 A 
ATOM     74  C   UNL     1      -0.147 -14.513   5.577  1.00  0.00     0.040 A 
ATOM     75  F   UNL     1       1.579 -13.584   4.286  1.00  0.00    -0.206 F 
ATOM     76  C   UNL     1      -0.571 -15.216   6.703  1.00  0.00     0.006 A 
ENDBRANCH  48  69
BRANCH  60  77
ATOM     77  C   UNL     1       7.655 -18.785   5.188  1.00  0.00     0.057 A 
ATOM     78  C   UNL     1       7.165 -19.516   4.098  1.00  0.00     0.134 A 
ATOM     79  C   UNL     1       8.332 -19.499   6.186  1.00  0.00     0.134 A 
ATOM     80  F   UNL     1       6.496 -18.900   3.111  1.00  0.00    -0.206 F 
ATOM     81  C   UNL     1       7.319 -20.902   4.017  1.00  0.00     0.040 A 
ATOM     82  C   UNL     1       8.518 -20.880   6.103  1.00  0.00     0.040 A 
ATOM     83  F   UNL     1       8.836 -18.863   7.255  1.00  0.00    -0.206 F 
ATOM     84  C   UNL     1       8.004 -21.587   5.018  1.00  0.00     0.006 A 
ENDBRANCH  60  77
ENDBRANCH  34  35
ENDBRANCH  26  29
ENDBRANCH  24  25
ENDBRANCH  23  24
ENDBRANCH   1  23
TORSDOF 14
