REMARK SMILES C[C@H](C(=O)NCCCNC(=O)c1ccc(-c2c3nc(c(-c4c(F)cccc4F)c4ccc([nH]4)c(-c4c(F)cccc4F)c4nc(c(-c5c(F)cccc5F)c5ccc2[nH]5)C=C4)C=C3)cc1)[C@@H](C)[NH2+]C[C@@H]1CCCC[C@@H]1CO
REMARK SMILES IDX 3 1 4 2 5 3 2 5 1 6 66 7 67 8 68 9 69 12 70 13 71 14 75 15
REMARK SMILES IDX 72 16 74 17 73 18 76 19 77 20 6 22 7 23 8 24 9 25 10 26
REMARK SMILES IDX 11 28 12 29 13 30 65 31 14 32 64 33 15 34 16 35 17 36 58 37
REMARK SMILES IDX 18 38 63 39 57 40 59 41 19 42 62 43 56 44 55 45 20 47 46 48
REMARK SMILES IDX 29 49 45 50 30 51 33 52 44 53 60 54 31 55 32 56 43 58 61 59
REMARK SMILES IDX 34 60 21 61 22 62 27 63 23 64 24 65 26 66 28 67 25 68 47 69
REMARK SMILES IDX 48 70 53 71 49 72 50 73 52 74 54 75 51 76 35 77 36 78 41 79
REMARK SMILES IDX 37 80 38 81 40 82 42 83 39 84
REMARK H PARENT 5 4 68 10 68 11 77 21 9 27 59 46 33 57
REMARK Flexibility Score: inf
ROOT
ATOM      1  C   UNL     1       1.357  -0.160   0.060  1.00  0.00     0.228 C 
ATOM      2  O   UNL     1       2.581  -0.099  -0.122  1.00  0.00    -0.275 OA
ATOM      3  N   UNL     1       0.787   1.001   0.484  1.00  0.00    -0.356 N 
ATOM      4  H   UNL     1       1.457   1.674   0.745  1.00  0.00     0.163 HD
ENDROOT
BRANCH   1   5
ATOM      5  C   UNL     1       0.649  -1.520  -0.115  1.00  0.00     0.133 C 
ATOM      6  C   UNL     1       0.692  -2.248   1.226  1.00  0.00     0.024 C 
BRANCH   5   7
ATOM      7  C   UNL     1      -0.744  -1.458  -0.770  1.00  0.00     0.191 C 
ATOM      8  C   UNL     1      -0.600  -0.791  -2.149  1.00  0.00     0.076 C 
BRANCH   7   9
ATOM      9  N   UNL     1      -1.508  -2.713  -0.879  1.00  0.00    -0.343 N 
ATOM     10  H   UNL     1      -1.111  -3.390  -0.228  1.00  0.00     0.346 HD
ATOM     11  H   UNL     1      -1.438  -3.023  -1.849  1.00  0.00     0.346 HD
BRANCH   9  12
ATOM     12  C   UNL     1      -2.962  -2.555  -0.572  1.00  0.00     0.264 C 
BRANCH  12  13
ATOM     13  C   UNL     1      -3.791  -1.605  -1.489  1.00  0.00     0.049 C 
ATOM     14  C   UNL     1      -3.692  -0.106  -1.136  1.00  0.00     0.010 C 
ATOM     15  C   UNL     1      -5.303  -1.962  -1.614  1.00  0.00     0.023 C 
ATOM     16  C   UNL     1      -4.266   0.757  -2.253  1.00  0.00     0.001 C 
ATOM     17  C   UNL     1      -5.909  -1.114  -2.759  1.00  0.00     0.006 C 
ATOM     18  C   UNL     1      -5.706   0.394  -2.581  1.00  0.00     0.000 C 
BRANCH  15  19
ATOM     19  C   UNL     1      -6.147  -1.792  -0.337  1.00  0.00     0.160 C 
BRANCH  19  20
ATOM     20  O   UNL     1      -5.589  -2.484   0.766  1.00  0.00    -0.396 OA
ATOM     21  H   UNL     1      -5.556  -3.433   0.570  1.00  0.00     0.210 HD
ENDBRANCH  19  20
ENDBRANCH  15  19
ENDBRANCH  12  13
ENDBRANCH   9  12
ENDBRANCH   7   9
ENDBRANCH   5   7
ENDBRANCH   1   5
BRANCH   3  22
ATOM     22  C   UNL     1      -0.577   1.486   0.643  1.00  0.00     0.117 C 
BRANCH  22  23
ATOM     23  C   UNL     1      -0.887   2.066   2.007  1.00  0.00     0.042 C 
BRANCH  23  24
ATOM     24  C   UNL     1      -0.171   3.364   2.313  1.00  0.00     0.118 C 
BRANCH  24  25
ATOM     25  N   UNL     1      -0.602   4.473   1.474  1.00  0.00    -0.352 N 
ATOM     26  C   UNL     1      -1.038   5.730   1.824  1.00  0.00     0.251 C 
ATOM     27  H   UNL     1      -0.578   4.296   0.506  1.00  0.00     0.163 HD
ATOM     28  O   UNL     1      -1.472   6.480   0.957  1.00  0.00    -0.269 OA
BRANCH  26  29
ATOM     29  C   UNL     1      -1.014   6.175   3.239  1.00  0.00     0.039 A 
ATOM     30  C   UNL     1      -2.046   6.997   3.702  1.00  0.00     0.014 A 
ATOM     31  C   UNL     1       0.019   5.812   4.104  1.00  0.00     0.014 A 
ATOM     32  C   UNL     1      -2.060   7.410   5.037  1.00  0.00     0.010 A 
ATOM     33  C   UNL     1      -0.060   6.122   5.457  1.00  0.00     0.010 A 
ATOM     34  C   UNL     1      -1.081   6.954   5.934  1.00  0.00    -0.014 A 
BRANCH  34  35
ATOM     35  C   UNL     1      -1.070   7.389   7.354  1.00  0.00     0.031 A 
ATOM     36  C   UNL     1       0.105   8.162   7.896  1.00  0.00     0.074 A 
ATOM     37  C   UNL     1      -2.089   7.057   8.170  1.00  0.00     0.049 A 
ATOM     38  N   UNL     1       0.320   8.601   9.110  1.00  0.00    -0.248 NA
ATOM     39  C   UNL     1       1.200   8.451   6.955  1.00  0.00     0.031 C 
ATOM     40  C   UNL     1      -3.256   6.261   7.788  1.00  0.00     0.029 A 
ATOM     41  N   UNL     1      -2.303   7.346   9.494  1.00  0.00    -0.354 N 
ATOM     42  C   UNL     1       1.571   9.205   9.077  1.00  0.00     0.074 A 
ATOM     43  C   UNL     1       2.102   9.005   7.748  1.00  0.00     0.031 C 
ATOM     44  C   UNL     1      -4.077   6.149   8.845  1.00  0.00     0.029 A 
ATOM     45  C   UNL     1      -3.479   6.835   9.986  1.00  0.00     0.049 A 
ATOM     46  H   UNL     1      -1.673   7.870  10.040  1.00  0.00     0.167 HD
ATOM     47  C   UNL     1       2.208   9.898  10.051  1.00  0.00     0.037 A 
ATOM     48  C   UNL     1      -4.014   6.911  11.219  1.00  0.00     0.037 A 
ATOM     49  C   UNL     1       1.673  10.111  11.369  1.00  0.00     0.049 A 
ATOM     50  C   UNL     1      -3.293   7.688  12.287  1.00  0.00     0.074 A 
ATOM     51  C   UNL     1       2.219  10.829  12.418  1.00  0.00     0.029 A 
ATOM     52  N   UNL     1       0.463   9.603  11.820  1.00  0.00    -0.354 N 
ATOM     53  N   UNL     1      -2.141   8.310  12.223  1.00  0.00    -0.248 NA
ATOM     54  C   UNL     1      -3.957   7.788  13.593  1.00  0.00     0.031 C 
ATOM     55  C   UNL     1       1.362  10.716  13.518  1.00  0.00     0.029 A 
ATOM     56  C   UNL     1       0.252   9.981  13.135  1.00  0.00     0.049 A 
ATOM     57  H   UNL     1      -0.154   9.054  11.283  1.00  0.00     0.167 HD
ATOM     58  C   UNL     1      -1.958   8.904  13.466  1.00  0.00     0.074 A 
ATOM     59  C   UNL     1      -3.126   8.577  14.258  1.00  0.00     0.031 C 
ATOM     60  C   UNL     1      -0.920   9.655  13.910  1.00  0.00     0.037 A 
BRANCH  47  61
ATOM     61  C   UNL     1       3.552  10.480   9.712  1.00  0.00     0.057 A 
ATOM     62  C   UNL     1       3.695  11.519   8.781  1.00  0.00     0.134 A 
ATOM     63  C   UNL     1       4.717  10.002  10.325  1.00  0.00     0.134 A 
ATOM     64  F   UNL     1       2.623  12.016   8.146  1.00  0.00    -0.206 F 
ATOM     65  C   UNL     1       4.949  12.032   8.442  1.00  0.00     0.040 A 
ATOM     66  C   UNL     1       5.973  10.531  10.020  1.00  0.00     0.040 A 
ATOM     67  F   UNL     1       4.656   9.014  11.230  1.00  0.00    -0.206 F 
ATOM     68  C   UNL     1       6.092  11.541   9.068  1.00  0.00     0.006 A 
ENDBRANCH  47  61
BRANCH  48  69
ATOM     69  C   UNL     1      -5.319   6.260  11.500  1.00  0.00     0.057 A 
ATOM     70  C   UNL     1      -6.473   7.016  11.735  1.00  0.00     0.134 A 
ATOM     71  C   UNL     1      -5.444   4.866  11.540  1.00  0.00     0.134 A 
ATOM     72  F   UNL     1      -6.415   8.356  11.726  1.00  0.00    -0.206 F 
ATOM     73  C   UNL     1      -7.699   6.412  12.021  1.00  0.00     0.040 A 
ATOM     74  C   UNL     1      -6.669   4.248  11.797  1.00  0.00     0.040 A 
ATOM     75  F   UNL     1      -4.378   4.084  11.313  1.00  0.00    -0.206 F 
ATOM     76  C   UNL     1      -7.800   5.023  12.047  1.00  0.00     0.006 A 
ENDBRANCH  48  69
BRANCH  60  77
ATOM     77  C   UNL     1      -1.023  10.218  15.298  1.00  0.00     0.057 A 
ATOM     78  C   UNL     1      -0.947   9.411  16.441  1.00  0.00     0.134 A 
ATOM     79  C   UNL     1      -1.179  11.598  15.493  1.00  0.00     0.134 A 
ATOM     80  F   UNL     1      -0.808   8.081  16.326  1.00  0.00    -0.206 F 
ATOM     81  C   UNL     1      -1.056   9.950  17.724  1.00  0.00     0.040 A 
ATOM     82  C   UNL     1      -1.256  12.152  16.770  1.00  0.00     0.040 A 
ATOM     83  F   UNL     1      -1.247  12.431  14.443  1.00  0.00    -0.206 F 
ATOM     84  C   UNL     1      -1.205  11.326  17.891  1.00  0.00     0.006 A 
ENDBRANCH  60  77
ENDBRANCH  34  35
ENDBRANCH  26  29
ENDBRANCH  24  25
ENDBRANCH  23  24
ENDBRANCH  22  23
ENDBRANCH   3  22
TORSDOF 16
