REMARK SMILES COc1ccc(OC)c(N2C(=O)c3ccc(C(=O)NCCCNC(=O)c4ccc(-c5c6nc(c(-c7c(F)cccc7F)c7ccc([nH]7)c(-c7c(F)cccc7F)c7nc(c(-c8c(F)cccc8F)c8ccc5[nH]8)C=C7)C=C6)cc4)cc3C2=O)c1
REMARK SMILES IDX 21 1 20 2 19 3 17 4 18 5 16 7 10 8 11 9 82 10 12 11 13 12
REMARK SMILES IDX 81 13 83 14 14 15 80 16 15 17 9 18 3 19 4 20 84 21 5 22 6 23
REMARK SMILES IDX 2 24 1 25 7 26 8 27 22 28 23 29 24 30 25 32 26 33 27 34
REMARK SMILES IDX 79 35 28 36 78 37 29 38 30 39 31 40 72 41 32 42 77 43 71 44
REMARK SMILES IDX 73 45 33 46 76 47 70 48 69 49 34 51 60 52 43 53 59 54 44 55
REMARK SMILES IDX 47 56 58 57 74 58 45 59 46 60 57 62 75 63 48 64 35 65 36 66
REMARK SMILES IDX 41 67 37 68 38 69 40 70 42 71 39 72 61 73 62 74 67 75 63 76
REMARK SMILES IDX 64 77 66 78 68 79 65 80 49 81 50 82 55 83 51 84 52 85 54 86
REMARK SMILES IDX 56 87 53 88
REMARK H PARENT 19 6 23 31 73 50 47 61
REMARK Flexibility Score: inf
ROOT
ATOM      1  C   UNL     1       9.838  -5.030   5.977  1.00  0.00     0.042 C 
ENDROOT
BRANCH   1   2
ATOM      2  C   UNL     1       9.624  -3.555   6.298  1.00  0.00     0.118 C 
BRANCH   2   3
ATOM      3  N   UNL     1      10.394  -2.678   5.433  1.00  0.00    -0.352 N 
ATOM      4  C   UNL     1      10.114  -1.780   4.442  1.00  0.00     0.251 C 
ATOM      5  O   UNL     1      11.092  -1.301   3.862  1.00  0.00    -0.269 OA
ATOM      6  H   UNL     1      11.361  -2.748   5.603  1.00  0.00     0.163 HD
BRANCH   4   7
ATOM      7  C   UNL     1       8.757  -1.340   4.005  1.00  0.00     0.040 A 
ATOM      8  N   UNL     1       4.242  -0.426   3.740  1.00  0.00    -0.238 N 
ATOM      9  C   UNL     1       5.008   0.055   2.703  1.00  0.00     0.266 C 
ATOM     10  C   UNL     1       5.020  -1.119   4.640  1.00  0.00     0.266 C 
ATOM     11  O   UNL     1       4.715   0.703   1.712  1.00  0.00    -0.268 OA
ATOM     12  C   UNL     1       6.381  -0.332   2.977  1.00  0.00     0.053 A 
ATOM     13  C   UNL     1       6.402  -0.995   4.181  1.00  0.00     0.054 A 
ATOM     14  O   UNL     1       4.743  -1.874   5.554  1.00  0.00    -0.268 OA
ATOM     15  C   UNL     1       7.519  -0.135   2.233  1.00  0.00     0.015 A 
ATOM     16  C   UNL     1       7.575  -1.480   4.740  1.00  0.00     0.028 A 
ATOM     17  C   UNL     1       8.706  -0.659   2.752  1.00  0.00     0.015 A 
BRANCH   8  18
ATOM     18  C   UNL     1       2.830  -0.289   3.786  1.00  0.00     0.098 A 
ATOM     19  C   UNL     1       0.747  -0.059   2.522  1.00  0.00     0.121 A 
ATOM     20  C   UNL     1       0.054   0.140   3.715  1.00  0.00     0.050 A 
ATOM     21  C   UNL     1       2.119  -0.293   2.572  1.00  0.00     0.077 A 
ATOM     22  C   UNL     1       0.732   0.122   4.941  1.00  0.00     0.052 A 
ATOM     23  C   UNL     1       2.116  -0.092   4.978  1.00  0.00     0.143 A 
BRANCH  19  24
ATOM     24  O   UNL     1       0.003   0.021   1.375  1.00  0.00    -0.497 OA
ATOM     25  C   UNL     1       0.709  -0.125   0.143  1.00  0.00     0.278 C 
ENDBRANCH  19  24
BRANCH  23  26
ATOM     26  O   UNL     1       2.790   0.141   6.150  1.00  0.00    -0.495 OA
ATOM     27  C   UNL     1       2.604  -0.907   7.102  1.00  0.00     0.278 C 
ENDBRANCH  23  26
ENDBRANCH   8  18
ENDBRANCH   4   7
ENDBRANCH   2   3
ENDBRANCH   1   2
BRANCH   1  28
ATOM     28  C   UNL     1      11.257  -5.534   6.219  1.00  0.00     0.118 C 
BRANCH  28  29
ATOM     29  N   UNL     1      11.649  -5.460   7.620  1.00  0.00    -0.352 N 
ATOM     30  C   UNL     1      11.860  -6.450   8.548  1.00  0.00     0.251 C 
ATOM     31  H   UNL     1      11.786  -4.546   7.959  1.00  0.00     0.163 HD
ATOM     32  O   UNL     1      11.980  -6.149   9.733  1.00  0.00    -0.269 OA
BRANCH  30  33
ATOM     33  C   UNL     1      11.932  -7.873   8.147  1.00  0.00     0.039 A 
ATOM     34  C   UNL     1      11.338  -8.835   8.971  1.00  0.00     0.014 A 
ATOM     35  C   UNL     1      12.625  -8.273   7.003  1.00  0.00     0.014 A 
ATOM     36  C   UNL     1      11.379 -10.185   8.610  1.00  0.00     0.010 A 
ATOM     37  C   UNL     1      12.601  -9.608   6.604  1.00  0.00     0.010 A 
ATOM     38  C   UNL     1      11.979 -10.578   7.404  1.00  0.00    -0.014 A 
BRANCH  38  39
ATOM     39  C   UNL     1      11.965 -11.994   6.957  1.00  0.00     0.031 A 
ATOM     40  C   UNL     1      13.252 -12.757   6.808  1.00  0.00     0.074 A 
ATOM     41  C   UNL     1      10.797 -12.570   6.610  1.00  0.00     0.049 A 
ATOM     42  N   UNL     1      13.450 -13.962   6.337  1.00  0.00    -0.248 NA
ATOM     43  C   UNL     1      14.483 -12.063   7.217  1.00  0.00     0.031 C 
ATOM     44  C   UNL     1       9.485 -11.924   6.668  1.00  0.00     0.029 A 
ATOM     45  N   UNL     1      10.528 -13.825   6.124  1.00  0.00    -0.354 N 
ATOM     46  C   UNL     1      14.824 -14.163   6.375  1.00  0.00     0.074 A 
ATOM     47  C   UNL     1      15.415 -12.940   6.874  1.00  0.00     0.031 C 
ATOM     48  C   UNL     1       8.549 -12.791   6.250  1.00  0.00     0.029 A 
ATOM     49  C   UNL     1       9.197 -14.039   5.858  1.00  0.00     0.049 A 
ATOM     50  H   UNL     1      11.223 -14.508   5.979  1.00  0.00     0.167 HD
ATOM     51  C   UNL     1      15.528 -15.272   6.044  1.00  0.00     0.037 A 
ATOM     52  C   UNL     1       8.571 -15.114   5.345  1.00  0.00     0.037 A 
ATOM     53  C   UNL     1      14.937 -16.498   5.575  1.00  0.00     0.049 A 
ATOM     54  C   UNL     1       9.375 -16.331   4.983  1.00  0.00     0.074 A 
ATOM     55  C   UNL     1      15.560 -17.696   5.273  1.00  0.00     0.029 A 
ATOM     56  N   UNL     1      13.583 -16.681   5.339  1.00  0.00    -0.354 N 
ATOM     57  N   UNL     1      10.667 -16.527   5.080  1.00  0.00    -0.248 NA
ATOM     58  C   UNL     1       8.632 -17.478   4.442  1.00  0.00     0.031 C 
ATOM     59  C   UNL     1      14.588 -18.593   4.818  1.00  0.00     0.029 A 
ATOM     60  C   UNL     1      13.353 -17.966   4.876  1.00  0.00     0.049 A 
ATOM     61  H   UNL     1      12.887 -15.998   5.479  1.00  0.00     0.167 HD
ATOM     62  C   UNL     1      10.890 -17.824   4.637  1.00  0.00     0.074 A 
ATOM     63  C   UNL     1       9.597 -18.373   4.284  1.00  0.00     0.031 C 
ATOM     64  C   UNL     1      12.060 -18.499   4.532  1.00  0.00     0.037 A 
BRANCH  51  65
ATOM     65  C   UNL     1      17.022 -15.210   6.181  1.00  0.00     0.057 A 
ATOM     66  C   UNL     1      17.648 -15.187   7.434  1.00  0.00     0.134 A 
ATOM     67  C   UNL     1      17.845 -15.209   5.048  1.00  0.00     0.134 A 
ATOM     68  F   UNL     1      16.916 -15.175   8.559  1.00  0.00    -0.206 F 
ATOM     69  C   UNL     1      19.038 -15.138   7.556  1.00  0.00     0.040 A 
ATOM     70  C   UNL     1      19.237 -15.186   5.157  1.00  0.00     0.040 A 
ATOM     71  F   UNL     1      17.312 -15.236   3.817  1.00  0.00    -0.206 F 
ATOM     72  C   UNL     1      19.837 -15.144   6.414  1.00  0.00     0.006 A 
ENDBRANCH  51  65
BRANCH  52  73
ATOM     73  C   UNL     1       7.099 -15.096   5.159  1.00  0.00     0.057 A 
ATOM     74  C   UNL     1       6.261 -15.866   5.973  1.00  0.00     0.134 A 
ATOM     75  C   UNL     1       6.495 -14.314   4.167  1.00  0.00     0.134 A 
ATOM     76  F   UNL     1       6.784 -16.650   6.928  1.00  0.00    -0.206 F 
ATOM     77  C   UNL     1       4.877 -15.874   5.798  1.00  0.00     0.040 A 
ATOM     78  C   UNL     1       5.110 -14.294   3.996  1.00  0.00     0.040 A 
ATOM     79  F   UNL     1       7.243 -13.547   3.359  1.00  0.00    -0.206 F 
ATOM     80  C   UNL     1       4.297 -15.081   4.809  1.00  0.00     0.006 A 
ENDBRANCH  52  73
BRANCH  64  81
ATOM     81  C   UNL     1      11.991 -19.915   4.042  1.00  0.00     0.057 A 
ATOM     82  C   UNL     1      11.738 -20.218   2.698  1.00  0.00     0.134 A 
ATOM     83  C   UNL     1      12.214 -20.984   4.918  1.00  0.00     0.134 A 
ATOM     84  F   UNL     1      11.502 -19.239   1.812  1.00  0.00    -0.206 F 
ATOM     85  C   UNL     1      11.689 -21.538   2.247  1.00  0.00     0.040 A 
ATOM     86  C   UNL     1      12.192 -22.307   4.474  1.00  0.00     0.040 A 
ATOM     87  F   UNL     1      12.469 -20.760   6.216  1.00  0.00    -0.206 F 
ATOM     88  C   UNL     1      11.923 -22.587   3.136  1.00  0.00     0.006 A 
ENDBRANCH  64  81
ENDBRANCH  38  39
ENDBRANCH  30  33
ENDBRANCH  28  29
ENDBRANCH   1  28
TORSDOF 13
