REMARK SMILES O=C(NCCCNC(=O)c1cc(S(=O)(=O)ON2C(=O)c3cccc4cccc(c34)C2=O)ccc1Br)c1ccc(-c2c3nc(c(-c4c(F)cccc4F)c4ccc([nH]4)c(-c4c(F)cccc4F)c4nc(c(-c5c(F)cccc5F)c5ccc2[nH]5)C=C4)C=C3)cc1
REMARK SMILES IDX 5 1 4 2 3 3 1 4 2 5 36 7 37 8 89 9 38 10 88 11 39 12 40 13
REMARK SMILES IDX 41 14 82 15 42 16 87 17 81 18 83 19 43 20 86 21 80 22 79 23
REMARK SMILES IDX 44 25 70 26 53 27 69 28 54 29 57 30 68 31 84 32 55 33 56 34
REMARK SMILES IDX 67 36 85 37 58 38 45 39 46 40 51 41 47 42 48 43 50 44 52 45
REMARK SMILES IDX 49 46 71 47 72 48 77 49 73 50 74 51 76 52 78 53 75 54 59 55
REMARK SMILES IDX 60 56 65 57 61 58 62 59 64 60 66 61 63 62 6 63 7 64 8 65
REMARK SMILES IDX 9 67 10 68 11 69 34 70 12 71 33 72 35 73 32 74 13 75 14 76
REMARK SMILES IDX 15 77 16 78 17 79 18 80 30 81 19 82 20 83 28 84 31 85 21 86
REMARK SMILES IDX 29 87 27 88 22 89 24 90 26 91 23 92 25 93
REMARK H PARENT 3 6 83 24 57 35 7 66
REMARK Flexibility Score: inf
ROOT
ATOM      1  C   UNL     1       5.104   2.620   0.002  1.00  0.00     0.042 C 
ENDROOT
BRANCH   1   2
ATOM      2  C   UNL     1       4.650   1.352   0.712  1.00  0.00     0.118 C 
BRANCH   2   3
ATOM      3  N   UNL     1       3.215   1.120   0.615  1.00  0.00    -0.352 N 
ATOM      4  O   UNL     1       1.292   0.205  -0.115  1.00  0.00    -0.269 OA
ATOM      5  C   UNL     1       2.514   0.127  -0.025  1.00  0.00     0.251 C 
ATOM      6  H   UNL     1       2.658   1.782   1.084  1.00  0.00     0.163 HD
BRANCH   5   7
ATOM      7  C   UNL     1       3.220  -1.028  -0.623  1.00  0.00     0.039 A 
ATOM      8  C   UNL     1       4.271  -1.653   0.048  1.00  0.00     0.014 A 
ATOM      9  C   UNL     1       2.790  -1.526  -1.859  1.00  0.00     0.014 A 
ATOM     10  C   UNL     1       4.986  -2.669  -0.574  1.00  0.00     0.010 A 
ATOM     11  C   UNL     1       3.447  -2.615  -2.440  1.00  0.00     0.010 A 
ATOM     12  C   UNL     1       4.564  -3.183  -1.810  1.00  0.00    -0.014 A 
BRANCH  12  13
ATOM     13  C   UNL     1       5.240  -4.386  -2.356  1.00  0.00     0.031 A 
ATOM     14  C   UNL     1       6.009  -4.341  -3.645  1.00  0.00     0.074 A 
ATOM     15  C   UNL     1       5.164  -5.531  -1.648  1.00  0.00     0.049 A 
ATOM     16  N   UNL     1       6.663  -5.306  -4.242  1.00  0.00    -0.248 NA
ATOM     17  C   UNL     1       6.048  -3.058  -4.362  1.00  0.00     0.031 C 
ATOM     18  C   UNL     1       4.423  -5.696  -0.393  1.00  0.00     0.029 A 
ATOM     19  N   UNL     1       5.721  -6.764  -1.867  1.00  0.00    -0.354 N 
ATOM     20  C   UNL     1       7.173  -4.755  -5.411  1.00  0.00     0.074 A 
ATOM     21  C   UNL     1       6.742  -3.374  -5.449  1.00  0.00     0.031 C 
ATOM     22  C   UNL     1       4.605  -6.942   0.066  1.00  0.00     0.029 A 
ATOM     23  C   UNL     1       5.416  -7.682  -0.891  1.00  0.00     0.049 A 
ATOM     24  H   UNL     1       6.284  -6.972  -2.647  1.00  0.00     0.167 HD
ATOM     25  C   UNL     1       7.934  -5.353  -6.359  1.00  0.00     0.037 A 
ATOM     26  C   UNL     1       5.731  -8.986  -0.788  1.00  0.00     0.037 A 
ATOM     27  C   UNL     1       8.381  -6.721  -6.299  1.00  0.00     0.049 A 
ATOM     28  C   UNL     1       6.560  -9.619  -1.865  1.00  0.00     0.074 A 
ATOM     29  C   UNL     1       9.213  -7.394  -7.178  1.00  0.00     0.029 A 
ATOM     30  N   UNL     1       8.028  -7.628  -5.311  1.00  0.00    -0.354 N 
ATOM     31  N   UNL     1       7.080  -9.069  -2.935  1.00  0.00    -0.248 NA
ATOM     32  C   UNL     1       6.836 -11.055  -1.728  1.00  0.00     0.031 C 
ATOM     33  C   UNL     1       9.323  -8.721  -6.749  1.00  0.00     0.029 A 
ATOM     34  C   UNL     1       8.596  -8.863  -5.579  1.00  0.00     0.049 A 
ATOM     35  H   UNL     1       7.458  -7.424  -4.535  1.00  0.00     0.167 HD
ATOM     36  C   UNL     1       7.750 -10.088  -3.596  1.00  0.00     0.074 A 
ATOM     37  C   UNL     1       7.596 -11.282  -2.790  1.00  0.00     0.031 C 
ATOM     38  C   UNL     1       8.424 -10.042  -4.770  1.00  0.00     0.037 A 
BRANCH  25  39
ATOM     39  C   UNL     1       8.334  -4.545  -7.559  1.00  0.00     0.057 A 
ATOM     40  C   UNL     1       9.336  -3.570  -7.495  1.00  0.00     0.134 A 
ATOM     41  C   UNL     1       7.776  -4.819  -8.815  1.00  0.00     0.134 A 
ATOM     42  F   UNL     1       9.906  -3.256  -6.322  1.00  0.00    -0.206 F 
ATOM     43  C   UNL     1       9.768  -2.893  -8.638  1.00  0.00     0.040 A 
ATOM     44  C   UNL     1       8.212  -4.163  -9.967  1.00  0.00     0.040 A 
ATOM     45  F   UNL     1       6.817  -5.748  -8.946  1.00  0.00    -0.206 F 
ATOM     46  C   UNL     1       9.212  -3.196  -9.880  1.00  0.00     0.006 A 
ENDBRANCH  25  39
BRANCH  26  47
ATOM     47  C   UNL     1       5.227  -9.783   0.357  1.00  0.00     0.057 A 
ATOM     48  C   UNL     1       6.094 -10.287   1.332  1.00  0.00     0.134 A 
ATOM     49  C   UNL     1       3.862 -10.066   0.499  1.00  0.00     0.134 A 
ATOM     50  F   UNL     1       7.414 -10.065   1.241  1.00  0.00    -0.206 F 
ATOM     51  C   UNL     1       5.627 -11.060   2.396  1.00  0.00     0.040 A 
ATOM     52  C   UNL     1       3.377 -10.811   1.573  1.00  0.00     0.040 A 
ATOM     53  F   UNL     1       2.978  -9.604  -0.398  1.00  0.00    -0.206 F 
ATOM     54  C   UNL     1       4.263 -11.319   2.521  1.00  0.00     0.006 A 
ENDBRANCH  26  47
BRANCH  38  55
ATOM     55  C   UNL     1       9.044 -11.321  -5.242  1.00  0.00     0.057 A 
ATOM     56  C   UNL     1       8.266 -12.367  -5.755  1.00  0.00     0.134 A 
ATOM     57  C   UNL     1      10.432 -11.504  -5.200  1.00  0.00     0.134 A 
ATOM     58  F   UNL     1       6.930 -12.259  -5.804  1.00  0.00    -0.206 F 
ATOM     59  C   UNL     1       8.845 -13.560  -6.187  1.00  0.00     0.040 A 
ATOM     60  C   UNL     1      11.024 -12.683  -5.653  1.00  0.00     0.040 A 
ATOM     61  F   UNL     1      11.232 -10.537  -4.726  1.00  0.00    -0.206 F 
ATOM     62  C   UNL     1      10.229 -13.718  -6.142  1.00  0.00     0.006 A 
ENDBRANCH  38  55
ENDBRANCH  12  13
ENDBRANCH   5   7
ENDBRANCH   2   3
ENDBRANCH   1   2
BRANCH   1  63
ATOM     63  C   UNL     1       4.543   3.908   0.586  1.00  0.00     0.118 C 
BRANCH  63  64
ATOM     64  N   UNL     1       4.902   4.102   1.980  1.00  0.00    -0.352 N 
ATOM     65  C   UNL     1       5.513   5.164   2.592  1.00  0.00     0.252 C 
ATOM     66  H   UNL     1       4.672   3.354   2.578  1.00  0.00     0.163 HD
ATOM     67  O   UNL     1       5.780   5.109   3.790  1.00  0.00    -0.269 OA
BRANCH  65  68
ATOM     68  C   UNL     1       5.933   6.349   1.820  1.00  0.00     0.055 A 
ATOM     69  C   UNL     1       7.299   6.653   1.860  1.00  0.00     0.038 A 
ATOM     70  C   UNL     1       5.053   7.207   1.151  1.00  0.00     0.030 A 
ATOM     71  C   UNL     1       7.784   7.787   1.197  1.00  0.00     0.097 A 
ATOM     72  C   UNL     1       5.560   8.306   0.439  1.00  0.00     0.018 A 
ATOM     73  Br  UNL     1       3.164   7.028   1.237  1.00  0.00    -0.050 Br
ATOM     74  C   UNL     1       6.929   8.598   0.453  1.00  0.00     0.024 A 
BRANCH  71  75
ATOM     75  S   UNL     1       9.513   8.164   1.358  1.00  0.00     0.318 S 
ATOM     76  O   UNL     1       9.640   8.992   2.539  1.00  0.00    -0.192 OA
ATOM     77  O   UNL     1      10.194   6.883   1.273  1.00  0.00    -0.192 OA
BRANCH  75  78
ATOM     78  O   UNL     1       9.912   9.058   0.041  1.00  0.00    -0.134 OA
BRANCH  78  79
ATOM     79  N   UNL     1      11.107   9.789   0.253  1.00  0.00    -0.127 N 
ATOM     80  C   UNL     1      10.963  11.159   0.375  1.00  0.00     0.286 C 
ATOM     81  C   UNL     1      12.278   9.070   0.122  1.00  0.00     0.286 C 
ATOM     82  O   UNL     1       9.893  11.756   0.297  1.00  0.00    -0.266 OA
ATOM     83  C   UNL     1      12.236  11.904   0.589  1.00  0.00     0.051 A 
ATOM     84  C   UNL     1      13.498   9.795   0.528  1.00  0.00     0.051 A 
ATOM     85  O   UNL     1      12.358   7.926  -0.311  1.00  0.00    -0.266 OA
ATOM     86  C   UNL     1      12.226  13.299   0.705  1.00  0.00     0.014 A 
ATOM     87  C   UNL     1      13.440  11.185   0.709  1.00  0.00     0.007 A 
ATOM     88  C   UNL     1      14.689   9.085   0.709  1.00  0.00     0.014 A 
ATOM     89  C   UNL     1      13.414  13.983   0.961  1.00  0.00     0.001 A 
ATOM     90  C   UNL     1      14.635  11.878   1.014  1.00  0.00    -0.017 A 
ATOM     91  C   UNL     1      15.850   9.765   1.059  1.00  0.00     0.001 A 
ATOM     92  C   UNL     1      14.606  13.276   1.128  1.00  0.00     0.009 A 
ATOM     93  C   UNL     1      15.826  11.154   1.195  1.00  0.00     0.009 A 
ENDBRANCH  78  79
ENDBRANCH  75  78
ENDBRANCH  71  75
ENDBRANCH  65  68
ENDBRANCH  63  64
ENDBRANCH   1  63
TORSDOF 13
