REMARK SMILES C=CCNC(=O)C[NH2+][C@](C)(C(=O)NCCCNC(=O)c1ccc(-c2c3nc(c(-c4c(F)cccc4F)c4ccc([nH]4)c(-c4c(F)cccc4F)c4nc(c(-c5c(F)cccc5F)c5ccc2[nH]5)C=C4)C=C3)cc1)C(F)(F)F
REMARK SMILES IDX 11 1 12 2 13 3 9 5 10 6 8 7 7 10 5 11 4 12 6 14 3 15 2 16
REMARK SMILES IDX 1 17 74 18 75 19 76 20 77 21 14 22 15 23 16 24 17 25 18 26
REMARK SMILES IDX 19 28 20 29 21 30 73 31 22 32 72 33 23 34 24 35 25 36 66 37
REMARK SMILES IDX 26 38 71 39 65 40 67 41 27 42 70 43 64 44 63 45 28 47 54 48
REMARK SMILES IDX 37 49 53 50 38 51 41 52 52 53 68 54 39 55 40 56 51 58 69 59
REMARK SMILES IDX 42 60 29 61 30 62 35 63 31 64 32 65 34 66 36 67 33 68 55 69
REMARK SMILES IDX 56 70 61 71 57 72 58 73 60 74 62 75 59 76 43 77 44 78 49 79
REMARK SMILES IDX 45 80 46 81 48 82 50 83 47 84
REMARK H PARENT 13 4 8 8 8 9 4 13 17 27 67 46 41 57
REMARK Flexibility Score: inf
ROOT
ATOM      1  C   UNL     1      -0.850   2.629  -5.215  1.00  0.00     0.290 C 
ATOM      2  O   UNL     1      -0.384   1.721  -5.906  1.00  0.00    -0.267 OA
ATOM      3  N   UNL     1      -0.187   3.824  -5.292  1.00  0.00    -0.350 N 
ATOM      4  H   UNL     1       0.547   3.825  -5.948  1.00  0.00     0.163 HD
ENDROOT
BRANCH   1   5
ATOM      5  C   UNL     1      -2.125   2.463  -4.362  1.00  0.00     0.268 C 
ATOM      6  C   UNL     1      -1.839   2.801  -2.880  1.00  0.00     0.101 C 
BRANCH   5   7
ATOM      7  N   UNL     1      -3.160   3.448  -4.840  1.00  0.00    -0.318 N 
ATOM      8  H   UNL     1      -3.747   3.700  -4.044  1.00  0.00     0.347 HD
ATOM      9  H   UNL     1      -2.643   4.236  -5.230  1.00  0.00     0.347 HD
BRANCH   7  10
ATOM     10  C   UNL     1      -4.038   2.961  -5.915  1.00  0.00     0.362 C 
BRANCH  10  11
ATOM     11  C   UNL     1      -5.165   3.979  -6.130  1.00  0.00     0.275 C 
ATOM     12  N   UNL     1      -6.067   4.188  -5.123  1.00  0.00    -0.348 N 
ATOM     13  H   UNL     1      -6.806   4.805  -5.330  1.00  0.00     0.163 HD
ATOM     14  O   UNL     1      -5.278   4.605  -7.184  1.00  0.00    -0.268 OA
BRANCH  12  15
ATOM     15  C   UNL     1      -6.075   3.620  -3.793  1.00  0.00     0.143 C 
BRANCH  15  16
ATOM     16  C   UNL     1      -5.878   4.745  -2.825  1.00  0.00    -0.014 C 
ATOM     17  C   UNL     1      -6.672   4.982  -1.772  1.00  0.00     0.006 C 
ENDBRANCH  15  16
ENDBRANCH  12  15
ENDBRANCH  10  11
ENDBRANCH   7  10
ENDBRANCH   5   7
BRANCH   5  18
ATOM     18  C   UNL     1      -2.489   0.946  -4.405  1.00  0.00     0.453 C 
ATOM     19  F   UNL     1      -1.538   0.173  -3.833  1.00  0.00    -0.164 F 
ATOM     20  F   UNL     1      -3.636   0.723  -3.703  1.00  0.00    -0.164 F 
ATOM     21  F   UNL     1      -2.719   0.482  -5.653  1.00  0.00    -0.164 F 
ENDBRANCH   5  18
ENDBRANCH   1   5
BRANCH   3  22
ATOM     22  C   UNL     1      -0.350   5.092  -4.599  1.00  0.00     0.118 C 
BRANCH  22  23
ATOM     23  C   UNL     1       0.771   5.352  -3.601  1.00  0.00     0.042 C 
BRANCH  23  24
ATOM     24  C   UNL     1       2.154   5.457  -4.233  1.00  0.00     0.118 C 
BRANCH  24  25
ATOM     25  N   UNL     1       2.270   6.580  -5.152  1.00  0.00    -0.352 N 
ATOM     26  C   UNL     1       3.090   7.679  -5.108  1.00  0.00     0.251 C 
ATOM     27  H   UNL     1       1.664   6.546  -5.928  1.00  0.00     0.163 HD
ATOM     28  O   UNL     1       2.900   8.610  -5.890  1.00  0.00    -0.269 OA
BRANCH  26  29
ATOM     29  C   UNL     1       4.182   7.766  -4.115  1.00  0.00     0.039 A 
ATOM     30  C   UNL     1       4.415   8.985  -3.474  1.00  0.00     0.014 A 
ATOM     31  C   UNL     1       4.986   6.661  -3.826  1.00  0.00     0.014 A 
ATOM     32  C   UNL     1       5.404   9.075  -2.493  1.00  0.00     0.010 A 
ATOM     33  C   UNL     1       5.909   6.728  -2.786  1.00  0.00     0.010 A 
ATOM     34  C   UNL     1       6.131   7.936  -2.110  1.00  0.00    -0.014 A 
BRANCH  34  35
ATOM     35  C   UNL     1       7.124   7.990  -1.006  1.00  0.00     0.031 A 
ATOM     36  C   UNL     1       8.574   7.692  -1.274  1.00  0.00     0.074 A 
ATOM     37  C   UNL     1       6.710   8.245   0.251  1.00  0.00     0.049 A 
ATOM     38  N   UNL     1       9.573   7.620  -0.431  1.00  0.00    -0.248 NA
ATOM     39  C   UNL     1       8.947   7.413  -2.670  1.00  0.00     0.031 C 
ATOM     40  C   UNL     1       5.325   8.506   0.650  1.00  0.00     0.029 A 
ATOM     41  N   UNL     1       7.412   8.317   1.428  1.00  0.00    -0.354 N 
ATOM     42  C   UNL     1      10.685   7.278  -1.190  1.00  0.00     0.074 A 
ATOM     43  C   UNL     1      10.228   7.098  -2.551  1.00  0.00     0.031 C 
ATOM     44  C   UNL     1       5.284   8.735   1.972  1.00  0.00     0.029 A 
ATOM     45  C   UNL     1       6.628   8.593   2.522  1.00  0.00     0.049 A 
ATOM     46  H   UNL     1       8.386   8.184   1.483  1.00  0.00     0.167 HD
ATOM     47  C   UNL     1      11.974   7.149  -0.795  1.00  0.00     0.037 A 
ATOM     48  C   UNL     1       6.953   8.708   3.824  1.00  0.00     0.037 A 
ATOM     49  C   UNL     1      12.429   7.345   0.556  1.00  0.00     0.049 A 
ATOM     50  C   UNL     1       8.388   8.536   4.240  1.00  0.00     0.074 A 
ATOM     51  C   UNL     1      13.722   7.289   1.046  1.00  0.00     0.029 A 
ATOM     52  N   UNL     1      11.605   7.632   1.634  1.00  0.00    -0.354 N 
ATOM     53  N   UNL     1       9.439   8.278   3.500  1.00  0.00    -0.248 NA
ATOM     54  C   UNL     1       8.684   8.676   5.673  1.00  0.00     0.031 C 
ATOM     55  C   UNL     1      13.675   7.489   2.430  1.00  0.00     0.029 A 
ATOM     56  C   UNL     1      12.359   7.730   2.792  1.00  0.00     0.049 A 
ATOM     57  H   UNL     1      10.629   7.749   1.584  1.00  0.00     0.167 HD
ATOM     58  C   UNL     1      10.522   8.259   4.370  1.00  0.00     0.074 A 
ATOM     59  C   UNL     1      10.002   8.545   5.690  1.00  0.00     0.031 C 
ATOM     60  C   UNL     1      11.830   8.025   4.099  1.00  0.00     0.037 A 
BRANCH  47  61
ATOM     61  C   UNL     1      12.988   6.779  -1.841  1.00  0.00     0.057 A 
ATOM     62  C   UNL     1      13.358   7.668  -2.859  1.00  0.00     0.134 A 
ATOM     63  C   UNL     1      13.632   5.536  -1.805  1.00  0.00     0.134 A 
ATOM     64  F   UNL     1      12.773   8.871  -2.958  1.00  0.00    -0.206 F 
ATOM     65  C   UNL     1      14.313   7.325  -3.818  1.00  0.00     0.040 A 
ATOM     66  C   UNL     1      14.610   5.193  -2.741  1.00  0.00     0.040 A 
ATOM     67  F   UNL     1      13.332   4.639  -0.854  1.00  0.00    -0.206 F 
ATOM     68  C   UNL     1      14.947   6.086  -3.755  1.00  0.00     0.006 A 
ENDBRANCH  47  61
BRANCH  48  69
ATOM     69  C   UNL     1       5.905   9.014   4.832  1.00  0.00     0.057 A 
ATOM     70  C   UNL     1       5.888  10.241   5.507  1.00  0.00     0.134 A 
ATOM     71  C   UNL     1       4.912   8.085   5.162  1.00  0.00     0.134 A 
ATOM     72  F   UNL     1       6.825  11.166   5.248  1.00  0.00    -0.206 F 
ATOM     73  C   UNL     1       4.939  10.523   6.490  1.00  0.00     0.040 A 
ATOM     74  C   UNL     1       3.938   8.365   6.123  1.00  0.00     0.040 A 
ATOM     75  F   UNL     1       4.865   6.894   4.547  1.00  0.00    -0.206 F 
ATOM     76  C   UNL     1       3.958   9.584   6.798  1.00  0.00     0.006 A 
ENDBRANCH  48  69
BRANCH  60  77
ATOM     77  C   UNL     1      12.797   8.113   5.245  1.00  0.00     0.057 A 
ATOM     78  C   UNL     1      12.836   7.149   6.260  1.00  0.00     0.134 A 
ATOM     79  C   UNL     1      13.727   9.159   5.311  1.00  0.00     0.134 A 
ATOM     80  F   UNL     1      11.965   6.128   6.263  1.00  0.00    -0.206 F 
ATOM     81  C   UNL     1      13.749   7.236   7.313  1.00  0.00     0.040 A 
ATOM     82  C   UNL     1      14.664   9.240   6.342  1.00  0.00     0.040 A 
ATOM     83  F   UNL     1      13.750  10.111   4.366  1.00  0.00    -0.206 F 
ATOM     84  C   UNL     1      14.671   8.280   7.351  1.00  0.00     0.006 A 
ENDBRANCH  60  77
ENDBRANCH  34  35
ENDBRANCH  26  29
ENDBRANCH  24  25
ENDBRANCH  23  24
ENDBRANCH  22  23
ENDBRANCH   3  22
TORSDOF 16
