REMARK SMILES O=C(NCCCNC(=O)[C@@H]1[C@H](C(=O)Nc2ccccc2OC(F)F)[C@@H]2C=C[C@H]1C2)c1ccc(-c2c3nc(c(-c4c(F)cccc4F)c4ccc([nH]4)c(-c4c(F)cccc4F)c4nc(c(-c5c(F)cccc5F)c5ccc2[nH]5)C=C4)C=C3)cc1
REMARK SMILES IDX 6 1 5 2 4 3 3 4 1 5 2 6 30 8 31 9 83 10 32 11 82 12 33 13
REMARK SMILES IDX 34 14 35 15 76 16 36 17 81 18 75 19 77 20 37 21 80 22 74 23
REMARK SMILES IDX 73 24 38 26 64 27 47 28 63 29 48 30 51 31 62 32 78 33 49 34
REMARK SMILES IDX 50 35 61 37 79 38 52 39 39 40 40 41 45 42 41 43 42 44 44 45
REMARK SMILES IDX 46 46 43 47 65 48 66 49 71 50 67 51 68 52 70 53 72 54 69 55
REMARK SMILES IDX 53 56 54 57 59 58 55 59 56 60 58 61 60 62 57 63 7 64 8 65
REMARK SMILES IDX 9 67 10 68 11 69 28 70 25 71 27 72 29 73 26 74 12 75 13 76
REMARK SMILES IDX 14 77 15 79 16 80 20 81 17 82 19 83 18 84 21 85 22 86 23 87
REMARK SMILES IDX 24 88
REMARK H PARENT 3 7 77 25 51 36 7 66 14 78
REMARK Flexibility Score: inf
ROOT
ATOM      1  C   UNL     1       5.255  -3.091  -1.819  1.00  0.00     0.117 C 
ENDROOT
BRANCH   1   2
ATOM      2  C   UNL     1       5.359  -2.080  -0.691  1.00  0.00     0.042 C 
BRANCH   2   3
ATOM      3  C   UNL     1       4.863  -0.694  -1.084  1.00  0.00     0.118 C 
BRANCH   3   4
ATOM      4  N   UNL     1       3.408  -0.564  -1.053  1.00  0.00    -0.352 N 
ATOM      5  O   UNL     1       1.362  -0.114  -0.214  1.00  0.00    -0.269 OA
ATOM      6  C   UNL     1       2.573   0.017  -0.118  1.00  0.00     0.251 C 
ATOM      7  H   UNL     1       2.945  -0.956  -1.829  1.00  0.00     0.163 HD
BRANCH   6   8
ATOM      8  C   UNL     1       3.150   0.759   1.025  1.00  0.00     0.039 A 
ATOM      9  C   UNL     1       4.225   1.620   0.833  1.00  0.00     0.014 A 
ATOM     10  C   UNL     1       2.636   0.568   2.311  1.00  0.00     0.014 A 
ATOM     11  C   UNL     1       4.949   2.066   1.928  1.00  0.00     0.010 A 
ATOM     12  C   UNL     1       3.284   1.142   3.412  1.00  0.00     0.010 A 
ATOM     13  C   UNL     1       4.489   1.839   3.236  1.00  0.00    -0.014 A 
BRANCH  13  14
ATOM     14  C   UNL     1       5.295   2.358   4.374  1.00  0.00     0.031 A 
ATOM     15  C   UNL     1       5.872   1.433   5.414  1.00  0.00     0.074 A 
ATOM     16  C   UNL     1       5.581   3.675   4.415  1.00  0.00     0.049 A 
ATOM     17  N   UNL     1       6.652   1.719   6.428  1.00  0.00    -0.248 NA
ATOM     18  C   UNL     1       5.524   0.007   5.317  1.00  0.00     0.031 C 
ATOM     19  C   UNL     1       5.079   4.675   3.468  1.00  0.00     0.029 A 
ATOM     20  N   UNL     1       6.398   4.394   5.250  1.00  0.00    -0.354 N 
ATOM     21  C   UNL     1       6.854   0.523   7.108  1.00  0.00     0.074 A 
ATOM     22  C   UNL     1       6.103  -0.492   6.401  1.00  0.00     0.031 C 
ATOM     23  C   UNL     1       5.667   5.853   3.716  1.00  0.00     0.029 A 
ATOM     24  C   UNL     1       6.520   5.715   4.889  1.00  0.00     0.049 A 
ATOM     25  H   UNL     1       6.852   4.003   6.031  1.00  0.00     0.167 HD
ATOM     26  C   UNL     1       7.598   0.293   8.216  1.00  0.00     0.037 A 
ATOM     27  C   UNL     1       7.232   6.712   5.444  1.00  0.00     0.037 A 
ATOM     28  C   UNL     1       8.378   1.298   8.893  1.00  0.00     0.049 A 
ATOM     29  C   UNL     1       8.051   6.427   6.667  1.00  0.00     0.074 A 
ATOM     30  C   UNL     1       9.199   1.154   9.999  1.00  0.00     0.029 A 
ATOM     31  N   UNL     1       8.438   2.634   8.526  1.00  0.00    -0.354 N 
ATOM     32  N   UNL     1       8.239   5.288   7.287  1.00  0.00    -0.248 NA
ATOM     33  C   UNL     1       8.746   7.569   7.274  1.00  0.00     0.031 C 
ATOM     34  C   UNL     1       9.721   2.410  10.325  1.00  0.00     0.029 A 
ATOM     35  C   UNL     1       9.264   3.329   9.395  1.00  0.00     0.049 A 
ATOM     36  H   UNL     1       7.963   3.031   7.760  1.00  0.00     0.167 HD
ATOM     37  C   UNL     1       9.083   5.571   8.350  1.00  0.00     0.074 A 
ATOM     38  C   UNL     1       9.389   6.986   8.276  1.00  0.00     0.031 C 
ATOM     39  C   UNL     1       9.557   4.736   9.306  1.00  0.00     0.037 A 
BRANCH  26  40
ATOM     40  C   UNL     1       7.587  -1.096   8.790  1.00  0.00     0.057 A 
ATOM     41  C   UNL     1       8.244  -2.167   8.171  1.00  0.00     0.134 A 
ATOM     42  C   UNL     1       6.941  -1.354  10.007  1.00  0.00     0.134 A 
ATOM     43  F   UNL     1       8.872  -1.992   6.998  1.00  0.00    -0.206 F 
ATOM     44  C   UNL     1       8.242  -3.447   8.730  1.00  0.00     0.040 A 
ATOM     45  C   UNL     1       6.952  -2.624  10.587  1.00  0.00     0.040 A 
ATOM     46  F   UNL     1       6.297  -0.373  10.657  1.00  0.00    -0.206 F 
ATOM     47  C   UNL     1       7.599  -3.677   9.945  1.00  0.00     0.006 A 
ENDBRANCH  26  40
BRANCH  27  48
ATOM     48  C   UNL     1       7.193   8.069   4.845  1.00  0.00     0.057 A 
ATOM     49  C   UNL     1       8.317   8.615   4.216  1.00  0.00     0.134 A 
ATOM     50  C   UNL     1       6.027   8.844   4.870  1.00  0.00     0.134 A 
ATOM     51  F   UNL     1       9.468   7.927   4.174  1.00  0.00    -0.206 F 
ATOM     52  C   UNL     1       8.286   9.886   3.640  1.00  0.00     0.040 A 
ATOM     53  C   UNL     1       5.973  10.104   4.274  1.00  0.00     0.040 A 
ATOM     54  F   UNL     1       4.913   8.373   5.451  1.00  0.00    -0.206 F 
ATOM     55  C   UNL     1       7.108  10.631   3.661  1.00  0.00     0.006 A 
ENDBRANCH  27  48
BRANCH  39  56
ATOM     56  C   UNL     1      10.480   5.333  10.326  1.00  0.00     0.057 A 
ATOM     57  C   UNL     1      10.014   6.189  11.332  1.00  0.00     0.134 A 
ATOM     58  C   UNL     1      11.850   5.042  10.304  1.00  0.00     0.134 A 
ATOM     59  F   UNL     1       8.715   6.520  11.396  1.00  0.00    -0.206 F 
ATOM     60  C   UNL     1      10.883   6.758  12.263  1.00  0.00     0.040 A 
ATOM     61  C   UNL     1      12.724   5.585  11.246  1.00  0.00     0.040 A 
ATOM     62  F   UNL     1      12.358   4.224   9.370  1.00  0.00    -0.206 F 
ATOM     63  C   UNL     1      12.243   6.453  12.224  1.00  0.00     0.006 A 
ENDBRANCH  39  56
ENDBRANCH  13  14
ENDBRANCH   6   8
ENDBRANCH   3   4
ENDBRANCH   2   3
ENDBRANCH   1   2
BRANCH   1  64
ATOM     64  N   UNL     1       6.173  -2.831  -2.912  1.00  0.00    -0.356 N 
ATOM     65  C   UNL     1       6.505  -3.636  -3.959  1.00  0.00     0.224 C 
ATOM     66  H   UNL     1       6.617  -1.952  -2.895  1.00  0.00     0.163 HD
ATOM     67  O   UNL     1       6.811  -3.054  -5.006  1.00  0.00    -0.275 OA
BRANCH  65  68
ATOM     68  C   UNL     1       6.737  -5.123  -3.826  1.00  0.00     0.098 C 
ATOM     69  C   UNL     1       6.391  -6.105  -4.984  1.00  0.00     0.099 C 
ATOM     70  C   UNL     1       6.490  -5.972  -2.563  1.00  0.00     0.025 C 
ATOM     71  C   UNL     1       6.136  -7.443  -4.222  1.00  0.00     0.025 C 
ATOM     72  C   UNL     1       5.060  -6.446  -2.460  1.00  0.00    -0.027 C 
ATOM     73  C   UNL     1       7.106  -7.306  -3.039  1.00  0.00     0.017 C 
ATOM     74  C   UNL     1       4.867  -7.358  -3.422  1.00  0.00    -0.027 C 
BRANCH  69  75
ATOM     75  C   UNL     1       5.477  -5.911  -6.205  1.00  0.00     0.229 C 
ATOM     76  O   UNL     1       5.998  -6.040  -7.328  1.00  0.00    -0.274 OA
ATOM     77  N   UNL     1       4.117  -5.876  -6.218  1.00  0.00    -0.323 N 
ATOM     78  H   UNL     1       3.739  -6.147  -7.086  1.00  0.00     0.170 HD
BRANCH  77  79
ATOM     79  C   UNL     1       3.136  -5.543  -5.282  1.00  0.00     0.084 A 
ATOM     80  C   UNL     1       2.065  -6.438  -5.143  1.00  0.00     0.030 A 
ATOM     81  C   UNL     1       3.106  -4.354  -4.558  1.00  0.00     0.149 A 
ATOM     82  C   UNL     1       1.098  -6.249  -4.151  1.00  0.00     0.002 A 
ATOM     83  C   UNL     1       2.144  -4.172  -3.554  1.00  0.00     0.049 A 
ATOM     84  C   UNL     1       1.160  -5.131  -3.328  1.00  0.00     0.004 A 
BRANCH  81  85
ATOM     85  O   UNL     1       3.940  -3.299  -4.768  1.00  0.00    -0.433 OA
BRANCH  85  86
ATOM     86  C   UNL     1       3.894  -2.722  -6.077  1.00  0.00     0.542 C 
ATOM     87  F   UNL     1       4.724  -3.375  -6.916  1.00  0.00    -0.167 F 
ATOM     88  F   UNL     1       2.641  -2.789  -6.587  1.00  0.00    -0.167 F 
ENDBRANCH  85  86
ENDBRANCH  81  85
ENDBRANCH  77  79
ENDBRANCH  69  75
ENDBRANCH  65  68
ENDBRANCH   1  64
TORSDOF 14
