REMARK SMILES Cc1ccc(O[C@H](C)C(=O)NNC(=O)[C@@H]2[C@@H](C(=O)NCCCNC(=O)c3ccc(-c4c5nc(c(-c6c(F)cccc6F)c6ccc([nH]6)c(-c6c(F)cccc6F)c6nc(c(-c7c(F)cccc7F)c7ccc4[nH]7)C=C6)C=C5)cc3)[C@@H]3C=C[C@H]2C3)cc1C
REMARK SMILES IDX 17 1 18 2 19 3 16 5 15 6 83 7 80 8 82 9 84 10 81 11 13 12
REMARK SMILES IDX 12 13 14 15 11 16 9 17 10 18 7 20 8 21 6 22 5 23 1 24 2 25
REMARK SMILES IDX 3 26 86 27 4 28 85 29 87 30 20 31 21 32 22 33 23 34 24 35
REMARK SMILES IDX 25 37 26 38 27 39 79 40 28 41 78 42 29 43 30 44 31 45 72 46
REMARK SMILES IDX 32 47 77 48 71 49 73 50 33 51 76 52 70 53 69 54 34 56 60 57
REMARK SMILES IDX 43 58 59 59 44 60 47 61 58 62 74 63 45 64 46 65 57 67 75 68
REMARK SMILES IDX 48 69 35 70 36 71 41 72 37 73 38 74 40 75 42 76 39 77 61 78
REMARK SMILES IDX 62 79 67 80 63 81 64 82 66 83 68 84 65 85 49 86 50 87 55 88
REMARK SMILES IDX 51 89 52 90 54 91 56 92 53 93
REMARK H PARENT 19 4 12 14 11 19 23 36 73 55 47 66
REMARK Flexibility Score: inf
ROOT
ATOM      1  C   UNL     1      -0.640   5.606  -1.872  1.00  0.00     0.224 C 
ATOM      2  O   UNL     1      -0.524   6.210  -2.939  1.00  0.00    -0.275 OA
ATOM      3  N   UNL     1       0.456   5.571  -1.070  1.00  0.00    -0.356 N 
ATOM      4  H   UNL     1       1.247   6.032  -1.430  1.00  0.00     0.163 HD
ENDROOT
BRANCH   1   5
ATOM      5  C   UNL     1      -1.943   4.927  -1.453  1.00  0.00     0.098 C 
ATOM      6  C   UNL     1      -2.016   3.395  -1.853  1.00  0.00     0.100 C 
ATOM      7  C   UNL     1      -3.234   3.380  -2.818  1.00  0.00     0.025 C 
ATOM      8  C   UNL     1      -3.131   5.533  -2.251  1.00  0.00     0.025 C 
ATOM      9  C   UNL     1      -4.487   3.684  -2.036  1.00  0.00    -0.027 C 
ATOM     10  C   UNL     1      -3.090   4.718  -3.544  1.00  0.00     0.017 C 
ATOM     11  C   UNL     1      -4.418   4.974  -1.678  1.00  0.00    -0.027 C 
BRANCH   6  12
ATOM     12  C   UNL     1      -2.099   2.510  -0.600  1.00  0.00     0.242 C 
ATOM     13  N   UNL     1      -2.529   1.212  -0.623  1.00  0.00    -0.267 N 
ATOM     14  H   UNL     1      -2.324   0.667   0.171  1.00  0.00     0.191 HD
ATOM     15  O   UNL     1      -1.659   2.905   0.486  1.00  0.00    -0.273 OA
BRANCH  13  16
ATOM     16  N   UNL     1      -3.221   0.584  -1.639  1.00  0.00    -0.264 N 
ATOM     17  C   UNL     1      -4.127  -0.430  -1.431  1.00  0.00     0.279 C 
ATOM     18  O   UNL     1      -4.860  -0.767  -2.365  1.00  0.00    -0.269 OA
ATOM     19  H   UNL     1      -3.056   0.877  -2.564  1.00  0.00     0.191 HD
BRANCH  17  20
ATOM     20  C   UNL     1      -4.111  -1.216  -0.105  1.00  0.00     0.260 C 
ATOM     21  C   UNL     1      -2.821  -2.044  -0.076  1.00  0.00     0.064 C 
BRANCH  20  22
ATOM     22  O   UNL     1      -4.205  -0.356   1.032  1.00  0.00    -0.481 OA
BRANCH  22  23
ATOM     23  C   UNL     1      -4.489  -0.917   2.251  1.00  0.00     0.120 A 
ATOM     24  C   UNL     1      -5.155  -2.397   6.271  1.00  0.00     0.044 C 
ATOM     25  C   UNL     1      -4.940  -1.841   4.890  1.00  0.00    -0.048 A 
ATOM     26  C   UNL     1      -5.000  -2.713   3.794  1.00  0.00     0.007 A 
ATOM     27  C   UNL     1      -4.683  -0.478   4.658  1.00  0.00    -0.045 A 
ATOM     28  C   UNL     1      -4.787  -2.256   2.490  1.00  0.00     0.047 A 
ATOM     29  C   UNL     1      -4.457  -0.036   3.337  1.00  0.00     0.050 A 
ATOM     30  C   UNL     1      -4.649   0.546   5.761  1.00  0.00     0.045 C 
ENDBRANCH  22  23
ENDBRANCH  20  22
ENDBRANCH  17  20
ENDBRANCH  13  16
ENDBRANCH   6  12
ENDBRANCH   1   5
BRANCH   3  31
ATOM     31  C   UNL     1       0.647   4.962   0.232  1.00  0.00     0.117 C 
BRANCH  31  32
ATOM     32  C   UNL     1       1.362   3.619   0.123  1.00  0.00     0.042 C 
BRANCH  32  33
ATOM     33  C   UNL     1       2.826   3.734  -0.296  1.00  0.00     0.118 C 
BRANCH  33  34
ATOM     34  N   UNL     1       3.649   4.357   0.730  1.00  0.00    -0.352 N 
ATOM     35  C   UNL     1       4.734   3.876   1.417  1.00  0.00     0.251 C 
ATOM     36  H   UNL     1       3.382   5.274   0.971  1.00  0.00     0.163 HD
ATOM     37  O   UNL     1       5.149   4.496   2.393  1.00  0.00    -0.269 OA
BRANCH  35  38
ATOM     38  C   UNL     1       5.412   2.625   1.008  1.00  0.00     0.039 A 
ATOM     39  C   UNL     1       5.886   1.769   2.008  1.00  0.00     0.014 A 
ATOM     40  C   UNL     1       5.652   2.322  -0.335  1.00  0.00     0.014 A 
ATOM     41  C   UNL     1       6.560   0.596   1.663  1.00  0.00     0.010 A 
ATOM     42  C   UNL     1       6.267   1.119  -0.682  1.00  0.00     0.010 A 
ATOM     43  C   UNL     1       6.738   0.251   0.314  1.00  0.00    -0.014 A 
BRANCH  43  44
ATOM     44  C   UNL     1       7.420  -1.014  -0.058  1.00  0.00     0.031 A 
ATOM     45  C   UNL     1       8.752  -0.992  -0.754  1.00  0.00     0.074 A 
ATOM     46  C   UNL     1       6.816  -2.190   0.197  1.00  0.00     0.049 A 
ATOM     47  N   UNL     1       9.493  -1.996  -1.153  1.00  0.00    -0.248 NA
ATOM     48  C   UNL     1       9.314   0.330  -1.067  1.00  0.00     0.031 C 
ATOM     49  C   UNL     1       5.496  -2.346   0.811  1.00  0.00     0.029 A 
ATOM     50  N   UNL     1       7.233  -3.477  -0.030  1.00  0.00    -0.354 N 
ATOM     51  C   UNL     1      10.596  -1.428  -1.776  1.00  0.00     0.074 A 
ATOM     52  C   UNL     1      10.407   0.007  -1.743  1.00  0.00     0.031 C 
ATOM     53  C   UNL     1       5.223  -3.655   0.936  1.00  0.00     0.029 A 
ATOM     54  C   UNL     1       6.338  -4.427   0.395  1.00  0.00     0.049 A 
ATOM     55  H   UNL     1       8.092  -3.698  -0.456  1.00  0.00     0.167 HD
ATOM     56  C   UNL     1      11.679  -2.043  -2.309  1.00  0.00     0.037 A 
ATOM     57  C   UNL     1       6.410  -5.770   0.363  1.00  0.00     0.037 A 
ATOM     58  C   UNL     1      11.883  -3.468  -2.316  1.00  0.00     0.049 A 
ATOM     59  C   UNL     1       7.641  -6.430  -0.188  1.00  0.00     0.074 A 
ATOM     60  C   UNL     1      12.978  -4.183  -2.770  1.00  0.00     0.029 A 
ATOM     61  N   UNL     1      10.968  -4.397  -1.843  1.00  0.00    -0.354 N 
ATOM     62  N   UNL     1       8.710  -5.879  -0.708  1.00  0.00    -0.248 NA
ATOM     63  C   UNL     1       7.681  -7.899  -0.143  1.00  0.00     0.031 C 
ATOM     64  C   UNL     1      12.713  -5.547  -2.599  1.00  0.00     0.029 A 
ATOM     65  C   UNL     1      11.467  -5.679  -2.007  1.00  0.00     0.049 A 
ATOM     66  H   UNL     1      10.093  -4.178  -1.449  1.00  0.00     0.167 HD
ATOM     67  C   UNL     1       9.556  -6.928  -1.037  1.00  0.00     0.074 A 
ATOM     68  C   UNL     1       8.883  -8.149  -0.643  1.00  0.00     0.031 C 
ATOM     69  C   UNL     1      10.782  -6.884  -1.615  1.00  0.00     0.037 A 
BRANCH  56  70
ATOM     70  C   UNL     1      12.730  -1.167  -2.927  1.00  0.00     0.057 A 
ATOM     71  C   UNL     1      13.574  -0.366  -2.147  1.00  0.00     0.134 A 
ATOM     72  C   UNL     1      12.908  -1.133  -4.316  1.00  0.00     0.134 A 
ATOM     73  F   UNL     1      13.446  -0.343  -0.812  1.00  0.00    -0.206 F 
ATOM     74  C   UNL     1      14.537   0.462  -2.728  1.00  0.00     0.040 A 
ATOM     75  C   UNL     1      13.884  -0.328  -4.906  1.00  0.00     0.040 A 
ATOM     76  F   UNL     1      12.137  -1.881  -5.120  1.00  0.00    -0.206 F 
ATOM     77  C   UNL     1      14.696   0.478  -4.112  1.00  0.00     0.006 A 
ENDBRANCH  56  70
BRANCH  57  78
ATOM     78  C   UNL     1       5.296  -6.575   0.918  1.00  0.00     0.057 A 
ATOM     79  C   UNL     1       5.421  -7.216   2.155  1.00  0.00     0.134 A 
ATOM     80  C   UNL     1       4.076  -6.696   0.244  1.00  0.00     0.134 A 
ATOM     81  F   UNL     1       6.572  -7.147   2.838  1.00  0.00    -0.206 F 
ATOM     82  C   UNL     1       4.372  -7.958   2.700  1.00  0.00     0.040 A 
ATOM     83  C   UNL     1       3.013  -7.420   0.786  1.00  0.00     0.040 A 
ATOM     84  F   UNL     1       3.894  -6.095  -0.941  1.00  0.00    -0.206 F 
ATOM     85  C   UNL     1       3.161  -8.056   2.017  1.00  0.00     0.006 A 
ENDBRANCH  57  78
BRANCH  69  86
ATOM     86  C   UNL     1      11.473  -8.194  -1.841  1.00  0.00     0.057 A 
ATOM     87  C   UNL     1      11.079  -9.067  -2.863  1.00  0.00     0.134 A 
ATOM     88  C   UNL     1      12.558  -8.577  -1.043  1.00  0.00     0.134 A 
ATOM     89  F   UNL     1      10.038  -8.762  -3.653  1.00  0.00    -0.206 F 
ATOM     90  C   UNL     1      11.726 -10.286  -3.069  1.00  0.00     0.040 A 
ATOM     91  C   UNL     1      13.226  -9.785  -1.252  1.00  0.00     0.040 A 
ATOM     92  F   UNL     1      12.988  -7.783  -0.051  1.00  0.00    -0.206 F 
ATOM     93  C   UNL     1      12.806 -10.646  -2.265  1.00  0.00     0.006 A 
ENDBRANCH  69  86
ENDBRANCH  43  44
ENDBRANCH  35  38
ENDBRANCH  33  34
ENDBRANCH  32  33
ENDBRANCH  31  32
ENDBRANCH   3  31
TORSDOF 15
