REMARK SMILES COC(=O)c1ccc(C)c2c1[C@H]1C=CC[C@H]1[C@@H](c1ccc(C(=O)NCCCNC(=O)c3ccc(-c4c5nc(c(-c6c(F)cccc6F)c6ccc([nH]6)c(-c6c(F)cccc6F)c6nc(c(-c7c(F)cccc7F)c7ccc4[nH]7)C=C6)C=C5)cc3)cc1)N2
REMARK SMILES IDX 25 1 24 2 22 3 23 4 21 6 18 7 19 8 86 9 20 10 85 11 17 12
REMARK SMILES IDX 5 13 6 14 11 15 7 16 10 17 12 18 8 19 87 20 13 21 16 22 9 23
REMARK SMILES IDX 14 25 15 26 3 27 4 28 2 29 1 30 26 31 27 32 28 33 29 34
REMARK SMILES IDX 30 36 31 37 32 38 84 39 33 40 83 41 34 42 35 43 36 44 77 45
REMARK SMILES IDX 37 46 82 47 76 48 78 49 38 50 81 51 75 52 74 53 39 55 65 56
REMARK SMILES IDX 48 57 64 58 49 59 52 60 63 61 79 62 50 63 51 64 62 66 80 67
REMARK SMILES IDX 53 68 40 69 41 70 46 71 42 72 43 73 45 74 47 75 44 76 66 77
REMARK SMILES IDX 67 78 72 79 68 80 69 81 71 82 73 83 70 84 54 85 55 86 60 87
REMARK SMILES IDX 56 88 57 89 59 90 61 91 58 92
REMARK H PARENT 24 5 87 24 28 35 78 54 52 65
REMARK Flexibility Score: inf
ROOT
ATOM      1  C   UNL     1       5.819   9.700   0.323  1.00  0.00     0.118 C 
ENDROOT
BRANCH   1   2
ATOM      2  N   UNL     1       5.084   8.873  -0.607  1.00  0.00    -0.352 N 
ATOM      3  C   UNL     1       4.265   7.795  -0.427  1.00  0.00     0.251 C 
ATOM      4  O   UNL     1       3.804   7.271  -1.442  1.00  0.00    -0.269 OA
ATOM      5  H   UNL     1       5.194   9.137  -1.550  1.00  0.00     0.163 HD
BRANCH   3   6
ATOM      6  C   UNL     1       3.882   7.261   0.909  1.00  0.00     0.039 A 
ATOM      7  C   UNL     1       3.003   6.034   3.321  1.00  0.00    -0.025 A 
ATOM      8  C   UNL     1       2.259   5.943   2.136  1.00  0.00     0.006 A 
ATOM      9  C   UNL     1       4.175   6.801   3.283  1.00  0.00     0.006 A 
ATOM     10  C   UNL     1       2.689   6.541   0.952  1.00  0.00     0.014 A 
ATOM     11  C   UNL     1       4.625   7.375   2.086  1.00  0.00     0.014 A 
BRANCH   7  12
ATOM     12  C   UNL     1       2.665   5.251   4.594  1.00  0.00     0.114 C 
ATOM     13  C   UNL     1       0.180   2.327   2.764  1.00  0.00     0.065 A 
ATOM     14  C   UNL     1      -1.156   2.660   2.517  1.00  0.00     0.016 A 
ATOM     15  C   UNL     1       0.993   3.155   3.572  1.00  0.00    -0.003 A 
ATOM     16  C   UNL     1      -1.702   3.811   3.072  1.00  0.00     0.006 A 
ATOM     17  C   UNL     1       0.424   4.324   4.148  1.00  0.00     0.042 A 
ATOM     18  C   UNL     1       2.454   2.820   3.816  1.00  0.00     0.050 C 
ATOM     19  C   UNL     1      -0.926   4.655   3.881  1.00  0.00    -0.028 A 
ATOM     20  N   UNL     1       1.234   5.217   4.838  1.00  0.00    -0.377 N 
ATOM     21  C   UNL     1       3.358   2.792   2.606  1.00  0.00    -0.023 C 
ATOM     22  C   UNL     1       3.214   3.813   4.722  1.00  0.00     0.031 C 
ATOM     23  C   UNL     1      -1.595   5.915   4.370  1.00  0.00     0.046 C 
ATOM     24  H   UNL     1       0.835   5.831   5.497  1.00  0.00     0.161 HD
ATOM     25  C   UNL     1       4.590   3.236   2.893  1.00  0.00    -0.030 C 
ATOM     26  C   UNL     1       4.690   3.657   4.322  1.00  0.00     0.034 C 
BRANCH  13  27
ATOM     27  C   UNL     1       0.702   1.081   2.151  1.00  0.00     0.338 C 
ATOM     28  O   UNL     1       1.335   0.228   2.738  1.00  0.00    -0.246 OA
BRANCH  27  29
ATOM     29  O   UNL     1       0.393   1.095   0.827  1.00  0.00    -0.465 OA
ATOM     30  C   UNL     1       0.906  -0.022   0.101  1.00  0.00     0.282 C 
ENDBRANCH  27  29
ENDBRANCH  13  27
ENDBRANCH   7  12
ENDBRANCH   3   6
ENDBRANCH   1   2
BRANCH   1  31
ATOM     31  C   UNL     1       7.256   9.199   0.450  1.00  0.00     0.042 C 
BRANCH  31  32
ATOM     32  C   UNL     1       8.076   9.491  -0.803  1.00  0.00     0.118 C 
BRANCH  32  33
ATOM     33  N   UNL     1       8.249  10.925  -0.986  1.00  0.00    -0.352 N 
ATOM     34  C   UNL     1       9.354  11.693  -0.732  1.00  0.00     0.251 C 
ATOM     35  H   UNL     1       7.468  11.407  -1.341  1.00  0.00     0.163 HD
ATOM     36  O   UNL     1       9.246  12.906  -0.585  1.00  0.00    -0.269 OA
BRANCH  34  37
ATOM     37  C   UNL     1      10.680  11.053  -0.665  1.00  0.00     0.039 A 
ATOM     38  C   UNL     1      11.588  11.450   0.319  1.00  0.00     0.014 A 
ATOM     39  C   UNL     1      11.043  10.110  -1.633  1.00  0.00     0.014 A 
ATOM     40  C   UNL     1      12.865  10.889   0.341  1.00  0.00     0.010 A 
ATOM     41  C   UNL     1      12.291   9.508  -1.575  1.00  0.00     0.010 A 
ATOM     42  C   UNL     1      13.221   9.920  -0.609  1.00  0.00    -0.014 A 
BRANCH  42  43
ATOM     43  C   UNL     1      14.603   9.403  -0.703  1.00  0.00     0.031 A 
ATOM     44  C   UNL     1      15.449   9.818  -1.872  1.00  0.00     0.074 A 
ATOM     45  C   UNL     1      15.063   8.528   0.207  1.00  0.00     0.049 A 
ATOM     46  N   UNL     1      16.640   9.408  -2.222  1.00  0.00    -0.248 NA
ATOM     47  C   UNL     1      14.861  10.815  -2.783  1.00  0.00     0.031 C 
ATOM     48  C   UNL     1      14.324   8.052   1.375  1.00  0.00     0.029 A 
ATOM     49  N   UNL     1      16.262   7.868   0.273  1.00  0.00    -0.354 N 
ATOM     50  C   UNL     1      16.938  10.088  -3.396  1.00  0.00     0.074 A 
ATOM     51  C   UNL     1      15.783  10.890  -3.730  1.00  0.00     0.031 C 
ATOM     52  C   UNL     1      15.090   7.175   2.047  1.00  0.00     0.029 A 
ATOM     53  C   UNL     1      16.353   7.002   1.334  1.00  0.00     0.049 A 
ATOM     54  H   UNL     1      16.989   8.002  -0.378  1.00  0.00     0.167 HD
ATOM     55  C   UNL     1      18.082  10.062  -4.119  1.00  0.00     0.037 A 
ATOM     56  C   UNL     1      17.342   6.155   1.675  1.00  0.00     0.037 A 
ATOM     57  C   UNL     1      19.223   9.255  -3.781  1.00  0.00     0.049 A 
ATOM     58  C   UNL     1      18.579   6.094   0.819  1.00  0.00     0.074 A 
ATOM     59  C   UNL     1      20.442   9.165  -4.429  1.00  0.00     0.029 A 
ATOM     60  N   UNL     1      19.278   8.386  -2.700  1.00  0.00    -0.354 N 
ATOM     61  N   UNL     1      18.873   6.774  -0.264  1.00  0.00    -0.248 NA
ATOM     62  C   UNL     1      19.623   5.148   1.235  1.00  0.00     0.031 C 
ATOM     63  C   UNL     1      21.216   8.205  -3.768  1.00  0.00     0.029 A 
ATOM     64  C   UNL     1      20.502   7.739  -2.675  1.00  0.00     0.049 A 
ATOM     65  H   UNL     1      18.553   8.250  -2.048  1.00  0.00     0.167 HD
ATOM     66  C   UNL     1      20.149   6.369  -0.634  1.00  0.00     0.074 A 
ATOM     67  C   UNL     1      20.573   5.387   0.343  1.00  0.00     0.031 C 
ATOM     68  C   UNL     1      20.907   6.775  -1.683  1.00  0.00     0.037 A 
BRANCH  55  69
ATOM     69  C   UNL     1      18.132  10.920  -5.350  1.00  0.00     0.057 A 
ATOM     70  C   UNL     1      18.153  10.343  -6.625  1.00  0.00     0.134 A 
ATOM     71  C   UNL     1      18.143  12.320  -5.275  1.00  0.00     0.134 A 
ATOM     72  F   UNL     1      18.147   9.010  -6.771  1.00  0.00    -0.206 F 
ATOM     73  C   UNL     1      18.173  11.126  -7.781  1.00  0.00     0.040 A 
ATOM     74  C   UNL     1      18.131  13.114  -6.424  1.00  0.00     0.040 A 
ATOM     75  F   UNL     1      18.108  12.939  -4.085  1.00  0.00    -0.206 F 
ATOM     76  C   UNL     1      18.150  12.516  -7.682  1.00  0.00     0.006 A 
ENDBRANCH  55  69
BRANCH  56  77
ATOM     77  C   UNL     1      17.215   5.306   2.886  1.00  0.00     0.057 A 
ATOM     78  C   UNL     1      16.308   4.241   2.945  1.00  0.00     0.134 A 
ATOM     79  C   UNL     1      18.024   5.526   4.007  1.00  0.00     0.134 A 
ATOM     80  F   UNL     1      15.499   3.982   1.907  1.00  0.00    -0.206 F 
ATOM     81  C   UNL     1      16.210   3.426   4.074  1.00  0.00     0.040 A 
ATOM     82  C   UNL     1      17.955   4.704   5.132  1.00  0.00     0.040 A 
ATOM     83  F   UNL     1      18.924   6.520   4.004  1.00  0.00    -0.206 F 
ATOM     84  C   UNL     1      17.043   3.651   5.168  1.00  0.00     0.006 A 
ENDBRANCH  56  77
BRANCH  68  85
ATOM     85  C   UNL     1      22.290   6.202  -1.794  1.00  0.00     0.057 A 
ATOM     86  C   UNL     1      23.410   7.011  -1.562  1.00  0.00     0.134 A 
ATOM     87  C   UNL     1      22.519   4.873  -2.170  1.00  0.00     0.134 A 
ATOM     88  F   UNL     1      23.261   8.297  -1.208  1.00  0.00    -0.206 F 
ATOM     89  C   UNL     1      24.708   6.521  -1.704  1.00  0.00     0.040 A 
ATOM     90  C   UNL     1      23.813   4.362  -2.286  1.00  0.00     0.040 A 
ATOM     91  F   UNL     1      21.489   4.042  -2.393  1.00  0.00    -0.206 F 
ATOM     92  C   UNL     1      24.912   5.190  -2.061  1.00  0.00     0.006 A 
ENDBRANCH  68  85
ENDBRANCH  42  43
ENDBRANCH  34  37
ENDBRANCH  32  33
ENDBRANCH  31  32
ENDBRANCH   1  31
TORSDOF 13
