REMARK SMILES CCC(CC)NC(=O)NC[C@H]1CC[C@H](C(=O)NCCCNC(=O)c2ccc(-c3c4nc(c(-c5c(F)cccc5F)c5ccc([nH]5)c(-c5c(F)cccc5F)c5nc(c(-c6c(F)cccc6F)c6ccc3[nH]6)C=C5)C=C4)cc2)O1
REMARK SMILES IDX 18 1 17 2 15 3 16 4 14 6 11 7 12 8 78 9 13 10 10 11 9 12
REMARK SMILES IDX 6 13 7 14 8 16 3 18 2 19 1 20 4 21 5 22 19 23 20 24 21 25
REMARK SMILES IDX 22 26 23 28 24 29 25 30 77 31 26 32 76 33 27 34 28 35 29 36
REMARK SMILES IDX 70 37 30 38 75 39 69 40 71 41 31 42 74 43 68 44 67 45 32 47
REMARK SMILES IDX 58 48 41 49 57 50 42 51 45 52 56 53 72 54 43 55 44 56 55 58
REMARK SMILES IDX 73 59 46 60 33 61 34 62 39 63 35 64 36 65 38 66 40 67 37 68
REMARK SMILES IDX 59 69 60 70 65 71 61 72 62 73 64 74 66 75 63 76 47 77 48 78
REMARK SMILES IDX 53 79 49 80 50 81 52 82 54 83 51 84
REMARK H PARENT 17 5 6 15 9 17 21 27 71 46 45 57
REMARK Flexibility Score: inf
ROOT
ATOM      1  C   UNL     1       0.835   2.527  -2.884  1.00  0.00     0.117 C 
ENDROOT
BRANCH   1   2
ATOM      2  N   UNL     1       1.058   1.612  -3.982  1.00  0.00    -0.354 N 
ATOM      3  C   UNL     1       2.218   1.101  -4.482  1.00  0.00     0.249 C 
ATOM      4  O   UNL     1       2.122   0.324  -5.438  1.00  0.00    -0.272 OA
ATOM      5  H   UNL     1       0.241   1.310  -4.442  1.00  0.00     0.163 HD
BRANCH   3   6
ATOM      6  C   UNL     1       3.606   1.538  -3.959  1.00  0.00     0.207 C 
ATOM      7  C   UNL     1       4.314   2.936  -2.211  1.00  0.00     0.138 C 
ATOM      8  C   UNL     1       4.033   3.815  -3.413  1.00  0.00     0.037 C 
ATOM      9  O   UNL     1       3.771   1.639  -2.540  1.00  0.00    -0.363 OA
ATOM     10  C   UNL     1       4.033   2.861  -4.575  1.00  0.00     0.045 C 
BRANCH   7  11
ATOM     11  C   UNL     1       5.777   2.807  -1.749  1.00  0.00     0.149 C 
BRANCH  11  12
ATOM     12  N   UNL     1       6.614   1.989  -2.611  1.00  0.00    -0.336 N 
ATOM     13  N   UNL     1       8.033   3.400  -3.874  1.00  0.00    -0.335 N 
ATOM     14  C   UNL     1       7.647   2.198  -3.432  1.00  0.00     0.315 C 
ATOM     15  H   UNL     1       8.898   3.379  -4.344  1.00  0.00     0.165 HD
ATOM     16  O   UNL     1       8.282   1.214  -3.816  1.00  0.00    -0.249 OA
ATOM     17  H   UNL     1       6.353   1.040  -2.584  1.00  0.00     0.165 HD
BRANCH  13  18
ATOM     18  C   UNL     1       7.451   4.730  -3.811  1.00  0.00     0.083 C 
BRANCH  18  19
ATOM     19  C   UNL     1       8.380   5.701  -3.076  1.00  0.00     0.021 C 
ATOM     20  C   UNL     1       7.656   6.977  -2.663  1.00  0.00     0.006 C 
ENDBRANCH  18  19
BRANCH  18  21
ATOM     21  C   UNL     1       6.973   5.196  -5.200  1.00  0.00     0.021 C 
ATOM     22  C   UNL     1       8.072   5.502  -6.204  1.00  0.00     0.006 C 
ENDBRANCH  18  21
ENDBRANCH  13  18
ENDBRANCH  11  12
ENDBRANCH   7  11
ENDBRANCH   3   6
ENDBRANCH   1   2
BRANCH   1  23
ATOM     23  C   UNL     1       0.470   3.925  -3.375  1.00  0.00     0.042 C 
BRANCH  23  24
ATOM     24  C   UNL     1      -1.001   4.071  -3.731  1.00  0.00     0.118 C 
BRANCH  24  25
ATOM     25  N   UNL     1      -1.855   3.926  -2.559  1.00  0.00    -0.352 N 
ATOM     26  C   UNL     1      -2.653   4.842  -1.923  1.00  0.00     0.251 C 
ATOM     27  H   UNL     1      -1.858   3.027  -2.159  1.00  0.00     0.163 HD
ATOM     28  O   UNL     1      -3.072   4.601  -0.795  1.00  0.00    -0.269 OA
BRANCH  26  29
ATOM     29  C   UNL     1      -3.003   6.117  -2.583  1.00  0.00     0.039 A 
ATOM     30  C   UNL     1      -3.066   7.281  -1.812  1.00  0.00     0.014 A 
ATOM     31  C   UNL     1      -3.302   6.161  -3.946  1.00  0.00     0.014 A 
ATOM     32  C   UNL     1      -3.356   8.501  -2.425  1.00  0.00     0.010 A 
ATOM     33  C   UNL     1      -3.511   7.385  -4.570  1.00  0.00     0.010 A 
ATOM     34  C   UNL     1      -3.537   8.567  -3.816  1.00  0.00    -0.014 A 
BRANCH  34  35
ATOM     35  C   UNL     1      -3.724   9.863  -4.511  1.00  0.00     0.031 A 
ATOM     36  C   UNL     1      -5.002  10.148  -5.247  1.00  0.00     0.074 A 
ATOM     37  C   UNL     1      -2.703  10.739  -4.551  1.00  0.00     0.049 A 
ATOM     38  N   UNL     1      -5.308  11.171  -6.003  1.00  0.00    -0.248 NA
ATOM     39  C   UNL     1      -6.067   9.139  -5.140  1.00  0.00     0.031 C 
ATOM     40  C   UNL     1      -1.399  10.550  -3.910  1.00  0.00     0.029 A 
ATOM     41  N   UNL     1      -2.592  11.956  -5.174  1.00  0.00    -0.354 N 
ATOM     42  C   UNL     1      -6.591  10.924  -6.471  1.00  0.00     0.074 A 
ATOM     43  C   UNL     1      -6.989   9.632  -5.955  1.00  0.00     0.031 C 
ATOM     44  C   UNL     1      -0.626  11.617  -4.161  1.00  0.00     0.029 A 
ATOM     45  C   UNL     1      -1.360  12.543  -5.017  1.00  0.00     0.049 A 
ATOM     46  H   UNL     1      -3.325  12.370  -5.684  1.00  0.00     0.167 HD
ATOM     47  C   UNL     1      -7.372  11.712  -7.247  1.00  0.00     0.037 A 
ATOM     48  C   UNL     1      -0.869  13.689  -5.525  1.00  0.00     0.037 A 
ATOM     49  C   UNL     1      -6.973  13.003  -7.744  1.00  0.00     0.049 A 
ATOM     50  C   UNL     1      -1.746  14.530  -6.409  1.00  0.00     0.074 A 
ATOM     51  C   UNL     1      -7.714  13.910  -8.480  1.00  0.00     0.029 A 
ATOM     52  N   UNL     1      -5.718  13.566  -7.561  1.00  0.00    -0.354 N 
ATOM     53  N   UNL     1      -2.984  14.319  -6.785  1.00  0.00    -0.248 NA
ATOM     54  C   UNL     1      -1.157  15.766  -6.941  1.00  0.00     0.031 C 
ATOM     55  C   UNL     1      -6.891  14.998  -8.790  1.00  0.00     0.029 A 
ATOM     56  C   UNL     1      -5.653  14.792  -8.202  1.00  0.00     0.049 A 
ATOM     57  H   UNL     1      -4.983  13.154  -7.052  1.00  0.00     0.167 HD
ATOM     58  C   UNL     1      -3.329  15.402  -7.582  1.00  0.00     0.074 A 
ATOM     59  C   UNL     1      -2.176  16.279  -7.617  1.00  0.00     0.031 C 
ATOM     60  C   UNL     1      -4.494  15.648  -8.231  1.00  0.00     0.037 A 
BRANCH  47  61
ATOM     61  C   UNL     1      -8.737  11.200  -7.608  1.00  0.00     0.057 A 
ATOM     62  C   UNL     1      -9.762  11.092  -6.659  1.00  0.00     0.134 A 
ATOM     63  C   UNL     1      -9.042  10.848  -8.929  1.00  0.00     0.134 A 
ATOM     64  F   UNL     1      -9.533  11.402  -5.373  1.00  0.00    -0.206 F 
ATOM     65  C   UNL     1     -11.033  10.630  -7.005  1.00  0.00     0.040 A 
ATOM     66  C   UNL     1     -10.317  10.411  -9.293  1.00  0.00     0.040 A 
ATOM     67  F   UNL     1      -8.110  10.932  -9.890  1.00  0.00    -0.206 F 
ATOM     68  C   UNL     1     -11.315  10.295  -8.327  1.00  0.00     0.006 A 
ENDBRANCH  47  61
BRANCH  48  69
ATOM     69  C   UNL     1       0.521  14.106  -5.211  1.00  0.00     0.057 A 
ATOM     70  C   UNL     1       0.774  15.217  -4.399  1.00  0.00     0.134 A 
ATOM     71  C   UNL     1       1.627  13.409  -5.713  1.00  0.00     0.134 A 
ATOM     72  F   UNL     1      -0.244  15.935  -3.902  1.00  0.00    -0.206 F 
ATOM     73  C   UNL     1       2.075  15.633  -4.113  1.00  0.00     0.040 A 
ATOM     74  C   UNL     1       2.934  13.798  -5.414  1.00  0.00     0.040 A 
ATOM     75  F   UNL     1       1.453  12.329  -6.489  1.00  0.00    -0.206 F 
ATOM     76  C   UNL     1       3.160  14.919  -4.618  1.00  0.00     0.006 A 
ENDBRANCH  48  69
BRANCH  60  77
ATOM     77  C   UNL     1      -4.581  16.920  -9.021  1.00  0.00     0.057 A 
ATOM     78  C   UNL     1      -3.891  17.084 -10.229  1.00  0.00     0.134 A 
ATOM     79  C   UNL     1      -5.394  17.976  -8.591  1.00  0.00     0.134 A 
ATOM     80  F   UNL     1      -3.083  16.116 -10.688  1.00  0.00    -0.206 F 
ATOM     81  C   UNL     1      -3.992  18.262 -10.971  1.00  0.00     0.040 A 
ATOM     82  C   UNL     1      -5.525  19.147  -9.338  1.00  0.00     0.040 A 
ATOM     83  F   UNL     1      -6.087  17.880  -7.446  1.00  0.00    -0.206 F 
ATOM     84  C   UNL     1      -4.817  19.294 -10.529  1.00  0.00     0.006 A 
ENDBRANCH  60  77
ENDBRANCH  34  35
ENDBRANCH  26  29
ENDBRANCH  24  25
ENDBRANCH  23  24
ENDBRANCH   1  23
TORSDOF 15
