REMARK SMILES C[C@H]([NH2+]C1C(C)(C)C1(C)C)[C@H](C)C(=O)NCCCNC(=O)c1ccc(-c2c3nc(c(-c4c(F)cccc4F)c4ccc([nH]4)c(-c4c(F)cccc4F)c4nc(c(-c5c(F)cccc5F)c5ccc2[nH]5)C=C4)C=C3)cc1
REMARK SMILES IDX 16 1 15 2 13 3 14 4 11 6 12 7 2 8 1 9 3 10 4 13 5 14 8 15
REMARK SMILES IDX 6 16 7 17 9 18 10 19 17 20 18 21 19 22 20 23 21 25 22 26
REMARK SMILES IDX 23 27 75 28 24 29 74 30 25 31 26 32 27 33 68 34 28 35 73 36
REMARK SMILES IDX 67 37 69 38 29 39 72 40 66 41 65 42 30 44 56 45 39 46 55 47
REMARK SMILES IDX 40 48 43 49 54 50 70 51 41 52 42 53 53 55 71 56 44 57 31 58
REMARK SMILES IDX 32 59 37 60 33 61 34 62 36 63 38 64 35 65 57 66 58 67 63 68
REMARK SMILES IDX 59 69 60 70 62 71 64 72 61 73 45 74 46 75 51 76 47 77 48 78
REMARK SMILES IDX 50 79 52 80 49 81
REMARK H PARENT 15 5 3 11 3 12 19 24 69 43 43 54
REMARK Flexibility Score: inf
ROOT
ATOM      1  C   UNL     1      -0.479   0.278  -4.098  1.00  0.00     0.117 C 
ENDROOT
BRANCH   1   2
ATOM      2  N   UNL     1      -1.292  -0.850  -3.689  1.00  0.00    -0.356 N 
ATOM      3  C   UNL     1      -1.613  -1.301  -2.443  1.00  0.00     0.228 C 
ATOM      4  O   UNL     1      -2.365  -2.276  -2.375  1.00  0.00    -0.275 OA
ATOM      5  H   UNL     1      -1.672  -1.375  -4.429  1.00  0.00     0.163 HD
BRANCH   3   6
ATOM      6  C   UNL     1      -1.019  -0.671  -1.183  1.00  0.00     0.133 C 
ATOM      7  C   UNL     1       0.481  -0.987  -1.125  1.00  0.00     0.024 C 
BRANCH   6   8
ATOM      8  C   UNL     1      -1.439   0.818  -1.030  1.00  0.00     0.191 C 
ATOM      9  C   UNL     1      -0.307   1.792  -0.670  1.00  0.00     0.076 C 
BRANCH   8  10
ATOM     10  N   UNL     1      -2.478   0.998  -0.011  1.00  0.00    -0.340 N 
ATOM     11  H   UNL     1      -2.410   1.958   0.327  1.00  0.00     0.346 HD
ATOM     12  H   UNL     1      -2.288   0.274   0.682  1.00  0.00     0.346 HD
BRANCH  10  13
ATOM     13  C   UNL     1      -3.872   0.772  -0.411  1.00  0.00     0.195 C 
ATOM     14  C   UNL     1      -4.867   1.926  -0.250  1.00  0.00     0.028 C 
ATOM     15  C   UNL     1      -4.613   1.308  -1.631  1.00  0.00     0.028 C 
ATOM     16  C   UNL     1      -6.164   1.645   0.474  1.00  0.00     0.018 C 
ATOM     17  C   UNL     1      -4.381   3.341   0.016  1.00  0.00     0.018 C 
ATOM     18  C   UNL     1      -3.984   2.173  -2.700  1.00  0.00     0.018 C 
ATOM     19  C   UNL     1      -5.655   0.379  -2.232  1.00  0.00     0.018 C 
ENDBRANCH  10  13
ENDBRANCH   8  10
ENDBRANCH   6   8
ENDBRANCH   3   6
ENDBRANCH   1   2
BRANCH   1  20
ATOM     20  C   UNL     1       0.764  -0.134  -4.864  1.00  0.00     0.042 C 
BRANCH  20  21
ATOM     21  C   UNL     1       0.466  -0.728  -6.231  1.00  0.00     0.118 C 
BRANCH  21  22
ATOM     22  N   UNL     1      -0.188   0.222  -7.125  1.00  0.00    -0.352 N 
ATOM     23  C   UNL     1       0.253   0.801  -8.287  1.00  0.00     0.251 C 
ATOM     24  H   UNL     1      -1.094   0.491  -6.848  1.00  0.00     0.163 HD
ATOM     25  O   UNL     1      -0.378   1.736  -8.777  1.00  0.00    -0.269 OA
BRANCH  23  26
ATOM     26  C   UNL     1       1.491   0.328  -8.940  1.00  0.00     0.039 A 
ATOM     27  C   UNL     1       2.363   1.265  -9.500  1.00  0.00     0.014 A 
ATOM     28  C   UNL     1       1.792  -1.034  -9.012  1.00  0.00     0.014 A 
ATOM     29  C   UNL     1       3.571   0.840 -10.059  1.00  0.00     0.010 A 
ATOM     30  C   UNL     1       3.036  -1.446  -9.476  1.00  0.00     0.010 A 
ATOM     31  C   UNL     1       3.939  -0.514 -10.008  1.00  0.00    -0.014 A 
BRANCH  31  32
ATOM     32  C   UNL     1       5.263  -0.976 -10.498  1.00  0.00     0.031 A 
ATOM     33  C   UNL     1       5.348  -1.972 -11.623  1.00  0.00     0.074 A 
ATOM     34  C   UNL     1       6.384  -0.556  -9.878  1.00  0.00     0.049 A 
ATOM     35  N   UNL     1       6.405  -2.555 -12.131  1.00  0.00    -0.248 NA
ATOM     36  C   UNL     1       4.080  -2.392 -12.242  1.00  0.00     0.031 C 
ATOM     37  C   UNL     1       6.430   0.363  -8.738  1.00  0.00     0.029 A 
ATOM     38  N   UNL     1       7.703  -0.860 -10.109  1.00  0.00    -0.354 N 
ATOM     39  C   UNL     1       5.928  -3.420 -13.107  1.00  0.00     0.074 A 
ATOM     40  C   UNL     1       4.486  -3.324 -13.092  1.00  0.00     0.031 C 
ATOM     41  C   UNL     1       7.709   0.560  -8.381  1.00  0.00     0.029 A 
ATOM     42  C   UNL     1       8.571  -0.251  -9.234  1.00  0.00     0.049 A 
ATOM     43  H   UNL     1       7.999  -1.458 -10.833  1.00  0.00     0.167 HD
ATOM     44  C   UNL     1       6.631  -4.209 -13.953  1.00  0.00     0.037 A 
ATOM     45  C   UNL     1       9.910  -0.349  -9.119  1.00  0.00     0.037 A 
ATOM     46  C   UNL     1       8.069  -4.274 -13.990  1.00  0.00     0.049 A 
ATOM     47  C   UNL     1      10.663  -1.231 -10.078  1.00  0.00     0.074 A 
ATOM     48  C   UNL     1       8.874  -4.977 -14.869  1.00  0.00     0.029 A 
ATOM     49  N   UNL     1       8.913  -3.617 -13.109  1.00  0.00    -0.354 N 
ATOM     50  N   UNL     1      10.203  -1.972 -11.057  1.00  0.00    -0.248 NA
ATOM     51  C   UNL     1      12.124  -1.286  -9.921  1.00  0.00     0.031 C 
ATOM     52  C   UNL     1      10.204  -4.794 -14.483  1.00  0.00     0.029 A 
ATOM     53  C   UNL     1      10.231  -3.926 -13.403  1.00  0.00     0.049 A 
ATOM     54  H   UNL     1       8.620  -3.020 -12.383  1.00  0.00     0.167 HD
ATOM     55  C   UNL     1      11.316  -2.555 -11.649  1.00  0.00     0.074 A 
ATOM     56  C   UNL     1      12.475  -2.065 -10.934  1.00  0.00     0.031 C 
ATOM     57  C   UNL     1      11.375  -3.420 -12.690  1.00  0.00     0.037 A 
BRANCH  44  58
ATOM     58  C   UNL     1       5.867  -5.068 -14.918  1.00  0.00     0.057 A 
ATOM     59  C   UNL     1       5.186  -4.525 -16.014  1.00  0.00     0.134 A 
ATOM     60  C   UNL     1       5.885  -6.463 -14.794  1.00  0.00     0.134 A 
ATOM     61  F   UNL     1       5.122  -3.196 -16.186  1.00  0.00    -0.206 F 
ATOM     62  C   UNL     1       4.540  -5.338 -16.948  1.00  0.00     0.040 A 
ATOM     63  C   UNL     1       5.266  -7.288 -15.735  1.00  0.00     0.040 A 
ATOM     64  F   UNL     1       6.524  -7.049 -13.770  1.00  0.00    -0.206 F 
ATOM     65  C   UNL     1       4.590  -6.725 -16.816  1.00  0.00     0.006 A 
ENDBRANCH  44  58
BRANCH  45  66
ATOM     66  C   UNL     1      10.632   0.396  -8.055  1.00  0.00     0.057 A 
ATOM     67  C   UNL     1      11.527   1.427  -8.367  1.00  0.00     0.134 A 
ATOM     68  C   UNL     1      10.480   0.066  -6.702  1.00  0.00     0.134 A 
ATOM     69  F   UNL     1      11.730   1.779  -9.646  1.00  0.00    -0.206 F 
ATOM     70  C   UNL     1      12.272   2.075  -7.381  1.00  0.00     0.040 A 
ATOM     71  C   UNL     1      11.194   0.728  -5.702  1.00  0.00     0.040 A 
ATOM     72  F   UNL     1       9.632  -0.904  -6.332  1.00  0.00    -0.206 F 
ATOM     73  C   UNL     1      12.104   1.726  -6.042  1.00  0.00     0.006 A 
ENDBRANCH  45  66
BRANCH  57  74
ATOM     74  C   UNL     1      12.735  -3.860 -13.147  1.00  0.00     0.057 A 
ATOM     75  C   UNL     1      13.530  -4.725 -12.384  1.00  0.00     0.134 A 
ATOM     76  C   UNL     1      13.238  -3.444 -14.387  1.00  0.00     0.134 A 
ATOM     77  F   UNL     1      13.113  -5.150 -11.182  1.00  0.00    -0.206 F 
ATOM     78  C   UNL     1      14.787  -5.139 -12.827  1.00  0.00     0.040 A 
ATOM     79  C   UNL     1      14.478  -3.877 -14.854  1.00  0.00     0.040 A 
ATOM     80  F   UNL     1      12.522  -2.624 -15.172  1.00  0.00    -0.206 F 
ATOM     81  C   UNL     1      15.260  -4.722 -14.070  1.00  0.00     0.006 A 
ENDBRANCH  57  74
ENDBRANCH  31  32
ENDBRANCH  23  26
ENDBRANCH  21  22
ENDBRANCH  20  21
ENDBRANCH   1  20
TORSDOF 13
