REMARK SMILES C[C@@H](Oc1ccccc1Cl)C(=O)Nc1ccc(C(=O)NCCCNC(=O)c2ccc(-c3c4nc(c(-c5c(F)cccc5F)c5ccc([nH]5)c(-c5c(F)cccc5F)c5nc(c(-c6c(F)cccc6F)c6ccc3[nH]6)C=C5)C=C4)cc2)cc1
REMARK SMILES IDX 21 1 20 2 18 3 19 4 17 6 14 7 15 8 82 9 16 10 81 11 13 12
REMARK SMILES IDX 11 13 12 14 2 16 1 17 3 18 4 19 5 20 9 21 6 22 8 23 10 24
REMARK SMILES IDX 7 25 22 26 23 27 24 28 25 29 26 31 27 32 28 33 80 34 29 35
REMARK SMILES IDX 79 36 30 37 31 38 32 39 73 40 33 41 78 42 72 43 74 44 34 45
REMARK SMILES IDX 77 46 71 47 70 48 35 50 61 51 44 52 60 53 45 54 48 55 59 56
REMARK SMILES IDX 75 57 46 58 47 59 58 61 76 62 49 63 36 64 37 65 42 66 38 67
REMARK SMILES IDX 39 68 41 69 43 70 40 71 62 72 63 73 68 74 64 75 65 76 67 77
REMARK SMILES IDX 69 78 66 79 50 80 51 81 56 82 52 83 53 84 55 85 57 86 54 87
REMARK H PARENT 20 5 13 15 24 30 74 49 48 60
REMARK Flexibility Score: inf
ROOT
ATOM      1  C   UNL     1       2.697  -4.734   0.646  1.00  0.00     0.118 C 
ENDROOT
BRANCH   1   2
ATOM      2  N   UNL     1       1.772  -5.784   0.248  1.00  0.00    -0.352 N 
ATOM      3  C   UNL     1       0.518  -5.709  -0.307  1.00  0.00     0.251 C 
ATOM      4  O   UNL     1      -0.028  -6.747  -0.680  1.00  0.00    -0.269 OA
ATOM      5  H   UNL     1       2.099  -6.700   0.402  1.00  0.00     0.163 HD
BRANCH   3   6
ATOM      6  C   UNL     1      -0.162  -4.409  -0.533  1.00  0.00     0.039 A 
ATOM      7  C   UNL     1      -1.251  -1.921  -1.191  1.00  0.00     0.041 A 
ATOM      8  C   UNL     1      -1.456  -3.010  -2.037  1.00  0.00     0.027 A 
ATOM      9  C   UNL     1      -0.647  -2.113   0.049  1.00  0.00     0.027 A 
ATOM     10  C   UNL     1      -0.886  -4.246  -1.721  1.00  0.00     0.016 A 
ATOM     11  C   UNL     1      -0.123  -3.361   0.388  1.00  0.00     0.016 A 
BRANCH   7  12
ATOM     12  N   UNL     1      -1.681  -0.661  -1.613  1.00  0.00    -0.323 N 
ATOM     13  C   UNL     1      -0.996   0.525  -1.625  1.00  0.00     0.265 C 
ATOM     14  O   UNL     1      -1.630   1.547  -1.917  1.00  0.00    -0.270 OA
ATOM     15  H   UNL     1      -2.606  -0.620  -1.948  1.00  0.00     0.170 HD
BRANCH  13  16
ATOM     16  C   UNL     1       0.535   0.614  -1.379  1.00  0.00     0.259 C 
ATOM     17  C   UNL     1       0.811   1.139   0.027  1.00  0.00     0.064 C 
BRANCH  16  18
ATOM     18  O   UNL     1       1.248  -0.602  -1.605  1.00  0.00    -0.479 OA
BRANCH  18  19
ATOM     19  C   UNL     1       2.493  -0.438  -2.151  1.00  0.00     0.139 A 
ATOM     20  C   UNL     1       2.617  -0.145  -3.512  1.00  0.00     0.048 A 
ATOM     21  C   UNL     1       3.638  -0.696  -1.388  1.00  0.00     0.083 A 
ATOM     22  C   UNL     1       3.884  -0.071  -4.097  1.00  0.00     0.004 A 
ATOM     23  C   UNL     1       4.902  -0.623  -1.976  1.00  0.00     0.024 A 
ATOM     24  Cl  UNL     1       3.541  -1.106   0.285  1.00  0.00    -0.080 Cl
ATOM     25  C   UNL     1       5.025  -0.308  -3.330  1.00  0.00     0.002 A 
ENDBRANCH  18  19
ENDBRANCH  16  18
ENDBRANCH  13  16
ENDBRANCH   7  12
ENDBRANCH   3   6
ENDBRANCH   1   2
BRANCH   1  26
ATOM     26  C   UNL     1       2.778  -4.604   2.166  1.00  0.00     0.042 C 
BRANCH  26  27
ATOM     27  C   UNL     1       3.556  -5.733   2.835  1.00  0.00     0.118 C 
BRANCH  27  28
ATOM     28  N   UNL     1       4.986  -5.643   2.584  1.00  0.00    -0.352 N 
ATOM     29  C   UNL     1       6.039  -5.677   3.459  1.00  0.00     0.251 C 
ATOM     30  H   UNL     1       5.236  -5.543   1.637  1.00  0.00     0.163 HD
ATOM     31  O   UNL     1       7.170  -5.407   3.048  1.00  0.00    -0.269 OA
BRANCH  29  32
ATOM     32  C   UNL     1       5.847  -6.013   4.888  1.00  0.00     0.039 A 
ATOM     33  C   UNL     1       6.612  -5.333   5.842  1.00  0.00     0.014 A 
ATOM     34  C   UNL     1       4.971  -7.023   5.298  1.00  0.00     0.014 A 
ATOM     35  C   UNL     1       6.472  -5.635   7.198  1.00  0.00     0.010 A 
ATOM     36  C   UNL     1       4.779  -7.274   6.657  1.00  0.00     0.010 A 
ATOM     37  C   UNL     1       5.537  -6.594   7.620  1.00  0.00    -0.014 A 
BRANCH  37  38
ATOM     38  C   UNL     1       5.362  -6.904   9.063  1.00  0.00     0.031 A 
ATOM     39  C   UNL     1       5.716  -8.267   9.596  1.00  0.00     0.074 A 
ATOM     40  C   UNL     1       4.850  -5.972   9.889  1.00  0.00     0.049 A 
ATOM     41  N   UNL     1       5.606  -8.733  10.815  1.00  0.00    -0.248 NA
ATOM     42  C   UNL     1       6.242  -9.241   8.627  1.00  0.00     0.031 C 
ATOM     43  C   UNL     1       4.425  -4.629   9.490  1.00  0.00     0.029 A 
ATOM     44  N   UNL     1       4.597  -6.014  11.237  1.00  0.00    -0.354 N 
ATOM     45  C   UNL     1       6.034 -10.053  10.756  1.00  0.00     0.074 A 
ATOM     46  C   UNL     1       6.357 -10.330   9.373  1.00  0.00     0.031 C 
ATOM     47  C   UNL     1       3.989  -3.967  10.573  1.00  0.00     0.029 A 
ATOM     48  C   UNL     1       4.075  -4.845  11.736  1.00  0.00     0.049 A 
ATOM     49  H   UNL     1       4.772  -6.807  11.794  1.00  0.00     0.167 HD
ATOM     50  C   UNL     1       6.170 -10.947  11.765  1.00  0.00     0.037 A 
ATOM     51  C   UNL     1       3.708  -4.518  12.989  1.00  0.00     0.037 A 
ATOM     52  C   UNL     1       5.874 -10.665  13.145  1.00  0.00     0.049 A 
ATOM     53  C   UNL     1       3.874  -5.526  14.092  1.00  0.00     0.074 A 
ATOM     54  C   UNL     1       6.029 -11.487  14.247  1.00  0.00     0.029 A 
ATOM     55  N   UNL     1       5.364  -9.463  13.612  1.00  0.00    -0.354 N 
ATOM     56  N   UNL     1       4.340  -6.750  14.031  1.00  0.00    -0.248 NA
ATOM     57  C   UNL     1       3.473  -5.102  15.441  1.00  0.00     0.031 C 
ATOM     58  C   UNL     1       5.579 -10.795  15.377  1.00  0.00     0.029 A 
ATOM     59  C   UNL     1       5.183  -9.527  14.984  1.00  0.00     0.049 A 
ATOM     60  H   UNL     1       5.160  -8.680  13.051  1.00  0.00     0.167 HD
ATOM     61  C   UNL     1       4.312  -7.233  15.333  1.00  0.00     0.074 A 
ATOM     62  C   UNL     1       3.800  -6.163  16.165  1.00  0.00     0.031 C 
ATOM     63  C   UNL     1       4.678  -8.452  15.798  1.00  0.00     0.037 A 
BRANCH  50  64
ATOM     64  C   UNL     1       6.671 -12.317  11.409  1.00  0.00     0.057 A 
ATOM     65  C   UNL     1       8.000 -12.539  11.022  1.00  0.00     0.134 A 
ATOM     66  C   UNL     1       5.826 -13.432  11.481  1.00  0.00     0.134 A 
ATOM     67  F   UNL     1       8.858 -11.512  10.921  1.00  0.00    -0.206 F 
ATOM     68  C   UNL     1       8.462 -13.814  10.693  1.00  0.00     0.040 A 
ATOM     69  C   UNL     1       6.284 -14.716  11.180  1.00  0.00     0.040 A 
ATOM     70  F   UNL     1       4.544 -13.292  11.852  1.00  0.00    -0.206 F 
ATOM     71  C   UNL     1       7.604 -14.908  10.777  1.00  0.00     0.006 A 
ENDBRANCH  50  64
BRANCH  51  72
ATOM     72  C   UNL     1       3.176  -3.163  13.279  1.00  0.00     0.057 A 
ATOM     73  C   UNL     1       3.928  -2.236  14.009  1.00  0.00     0.134 A 
ATOM     74  C   UNL     1       1.906  -2.767  12.845  1.00  0.00     0.134 A 
ATOM     75  F   UNL     1       5.145  -2.565  14.467  1.00  0.00    -0.206 F 
ATOM     76  C   UNL     1       3.429  -0.969  14.316  1.00  0.00     0.040 A 
ATOM     77  C   UNL     1       1.403  -1.495  13.125  1.00  0.00     0.040 A 
ATOM     78  F   UNL     1       1.139  -3.608  12.136  1.00  0.00    -0.206 F 
ATOM     79  C   UNL     1       2.163  -0.595  13.869  1.00  0.00     0.006 A 
ENDBRANCH  51  72
BRANCH  63  80
ATOM     80  C   UNL     1       4.566  -8.680  17.277  1.00  0.00     0.057 A 
ATOM     81  C   UNL     1       3.326  -8.837  17.909  1.00  0.00     0.134 A 
ATOM     82  C   UNL     1       5.715  -8.766  18.073  1.00  0.00     0.134 A 
ATOM     83  F   UNL     1       2.188  -8.751  17.204  1.00  0.00    -0.206 F 
ATOM     84  C   UNL     1       3.232  -9.046  19.286  1.00  0.00     0.040 A 
ATOM     85  C   UNL     1       5.635  -9.000  19.446  1.00  0.00     0.040 A 
ATOM     86  F   UNL     1       6.934  -8.632  17.528  1.00  0.00    -0.206 F 
ATOM     87  C   UNL     1       4.389  -9.133  20.057  1.00  0.00     0.006 A 
ENDBRANCH  63  80
ENDBRANCH  37  38
ENDBRANCH  29  32
ENDBRANCH  27  28
ENDBRANCH  26  27
ENDBRANCH   1  26
TORSDOF 14
