REMARK SMILES C/C(Nc1ccc(C(=O)NCCCNC(=O)c2ccc(-c3c4nc(c(-c5c(F)cccc5F)c5ccc([nH]5)c(-c5c(F)cccc5F)c5nc(c(-c6c(F)cccc6F)c6ccc3[nH]6)C=C5)C=C4)cc2)c(O)c1)=C1/C(=O)O[C@H](C)C1=O
REMARK SMILES IDX 12 1 11 2 10 3 8 4 9 5 7 7 4 8 5 9 73 10 6 11 71 12 3 13
REMARK SMILES IDX 2 15 1 16 74 17 75 18 80 19 76 20 77 21 78 22 81 23 79 24
REMARK SMILES IDX 72 25 13 27 14 28 15 29 16 31 17 32 18 33 70 34 19 35 69 36
REMARK SMILES IDX 20 37 21 38 22 39 63 40 23 41 68 42 62 43 64 44 24 45 67 46
REMARK SMILES IDX 61 47 60 48 25 50 51 51 34 52 50 53 35 54 38 55 49 56 65 57
REMARK SMILES IDX 36 58 37 59 48 61 66 62 39 63 26 64 27 65 32 66 28 67 29 68
REMARK SMILES IDX 31 69 33 70 30 71 52 72 53 73 58 74 54 75 55 76 57 77 59 78
REMARK SMILES IDX 56 79 40 80 41 81 46 82 42 83 43 84 45 85 47 86 44 87
REMARK H PARENT 10 6 3 14 72 26 14 30 64 49 38 60
REMARK Flexibility Score: inf
ROOT
ATOM      1  C   UNL     1      -5.774   0.510   6.856  1.00  0.00     0.042 C 
ENDROOT
BRANCH   1   2
ATOM      2  C   UNL     1      -4.659   1.454   6.440  1.00  0.00     0.118 C 
BRANCH   2   3
ATOM      3  N   UNL     1      -3.541   1.551   7.366  1.00  0.00    -0.352 N 
ATOM      4  C   UNL     1      -2.199   1.770   7.148  1.00  0.00     0.255 C 
ATOM      5  O   UNL     1      -1.466   1.849   8.134  1.00  0.00    -0.269 OA
ATOM      6  H   UNL     1      -3.787   1.441   8.313  1.00  0.00     0.163 HD
BRANCH   4   7
ATOM      7  C   UNL     1      -1.598   1.840   5.788  1.00  0.00     0.081 A 
ATOM      8  C   UNL     1      -0.489   1.381   3.229  1.00  0.00     0.042 A 
ATOM      9  C   UNL     1       0.255   1.123   4.380  1.00  0.00     0.027 A 
ATOM     10  C   UNL     1      -1.704   2.060   3.380  1.00  0.00     0.073 A 
ATOM     11  C   UNL     1      -0.309   1.307   5.648  1.00  0.00     0.020 A 
ATOM     12  C   UNL     1      -2.212   2.350   4.646  1.00  0.00     0.130 A 
BRANCH   8  13
ATOM     13  N   UNL     1      -0.132   0.926   1.948  1.00  0.00    -0.358 N 
ATOM     14  H   UNL     1      -0.499   1.468   1.212  1.00  0.00     0.166 HD
BRANCH  13  15
ATOM     15  C   UNL     1       0.646  -0.147   1.530  1.00  0.00     0.030 C 
ATOM     16  C   UNL     1       1.165   0.038   0.109  1.00  0.00     0.065 C 
ATOM     17  C   UNL     1       0.942  -1.299   2.178  1.00  0.00     0.125 C 
ATOM     18  C   UNL     1       0.487  -1.806   3.487  1.00  0.00     0.344 C 
ATOM     19  C   UNL     1       1.946  -2.283   1.731  1.00  0.00     0.212 C 
ATOM     20  O   UNL     1      -0.572  -1.600   4.055  1.00  0.00    -0.246 OA
ATOM     21  O   UNL     1       1.441  -2.670   3.951  1.00  0.00    -0.451 OA
ATOM     22  C   UNL     1       2.380  -3.068   2.931  1.00  0.00     0.245 C 
ATOM     23  O   UNL     1       2.385  -2.427   0.601  1.00  0.00    -0.290 OA
ATOM     24  C   UNL     1       3.803  -2.721   3.339  1.00  0.00     0.062 C 
ENDBRANCH  13  15
ENDBRANCH   8  13
BRANCH  12  25
ATOM     25  O   UNL     1      -3.303   3.175   4.667  1.00  0.00    -0.507 OA
ATOM     26  H   UNL     1      -3.696   3.411   5.484  1.00  0.00     0.293 HD
ENDBRANCH  12  25
ENDBRANCH   4   7
ENDBRANCH   2   3
ENDBRANCH   1   2
BRANCH   1  27
ATOM     27  C   UNL     1      -6.399   0.784   8.214  1.00  0.00     0.118 C 
BRANCH  27  28
ATOM     28  N   UNL     1      -7.068   2.076   8.319  1.00  0.00    -0.352 N 
ATOM     29  C   UNL     1      -8.402   2.413   8.374  1.00  0.00     0.251 C 
ATOM     30  H   UNL     1      -6.455   2.845   8.357  1.00  0.00     0.163 HD
ATOM     31  O   UNL     1      -8.726   3.597   8.354  1.00  0.00    -0.269 OA
BRANCH  29  32
ATOM     32  C   UNL     1      -9.453   1.370   8.412  1.00  0.00     0.039 A 
ATOM     33  C   UNL     1     -10.624   1.558   7.672  1.00  0.00     0.014 A 
ATOM     34  C   UNL     1      -9.299   0.209   9.167  1.00  0.00     0.014 A 
ATOM     35  C   UNL     1     -11.580   0.540   7.608  1.00  0.00     0.010 A 
ATOM     36  C   UNL     1     -10.181  -0.851   8.998  1.00  0.00     0.010 A 
ATOM     37  C   UNL     1     -11.338  -0.699   8.222  1.00  0.00    -0.014 A 
BRANCH  37  38
ATOM     38  C   UNL     1     -12.280  -1.842   8.083  1.00  0.00     0.031 A 
ATOM     39  C   UNL     1     -12.894  -2.470   9.308  1.00  0.00     0.074 A 
ATOM     40  C   UNL     1     -12.523  -2.369   6.866  1.00  0.00     0.049 A 
ATOM     41  N   UNL     1     -13.662  -3.526   9.402  1.00  0.00    -0.248 NA
ATOM     42  C   UNL     1     -12.573  -1.849  10.604  1.00  0.00     0.031 C 
ATOM     43  C   UNL     1     -11.947  -1.894   5.605  1.00  0.00     0.029 A 
ATOM     44  N   UNL     1     -13.310  -3.428   6.489  1.00  0.00    -0.354 N 
ATOM     45  C   UNL     1     -13.896  -3.704  10.760  1.00  0.00     0.074 A 
ATOM     46  C   UNL     1     -13.133  -2.693  11.457  1.00  0.00     0.031 C 
ATOM     47  C   UNL     1     -12.427  -2.636   4.594  1.00  0.00     0.029 A 
ATOM     48  C   UNL     1     -13.303  -3.669   5.135  1.00  0.00     0.049 A 
ATOM     49  H   UNL     1     -13.832  -3.966   7.128  1.00  0.00     0.167 HD
ATOM     50  C   UNL     1     -14.697  -4.608  11.372  1.00  0.00     0.037 A 
ATOM     51  C   UNL     1     -13.925  -4.620   4.412  1.00  0.00     0.037 A 
ATOM     52  C   UNL     1     -15.477  -5.595  10.675  1.00  0.00     0.049 A 
ATOM     53  C   UNL     1     -14.801  -5.620   5.117  1.00  0.00     0.074 A 
ATOM     54  C   UNL     1     -16.368  -6.515  11.198  1.00  0.00     0.029 A 
ATOM     55  N   UNL     1     -15.455  -5.794   9.303  1.00  0.00    -0.354 N 
ATOM     56  N   UNL     1     -15.071  -5.728   6.395  1.00  0.00    -0.248 NA
ATOM     57  C   UNL     1     -15.463  -6.627   4.276  1.00  0.00     0.031 C 
ATOM     58  C   UNL     1     -16.843  -7.307  10.149  1.00  0.00     0.029 A 
ATOM     59  C   UNL     1     -16.297  -6.840   8.964  1.00  0.00     0.049 A 
ATOM     60  H   UNL     1     -14.920  -5.269   8.664  1.00  0.00     0.167 HD
ATOM     61  C   UNL     1     -15.957  -6.793   6.509  1.00  0.00     0.074 A 
ATOM     62  C   UNL     1     -16.190  -7.286   5.167  1.00  0.00     0.031 C 
ATOM     63  C   UNL     1     -16.525  -7.315   7.623  1.00  0.00     0.037 A 
BRANCH  50  64
ATOM     64  C   UNL     1     -14.772  -4.564  12.873  1.00  0.00     0.057 A 
ATOM     65  C   UNL     1     -15.372  -3.495  13.554  1.00  0.00     0.134 A 
ATOM     66  C   UNL     1     -14.265  -5.616  13.646  1.00  0.00     0.134 A 
ATOM     67  F   UNL     1     -15.867  -2.448  12.877  1.00  0.00    -0.206 F 
ATOM     68  C   UNL     1     -15.435  -3.459  14.948  1.00  0.00     0.040 A 
ATOM     69  C   UNL     1     -14.352  -5.607  15.039  1.00  0.00     0.040 A 
ATOM     70  F   UNL     1     -13.684  -6.674  13.061  1.00  0.00    -0.206 F 
ATOM     71  C   UNL     1     -14.931  -4.522  15.695  1.00  0.00     0.006 A 
ENDBRANCH  50  64
BRANCH  51  72
ATOM     72  C   UNL     1     -13.762  -4.663   2.936  1.00  0.00     0.057 A 
ATOM     73  C   UNL     1     -14.832  -4.372   2.081  1.00  0.00     0.134 A 
ATOM     74  C   UNL     1     -12.542  -5.010   2.342  1.00  0.00     0.134 A 
ATOM     75  F   UNL     1     -16.031  -4.050   2.587  1.00  0.00    -0.206 F 
ATOM     76  C   UNL     1     -14.703  -4.447   0.693  1.00  0.00     0.040 A 
ATOM     77  C   UNL     1     -12.390  -5.061   0.956  1.00  0.00     0.040 A 
ATOM     78  F   UNL     1     -11.474  -5.293   3.103  1.00  0.00    -0.206 F 
ATOM     79  C   UNL     1     -13.476  -4.788   0.126  1.00  0.00     0.006 A 
ENDBRANCH  51  72
BRANCH  63  80
ATOM     80  C   UNL     1     -17.488  -8.453   7.438  1.00  0.00     0.057 A 
ATOM     81  C   UNL     1     -17.064  -9.730   7.052  1.00  0.00     0.134 A 
ATOM     82  C   UNL     1     -18.855  -8.275   7.690  1.00  0.00     0.134 A 
ATOM     83  F   UNL     1     -15.770  -9.966   6.783  1.00  0.00    -0.206 F 
ATOM     84  C   UNL     1     -17.967 -10.783   6.897  1.00  0.00     0.040 A 
ATOM     85  C   UNL     1     -19.763  -9.327   7.570  1.00  0.00     0.040 A 
ATOM     86  F   UNL     1     -19.327  -7.079   8.074  1.00  0.00    -0.206 F 
ATOM     87  C   UNL     1     -19.320 -10.584   7.165  1.00  0.00     0.006 A 
ENDBRANCH  63  80
ENDBRANCH  37  38
ENDBRANCH  29  32
ENDBRANCH  27  28
ENDBRANCH   1  27
TORSDOF 13
