REMARK SMILES O=C1CC[C@@H](CC(=O)N2CCC(Oc3ccccc3)(C(=O)NCCCNC(=O)c3ccc(-c4c5nc(c(-c6c(F)cccc6F)c6ccc([nH]6)c(-c6c(F)cccc6F)c6nc(c(-c7c(F)cccc7F)c7ccc4[nH]7)C=C6)C=C5)cc3)CC2)N1
REMARK SMILES IDX 24 1 23 2 22 3 20 4 21 5 12 7 7 8 8 9 9 10 10 11 84 12 11 13
REMARK SMILES IDX 83 14 6 15 5 16 1 17 2 18 3 19 85 20 4 21 13 23 14 24 15 25
REMARK SMILES IDX 19 26 16 27 18 28 17 29 25 30 26 31 27 32 28 34 29 35 30 36
REMARK SMILES IDX 82 37 31 38 81 39 32 40 33 41 34 42 75 43 35 44 80 45 74 46
REMARK SMILES IDX 76 47 36 48 79 49 73 50 72 51 37 53 63 54 46 55 62 56 47 57
REMARK SMILES IDX 50 58 61 59 77 60 48 61 49 62 60 64 78 65 51 66 38 67 39 68
REMARK SMILES IDX 44 69 40 70 41 71 43 72 45 73 42 74 64 75 65 76 70 77 66 78
REMARK SMILES IDX 67 79 69 80 71 81 68 82 52 83 53 84 58 85 54 86 55 87 57 88
REMARK SMILES IDX 59 89 56 90
REMARK H PARENT 22 6 85 22 26 33 76 52 50 63
REMARK Flexibility Score: inf
ROOT
ATOM      1  C   UNL     1       0.787   1.595  -7.967  1.00  0.00     0.042 C 
ENDROOT
BRANCH   1   2
ATOM      2  C   UNL     1       1.923   1.724  -6.966  1.00  0.00     0.118 C 
BRANCH   2   3
ATOM      3  N   UNL     1       1.459   2.349  -5.747  1.00  0.00    -0.353 N 
ATOM      4  C   UNL     1       1.290   1.839  -4.501  1.00  0.00     0.264 C 
ATOM      5  O   UNL     1       0.903   2.654  -3.656  1.00  0.00    -0.270 OA
ATOM      6  H   UNL     1       1.228   3.301  -5.836  1.00  0.00     0.163 HD
BRANCH   4   7
ATOM      7  C   UNL     1       1.578   0.346  -4.169  1.00  0.00     0.190 C 
ATOM      8  C   UNL     1      -1.569  -1.638  -2.276  1.00  0.00     0.224 C 
ATOM      9  O   UNL     1      -1.847  -2.665  -2.913  1.00  0.00    -0.275 OA
ATOM     10  N   UNL     1      -0.881  -0.616  -2.899  1.00  0.00    -0.342 N 
ATOM     11  C   UNL     1      -0.822  -0.542  -4.359  1.00  0.00     0.124 C 
ATOM     12  C   UNL     1      -0.025   0.331  -2.230  1.00  0.00     0.124 C 
ATOM     13  C   UNL     1       0.613  -0.633  -4.873  1.00  0.00     0.080 C 
ATOM     14  C   UNL     1       1.432   0.177  -2.652  1.00  0.00     0.080 C 
BRANCH   8  15
ATOM     15  C   UNL     1      -2.226  -1.479  -0.889  1.00  0.00     0.125 C 
BRANCH  15  16
ATOM     16  C   UNL     1      -1.643  -0.868   0.388  1.00  0.00     0.091 C 
ATOM     17  O   UNL     1       1.611  -0.164   1.513  1.00  0.00    -0.275 OA
ATOM     18  C   UNL     1       0.442  -0.116   1.163  1.00  0.00     0.220 C 
ATOM     19  C   UNL     1      -0.421   1.120   1.114  1.00  0.00     0.102 C 
ATOM     20  N   UNL     1      -0.282  -1.190   0.694  1.00  0.00    -0.353 N 
ATOM     21  C   UNL     1      -1.750   0.653   0.512  1.00  0.00     0.035 C 
ATOM     22  H   UNL     1       0.100  -2.091   0.580  1.00  0.00     0.163 HD
ENDBRANCH  15  16
ENDBRANCH   8  15
BRANCH   7  23
ATOM     23  O   UNL     1       2.964   0.240  -4.586  1.00  0.00    -0.477 OA
BRANCH  23  24
ATOM     24  C   UNL     1       3.614  -0.939  -4.388  1.00  0.00     0.120 A 
ATOM     25  C   UNL     1       4.590  -0.991  -3.395  1.00  0.00     0.046 A 
ATOM     26  C   UNL     1       3.438  -2.016  -5.253  1.00  0.00     0.046 A 
ATOM     27  C   UNL     1       5.336  -2.155  -3.217  1.00  0.00     0.004 A 
ATOM     28  C   UNL     1       4.167  -3.189  -5.061  1.00  0.00     0.004 A 
ATOM     29  C   UNL     1       5.112  -3.260  -4.039  1.00  0.00     0.000 A 
ENDBRANCH  23  24
ENDBRANCH   7  23
ENDBRANCH   4   7
ENDBRANCH   2   3
ENDBRANCH   1   2
BRANCH   1  30
ATOM     30  C   UNL     1       0.155   2.931  -8.334  1.00  0.00     0.118 C 
BRANCH  30  31
ATOM     31  N   UNL     1       1.105   3.841  -8.957  1.00  0.00    -0.352 N 
ATOM     32  C   UNL     1       1.155   4.305 -10.247  1.00  0.00     0.251 C 
ATOM     33  H   UNL     1       1.818   4.172  -8.365  1.00  0.00     0.163 HD
ATOM     34  O   UNL     1       2.160   4.874 -10.657  1.00  0.00    -0.269 OA
BRANCH  32  35
ATOM     35  C   UNL     1       0.001   4.101 -11.144  1.00  0.00     0.039 A 
ATOM     36  C   UNL     1       0.230   3.710 -12.464  1.00  0.00     0.014 A 
ATOM     37  C   UNL     1      -1.304   4.302 -10.685  1.00  0.00     0.014 A 
ATOM     38  C   UNL     1      -0.854   3.459 -13.306  1.00  0.00     0.010 A 
ATOM     39  C   UNL     1      -2.381   3.958 -11.492  1.00  0.00     0.010 A 
ATOM     40  C   UNL     1      -2.168   3.544 -12.815  1.00  0.00    -0.014 A 
BRANCH  40  41
ATOM     41  C   UNL     1      -3.333   3.214 -13.672  1.00  0.00     0.031 A 
ATOM     42  C   UNL     1      -4.357   4.268 -13.990  1.00  0.00     0.074 A 
ATOM     43  C   UNL     1      -3.498   1.952 -14.111  1.00  0.00     0.049 A 
ATOM     44  N   UNL     1      -5.473   4.158 -14.665  1.00  0.00    -0.248 NA
ATOM     45  C   UNL     1      -4.111   5.616 -13.454  1.00  0.00     0.031 C 
ATOM     46  C   UNL     1      -2.599   0.831 -13.829  1.00  0.00     0.029 A 
ATOM     47  N   UNL     1      -4.488   1.396 -14.882  1.00  0.00    -0.354 N 
ATOM     48  C   UNL     1      -6.063   5.415 -14.624  1.00  0.00     0.074 A 
ATOM     49  C   UNL     1      -5.216   6.255 -13.807  1.00  0.00     0.031 C 
ATOM     50  C   UNL     1      -3.062  -0.270 -14.442  1.00  0.00     0.029 A 
ATOM     51  C   UNL     1      -4.312   0.055 -15.121  1.00  0.00     0.049 A 
ATOM     52  H   UNL     1      -5.251   1.910 -15.232  1.00  0.00     0.167 HD
ATOM     53  C   UNL     1      -7.196   5.838 -15.234  1.00  0.00     0.037 A 
ATOM     54  C   UNL     1      -5.077  -0.817 -15.804  1.00  0.00     0.037 A 
ATOM     55  C   UNL     1      -8.025   5.002 -16.062  1.00  0.00     0.049 A 
ATOM     56  C   UNL     1      -6.340  -0.326 -16.458  1.00  0.00     0.074 A 
ATOM     57  C   UNL     1      -9.162   5.349 -16.771  1.00  0.00     0.029 A 
ATOM     58  N   UNL     1      -7.808   3.651 -16.288  1.00  0.00    -0.354 N 
ATOM     59  N   UNL     1      -6.849   0.882 -16.470  1.00  0.00    -0.248 NA
ATOM     60  C   UNL     1      -7.130  -1.319 -17.198  1.00  0.00     0.031 C 
ATOM     61  C   UNL     1      -9.663   4.196 -17.382  1.00  0.00     0.029 A 
ATOM     62  C   UNL     1      -8.806   3.143 -17.105  1.00  0.00     0.049 A 
ATOM     63  H   UNL     1      -7.057   3.130 -15.923  1.00  0.00     0.167 HD
ATOM     64  C   UNL     1      -8.001   0.801 -17.242  1.00  0.00     0.074 A 
ATOM     65  C   UNL     1      -8.106  -0.571 -17.693  1.00  0.00     0.031 C 
ATOM     66  C   UNL     1      -8.892   1.776 -17.550  1.00  0.00     0.037 A 
BRANCH  53  67
ATOM     67  C   UNL     1      -7.603   7.269 -15.027  1.00  0.00     0.057 A 
ATOM     68  C   UNL     1      -6.870   8.333 -15.570  1.00  0.00     0.134 A 
ATOM     69  C   UNL     1      -8.759   7.587 -14.304  1.00  0.00     0.134 A 
ATOM     70  F   UNL     1      -5.744   8.101 -16.262  1.00  0.00    -0.206 F 
ATOM     71  C   UNL     1      -7.256   9.661 -15.377  1.00  0.00     0.040 A 
ATOM     72  C   UNL     1      -9.173   8.909 -14.131  1.00  0.00     0.040 A 
ATOM     73  F   UNL     1      -9.512   6.618 -13.761  1.00  0.00    -0.206 F 
ATOM     74  C   UNL     1      -8.416   9.951 -14.662  1.00  0.00     0.006 A 
ENDBRANCH  53  67
BRANCH  54  75
ATOM     75  C   UNL     1      -4.663  -2.238 -15.922  1.00  0.00     0.057 A 
ATOM     76  C   UNL     1      -4.259  -2.774 -17.151  1.00  0.00     0.134 A 
ATOM     77  C   UNL     1      -4.672  -3.098 -14.816  1.00  0.00     0.134 A 
ATOM     78  F   UNL     1      -4.245  -2.006 -18.250  1.00  0.00    -0.206 F 
ATOM     79  C   UNL     1      -3.901  -4.117 -17.281  1.00  0.00     0.040 A 
ATOM     80  C   UNL     1      -4.289  -4.435 -14.927  1.00  0.00     0.040 A 
ATOM     81  F   UNL     1      -5.039  -2.644 -13.609  1.00  0.00    -0.206 F 
ATOM     82  C   UNL     1      -3.911  -4.950 -16.165  1.00  0.00     0.006 A 
ENDBRANCH  54  75
BRANCH  66  83
ATOM     83  C   UNL     1     -10.035   1.403 -18.450  1.00  0.00     0.057 A 
ATOM     84  C   UNL     1     -11.085   0.584 -18.016  1.00  0.00     0.134 A 
ATOM     85  C   UNL     1     -10.104   1.904 -19.756  1.00  0.00     0.134 A 
ATOM     86  F   UNL     1     -11.074   0.061 -16.780  1.00  0.00    -0.206 F 
ATOM     87  C   UNL     1     -12.149   0.255 -18.858  1.00  0.00     0.040 A 
ATOM     88  C   UNL     1     -11.177   1.608 -20.597  1.00  0.00     0.040 A 
ATOM     89  F   UNL     1      -9.136   2.703 -20.232  1.00  0.00    -0.206 F 
ATOM     90  C   UNL     1     -12.200   0.775 -20.150  1.00  0.00     0.006 A 
ENDBRANCH  66  83
ENDBRANCH  40  41
ENDBRANCH  32  35
ENDBRANCH  30  31
ENDBRANCH   1  30
TORSDOF 14
