REMARK SMILES Cc1nc(C)c(C(=O)N2CCC([C@H](C)C(=O)NCCCNC(=O)c3ccc(-c4c5nc(c(-c6c(F)cccc6F)c6ccc([nH]6)c(-c6c(F)cccc6F)c6nc(c(-c7c(F)cccc7F)c7ccc4[nH]7)C=C6)C=C5)cc3)CC2)s1
REMARK SMILES IDX 19 1 18 2 17 3 15 4 16 5 13 7 14 8 12 9 7 10 8 11 9 12 10 13
REMARK SMILES IDX 79 14 11 15 78 16 6 17 1 18 2 19 3 20 80 21 4 22 5 23 20 24
REMARK SMILES IDX 21 25 22 26 23 28 24 29 25 30 77 31 26 32 76 33 27 34 28 35
REMARK SMILES IDX 29 36 70 37 30 38 75 39 69 40 71 41 31 42 74 43 68 44 67 45
REMARK SMILES IDX 32 47 58 48 41 49 57 50 42 51 45 52 56 53 72 54 43 55 44 56
REMARK SMILES IDX 55 58 73 59 46 60 33 61 34 62 39 63 35 64 36 65 38 66 40 67
REMARK SMILES IDX 37 68 59 69 60 70 65 71 61 72 62 73 64 74 66 75 63 76 47 77
REMARK SMILES IDX 48 78 53 79 49 80 50 81 52 82 54 83 51 84
REMARK H PARENT 17 6 21 27 71 46 45 57
REMARK Flexibility Score: inf
ROOT
ATOM      1  C   UNL     1       3.637  -6.713   1.565  1.00  0.00     0.042 C 
ENDROOT
BRANCH   1   2
ATOM      2  C   UNL     1       2.635  -7.841   1.529  1.00  0.00     0.117 C 
BRANCH   2   3
ATOM      3  N   UNL     1       1.746  -7.859   2.669  1.00  0.00    -0.356 N 
ATOM      4  C   UNL     1       0.389  -7.925   2.700  1.00  0.00     0.223 C 
ATOM      5  O   UNL     1      -0.146  -8.087   3.800  1.00  0.00    -0.275 OA
ATOM      6  H   UNL     1       2.187  -7.816   3.548  1.00  0.00     0.163 HD
BRANCH   4   7
ATOM      7  C   UNL     1      -0.465  -7.779   1.435  1.00  0.00     0.078 C 
ATOM      8  C   UNL     1      -0.373  -6.338   0.917  1.00  0.00     0.018 C 
BRANCH   7   9
ATOM      9  C   UNL     1      -0.367  -8.920   0.362  1.00  0.00     0.005 C 
ATOM     10  C   UNL     1       2.365 -11.150  -1.899  1.00  0.00     0.265 C 
ATOM     11  O   UNL     1       3.163 -10.321  -2.341  1.00  0.00    -0.268 OA
ATOM     12  N   UNL     1       1.165 -10.709  -1.334  1.00  0.00    -0.338 N 
ATOM     13  C   UNL     1       0.448  -9.625  -1.972  1.00  0.00     0.120 C 
ATOM     14  C   UNL     1       0.525 -11.288  -0.161  1.00  0.00     0.120 C 
ATOM     15  C   UNL     1       0.171  -8.476  -1.019  1.00  0.00     0.026 C 
ATOM     16  C   UNL     1       0.285 -10.217   0.900  1.00  0.00     0.026 C 
BRANCH  10  17
ATOM     17  C   UNL     1       2.581 -12.584  -2.046  1.00  0.00     0.115 A 
ATOM     18  C   UNL     1       1.787 -16.329  -2.745  1.00  0.00     0.079 C 
ATOM     19  C   UNL     1       2.321 -14.964  -2.492  1.00  0.00     0.091 A 
ATOM     20  N   UNL     1       3.596 -14.652  -2.485  1.00  0.00    -0.246 NA
ATOM     21  S   UNL     1       1.251 -13.665  -2.228  1.00  0.00    -0.113 S 
ATOM     22  C   UNL     1       3.761 -13.286  -2.268  1.00  0.00     0.061 A 
ATOM     23  C   UNL     1       5.154 -12.763  -2.342  1.00  0.00     0.068 C 
ENDBRANCH  10  17
ENDBRANCH   7   9
ENDBRANCH   4   7
ENDBRANCH   2   3
ENDBRANCH   1   2
BRANCH   1  24
ATOM     24  C   UNL     1       4.674  -6.896   2.655  1.00  0.00     0.118 C 
BRANCH  24  25
ATOM     25  N   UNL     1       5.488  -8.093   2.467  1.00  0.00    -0.352 N 
ATOM     26  C   UNL     1       6.837  -8.214   2.246  1.00  0.00     0.251 C 
ATOM     27  H   UNL     1       4.993  -8.944   2.504  1.00  0.00     0.163 HD
ATOM     28  O   UNL     1       7.320  -9.297   1.931  1.00  0.00    -0.269 OA
BRANCH  26  29
ATOM     29  C   UNL     1       7.699  -7.024   2.369  1.00  0.00     0.039 A 
ATOM     30  C   UNL     1       8.684  -6.789   1.409  1.00  0.00     0.014 A 
ATOM     31  C   UNL     1       7.503  -6.123   3.416  1.00  0.00     0.014 A 
ATOM     32  C   UNL     1       9.419  -5.605   1.459  1.00  0.00     0.010 A 
ATOM     33  C   UNL     1       8.144  -4.895   3.393  1.00  0.00     0.010 A 
ATOM     34  C   UNL     1       9.122  -4.629   2.424  1.00  0.00    -0.014 A 
BRANCH  34  35
ATOM     35  C   UNL     1       9.832  -3.330   2.464  1.00  0.00     0.031 A 
ATOM     36  C   UNL     1      10.618  -2.947   3.688  1.00  0.00     0.074 A 
ATOM     37  C   UNL     1       9.704  -2.466   1.439  1.00  0.00     0.049 A 
ATOM     38  N   UNL     1      11.237  -1.827   3.957  1.00  0.00    -0.248 NA
ATOM     39  C   UNL     1      10.683  -3.943   4.771  1.00  0.00     0.031 C 
ATOM     40  C   UNL     1       8.920  -2.700   0.224  1.00  0.00     0.029 A 
ATOM     41  N   UNL     1      10.226  -1.210   1.261  1.00  0.00    -0.354 N 
ATOM     42  C   UNL     1      11.743  -1.977   5.242  1.00  0.00     0.074 A 
ATOM     43  C   UNL     1      11.299  -3.265   5.726  1.00  0.00     0.031 C 
ATOM     44  C   UNL     1       9.043  -1.638  -0.589  1.00  0.00     0.029 A 
ATOM     45  C   UNL     1       9.875  -0.634   0.064  1.00  0.00     0.049 A 
ATOM     46  H   UNL     1      10.797  -0.764   1.927  1.00  0.00     0.167 HD
ATOM     47  C   UNL     1      12.533  -1.133   5.945  1.00  0.00     0.037 A 
ATOM     48  C   UNL     1      10.189   0.572  -0.445  1.00  0.00     0.037 A 
ATOM     49  C   UNL     1      12.995   0.134   5.445  1.00  0.00     0.049 A 
ATOM     50  C   UNL     1      11.066   1.495   0.354  1.00  0.00     0.074 A 
ATOM     51  C   UNL     1      13.852   1.038   6.046  1.00  0.00     0.029 A 
ATOM     52  N   UNL     1      12.632   0.677   4.221  1.00  0.00    -0.354 N 
ATOM     53  N   UNL     1      11.600   1.311   1.537  1.00  0.00    -0.248 NA
ATOM     54  C   UNL     1      11.388   2.792  -0.257  1.00  0.00     0.031 C 
ATOM     55  C   UNL     1      13.970   2.151   5.206  1.00  0.00     0.029 A 
ATOM     56  C   UNL     1      13.228   1.916   4.058  1.00  0.00     0.049 A 
ATOM     57  H   UNL     1      12.039   0.245   3.565  1.00  0.00     0.167 HD
ATOM     58  C   UNL     1      12.342   2.455   1.802  1.00  0.00     0.074 A 
ATOM     59  C   UNL     1      12.200   3.320   0.649  1.00  0.00     0.031 C 
ATOM     60  C   UNL     1      13.076   2.761   2.900  1.00  0.00     0.037 A 
BRANCH  47  61
ATOM     61  C   UNL     1      12.944  -1.562   7.324  1.00  0.00     0.057 A 
ATOM     62  C   UNL     1      13.810  -2.644   7.537  1.00  0.00     0.134 A 
ATOM     63  C   UNL     1      12.470  -0.885   8.455  1.00  0.00     0.134 A 
ATOM     64  F   UNL     1      14.289  -3.347   6.500  1.00  0.00    -0.206 F 
ATOM     65  C   UNL     1      14.159  -3.060   8.823  1.00  0.00     0.040 A 
ATOM     66  C   UNL     1      12.838  -1.271   9.745  1.00  0.00     0.040 A 
ATOM     67  F   UNL     1      11.642   0.162   8.325  1.00  0.00    -0.206 F 
ATOM     68  C   UNL     1      13.676  -2.368   9.932  1.00  0.00     0.006 A 
ENDBRANCH  47  61
BRANCH  48  69
ATOM     69  C   UNL     1       9.702   0.956  -1.794  1.00  0.00     0.057 A 
ATOM     70  C   UNL     1      10.584   1.052  -2.876  1.00  0.00     0.134 A 
ATOM     71  C   UNL     1       8.350   1.227  -2.037  1.00  0.00     0.134 A 
ATOM     72  F   UNL     1      11.893   0.820  -2.702  1.00  0.00    -0.206 F 
ATOM     73  C   UNL     1      10.144   1.418  -4.149  1.00  0.00     0.040 A 
ATOM     74  C   UNL     1       7.892   1.570  -3.310  1.00  0.00     0.040 A 
ATOM     75  F   UNL     1       7.453   1.143  -1.044  1.00  0.00    -0.206 F 
ATOM     76  C   UNL     1       8.791   1.673  -4.369  1.00  0.00     0.006 A 
ENDBRANCH  48  69
BRANCH  60  77
ATOM     77  C   UNL     1      13.807   4.072   2.892  1.00  0.00     0.057 A 
ATOM     78  C   UNL     1      13.136   5.295   3.014  1.00  0.00     0.134 A 
ATOM     79  C   UNL     1      15.205   4.105   2.803  1.00  0.00     0.134 A 
ATOM     80  F   UNL     1      11.797   5.332   3.091  1.00  0.00    -0.206 F 
ATOM     81  C   UNL     1      13.829   6.507   3.023  1.00  0.00     0.040 A 
ATOM     82  C   UNL     1      15.909   5.309   2.841  1.00  0.00     0.040 A 
ATOM     83  F   UNL     1      15.909   2.968   2.694  1.00  0.00    -0.206 F 
ATOM     84  C   UNL     1      15.220   6.515   2.944  1.00  0.00     0.006 A 
ENDBRANCH  60  77
ENDBRANCH  34  35
ENDBRANCH  26  29
ENDBRANCH  24  25
ENDBRANCH   1  24
TORSDOF 12
