REMARK SMILES CCOC(=O)NC(=O)C[N@H+]1CC[C@@H](C(=O)NCCCNC(=O)c2ccc(-c3c4nc(c(-c5c(F)cccc5F)c5ccc([nH]5)c(-c5c(F)cccc5F)c5nc(c(-c6c(F)cccc6F)c6ccc3[nH]6)C=C5)C=C4)cc2)[C@@H]1C
REMARK SMILES IDX 17 1 16 2 14 3 15 4 13 6 10 7 11 8 77 9 12 11 78 12 9 13
REMARK SMILES IDX 7 14 4 15 5 16 6 17 8 19 3 20 2 21 1 22 18 23 19 24 20 25
REMARK SMILES IDX 21 26 22 28 23 29 24 30 76 31 25 32 75 33 26 34 27 35 28 36
REMARK SMILES IDX 69 37 29 38 74 39 68 40 70 41 30 42 73 43 67 44 66 45 31 47
REMARK SMILES IDX 57 48 40 49 56 50 41 51 44 52 55 53 71 54 42 55 43 56 54 58
REMARK SMILES IDX 72 59 45 60 32 61 33 62 38 63 34 64 35 65 37 66 39 67 36 68
REMARK SMILES IDX 58 69 59 70 64 71 60 72 61 73 63 74 65 75 62 76 46 77 47 78
REMARK SMILES IDX 52 79 48 80 49 81 51 82 53 83 50 84
REMARK H PARENT 16 5 10 10 6 18 20 27 70 46 44 57
REMARK Flexibility Score: inf
ROOT
ATOM      1  C   UNL     1       3.644   1.117  -2.169  1.00  0.00     0.117 C 
ENDROOT
BRANCH   1   2
ATOM      2  N   UNL     1       2.888   0.052  -1.528  1.00  0.00    -0.356 N 
ATOM      3  C   UNL     1       1.702  -0.551  -1.795  1.00  0.00     0.229 C 
ATOM      4  O   UNL     1       1.452  -1.552  -1.111  1.00  0.00    -0.275 OA
ATOM      5  H   UNL     1       3.333  -0.310  -0.728  1.00  0.00     0.163 HD
BRANCH   3   6
ATOM      6  C   UNL     1       0.630  -0.022  -2.742  1.00  0.00     0.142 C 
ATOM      7  N   UNL     1      -0.301   2.156  -3.084  1.00  0.00    -0.324 N 
ATOM      8  C   UNL     1       0.646   1.950  -4.170  1.00  0.00     0.263 C 
ATOM      9  C   UNL     1      -0.125   1.124  -2.071  1.00  0.00     0.194 C 
ATOM     10  H   UNL     1      -1.227   2.046  -3.497  1.00  0.00     0.348 HD
ATOM     11  C   UNL     1       1.010   0.468  -4.128  1.00  0.00     0.081 C 
ATOM     12  C   UNL     1      -1.511   0.671  -1.596  1.00  0.00     0.076 C 
BRANCH   7  13
ATOM     13  C   UNL     1      -0.443   3.529  -2.564  1.00  0.00     0.364 C 
BRANCH  13  14
ATOM     14  C   UNL     1       0.861   4.215  -2.153  1.00  0.00     0.284 C 
ATOM     15  C   UNL     1       0.937   3.772   0.372  1.00  0.00     0.414 C 
ATOM     16  O   UNL     1       1.734   3.873   1.311  1.00  0.00    -0.224 OA
ATOM     17  N   UNL     1       1.234   4.367  -0.834  1.00  0.00    -0.256 N 
ATOM     18  H   UNL     1       1.887   5.096  -0.726  1.00  0.00     0.176 HD
ATOM     19  O   UNL     1       1.649   4.656  -2.999  1.00  0.00    -0.268 OA
BRANCH  15  20
ATOM     20  O   UNL     1      -0.196   3.041   0.407  1.00  0.00    -0.450 OA
BRANCH  20  21
ATOM     21  C   UNL     1      -0.433   2.329   1.637  1.00  0.00     0.231 C 
ATOM     22  C   UNL     1       0.301   0.997   1.652  1.00  0.00     0.049 C 
ENDBRANCH  20  21
ENDBRANCH  15  20
ENDBRANCH  13  14
ENDBRANCH   7  13
ENDBRANCH   3   6
ENDBRANCH   1   2
BRANCH   1  23
ATOM     23  C   UNL     1       4.092   2.225  -1.215  1.00  0.00     0.042 C 
BRANCH  23  24
ATOM     24  C   UNL     1       4.955   1.795  -0.030  1.00  0.00     0.118 C 
BRANCH  24  25
ATOM     25  N   UNL     1       6.378   1.861  -0.311  1.00  0.00    -0.352 N 
ATOM     26  C   UNL     1       7.327   2.808  -0.010  1.00  0.00     0.251 C 
ATOM     27  H   UNL     1       6.726   1.087  -0.810  1.00  0.00     0.163 HD
ATOM     28  O   UNL     1       8.444   2.691  -0.516  1.00  0.00    -0.269 OA
BRANCH  26  29
ATOM     29  C   UNL     1       7.072   3.968   0.886  1.00  0.00     0.039 A 
ATOM     30  C   UNL     1       7.707   5.180   0.579  1.00  0.00     0.014 A 
ATOM     31  C   UNL     1       6.353   3.870   2.080  1.00  0.00     0.014 A 
ATOM     32  C   UNL     1       7.615   6.278   1.443  1.00  0.00     0.010 A 
ATOM     33  C   UNL     1       6.211   4.986   2.918  1.00  0.00     0.010 A 
ATOM     34  C   UNL     1       6.862   6.194   2.623  1.00  0.00    -0.014 A 
BRANCH  34  35
ATOM     35  C   UNL     1       6.816   7.335   3.580  1.00  0.00     0.031 A 
ATOM     36  C   UNL     1       7.496   7.235   4.921  1.00  0.00     0.074 A 
ATOM     37  C   UNL     1       6.169   8.472   3.257  1.00  0.00     0.049 A 
ATOM     38  N   UNL     1       7.553   8.115   5.891  1.00  0.00    -0.248 NA
ATOM     39  C   UNL     1       8.194   5.974   5.215  1.00  0.00     0.031 C 
ATOM     40  C   UNL     1       5.463   8.716   2.000  1.00  0.00     0.029 A 
ATOM     41  N   UNL     1       6.007   9.639   3.964  1.00  0.00    -0.354 N 
ATOM     42  C   UNL     1       8.277   7.511   6.912  1.00  0.00     0.074 A 
ATOM     43  C   UNL     1       8.608   6.176   6.457  1.00  0.00     0.031 C 
ATOM     44  C   UNL     1       4.964   9.964   2.014  1.00  0.00     0.029 A 
ATOM     45  C   UNL     1       5.291  10.597   3.290  1.00  0.00     0.049 A 
ATOM     46  H   UNL     1       6.369   9.775   4.869  1.00  0.00     0.167 HD
ATOM     47  C   UNL     1       8.649   8.020   8.111  1.00  0.00     0.037 A 
ATOM     48  C   UNL     1       4.938  11.845   3.653  1.00  0.00     0.037 A 
ATOM     49  C   UNL     1       8.357   9.354   8.566  1.00  0.00     0.049 A 
ATOM     50  C   UNL     1       5.345  12.382   4.996  1.00  0.00     0.074 A 
ATOM     51  C   UNL     1       8.740   9.966   9.748  1.00  0.00     0.029 A 
ATOM     52  N   UNL     1       7.610  10.282   7.859  1.00  0.00    -0.354 N 
ATOM     53  N   UNL     1       6.056  11.809   5.935  1.00  0.00    -0.248 NA
ATOM     54  C   UNL     1       4.897  13.744   5.329  1.00  0.00     0.031 C 
ATOM     55  C   UNL     1       8.201  11.258   9.768  1.00  0.00     0.029 A 
ATOM     56  C   UNL     1       7.507  11.458   8.586  1.00  0.00     0.049 A 
ATOM     57  H   UNL     1       7.212  10.130   6.972  1.00  0.00     0.167 HD
ATOM     58  C   UNL     1       6.161  12.744   6.957  1.00  0.00     0.074 A 
ATOM     59  C   UNL     1       5.446  13.925   6.522  1.00  0.00     0.031 C 
ATOM     60  C   UNL     1       6.797  12.630   8.148  1.00  0.00     0.037 A 
BRANCH  47  61
ATOM     61  C   UNL     1       9.422   7.117   9.026  1.00  0.00     0.057 A 
ATOM     62  C   UNL     1      10.768   6.809   8.792  1.00  0.00     0.134 A 
ATOM     63  C   UNL     1       8.820   6.568  10.165  1.00  0.00     0.134 A 
ATOM     64  F   UNL     1      11.398   7.295   7.712  1.00  0.00    -0.206 F 
ATOM     65  C   UNL     1      11.481   5.965   9.644  1.00  0.00     0.040 A 
ATOM     66  C   UNL     1       9.529   5.739  11.036  1.00  0.00     0.040 A 
ATOM     67  F   UNL     1       7.535   6.830  10.450  1.00  0.00    -0.206 F 
ATOM     68  C   UNL     1      10.862   5.430  10.772  1.00  0.00     0.006 A 
ENDBRANCH  47  61
BRANCH  48  69
ATOM     69  C   UNL     1       4.172  12.695   2.711  1.00  0.00     0.057 A 
ATOM     70  C   UNL     1       4.792  13.752   2.035  1.00  0.00     0.134 A 
ATOM     71  C   UNL     1       2.813  12.476   2.466  1.00  0.00     0.134 A 
ATOM     72  F   UNL     1       6.088  14.023   2.250  1.00  0.00    -0.206 F 
ATOM     73  C   UNL     1       4.085  14.567   1.151  1.00  0.00     0.040 A 
ATOM     74  C   UNL     1       2.097  13.273   1.572  1.00  0.00     0.040 A 
ATOM     75  F   UNL     1       2.166  11.478   3.086  1.00  0.00    -0.206 F 
ATOM     76  C   UNL     1       2.733  14.324   0.914  1.00  0.00     0.006 A 
ENDBRANCH  48  69
BRANCH  60  77
ATOM     77  C   UNL     1       6.770  13.822   9.057  1.00  0.00     0.057 A 
ATOM     78  C   UNL     1       5.630  14.156   9.798  1.00  0.00     0.134 A 
ATOM     79  C   UNL     1       7.906  14.625   9.216  1.00  0.00     0.134 A 
ATOM     80  F   UNL     1       4.506  13.434   9.678  1.00  0.00    -0.206 F 
ATOM     81  C   UNL     1       5.616  15.258  10.655  1.00  0.00     0.040 A 
ATOM     82  C   UNL     1       7.910  15.718  10.084  1.00  0.00     0.040 A 
ATOM     83  F   UNL     1       9.032  14.355   8.538  1.00  0.00    -0.206 F 
ATOM     84  C   UNL     1       6.761  16.039  10.804  1.00  0.00     0.006 A 
ENDBRANCH  60  77
ENDBRANCH  34  35
ENDBRANCH  26  29
ENDBRANCH  24  25
ENDBRANCH  23  24
ENDBRANCH   1  23
TORSDOF 14
