REMARK SMILES Cc1ccc(NC(=O)C[C@@H](C(=O)NCCCNC(=O)c2ccc(-c3c4nc(c(-c5c(F)cccc5F)c5ccc([nH]5)c(-c5c(F)cccc5F)c5nc(c(-c6c(F)cccc6F)c6ccc3[nH]6)C=C5)C=C4)cc2)[NH+](C)C)cc1Cl
REMARK SMILES IDX 14 1 13 2 11 3 12 4 10 6 9 7 7 8 6 9 8 11 5 12 1 13 2 14
REMARK SMILES IDX 3 15 78 16 4 17 77 18 79 19 74 20 75 21 76 22 15 24 16 25
REMARK SMILES IDX 17 26 18 27 19 29 20 30 21 31 73 32 22 33 72 34 23 35 24 36
REMARK SMILES IDX 25 37 66 38 26 39 71 40 65 41 67 42 27 43 70 44 64 45 63 46
REMARK SMILES IDX 28 48 54 49 37 50 53 51 38 52 41 53 52 54 68 55 39 56 40 57
REMARK SMILES IDX 51 59 69 60 42 61 29 62 30 63 35 64 31 65 32 66 34 67 36 68
REMARK SMILES IDX 33 69 55 70 56 71 61 72 57 73 58 74 60 75 62 76 59 77 43 78
REMARK SMILES IDX 44 79 49 80 45 81 46 82 48 83 50 84 47 85
REMARK H PARENT 13 5 6 10 74 23 17 28 67 47 41 58
REMARK Flexibility Score: inf
ROOT
ATOM      1  C   UNL     1      -3.063  -2.869  -2.061  1.00  0.00     0.118 C 
ENDROOT
BRANCH   1   2
ATOM      2  N   UNL     1      -1.955  -1.952  -1.835  1.00  0.00    -0.351 N 
ATOM      3  C   UNL     1      -0.637  -2.141  -1.524  1.00  0.00     0.278 C 
ATOM      4  O   UNL     1       0.073  -1.133  -1.601  1.00  0.00    -0.268 OA
ATOM      5  H   UNL     1      -2.205  -1.004  -1.926  1.00  0.00     0.163 HD
BRANCH   3   6
ATOM      6  C   UNL     1      -0.078  -3.531  -1.123  1.00  0.00     0.283 C 
BRANCH   6   7
ATOM      7  C   UNL     1      -0.241  -3.903   0.365  1.00  0.00     0.175 C 
BRANCH   7   8
ATOM      8  C   UNL     1      -1.538  -3.547   1.043  1.00  0.00     0.230 C 
ATOM      9  N   UNL     1      -1.847  -2.292   1.484  1.00  0.00    -0.326 N 
ATOM     10  H   UNL     1      -2.719  -2.237   1.936  1.00  0.00     0.169 HD
ATOM     11  O   UNL     1      -2.402  -4.421   1.185  1.00  0.00    -0.274 OA
BRANCH   9  12
ATOM     12  C   UNL     1      -1.169  -1.062   1.422  1.00  0.00     0.042 A 
ATOM     13  C   UNL     1       0.568   2.738   0.335  1.00  0.00     0.046 C 
ATOM     14  C   UNL     1      -0.015   1.445   0.829  1.00  0.00    -0.032 A 
ATOM     15  C   UNL     1      -1.401   1.314   0.962  1.00  0.00     0.007 A 
ATOM     16  C   UNL     1       0.787   0.336   1.124  1.00  0.00     0.046 A 
ATOM     17  C   UNL     1      -1.968   0.079   1.289  1.00  0.00     0.026 A 
ATOM     18  C   UNL     1       0.213  -0.907   1.425  1.00  0.00     0.047 A 
ATOM     19  Cl  UNL     1       2.514   0.442   1.095  1.00  0.00    -0.084 Cl
ENDBRANCH   9  12
ENDBRANCH   7   8
ENDBRANCH   6   7
BRANCH   6  20
ATOM     20  N   UNL     1       1.341  -3.763  -1.589  1.00  0.00    -0.329 N 
ATOM     21  C   UNL     1       1.561  -3.382  -2.987  1.00  0.00     0.333 C 
ATOM     22  C   UNL     1       2.381  -3.150  -0.758  1.00  0.00     0.333 C 
ATOM     23  H   UNL     1       1.437  -4.774  -1.493  1.00  0.00     0.348 HD
ENDBRANCH   6  20
ENDBRANCH   3   6
ENDBRANCH   1   2
BRANCH   1  24
ATOM     24  C   UNL     1      -4.251  -2.692  -1.105  1.00  0.00     0.042 C 
BRANCH  24  25
ATOM     25  C   UNL     1      -4.704  -1.262  -0.814  1.00  0.00     0.118 C 
BRANCH  25  26
ATOM     26  N   UNL     1      -5.775  -0.804  -1.679  1.00  0.00    -0.352 N 
ATOM     27  C   UNL     1      -7.057  -0.417  -1.380  1.00  0.00     0.251 C 
ATOM     28  H   UNL     1      -5.545  -0.763  -2.635  1.00  0.00     0.163 HD
ATOM     29  O   UNL     1      -7.835  -0.174  -2.310  1.00  0.00    -0.269 OA
BRANCH  27  30
ATOM     30  C   UNL     1      -7.556  -0.304   0.014  1.00  0.00     0.039 A 
ATOM     31  C   UNL     1      -8.847  -0.772   0.290  1.00  0.00     0.014 A 
ATOM     32  C   UNL     1      -6.830   0.326   1.031  1.00  0.00     0.014 A 
ATOM     33  C   UNL     1      -9.388  -0.650   1.574  1.00  0.00     0.010 A 
ATOM     34  C   UNL     1      -7.352   0.401   2.331  1.00  0.00     0.010 A 
ATOM     35  C   UNL     1      -8.640  -0.080   2.616  1.00  0.00    -0.014 A 
BRANCH  35  36
ATOM     36  C   UNL     1      -9.213   0.016   3.989  1.00  0.00     0.031 A 
ATOM     37  C   UNL     1      -9.560   1.351   4.594  1.00  0.00     0.074 A 
ATOM     38  C   UNL     1      -9.424  -1.105   4.708  1.00  0.00     0.049 A 
ATOM     39  N   UNL     1     -10.082   1.618   5.767  1.00  0.00    -0.248 NA
ATOM     40  C   UNL     1      -9.271   2.543   3.783  1.00  0.00     0.031 C 
ATOM     41  C   UNL     1      -9.110  -2.463   4.266  1.00  0.00     0.029 A 
ATOM     42  N   UNL     1      -9.954  -1.279   5.964  1.00  0.00    -0.354 N 
ATOM     43  C   UNL     1     -10.176   3.002   5.838  1.00  0.00     0.074 A 
ATOM     44  C   UNL     1      -9.620   3.522   4.606  1.00  0.00     0.031 C 
ATOM     45  C   UNL     1      -9.475  -3.332   5.222  1.00  0.00     0.029 A 
ATOM     46  C   UNL     1     -10.025  -2.594   6.356  1.00  0.00     0.049 A 
ATOM     47  H   UNL     1     -10.256  -0.531   6.530  1.00  0.00     0.167 HD
ATOM     48  C   UNL     1     -10.696   3.772   6.825  1.00  0.00     0.037 A 
ATOM     49  C   UNL     1     -10.480  -3.147   7.497  1.00  0.00     0.037 A 
ATOM     50  C   UNL     1     -11.276   3.266   8.043  1.00  0.00     0.049 A 
ATOM     51  C   UNL     1     -11.046  -2.272   8.581  1.00  0.00     0.074 A 
ATOM     52  C   UNL     1     -11.880   3.974   9.069  1.00  0.00     0.029 A 
ATOM     53  N   UNL     1     -11.324   1.928   8.401  1.00  0.00    -0.354 N 
ATOM     54  N   UNL     1     -11.187  -0.969   8.601  1.00  0.00    -0.248 NA
ATOM     55  C   UNL     1     -11.522  -2.946   9.798  1.00  0.00     0.031 C 
ATOM     56  C   UNL     1     -12.259   3.068  10.066  1.00  0.00     0.029 A 
ATOM     57  C   UNL     1     -11.926   1.792   9.643  1.00  0.00     0.049 A 
ATOM     58  H   UNL     1     -10.980   1.185   7.855  1.00  0.00     0.167 HD
ATOM     59  C   UNL     1     -11.789  -0.671   9.817  1.00  0.00     0.074 A 
ATOM     60  C   UNL     1     -11.998  -1.929  10.503  1.00  0.00     0.031 C 
ATOM     61  C   UNL     1     -12.137   0.538  10.318  1.00  0.00     0.037 A 
BRANCH  48  62
ATOM     62  C   UNL     1     -10.665   5.260   6.631  1.00  0.00     0.057 A 
ATOM     63  C   UNL     1     -11.520   5.902   5.726  1.00  0.00     0.134 A 
ATOM     64  C   UNL     1      -9.808   6.064   7.393  1.00  0.00     0.134 A 
ATOM     65  F   UNL     1     -12.360   5.188   4.961  1.00  0.00    -0.206 F 
ATOM     66  C   UNL     1     -11.508   7.289   5.569  1.00  0.00     0.040 A 
ATOM     67  C   UNL     1      -9.803   7.454   7.261  1.00  0.00     0.040 A 
ATOM     68  F   UNL     1      -8.972   5.513   8.285  1.00  0.00    -0.206 F 
ATOM     69  C   UNL     1     -10.651   8.069   6.343  1.00  0.00     0.006 A 
ENDBRANCH  48  62
BRANCH  49  70
ATOM     70  C   UNL     1     -10.445  -4.621   7.669  1.00  0.00     0.057 A 
ATOM     71  C   UNL     1     -11.621  -5.378   7.643  1.00  0.00     0.134 A 
ATOM     72  C   UNL     1      -9.240  -5.302   7.876  1.00  0.00     0.134 A 
ATOM     73  F   UNL     1     -12.808  -4.777   7.472  1.00  0.00    -0.206 F 
ATOM     74  C   UNL     1     -11.604  -6.761   7.831  1.00  0.00     0.040 A 
ATOM     75  C   UNL     1      -9.205  -6.687   8.043  1.00  0.00     0.040 A 
ATOM     76  F   UNL     1      -8.080  -4.631   7.909  1.00  0.00    -0.206 F 
ATOM     77  C   UNL     1     -10.391  -7.420   8.027  1.00  0.00     0.006 A 
ENDBRANCH  49  70
BRANCH  61  78
ATOM     78  C   UNL     1     -12.806   0.561  11.661  1.00  0.00     0.057 A 
ATOM     79  C   UNL     1     -12.095   0.330  12.844  1.00  0.00     0.134 A 
ATOM     80  C   UNL     1     -14.172   0.851  11.773  1.00  0.00     0.134 A 
ATOM     81  F   UNL     1     -10.787   0.034  12.804  1.00  0.00    -0.206 F 
ATOM     82  C   UNL     1     -12.722   0.367  14.091  1.00  0.00     0.040 A 
ATOM     83  C   UNL     1     -14.806   0.912  13.015  1.00  0.00     0.040 A 
ATOM     84  F   UNL     1     -14.911   1.089  10.678  1.00  0.00    -0.206 F 
ATOM     85  C   UNL     1     -14.081   0.664  14.179  1.00  0.00     0.006 A 
ENDBRANCH  61  78
ENDBRANCH  35  36
ENDBRANCH  27  30
ENDBRANCH  25  26
ENDBRANCH  24  25
ENDBRANCH   1  24
TORSDOF 14
