REMARK SMILES C[C@@H](Nc1ccc(C(=O)NCCCNC(=O)c2ccc(-c3c4nc(c(-c5c(F)cccc5F)c5ccc([nH]5)c(-c5c(F)cccc5F)c5nc(c(-c6c(F)cccc6F)c6ccc3[nH]6)C=C5)C=C4)cc2)cc1)C1CC[NH+](C)CC1
REMARK SMILES IDX 11 1 10 2 8 3 9 4 7 6 4 7 5 8 72 9 6 10 71 11 3 12 2 14 1 15
REMARK SMILES IDX 73 16 74 17 79 18 75 19 78 20 76 21 77 22 12 24 13 25 14 26
REMARK SMILES IDX 15 27 16 29 17 30 18 31 70 32 19 33 69 34 20 35 21 36 22 37
REMARK SMILES IDX 63 38 23 39 68 40 62 41 64 42 24 43 67 44 61 45 60 46 25 48
REMARK SMILES IDX 51 49 34 50 50 51 35 52 38 53 49 54 65 55 36 56 37 57 48 59
REMARK SMILES IDX 66 60 39 61 26 62 27 63 32 64 28 65 29 66 31 67 33 68 30 69
REMARK SMILES IDX 52 70 53 71 58 72 54 73 55 74 57 75 59 76 56 77 40 78 41 79
REMARK SMILES IDX 46 80 42 81 43 82 45 83 47 84 44 85
REMARK H PARENT 10 5 3 13 76 23 14 28 64 47 38 58
REMARK Flexibility Score: inf
ROOT
ATOM      1  C   UNL     1      -4.303   5.498  -2.279  1.00  0.00     0.118 C 
ENDROOT
BRANCH   1   2
ATOM      2  N   UNL     1      -3.617   5.840  -3.512  1.00  0.00    -0.352 N 
ATOM      3  C   UNL     1      -2.334   5.612  -3.939  1.00  0.00     0.251 C 
ATOM      4  O   UNL     1      -2.020   5.987  -5.067  1.00  0.00    -0.269 OA
ATOM      5  H   UNL     1      -4.176   6.325  -4.162  1.00  0.00     0.163 HD
BRANCH   3   6
ATOM      6  C   UNL     1      -1.353   4.852  -3.127  1.00  0.00     0.039 A 
ATOM      7  C   UNL     1       0.361   3.116  -1.712  1.00  0.00     0.034 A 
ATOM      8  C   UNL     1       0.307   3.091  -3.109  1.00  0.00     0.026 A 
ATOM      9  C   UNL     1      -0.362   4.110  -1.046  1.00  0.00     0.026 A 
ATOM     10  C   UNL     1      -0.543   3.944  -3.813  1.00  0.00     0.016 A 
ATOM     11  C   UNL     1      -1.204   4.984  -1.747  1.00  0.00     0.016 A 
BRANCH   7  12
ATOM     12  N   UNL     1       1.005   2.076  -1.077  1.00  0.00    -0.382 N 
ATOM     13  H   UNL     1       1.753   1.662  -1.564  1.00  0.00     0.160 HD
BRANCH  12  14
ATOM     14  C   UNL     1       0.697   1.518   0.244  1.00  0.00     0.079 C 
ATOM     15  C   UNL     1       1.627   0.310   0.415  1.00  0.00     0.031 C 
BRANCH  14  16
ATOM     16  C   UNL     1      -0.832   1.212   0.409  1.00  0.00     0.022 C 
ATOM     17  C   UNL     1      -1.317   1.425   1.851  1.00  0.00     0.067 C 
ATOM     18  C   UNL     1      -1.337  -0.144  -0.105  1.00  0.00     0.067 C 
ATOM     19  C   UNL     1      -1.010   0.245   2.763  1.00  0.00     0.262 C 
ATOM     20  C   UNL     1      -1.152  -1.306   0.875  1.00  0.00     0.262 C 
ATOM     21  N   UNL     1      -1.591  -0.993   2.240  1.00  0.00    -0.337 N 
ATOM     22  C   UNL     1      -1.283  -2.110   3.137  1.00  0.00     0.332 C 
ATOM     23  H   UNL     1      -2.600  -0.849   2.198  1.00  0.00     0.347 HD
ENDBRANCH  14  16
ENDBRANCH  12  14
ENDBRANCH   7  12
ENDBRANCH   3   6
ENDBRANCH   1   2
BRANCH   1  24
ATOM     24  C   UNL     1      -4.432   6.720  -1.370  1.00  0.00     0.042 C 
BRANCH  24  25
ATOM     25  C   UNL     1      -5.368   7.794  -1.921  1.00  0.00     0.118 C 
BRANCH  25  26
ATOM     26  N   UNL     1      -6.763   7.387  -1.873  1.00  0.00    -0.352 N 
ATOM     27  C   UNL     1      -7.846   8.016  -1.313  1.00  0.00     0.251 C 
ATOM     28  H   UNL     1      -6.960   6.527  -2.309  1.00  0.00     0.163 HD
ATOM     29  O   UNL     1      -8.908   7.409  -1.213  1.00  0.00    -0.269 OA
BRANCH  27  30
ATOM     30  C   UNL     1      -7.751   9.409  -0.818  1.00  0.00     0.039 A 
ATOM     31  C   UNL     1      -8.424   9.741   0.362  1.00  0.00     0.014 A 
ATOM     32  C   UNL     1      -7.068  10.399  -1.530  1.00  0.00     0.014 A 
ATOM     33  C   UNL     1      -8.382  11.051   0.846  1.00  0.00     0.010 A 
ATOM     34  C   UNL     1      -6.974  11.692  -1.014  1.00  0.00     0.010 A 
ATOM     35  C   UNL     1      -7.640  12.034   0.172  1.00  0.00    -0.014 A 
BRANCH  35  36
ATOM     36  C   UNL     1      -7.575  13.425   0.688  1.00  0.00     0.031 A 
ATOM     37  C   UNL     1      -8.201  14.552  -0.087  1.00  0.00     0.074 A 
ATOM     38  C   UNL     1      -6.922  13.680   1.839  1.00  0.00     0.049 A 
ATOM     39  N   UNL     1      -8.214  15.834   0.182  1.00  0.00    -0.248 NA
ATOM     40  C   UNL     1      -8.886  14.196  -1.339  1.00  0.00     0.031 C 
ATOM     41  C   UNL     1      -6.241  12.682   2.665  1.00  0.00     0.029 A 
ATOM     42  N   UNL     1      -6.720  14.861   2.510  1.00  0.00    -0.354 N 
ATOM     43  C   UNL     1      -8.895  16.435  -0.869  1.00  0.00     0.074 A 
ATOM     44  C   UNL     1      -9.240  15.385  -1.804  1.00  0.00     0.031 C 
ATOM     45  C   UNL     1      -5.716  13.288   3.742  1.00  0.00     0.029 A 
ATOM     46  C   UNL     1      -5.995  14.719   3.668  1.00  0.00     0.049 A 
ATOM     47  H   UNL     1      -7.062  15.727   2.191  1.00  0.00     0.167 HD
ATOM     48  C   UNL     1      -9.223  17.739  -1.031  1.00  0.00     0.037 A 
ATOM     49  C   UNL     1      -5.599  15.639   4.567  1.00  0.00     0.037 A 
ATOM     50  C   UNL     1      -8.905  18.780  -0.089  1.00  0.00     0.049 A 
ATOM     51  C   UNL     1      -5.978  17.079   4.363  1.00  0.00     0.074 A 
ATOM     52  C   UNL     1      -9.236  20.123  -0.143  1.00  0.00     0.029 A 
ATOM     53  N   UNL     1      -8.184  18.592   1.080  1.00  0.00    -0.354 N 
ATOM     54  N   UNL     1      -6.670  17.623   3.392  1.00  0.00    -0.248 NA
ATOM     55  C   UNL     1      -5.525  18.034   5.386  1.00  0.00     0.031 C 
ATOM     56  C   UNL     1      -8.689  20.753   0.980  1.00  0.00     0.029 A 
ATOM     57  C   UNL     1      -8.050  19.796   1.750  1.00  0.00     0.049 A 
ATOM     58  H   UNL     1      -7.822  17.730   1.388  1.00  0.00     0.167 HD
ATOM     59  C   UNL     1      -6.759  18.974   3.699  1.00  0.00     0.074 A 
ATOM     60  C   UNL     1      -6.061  19.166   4.954  1.00  0.00     0.031 C 
ATOM     61  C   UNL     1      -7.364  19.967   3.004  1.00  0.00     0.037 A 
BRANCH  48  62
ATOM     62  C   UNL     1      -9.977  18.114  -2.272  1.00  0.00     0.057 A 
ATOM     63  C   UNL     1     -11.326  17.775  -2.443  1.00  0.00     0.134 A 
ATOM     64  C   UNL     1      -9.365  18.860  -3.287  1.00  0.00     0.134 A 
ATOM     65  F   UNL     1     -11.967  17.052  -1.513  1.00  0.00    -0.206 F 
ATOM     66  C   UNL     1     -12.033  18.147  -3.587  1.00  0.00     0.040 A 
ATOM     67  C   UNL     1     -10.068  19.258  -4.426  1.00  0.00     0.040 A 
ATOM     68  F   UNL     1      -8.078  19.223  -3.184  1.00  0.00    -0.206 F 
ATOM     69  C   UNL     1     -11.405  18.897  -4.580  1.00  0.00     0.006 A 
ENDBRANCH  48  62
BRANCH  49  70
ATOM     70  C   UNL     1      -4.817  15.227   5.759  1.00  0.00     0.057 A 
ATOM     71  C   UNL     1      -5.387  15.251   7.038  1.00  0.00     0.134 A 
ATOM     72  C   UNL     1      -3.483  14.818   5.654  1.00  0.00     0.134 A 
ATOM     73  F   UNL     1      -6.656  15.653   7.203  1.00  0.00    -0.206 F 
ATOM     74  C   UNL     1      -4.652  14.904   8.172  1.00  0.00     0.040 A 
ATOM     75  C   UNL     1      -2.743  14.446   6.777  1.00  0.00     0.040 A 
ATOM     76  F   UNL     1      -2.883  14.767   4.456  1.00  0.00    -0.206 F 
ATOM     77  C   UNL     1      -3.326  14.496   8.042  1.00  0.00     0.006 A 
ENDBRANCH  49  70
BRANCH  61  78
ATOM     78  C   UNL     1      -7.327  21.342   3.602  1.00  0.00     0.057 A 
ATOM     79  C   UNL     1      -6.162  22.117   3.598  1.00  0.00     0.134 A 
ATOM     80  C   UNL     1      -8.482  21.908   4.155  1.00  0.00     0.134 A 
ATOM     81  F   UNL     1      -5.019  21.625   3.095  1.00  0.00    -0.206 F 
ATOM     82  C   UNL     1      -6.140  23.401   4.144  1.00  0.00     0.040 A 
ATOM     83  C   UNL     1      -8.479  23.200   4.683  1.00  0.00     0.040 A 
ATOM     84  F   UNL     1      -9.633  21.219   4.182  1.00  0.00    -0.206 F 
ATOM     85  C   UNL     1      -7.304  23.948   4.682  1.00  0.00     0.006 A 
ENDBRANCH  61  78
ENDBRANCH  35  36
ENDBRANCH  27  30
ENDBRANCH  25  26
ENDBRANCH  24  25
ENDBRANCH   1  24
TORSDOF 13
