REMARK SMILES Cc1nc(-c2cccc(N3C[C@H](C(=O)NCCCNC(=O)c4ccc(-c5c6nc(c(-c7c(F)cccc7F)c7ccc([nH]7)c(-c7c(F)cccc7F)c7nc(c(-c8c(F)cccc8F)c8ccc5[nH]8)C=C7)C=C6)cc4)CC3=O)c2)no1
REMARK SMILES IDX 17 1 16 2 15 3 13 4 14 5 12 7 10 8 11 9 77 10 76 11 78 12
REMARK SMILES IDX 9 13 5 14 6 15 79 16 7 17 8 18 4 19 1 20 2 21 3 22 81 23
REMARK SMILES IDX 80 24 18 25 19 26 20 27 21 29 22 30 23 31 75 32 24 33 74 34
REMARK SMILES IDX 25 35 26 36 27 37 68 38 28 39 73 40 67 41 69 42 29 43 72 44
REMARK SMILES IDX 66 45 65 46 30 48 56 49 39 50 55 51 40 52 43 53 54 54 70 55
REMARK SMILES IDX 41 56 42 57 53 59 71 60 44 61 31 62 32 63 37 64 33 65 34 66
REMARK SMILES IDX 36 67 38 68 35 69 57 70 58 71 63 72 59 73 60 74 62 75 64 76
REMARK SMILES IDX 61 77 45 78 46 79 51 80 47 81 48 82 50 83 52 84 49 85
REMARK H PARENT 15 6 19 28 69 47 43 58
REMARK Flexibility Score: inf
ROOT
ATOM      1  C   UNL     1       6.016   9.488   4.169  1.00  0.00     0.042 C 
ENDROOT
BRANCH   1   2
ATOM      2  C   UNL     1       5.890   8.489   3.022  1.00  0.00     0.117 C 
BRANCH   2   3
ATOM      3  N   UNL     1       6.535   7.227   3.347  1.00  0.00    -0.356 N 
ATOM      4  C   UNL     1       5.982   6.047   3.753  1.00  0.00     0.225 C 
ATOM      5  O   UNL     1       6.731   5.144   4.114  1.00  0.00    -0.275 OA
ATOM      6  H   UNL     1       7.515   7.223   3.261  1.00  0.00     0.163 HD
BRANCH   4   7
ATOM      7  C   UNL     1       4.480   5.880   3.654  1.00  0.00     0.107 C 
ATOM      8  N   UNL     1       3.915   4.017   2.343  1.00  0.00    -0.312 N 
ATOM      9  C   UNL     1       4.149   5.433   2.240  1.00  0.00     0.139 C 
ATOM     10  C   UNL     1       3.726   3.600   3.658  1.00  0.00     0.227 C 
ATOM     11  C   UNL     1       3.934   4.784   4.563  1.00  0.00     0.116 C 
ATOM     12  O   UNL     1       3.424   2.486   4.062  1.00  0.00    -0.274 OA
BRANCH   8  13
ATOM     13  C   UNL     1       3.748   3.191   1.215  1.00  0.00     0.044 A 
ATOM     14  C   UNL     1       2.508   1.455   0.047  1.00  0.00     0.025 A 
ATOM     15  C   UNL     1       3.450   1.484  -0.988  1.00  0.00     0.012 A 
ATOM     16  C   UNL     1       2.679   2.292   1.157  1.00  0.00     0.038 A 
ATOM     17  C   UNL     1       4.519   2.380  -0.936  1.00  0.00     0.003 A 
ATOM     18  C   UNL     1       4.652   3.249   0.149  1.00  0.00     0.026 A 
BRANCH  14  19
ATOM     19  C   UNL     1       1.333   0.608  -0.038  1.00  0.00     0.202 A 
ATOM     20  C   UNL     1      -2.153  -0.073   0.066  1.00  0.00     0.114 C 
ATOM     21  C   UNL     1      -0.688   0.054   0.001  1.00  0.00     0.223 A 
ATOM     22  N   UNL     1       0.076   1.086   0.267  1.00  0.00    -0.191 NA
ATOM     23  O   UNL     1       0.007  -1.040  -0.421  1.00  0.00    -0.339 OA
ATOM     24  N   UNL     1       1.350  -0.664  -0.466  1.00  0.00    -0.057 NA
ENDBRANCH  14  19
ENDBRANCH   8  13
ENDBRANCH   4   7
ENDBRANCH   2   3
ENDBRANCH   1   2
BRANCH   1  25
ATOM     25  C   UNL     1       7.455   9.912   4.460  1.00  0.00     0.118 C 
BRANCH  25  26
ATOM     26  N   UNL     1       8.076  10.593   3.333  1.00  0.00    -0.352 N 
ATOM     27  C   UNL     1       8.662  11.831   3.255  1.00  0.00     0.251 C 
ATOM     28  H   UNL     1       8.075  10.083   2.490  1.00  0.00     0.163 HD
ATOM     29  O   UNL     1       8.959  12.287   2.154  1.00  0.00    -0.269 OA
BRANCH  27  30
ATOM     30  C   UNL     1       8.924  12.625   4.474  1.00  0.00     0.039 A 
ATOM     31  C   UNL     1       8.710  14.006   4.433  1.00  0.00     0.014 A 
ATOM     32  C   UNL     1       9.414  12.031   5.640  1.00  0.00     0.014 A 
ATOM     33  C   UNL     1       8.929  14.779   5.575  1.00  0.00     0.010 A 
ATOM     34  C   UNL     1       9.556  12.789   6.801  1.00  0.00     0.010 A 
ATOM     35  C   UNL     1       9.320  14.172   6.779  1.00  0.00    -0.014 A 
BRANCH  35  36
ATOM     36  C   UNL     1       9.485  14.970   8.021  1.00  0.00     0.031 A 
ATOM     37  C   UNL     1      10.830  15.076   8.688  1.00  0.00     0.074 A 
ATOM     38  C   UNL     1       8.409  15.557   8.582  1.00  0.00     0.049 A 
ATOM     39  N   UNL     1      11.157  15.688   9.798  1.00  0.00    -0.248 NA
ATOM     40  C   UNL     1      11.951  14.383   8.033  1.00  0.00     0.031 C 
ATOM     41  C   UNL     1       7.043  15.495   8.059  1.00  0.00     0.029 A 
ATOM     42  N   UNL     1       8.294  16.318   9.718  1.00  0.00    -0.354 N 
ATOM     43  C   UNL     1      12.512  15.441   9.982  1.00  0.00     0.074 A 
ATOM     44  C   UNL     1      12.934  14.580   8.899  1.00  0.00     0.031 C 
ATOM     45  C   UNL     1       6.234  16.212   8.855  1.00  0.00     0.029 A 
ATOM     46  C   UNL     1       7.013  16.748   9.966  1.00  0.00     0.049 A 
ATOM     47  H   UNL     1       9.058  16.535  10.301  1.00  0.00     0.167 HD
ATOM     48  C   UNL     1      13.335  15.908  10.952  1.00  0.00     0.037 A 
ATOM     49  C   UNL     1       6.520  17.487  10.978  1.00  0.00     0.037 A 
ATOM     50  C   UNL     1      12.916  16.780  12.018  1.00  0.00     0.049 A 
ATOM     51  C   UNL     1       7.451  17.976  12.053  1.00  0.00     0.074 A 
ATOM     52  C   UNL     1      13.687  17.356  13.013  1.00  0.00     0.029 A 
ATOM     53  N   UNL     1      11.611  17.195  12.234  1.00  0.00    -0.354 N 
ATOM     54  N   UNL     1       8.745  17.797  12.172  1.00  0.00    -0.248 NA
ATOM     55  C   UNL     1       6.854  18.776  13.131  1.00  0.00     0.031 C 
ATOM     56  C   UNL     1      12.839  18.074  13.863  1.00  0.00     0.029 A 
ATOM     57  C   UNL     1      11.549  17.997  13.363  1.00  0.00     0.049 A 
ATOM     58  H   UNL     1      10.841  16.956  11.668  1.00  0.00     0.167 HD
ATOM     59  C   UNL     1       9.120  18.489  13.317  1.00  0.00     0.074 A 
ATOM     60  C   UNL     1       7.920  19.102  13.847  1.00  0.00     0.031 C 
ATOM     61  C   UNL     1      10.350  18.608  13.877  1.00  0.00     0.037 A 
BRANCH  48  62
ATOM     62  C   UNL     1      14.774  15.478  10.906  1.00  0.00     0.057 A 
ATOM     63  C   UNL     1      15.649  15.918   9.904  1.00  0.00     0.134 A 
ATOM     64  C   UNL     1      15.301  14.639  11.897  1.00  0.00     0.134 A 
ATOM     65  F   UNL     1      15.209  16.714   8.918  1.00  0.00    -0.206 F 
ATOM     66  C   UNL     1      16.986  15.514   9.870  1.00  0.00     0.040 A 
ATOM     67  C   UNL     1      16.643  14.254  11.892  1.00  0.00     0.040 A 
ATOM     68  F   UNL     1      14.523  14.187  12.892  1.00  0.00    -0.206 F 
ATOM     69  C   UNL     1      17.488  14.686  10.871  1.00  0.00     0.006 A 
ENDBRANCH  48  62
BRANCH  49  70
ATOM     70  C   UNL     1       5.076  17.832  11.015  1.00  0.00     0.057 A 
ATOM     71  C   UNL     1       4.645  19.151  10.827  1.00  0.00     0.134 A 
ATOM     72  C   UNL     1       4.095  16.862  11.252  1.00  0.00     0.134 A 
ATOM     73  F   UNL     1       5.538  20.128  10.614  1.00  0.00    -0.206 F 
ATOM     74  C   UNL     1       3.295  19.497  10.898  1.00  0.00     0.040 A 
ATOM     75  C   UNL     1       2.739  17.189  11.298  1.00  0.00     0.040 A 
ATOM     76  F   UNL     1       4.440  15.578  11.431  1.00  0.00    -0.206 F 
ATOM     77  C   UNL     1       2.336  18.512  11.130  1.00  0.00     0.006 A 
ENDBRANCH  49  70
BRANCH  61  78
ATOM     78  C   UNL     1      10.467  19.468  15.103  1.00  0.00     0.057 A 
ATOM     79  C   UNL     1       9.935  19.079  16.339  1.00  0.00     0.134 A 
ATOM     80  C   UNL     1      11.149  20.691  15.050  1.00  0.00     0.134 A 
ATOM     81  F   UNL     1       9.258  17.927  16.456  1.00  0.00    -0.206 F 
ATOM     82  C   UNL     1      10.052  19.889  17.471  1.00  0.00     0.040 A 
ATOM     83  C   UNL     1      11.300  21.493  16.181  1.00  0.00     0.040 A 
ATOM     84  F   UNL     1      11.691  21.119  13.900  1.00  0.00    -0.206 F 
ATOM     85  C   UNL     1      10.743  21.096  17.395  1.00  0.00     0.006 A 
ENDBRANCH  61  78
ENDBRANCH  35  36
ENDBRANCH  27  30
ENDBRANCH  25  26
ENDBRANCH   1  25
TORSDOF 12
