REMARK SMILES C[C@@H]1SCCC[C@@]1(CC(=O)NCCCNC(=O)c1ccc(-c2c3nc(c(-c4c(F)cccc4F)c4ccc([nH]4)c(-c4c(F)cccc4F)c4nc(c(-c5c(F)cccc5F)c5ccc2[nH]5)C=C4)C=C3)cc1)[NH+]1CCCC1
REMARK SMILES IDX 13 1 12 2 11 3 9 4 10 5 8 7 7 8 1 9 2 10 3 11 4 12 6 13 5 14
REMARK SMILES IDX 72 15 73 16 76 17 74 19 75 20 14 21 15 22 16 23 17 25 18 26
REMARK SMILES IDX 19 27 71 28 20 29 70 30 21 31 22 32 23 33 64 34 24 35 69 36
REMARK SMILES IDX 63 37 65 38 25 39 68 40 62 41 61 42 26 44 52 45 35 46 51 47
REMARK SMILES IDX 36 48 39 49 50 50 66 51 37 52 38 53 49 55 67 56 40 57 27 58
REMARK SMILES IDX 28 59 33 60 29 61 30 62 32 63 34 64 31 65 53 66 54 67 59 68
REMARK SMILES IDX 55 69 56 70 58 71 60 72 57 73 41 74 42 75 47 76 43 77 44 78
REMARK SMILES IDX 46 79 48 80 45 81
REMARK H PARENT 11 6 72 18 15 24 65 43 39 54
REMARK Flexibility Score: inf
ROOT
ATOM      1  C   UNL     1       3.430  -5.785  -1.406  1.00  0.00     0.042 C 
ENDROOT
BRANCH   1   2
ATOM      2  C   UNL     1       4.012  -4.558  -2.117  1.00  0.00     0.117 C 
BRANCH   2   3
ATOM      3  N   UNL     1       3.203  -4.101  -3.229  1.00  0.00    -0.356 N 
ATOM      4  C   UNL     1       2.241  -3.150  -3.336  1.00  0.00     0.226 C 
ATOM      5  O   UNL     1       1.712  -3.038  -4.447  1.00  0.00    -0.275 OA
ATOM      6  H   UNL     1       3.389  -4.573  -4.073  1.00  0.00     0.163 HD
BRANCH   4   7
ATOM      7  C   UNL     1       1.847  -2.208  -2.208  1.00  0.00     0.169 C 
BRANCH   7   8
ATOM      8  C   UNL     1       0.930  -2.567  -0.954  1.00  0.00     0.118 C 
ATOM      9  C   UNL     1       1.106   0.058  -0.563  1.00  0.00     0.026 C 
ATOM     10  C   UNL     1       0.193  -1.191  -0.552  1.00  0.00     0.105 C 
ATOM     11  S   UNL     1      -0.648  -1.160   1.091  1.00  0.00    -0.152 SA
ATOM     12  C   UNL     1       0.716  -1.712   2.141  1.00  0.00     0.070 C 
ATOM     13  C   UNL     1       1.896  -2.939   0.224  1.00  0.00     0.071 C 
ATOM     14  C   UNL     1       1.360  -2.997   1.654  1.00  0.00     0.017 C 
BRANCH   8  15
ATOM     15  N   UNL     1      -0.038  -3.663  -1.183  1.00  0.00    -0.329 N 
ATOM     16  C   UNL     1      -1.112  -4.053  -0.288  1.00  0.00     0.262 C 
ATOM     17  C   UNL     1      -0.017  -4.594  -2.299  1.00  0.00     0.262 C 
ATOM     18  H   UNL     1       0.360  -2.724  -1.208  1.00  0.00     0.348 HD
ATOM     19  C   UNL     1      -1.055  -5.568  -0.381  1.00  0.00     0.067 C 
ATOM     20  C   UNL     1      -0.852  -5.795  -1.861  1.00  0.00     0.067 C 
ENDBRANCH   8  15
ENDBRANCH   7   8
ENDBRANCH   4   7
ENDBRANCH   2   3
ENDBRANCH   1   2
BRANCH   1  21
ATOM     21  C   UNL     1       3.182  -7.008  -2.282  1.00  0.00     0.118 C 
BRANCH  21  22
ATOM     22  N   UNL     1       4.370  -7.821  -2.454  1.00  0.00    -0.352 N 
ATOM     23  C   UNL     1       4.675  -9.067  -1.963  1.00  0.00     0.251 C 
ATOM     24  H   UNL     1       5.071  -7.413  -3.012  1.00  0.00     0.163 HD
ATOM     25  O   UNL     1       5.828  -9.477  -2.071  1.00  0.00    -0.269 OA
BRANCH  23  26
ATOM     26  C   UNL     1       3.661  -9.927  -1.296  1.00  0.00     0.039 A 
ATOM     27  C   UNL     1       4.075 -10.714  -0.214  1.00  0.00     0.014 A 
ATOM     28  C   UNL     1       2.350 -10.053  -1.766  1.00  0.00     0.014 A 
ATOM     29  C   UNL     1       3.180 -11.592   0.409  1.00  0.00     0.010 A 
ATOM     30  C   UNL     1       1.438 -10.882  -1.103  1.00  0.00     0.010 A 
ATOM     31  C   UNL     1       1.847 -11.674  -0.019  1.00  0.00    -0.014 A 
BRANCH  31  32
ATOM     32  C   UNL     1       0.891 -12.611   0.633  1.00  0.00     0.031 A 
ATOM     33  C   UNL     1       0.344 -13.792  -0.126  1.00  0.00     0.074 A 
ATOM     34  C   UNL     1       0.491 -12.396   1.901  1.00  0.00     0.049 A 
ATOM     35  N   UNL     1      -0.528 -14.692   0.259  1.00  0.00    -0.248 NA
ATOM     36  C   UNL     1       0.828 -13.978  -1.502  1.00  0.00     0.031 C 
ATOM     37  C   UNL     1       0.921 -11.282   2.747  1.00  0.00     0.029 A 
ATOM     38  N   UNL     1      -0.376 -13.103   2.699  1.00  0.00    -0.354 N 
ATOM     39  C   UNL     1      -0.706 -15.539  -0.829  1.00  0.00     0.074 A 
ATOM     40  C   UNL     1       0.118 -15.023  -1.902  1.00  0.00     0.031 C 
ATOM     41  C   UNL     1       0.330 -11.389   3.948  1.00  0.00     0.029 A 
ATOM     42  C   UNL     1      -0.544 -12.560   3.949  1.00  0.00     0.049 A 
ATOM     43  H   UNL     1      -0.833 -13.923   2.402  1.00  0.00     0.167 HD
ATOM     44  C   UNL     1      -1.468 -16.655  -0.922  1.00  0.00     0.037 A 
ATOM     45  C   UNL     1      -1.318 -12.953   4.978  1.00  0.00     0.037 A 
ATOM     46  C   UNL     1      -2.268 -17.192   0.147  1.00  0.00     0.049 A 
ATOM     47  C   UNL     1      -2.165 -14.188   4.845  1.00  0.00     0.074 A 
ATOM     48  C   UNL     1      -3.034 -18.346   0.156  1.00  0.00     0.029 A 
ATOM     49  N   UNL     1      -2.404 -16.613   1.399  1.00  0.00    -0.354 N 
ATOM     50  N   UNL     1      -2.283 -15.004   3.826  1.00  0.00    -0.248 NA
ATOM     51  C   UNL     1      -2.984 -14.560   6.009  1.00  0.00     0.031 C 
ATOM     52  C   UNL     1      -3.660 -18.448   1.403  1.00  0.00     0.029 A 
ATOM     53  C   UNL     1      -3.255 -17.378   2.182  1.00  0.00     0.049 A 
ATOM     54  H   UNL     1      -1.963 -15.783   1.689  1.00  0.00     0.167 HD
ATOM     55  C   UNL     1      -3.164 -15.997   4.234  1.00  0.00     0.074 A 
ATOM     56  C   UNL     1      -3.544 -15.689   5.597  1.00  0.00     0.031 C 
ATOM     57  C   UNL     1      -3.617 -17.069   3.541  1.00  0.00     0.037 A 
BRANCH  44  58
ATOM     58  C   UNL     1      -1.472 -17.381  -2.235  1.00  0.00     0.057 A 
ATOM     59  C   UNL     1      -0.374 -18.140  -2.659  1.00  0.00     0.134 A 
ATOM     60  C   UNL     1      -2.603 -17.363  -3.060  1.00  0.00     0.134 A 
ATOM     61  F   UNL     1       0.744 -18.191  -1.918  1.00  0.00    -0.206 F 
ATOM     62  C   UNL     1      -0.392 -18.838  -3.868  1.00  0.00     0.040 A 
ATOM     63  C   UNL     1      -2.642 -18.075  -4.260  1.00  0.00     0.040 A 
ATOM     64  F   UNL     1      -3.692 -16.662  -2.709  1.00  0.00    -0.206 F 
ATOM     65  C   UNL     1      -1.532 -18.811  -4.669  1.00  0.00     0.006 A 
ENDBRANCH  44  58
BRANCH  45  66
ATOM     66  C   UNL     1      -1.322 -12.176   6.242  1.00  0.00     0.057 A 
ATOM     67  C   UNL     1      -0.729 -12.685   7.404  1.00  0.00     0.134 A 
ATOM     68  C   UNL     1      -1.933 -10.919   6.325  1.00  0.00     0.134 A 
ATOM     69  F   UNL     1      -0.149 -13.894   7.390  1.00  0.00    -0.206 F 
ATOM     70  C   UNL     1      -0.758 -11.980   8.607  1.00  0.00     0.040 A 
ATOM     71  C   UNL     1      -1.949 -10.194   7.517  1.00  0.00     0.040 A 
ATOM     72  F   UNL     1      -2.515 -10.377   5.246  1.00  0.00    -0.206 F 
ATOM     73  C   UNL     1      -1.366 -10.728   8.665  1.00  0.00     0.006 A 
ENDBRANCH  45  66
BRANCH  57  74
ATOM     74  C   UNL     1      -4.545 -18.008   4.252  1.00  0.00     0.057 A 
ATOM     75  C   UNL     1      -5.883 -17.677   4.500  1.00  0.00     0.134 A 
ATOM     76  C   UNL     1      -4.104 -19.273   4.661  1.00  0.00     0.134 A 
ATOM     77  F   UNL     1      -6.362 -16.475   4.146  1.00  0.00    -0.206 F 
ATOM     78  C   UNL     1      -6.745 -18.564   5.147  1.00  0.00     0.040 A 
ATOM     79  C   UNL     1      -4.962 -20.177   5.288  1.00  0.00     0.040 A 
ATOM     80  F   UNL     1      -2.835 -19.654   4.447  1.00  0.00    -0.206 F 
ATOM     81  C   UNL     1      -6.286 -19.821   5.537  1.00  0.00     0.006 A 
ENDBRANCH  57  74
ENDBRANCH  31  32
ENDBRANCH  23  26
ENDBRANCH  21  22
ENDBRANCH   1  21
TORSDOF 12
