REMARK SMILES O=C(CCCN1C(=O)C(=O)/C(=C(/[O-])c2ccc(Cl)cc2)[C@@H]1c1ccccc1[N+](=O)[O-])NCCCNC(=O)c1ccc(-c2c3nc(c(-c4c(F)cccc4F)c4ccc([nH]4)c(-c4c(F)cccc4F)c4nc(c(-c5c(F)cccc5F)c5ccc2[nH]5)C=C4)C=C3)cc1
REMARK SMILES IDX 1 1 2 2 31 3 3 5 4 6 5 7 6 8 7 9 21 10 8 11 9 12 11 13 10 14
REMARK SMILES IDX 12 15 13 16 22 17 23 18 27 19 24 20 26 21 25 22 28 23 29 24
REMARK SMILES IDX 30 25 14 26 15 27 20 28 16 29 19 30 17 31 18 32 32 33 33 34
REMARK SMILES IDX 34 35 35 36 36 37 37 39 38 40 39 41 91 42 40 43 90 44 41 45
REMARK SMILES IDX 42 46 43 47 84 48 44 49 89 50 83 51 85 52 45 53 88 54 82 55
REMARK SMILES IDX 81 56 46 58 72 59 55 60 71 61 56 62 59 63 70 64 86 65 57 66
REMARK SMILES IDX 58 67 69 69 87 70 60 71 47 72 48 73 53 74 49 75 50 76 52 77
REMARK SMILES IDX 54 78 51 79 73 80 74 81 79 82 75 83 76 84 78 85 80 86 77 87
REMARK SMILES IDX 61 88 62 89 67 90 63 91 64 92 66 93 68 94 65 95
REMARK H PARENT 31 4 35 38 85 57 59 68
REMARK Flexibility Score: inf
ROOT
ATOM      1  O   UNL     1       1.154  -1.181  -0.360  1.00  0.00    -0.275 OA
ATOM      2  C   UNL     1       1.981  -0.343  -0.016  1.00  0.00     0.220 C 
ATOM      3  N   UNL     1       2.397   0.695  -0.812  1.00  0.00    -0.356 N 
ATOM      4  H   UNL     1       3.046   1.329  -0.430  1.00  0.00     0.163 HD
ENDROOT
BRANCH   2   5
ATOM      5  C   UNL     1       2.660  -0.386   1.349  1.00  0.00     0.102 C 
BRANCH   5   6
ATOM      6  C   UNL     1       3.896  -1.293   1.426  1.00  0.00     0.031 C 
BRANCH   6   7
ATOM      7  C   UNL     1       4.968  -1.172   0.333  1.00  0.00     0.121 C 
BRANCH   7   8
ATOM      8  N   UNL     1       5.900  -0.038   0.381  1.00  0.00    -0.324 N 
ATOM      9  C   UNL     1       5.506   1.285   0.280  1.00  0.00     0.295 C 
ATOM     10  C   UNL     1       7.365  -0.176   0.355  1.00  0.00     0.157 C 
ATOM     11  O   UNL     1       4.409   1.782   0.357  1.00  0.00    -0.265 OA
ATOM     12  C   UNL     1       6.747   2.122   0.062  1.00  0.00     0.248 C 
ATOM     13  C   UNL     1       7.883   1.254   0.434  1.00  0.00     0.025 C 
ATOM     14  O   UNL     1       6.737   3.254  -0.360  1.00  0.00    -0.283 OA
ATOM     15  C   UNL     1       9.054   1.759   0.860  1.00  0.00    -0.092 C 
ATOM     16  O   UNL     1      10.086   0.972   1.319  1.00  0.00    -0.872 OA
BRANCH  10  17
ATOM     17  C   UNL     1       8.014  -0.979  -0.782  1.00  0.00     0.057 A 
ATOM     18  C   UNL     1       9.307  -1.496  -0.527  1.00  0.00     0.013 A 
ATOM     19  C   UNL     1       7.511  -1.240  -2.075  1.00  0.00     0.275 A 
ATOM     20  C   UNL     1      10.041  -2.207  -1.486  1.00  0.00     0.001 A 
ATOM     21  C   UNL     1       8.223  -1.994  -3.030  1.00  0.00     0.086 A 
ATOM     22  C   UNL     1       9.494  -2.468  -2.734  1.00  0.00     0.007 A 
BRANCH  19  23
ATOM     23  N   UNL     1       6.253  -0.703  -2.544  1.00  0.00     0.063 N 
ATOM     24  O   UNL     1       5.421  -1.505  -2.989  1.00  0.00    -0.258 OA
ATOM     25  O   UNL     1       6.104   0.519  -2.457  1.00  0.00    -0.258 OA
ENDBRANCH  19  23
ENDBRANCH  10  17
BRANCH  15  26
ATOM     26  C   UNL     1       9.387   3.194   0.843  1.00  0.00    -0.033 A 
ATOM     27  C   UNL     1       8.809   4.086   1.759  1.00  0.00     0.009 A 
ATOM     28  C   UNL     1      10.255   3.689  -0.139  1.00  0.00     0.009 A 
ATOM     29  C   UNL     1       9.070   5.457   1.671  1.00  0.00     0.021 A 
ATOM     30  C   UNL     1      10.521   5.059  -0.223  1.00  0.00     0.021 A 
ATOM     31  C   UNL     1       9.921   5.938   0.678  1.00  0.00     0.041 A 
ATOM     32  Cl  UNL     1      10.230   7.626   0.557  1.00  0.00    -0.084 Cl
ENDBRANCH  15  26
ENDBRANCH   7   8
ENDBRANCH   6   7
ENDBRANCH   5   6
ENDBRANCH   2   5
BRANCH   3  33
ATOM     33  C   UNL     1       1.953   0.926  -2.170  1.00  0.00     0.117 C 
BRANCH  33  34
ATOM     34  C   UNL     1       2.170   2.375  -2.616  1.00  0.00     0.042 C 
BRANCH  34  35
ATOM     35  C   UNL     1       3.619   2.785  -2.884  1.00  0.00     0.118 C 
BRANCH  35  36
ATOM     36  N   UNL     1       4.212   2.121  -4.035  1.00  0.00    -0.352 N 
ATOM     37  C   UNL     1       5.044   2.616  -5.009  1.00  0.00     0.251 C 
ATOM     38  H   UNL     1       3.980   1.169  -4.130  1.00  0.00     0.163 HD
ATOM     39  O   UNL     1       5.450   1.877  -5.903  1.00  0.00    -0.269 OA
BRANCH  37  40
ATOM     40  C   UNL     1       5.425   4.047  -5.027  1.00  0.00     0.039 A 
ATOM     41  C   UNL     1       5.314   4.743  -6.235  1.00  0.00     0.014 A 
ATOM     42  C   UNL     1       5.911   4.699  -3.891  1.00  0.00     0.014 A 
ATOM     43  C   UNL     1       5.614   6.107  -6.288  1.00  0.00     0.010 A 
ATOM     44  C   UNL     1       6.161   6.074  -3.932  1.00  0.00     0.010 A 
ATOM     45  C   UNL     1       6.002   6.795  -5.127  1.00  0.00    -0.014 A 
BRANCH  45  46
ATOM     46  C   UNL     1       6.202   8.269  -5.146  1.00  0.00     0.031 A 
ATOM     47  C   UNL     1       7.561   8.866  -4.911  1.00  0.00     0.074 A 
ATOM     48  C   UNL     1       5.140   9.080  -5.325  1.00  0.00     0.049 A 
ATOM     49  N   UNL     1       7.909  10.128  -4.846  1.00  0.00    -0.248 NA
ATOM     50  C   UNL     1       8.672   7.925  -4.707  1.00  0.00     0.031 C 
ATOM     51  C   UNL     1       3.761   8.633  -5.528  1.00  0.00     0.029 A 
ATOM     52  N   UNL     1       5.052  10.450  -5.354  1.00  0.00    -0.354 N 
ATOM     53  C   UNL     1       9.273  10.132  -4.583  1.00  0.00     0.074 A 
ATOM     54  C   UNL     1       9.682   8.748  -4.462  1.00  0.00     0.031 C 
ATOM     55  C   UNL     1       2.967   9.707  -5.672  1.00  0.00     0.029 A 
ATOM     56  C   UNL     1       3.773  10.917  -5.537  1.00  0.00     0.049 A 
ATOM     57  H   UNL     1       5.832  11.042  -5.253  1.00  0.00     0.167 HD
ATOM     58  C   UNL     1      10.112  11.191  -4.470  1.00  0.00     0.037 A 
ATOM     59  C   UNL     1       3.296  12.176  -5.577  1.00  0.00     0.037 A 
ATOM     60  C   UNL     1       9.711  12.568  -4.599  1.00  0.00     0.049 A 
ATOM     61  C   UNL     1       4.243  13.332  -5.420  1.00  0.00     0.074 A 
ATOM     62  C   UNL     1      10.503  13.704  -4.560  1.00  0.00     0.029 A 
ATOM     63  N   UNL     1       8.406  12.999  -4.782  1.00  0.00    -0.354 N 
ATOM     64  N   UNL     1       5.542  13.319  -5.246  1.00  0.00    -0.248 NA
ATOM     65  C   UNL     1       3.657  14.680  -5.467  1.00  0.00     0.031 C 
ATOM     66  C   UNL     1       9.671  14.823  -4.675  1.00  0.00     0.029 A 
ATOM     67  C   UNL     1       8.367  14.383  -4.831  1.00  0.00     0.049 A 
ATOM     68  H   UNL     1       7.623  12.408  -4.865  1.00  0.00     0.167 HD
ATOM     69  C   UNL     1       5.931  14.651  -5.185  1.00  0.00     0.074 A 
ATOM     70  C   UNL     1       4.733  15.446  -5.357  1.00  0.00     0.031 C 
ATOM     71  C   UNL     1       7.170  15.167  -5.003  1.00  0.00     0.037 A 
BRANCH  58  72
ATOM     72  C   UNL     1      11.557  10.899  -4.188  1.00  0.00     0.057 A 
ATOM     73  C   UNL     1      12.400  10.347  -5.161  1.00  0.00     0.134 A 
ATOM     74  C   UNL     1      12.122  11.212  -2.946  1.00  0.00     0.134 A 
ATOM     75  F   UNL     1      11.919  10.018  -6.370  1.00  0.00    -0.206 F 
ATOM     76  C   UNL     1      13.748  10.095  -4.901  1.00  0.00     0.040 A 
ATOM     77  C   UNL     1      13.474  10.986  -2.681  1.00  0.00     0.040 A 
ATOM     78  F   UNL     1      11.374  11.755  -1.973  1.00  0.00    -0.206 F 
ATOM     79  C   UNL     1      14.290  10.420  -3.659  1.00  0.00     0.006 A 
ENDBRANCH  58  72
BRANCH  59  80
ATOM     80  C   UNL     1       1.846  12.413  -5.784  1.00  0.00     0.057 A 
ATOM     81  C   UNL     1       1.367  12.951  -6.985  1.00  0.00     0.134 A 
ATOM     82  C   UNL     1       0.907  12.121  -4.788  1.00  0.00     0.134 A 
ATOM     83  F   UNL     1       2.221  13.273  -7.968  1.00  0.00    -0.206 F 
ATOM     84  C   UNL     1       0.009  13.204  -7.182  1.00  0.00     0.040 A 
ATOM     85  C   UNL     1      -0.457  12.347  -4.981  1.00  0.00     0.040 A 
ATOM     86  F   UNL     1       1.302  11.602  -3.616  1.00  0.00    -0.206 F 
ATOM     87  C   UNL     1      -0.908  12.897  -6.179  1.00  0.00     0.006 A 
ENDBRANCH  59  80
BRANCH  71  88
ATOM     88  C   UNL     1       7.300  16.662  -5.004  1.00  0.00     0.057 A 
ATOM     89  C   UNL     1       6.853  17.442  -3.930  1.00  0.00     0.134 A 
ATOM     90  C   UNL     1       7.910  17.325  -6.077  1.00  0.00     0.134 A 
ATOM     91  F   UNL     1       6.247  16.870  -2.880  1.00  0.00    -0.206 F 
ATOM     92  C   UNL     1       6.992  18.831  -3.932  1.00  0.00     0.040 A 
ATOM     93  C   UNL     1       8.076  18.711  -6.079  1.00  0.00     0.040 A 
ATOM     94  F   UNL     1       8.365  16.636  -7.134  1.00  0.00    -0.206 F 
ATOM     95  C   UNL     1       7.611  19.469  -5.005  1.00  0.00     0.006 A 
ENDBRANCH  71  88
ENDBRANCH  45  46
ENDBRANCH  37  40
ENDBRANCH  35  36
ENDBRANCH  34  35
ENDBRANCH  33  34
ENDBRANCH   3  33
TORSDOF 16
