REMARK SMILES O=C(Cc1cncnc1N1CCC2(CC1)OCCC[C@@H]2O)NCCCNC(=O)c1ccc(-c2c3nc(c(-c4c(F)cccc4F)c4ccc([nH]4)c(-c4c(F)cccc4F)c4nc(c(-c5c(F)cccc5F)c5ccc2[nH]5)C=C4)C=C3)cc1
REMARK SMILES IDX 23 1 22 2 1 3 2 4 3 6 4 7 5 8 9 9 6 10 8 11 7 12 10 13 11 14
REMARK SMILES IDX 15 15 12 16 14 17 13 18 16 19 20 20 17 21 19 22 18 23 21 24
REMARK SMILES IDX 24 26 25 27 26 28 27 29 28 31 29 32 30 33 82 34 31 35 81 36
REMARK SMILES IDX 32 37 33 38 34 39 75 40 35 41 80 42 74 43 76 44 36 45 79 46
REMARK SMILES IDX 73 47 72 48 37 50 63 51 46 52 62 53 47 54 50 55 61 56 77 57
REMARK SMILES IDX 48 58 49 59 60 61 78 62 51 63 38 64 39 65 44 66 40 67 41 68
REMARK SMILES IDX 43 69 45 70 42 71 64 72 65 73 70 74 66 75 67 76 69 77 71 78
REMARK SMILES IDX 68 79 52 80 53 81 58 82 54 83 55 84 57 85 59 86 56 87
REMARK H PARENT 22 5 21 25 26 30 76 49 50 60
REMARK Flexibility Score: inf
ROOT
ATOM      1  C   UNL     1       2.035  -2.116   1.301  1.00  0.00     0.117 C 
ENDROOT
BRANCH   1   2
ATOM      2  N   UNL     1       2.836  -1.119   0.623  1.00  0.00    -0.356 N 
ATOM      3  O   UNL     1       1.105   0.182  -0.150  1.00  0.00    -0.275 OA
ATOM      4  C   UNL     1       2.306  -0.032  -0.039  1.00  0.00     0.224 C 
ATOM      5  H   UNL     1       3.814  -1.223   0.634  1.00  0.00     0.163 HD
BRANCH   4   6
ATOM      6  C   UNL     1       3.366   0.876  -0.634  1.00  0.00     0.141 C 
BRANCH   6   7
ATOM      7  C   UNL     1       3.905   1.873   0.353  1.00  0.00     0.022 A 
ATOM      8  C   UNL     1       4.770   1.476   1.359  1.00  0.00     0.121 A 
ATOM      9  C   UNL     1       3.660   3.240   0.279  1.00  0.00     0.135 A 
ATOM     10  N   UNL     1       5.349   2.308   2.237  1.00  0.00    -0.244 NA
ATOM     11  N   UNL     1       4.239   4.107   1.131  1.00  0.00    -0.219 NA
ATOM     12  C   UNL     1       5.043   3.598   2.075  1.00  0.00     0.224 A 
BRANCH   9  13
ATOM     13  N   UNL     1       2.920   3.754  -0.766  1.00  0.00    -0.356 N 
ATOM     14  C   UNL     1       3.436   4.932  -1.438  1.00  0.00     0.121 C 
ATOM     15  C   UNL     1       1.466   3.671  -0.733  1.00  0.00     0.121 C 
ATOM     16  C   UNL     1       3.089   4.758  -2.912  1.00  0.00     0.060 C 
ATOM     17  C   UNL     1       0.973   3.528  -2.175  1.00  0.00     0.060 C 
ATOM     18  C   UNL     1       1.562   4.595  -3.137  1.00  0.00     0.097 C 
ATOM     19  O   UNL     1       0.869   5.824  -2.834  1.00  0.00    -0.372 OA
ATOM     20  C   UNL     1       1.298   4.172  -4.618  1.00  0.00     0.146 C 
ATOM     21  C   UNL     1       1.136   6.918  -3.710  1.00  0.00     0.161 C 
ATOM     22  C   UNL     1       1.619   5.309  -5.586  1.00  0.00     0.037 C 
ATOM     23  C   UNL     1       0.884   6.579  -5.172  1.00  0.00     0.031 C 
BRANCH  20  24
ATOM     24  O   UNL     1      -0.067   3.809  -4.852  1.00  0.00    -0.390 OA
ATOM     25  H   UNL     1      -0.637   4.579  -4.700  1.00  0.00     0.211 HD
ENDBRANCH  20  24
ENDBRANCH   9  13
ENDBRANCH   6   7
ENDBRANCH   4   6
ENDBRANCH   1   2
BRANCH   1  26
ATOM     26  C   UNL     1       2.314  -3.517   0.771  1.00  0.00     0.042 C 
BRANCH  26  27
ATOM     27  C   UNL     1       3.787  -3.923   0.770  1.00  0.00     0.118 C 
BRANCH  27  28
ATOM     28  N   UNL     1       4.392  -3.935   2.095  1.00  0.00    -0.352 N 
ATOM     29  C   UNL     1       5.114  -4.929   2.712  1.00  0.00     0.251 C 
ATOM     30  H   UNL     1       4.265  -3.115   2.624  1.00  0.00     0.163 HD
ATOM     31  O   UNL     1       5.455  -4.805   3.884  1.00  0.00    -0.269 OA
BRANCH  29  32
ATOM     32  C   UNL     1       5.442  -6.168   1.976  1.00  0.00     0.039 A 
ATOM     33  C   UNL     1       5.165  -7.397   2.578  1.00  0.00     0.014 A 
ATOM     34  C   UNL     1       5.989  -6.120   0.691  1.00  0.00     0.014 A 
ATOM     35  C   UNL     1       5.350  -8.578   1.856  1.00  0.00     0.010 A 
ATOM     36  C   UNL     1       6.110  -7.293  -0.051  1.00  0.00     0.010 A 
ATOM     37  C   UNL     1       5.775  -8.531   0.519  1.00  0.00    -0.014 A 
BRANCH  37  38
ATOM     38  C   UNL     1       5.831  -9.760  -0.314  1.00  0.00     0.031 A 
ATOM     39  C   UNL     1       7.141 -10.256  -0.857  1.00  0.00     0.074 A 
ATOM     40  C   UNL     1       4.685 -10.387  -0.646  1.00  0.00     0.049 A 
ATOM     41  N   UNL     1       7.372 -11.253  -1.673  1.00  0.00    -0.248 NA
ATOM     42  C   UNL     1       8.346  -9.520  -0.447  1.00  0.00     0.031 C 
ATOM     43  C   UNL     1       3.344  -9.982  -0.218  1.00  0.00     0.029 A 
ATOM     44  N   UNL     1       4.462 -11.489  -1.434  1.00  0.00    -0.354 N 
ATOM     45  C   UNL     1       8.745 -11.258  -1.882  1.00  0.00     0.074 A 
ATOM     46  C   UNL     1       9.289 -10.137  -1.146  1.00  0.00     0.031 C 
ATOM     47  C   UNL     1       2.442 -10.832  -0.735  1.00  0.00     0.029 A 
ATOM     48  C   UNL     1       3.133 -11.814  -1.563  1.00  0.00     0.049 A 
ATOM     49  H   UNL     1       5.186 -11.998  -1.865  1.00  0.00     0.167 HD
ATOM     50  C   UNL     1       9.487 -12.130  -2.607  1.00  0.00     0.037 A 
ATOM     51  C   UNL     1       2.536 -12.784  -2.281  1.00  0.00     0.037 A 
ATOM     52  C   UNL     1       8.947 -13.255  -3.326  1.00  0.00     0.049 A 
ATOM     53  C   UNL     1       3.380 -13.721  -3.100  1.00  0.00     0.074 A 
ATOM     54  C   UNL     1       9.626 -14.229  -4.038  1.00  0.00     0.029 A 
ATOM     55  N   UNL     1       7.597 -13.553  -3.430  1.00  0.00    -0.354 N 
ATOM     56  N   UNL     1       4.684 -13.754  -3.236  1.00  0.00    -0.248 NA
ATOM     57  C   UNL     1       2.670 -14.756  -3.864  1.00  0.00     0.031 C 
ATOM     58  C   UNL     1       8.684 -15.088  -4.613  1.00  0.00     0.029 A 
ATOM     59  C   UNL     1       7.420 -14.678  -4.220  1.00  0.00     0.049 A 
ATOM     60  H   UNL     1       6.870 -13.040  -3.007  1.00  0.00     0.167 HD
ATOM     61  C   UNL     1       4.950 -14.823  -4.082  1.00  0.00     0.074 A 
ATOM     62  C   UNL     1       3.675 -15.424  -4.413  1.00  0.00     0.031 C 
ATOM     63  C   UNL     1       6.145 -15.265  -4.543  1.00  0.00     0.037 A 
BRANCH  50  64
ATOM     64  C   UNL     1      10.969 -11.900  -2.660  1.00  0.00     0.057 A 
ATOM     65  C   UNL     1      11.790 -12.117  -1.546  1.00  0.00     0.134 A 
ATOM     66  C   UNL     1      11.589 -11.494  -3.849  1.00  0.00     0.134 A 
ATOM     67  F   UNL     1      11.259 -12.496  -0.373  1.00  0.00    -0.206 F 
ATOM     68  C   UNL     1      13.170 -11.916  -1.605  1.00  0.00     0.040 A 
ATOM     69  C   UNL     1      12.971 -11.315  -3.928  1.00  0.00     0.040 A 
ATOM     70  F   UNL     1      10.862 -11.274  -4.955  1.00  0.00    -0.206 F 
ATOM     71  C   UNL     1      13.765 -11.520  -2.801  1.00  0.00     0.006 A 
ENDBRANCH  50  64
BRANCH  51  72
ATOM     72  C   UNL     1       1.058 -12.925  -2.256  1.00  0.00     0.057 A 
ATOM     73  C   UNL     1       0.449 -14.017  -1.629  1.00  0.00     0.134 A 
ATOM     74  C   UNL     1       0.223 -11.982  -2.867  1.00  0.00     0.134 A 
ATOM     75  F   UNL     1       1.198 -14.964  -1.045  1.00  0.00    -0.206 F 
ATOM     76  C   UNL     1      -0.938 -14.177  -1.623  1.00  0.00     0.040 A 
ATOM     77  C   UNL     1      -1.167 -12.116  -2.847  1.00  0.00     0.040 A 
ATOM     78  F   UNL     1       0.745 -10.910  -3.480  1.00  0.00    -0.206 F 
ATOM     79  C   UNL     1      -1.750 -13.221  -2.231  1.00  0.00     0.006 A 
ENDBRANCH  51  72
BRANCH  63  80
ATOM     80  C   UNL     1       6.131 -16.470  -5.439  1.00  0.00     0.057 A 
ATOM     81  C   UNL     1       5.668 -16.403  -6.759  1.00  0.00     0.134 A 
ATOM     82  C   UNL     1       6.618 -17.703  -4.986  1.00  0.00     0.134 A 
ATOM     83  F   UNL     1       5.175 -15.255  -7.249  1.00  0.00    -0.206 F 
ATOM     84  C   UNL     1       5.669 -17.524  -7.590  1.00  0.00     0.040 A 
ATOM     85  C   UNL     1       6.649 -18.825  -5.816  1.00  0.00     0.040 A 
ATOM     86  F   UNL     1       7.083 -17.834  -3.734  1.00  0.00    -0.206 F 
ATOM     87  C   UNL     1       6.168 -18.738  -7.120  1.00  0.00     0.006 A 
ENDBRANCH  63  80
ENDBRANCH  37  38
ENDBRANCH  29  32
ENDBRANCH  27  28
ENDBRANCH  26  27
ENDBRANCH   1  26
TORSDOF 13
