REMARK SMILES Cc1c(C(=O)NCCCNC(=O)c2ccc(-c3c4nc(c(-c5c(F)cccc5F)c5ccc([nH]5)c(-c5c(F)cccc5F)c5nc(c(-c6c(F)cccc6F)c6ccc3[nH]6)C=C5)C=C4)cc2)cccc1N1[C@@H](C)C=C(/C=C(\C#N)C(=O)NCCc2c[nH]c3ccccc23)[C@@H]1C
REMARK SMILES IDX 4 1 5 2 6 3 3 5 1 6 2 7 70 8 67 9 69 10 68 11 71 12 72 13
REMARK SMILES IDX 94 14 74 15 73 16 75 17 95 18 76 19 77 20 78 21 79 22 80 23
REMARK SMILES IDX 81 24 82 25 83 27 84 28 85 29 86 30 93 31 87 32 88 33 92 34
REMARK SMILES IDX 89 36 91 37 90 38 7 39 8 40 9 41 10 42 11 43 12 45 13 46
REMARK SMILES IDX 14 47 66 48 15 49 65 50 16 51 17 52 18 53 59 54 19 55 64 56
REMARK SMILES IDX 58 57 60 58 20 59 63 60 57 61 56 62 21 64 47 65 30 66 46 67
REMARK SMILES IDX 31 68 34 69 45 70 61 71 32 72 33 73 44 75 62 76 35 77 22 78
REMARK SMILES IDX 23 79 28 80 24 81 25 82 27 83 29 84 26 85 48 86 49 87 54 88
REMARK SMILES IDX 50 89 51 90 53 91 55 92 52 93 36 94 37 95 42 96 38 97 39 98
REMARK SMILES IDX 41 99 43 100 40 101
REMARK H PARENT 6 4 82 26 87 35 10 44 60 63 34 74
REMARK Flexibility Score: inf
ROOT
ATOM      1  C   UNL     1       0.818  -2.284   0.134  1.00  0.00     0.251 C 
ATOM      2  O   UNL     1       0.092  -3.212   0.515  1.00  0.00    -0.269 OA
ATOM      3  N   UNL     1       2.106  -2.671  -0.121  1.00  0.00    -0.352 N 
ATOM      4  H   UNL     1       2.238  -3.638   0.004  1.00  0.00     0.163 HD
ENDROOT
BRANCH   1   5
ATOM      5  C   UNL     1       0.194  -0.919  -0.055  1.00  0.00     0.044 A 
ATOM      6  C   UNL     1       2.142   0.636   0.504  1.00  0.00     0.047 C 
ATOM      7  C   UNL     1       0.763   0.380   0.004  1.00  0.00    -0.015 A 
ATOM      8  C   UNL     1      -0.023   1.542  -0.225  1.00  0.00     0.041 A 
ATOM      9  C   UNL     1      -1.210  -0.990  -0.180  1.00  0.00     0.014 A 
ATOM     10  C   UNL     1      -1.409   1.398  -0.334  1.00  0.00     0.026 A 
ATOM     11  C   UNL     1      -2.005   0.147  -0.283  1.00  0.00     0.003 A 
BRANCH   8  12
ATOM     12  N   UNL     1       0.508   2.816  -0.151  1.00  0.00    -0.358 N 
ATOM     13  C   UNL     1       0.245   3.643   1.033  1.00  0.00     0.103 C 
ATOM     14  C   UNL     1       1.643   3.311  -0.957  1.00  0.00     0.110 C 
ATOM     15  C   UNL     1       1.392   4.599   0.984  1.00  0.00     0.003 C 
ATOM     16  C   UNL     1       0.326   2.894   2.369  1.00  0.00     0.035 C 
ATOM     17  C   UNL     1       2.245   4.347  -0.019  1.00  0.00    -0.026 C 
ATOM     18  C   UNL     1       1.123   3.931  -2.254  1.00  0.00     0.036 C 
BRANCH  17  19
ATOM     19  C   UNL     1       3.553   4.941  -0.232  1.00  0.00     0.031 C 
ATOM     20  C   UNL     1       4.307   5.658   0.636  1.00  0.00     0.117 C 
BRANCH  20  21
ATOM     21  C   UNL     1       3.906   5.953   1.969  1.00  0.00     0.105 C 
ATOM     22  N   UNL     1       3.571   6.214   3.042  1.00  0.00    -0.192 NA
ENDBRANCH  20  21
BRANCH  20  23
ATOM     23  C   UNL     1       5.490   6.363   0.061  1.00  0.00     0.261 C 
ATOM     24  O   UNL     1       5.765   6.267  -1.137  1.00  0.00    -0.268 OA
ATOM     25  N   UNL     1       6.134   7.317   0.785  1.00  0.00    -0.351 N 
ATOM     26  H   UNL     1       6.234   8.170   0.305  1.00  0.00     0.163 HD
BRANCH  25  27
ATOM     27  C   UNL     1       6.714   7.338   2.140  1.00  0.00     0.121 C 
BRANCH  27  28
ATOM     28  C   UNL     1       8.105   6.644   2.289  1.00  0.00     0.059 C 
BRANCH  28  29
ATOM     29  C   UNL     1       9.249   7.315   1.521  1.00  0.00    -0.021 A 
ATOM     30  C   UNL     1       9.254   8.677   1.219  1.00  0.00     0.087 A 
ATOM     31  C   UNL     1       9.849   6.809   0.323  1.00  0.00     0.003 A 
ATOM     32  N   UNL     1       8.646   8.618  -0.042  1.00  0.00    -0.361 N 
ATOM     33  C   UNL     1       9.162   7.503  -0.675  1.00  0.00     0.046 A 
ATOM     34  C   UNL     1      10.812   5.863  -0.069  1.00  0.00     0.010 A 
ATOM     35  H   UNL     1       7.982   9.247  -0.406  1.00  0.00     0.166 HD
ATOM     36  C   UNL     1       9.141   7.113  -2.009  1.00  0.00     0.026 A 
ATOM     37  C   UNL     1      10.970   5.612  -1.443  1.00  0.00     0.001 A 
ATOM     38  C   UNL     1      10.093   6.165  -2.382  1.00  0.00     0.002 A 
ENDBRANCH  28  29
ENDBRANCH  27  28
ENDBRANCH  25  27
ENDBRANCH  20  23
ENDBRANCH  17  19
ENDBRANCH   8  12
ENDBRANCH   1   5
BRANCH   3  39
ATOM     39  C   UNL     1       3.318  -1.998  -0.532  1.00  0.00     0.118 C 
BRANCH  39  40
ATOM     40  C   UNL     1       4.050  -1.471   0.696  1.00  0.00     0.042 C 
BRANCH  40  41
ATOM     41  C   UNL     1       5.319  -2.182   1.023  1.00  0.00     0.118 C 
BRANCH  41  42
ATOM     42  N   UNL     1       6.444  -1.732   0.221  1.00  0.00    -0.352 N 
ATOM     43  C   UNL     1       7.794  -1.974   0.382  1.00  0.00     0.251 C 
ATOM     44  H   UNL     1       6.208  -1.172  -0.553  1.00  0.00     0.163 HD
ATOM     45  O   UNL     1       8.593  -1.419  -0.366  1.00  0.00    -0.269 OA
BRANCH  43  46
ATOM     46  C   UNL     1       8.261  -3.047   1.306  1.00  0.00     0.039 A 
ATOM     47  C   UNL     1       9.218  -3.903   0.745  1.00  0.00     0.014 A 
ATOM     48  C   UNL     1       7.372  -3.550   2.234  1.00  0.00     0.014 A 
ATOM     49  C   UNL     1       8.996  -5.267   0.796  1.00  0.00     0.010 A 
ATOM     50  C   UNL     1       6.949  -4.828   2.014  1.00  0.00     0.010 A 
ATOM     51  C   UNL     1       7.769  -5.687   1.277  1.00  0.00    -0.014 A 
BRANCH  51  52
ATOM     52  C   UNL     1       7.343  -7.056   1.408  1.00  0.00     0.031 A 
ATOM     53  C   UNL     1       7.602  -7.614   2.751  1.00  0.00     0.074 A 
ATOM     54  C   UNL     1       6.479  -7.537   0.488  1.00  0.00     0.049 A 
ATOM     55  N   UNL     1       7.405  -8.833   3.070  1.00  0.00    -0.248 NA
ATOM     56  C   UNL     1       8.147  -6.827   3.869  1.00  0.00     0.031 C 
ATOM     57  C   UNL     1       5.487  -8.597   0.628  1.00  0.00     0.029 A 
ATOM     58  N   UNL     1       6.468  -7.255  -0.887  1.00  0.00    -0.354 N 
ATOM     59  C   UNL     1       7.439  -8.908   4.447  1.00  0.00     0.074 A 
ATOM     60  C   UNL     1       8.037  -7.681   4.888  1.00  0.00     0.031 C 
ATOM     61  C   UNL     1       5.198  -9.090  -0.592  1.00  0.00     0.029 A 
ATOM     62  C   UNL     1       6.128  -8.478  -1.524  1.00  0.00     0.049 A 
ATOM     63  H   UNL     1       6.658  -6.391  -1.318  1.00  0.00     0.167 HD
ATOM     64  C   UNL     1       6.800  -9.963   5.021  1.00  0.00     0.037 A 
ATOM     65  C   UNL     1       7.074  -9.160  -2.246  1.00  0.00     0.037 A 
ATOM     66  C   UNL     1       6.295 -10.835   3.966  1.00  0.00     0.049 A 
ATOM     67  C   UNL     1       7.463 -10.491  -1.627  1.00  0.00     0.074 A 
ATOM     68  C   UNL     1       5.083 -10.971   3.316  1.00  0.00     0.029 A 
ATOM     69  N   UNL     1       7.228 -11.454   3.169  1.00  0.00    -0.354 N 
ATOM     70  N   UNL     1       7.147 -10.851  -0.413  1.00  0.00    -0.248 NA
ATOM     71  C   UNL     1       8.287 -11.493  -2.300  1.00  0.00     0.031 C 
ATOM     72  C   UNL     1       5.323 -11.692   2.105  1.00  0.00     0.029 A 
ATOM     73  C   UNL     1       6.672 -12.002   2.042  1.00  0.00     0.049 A 
ATOM     74  H   UNL     1       8.188 -11.499   3.383  1.00  0.00     0.167 HD
ATOM     75  C   UNL     1       7.720 -12.059  -0.117  1.00  0.00     0.074 A 
ATOM     76  C   UNL     1       8.452 -12.405  -1.324  1.00  0.00     0.031 C 
ATOM     77  C   UNL     1       7.568 -12.658   1.104  1.00  0.00     0.037 A 
BRANCH  64  78
ATOM     78  C   UNL     1       6.452 -10.181   6.468  1.00  0.00     0.057 A 
ATOM     79  C   UNL     1       5.604 -11.258   6.803  1.00  0.00     0.134 A 
ATOM     80  C   UNL     1       6.849  -9.398   7.565  1.00  0.00     0.134 A 
ATOM     81  F   UNL     1       5.188 -12.142   5.884  1.00  0.00    -0.206 F 
ATOM     82  C   UNL     1       5.136 -11.495   8.097  1.00  0.00     0.040 A 
ATOM     83  C   UNL     1       6.391  -9.628   8.871  1.00  0.00     0.040 A 
ATOM     84  F   UNL     1       7.711  -8.384   7.453  1.00  0.00    -0.206 F 
ATOM     85  C   UNL     1       5.520 -10.671   9.139  1.00  0.00     0.006 A 
ENDBRANCH  64  78
BRANCH  65  86
ATOM     86  C   UNL     1       8.023  -8.210  -2.912  1.00  0.00     0.057 A 
ATOM     87  C   UNL     1       7.476  -7.310  -3.849  1.00  0.00     0.134 A 
ATOM     88  C   UNL     1       9.177  -7.802  -2.236  1.00  0.00     0.134 A 
ATOM     89  F   UNL     1       6.403  -7.662  -4.574  1.00  0.00    -0.206 F 
ATOM     90  C   UNL     1       7.896  -5.979  -3.910  1.00  0.00     0.040 A 
ATOM     91  C   UNL     1       9.629  -6.481  -2.324  1.00  0.00     0.040 A 
ATOM     92  F   UNL     1       9.774  -8.614  -1.351  1.00  0.00    -0.206 F 
ATOM     93  C   UNL     1       8.936  -5.547  -3.094  1.00  0.00     0.006 A 
ENDBRANCH  65  86
BRANCH  77  94
ATOM     94  C   UNL     1       8.290 -13.909   1.548  1.00  0.00     0.057 A 
ATOM     95  C   UNL     1       8.452 -15.019   0.718  1.00  0.00     0.134 A 
ATOM     96  C   UNL     1       8.774 -14.078   2.870  1.00  0.00     0.134 A 
ATOM     97  F   UNL     1       7.933 -15.041  -0.518  1.00  0.00    -0.206 F 
ATOM     98  C   UNL     1       9.130 -16.172   1.138  1.00  0.00     0.040 A 
ATOM     99  C   UNL     1       9.382 -15.248   3.322  1.00  0.00     0.040 A 
ATOM    100  F   UNL     1       8.722 -13.110   3.794  1.00  0.00    -0.206 F 
ATOM    101  C   UNL     1       9.593 -16.292   2.443  1.00  0.00     0.006 A 
ENDBRANCH  77  94
ENDBRANCH  51  52
ENDBRANCH  43  46
ENDBRANCH  41  42
ENDBRANCH  40  41
ENDBRANCH  39  40
ENDBRANCH   3  39
TORSDOF 17
