REMARK SMILES CC/C=C/C/C=C/C/C=C/C/C=C/CC/C=C/COCC(=O)NCCCNC(=O)c1ccc(-c2c3nc(c(-c4c(F)cccc4F)c4ccc([nH]4)c(-c4c(F)cccc4F)c4nc(c(-c5c(F)cccc5F)c5ccc2[nH]5)C=C4)C=C3)cc1
REMARK SMILES IDX 16 1 17 2 15 3 14 4 13 5 12 6 11 7 10 8 9 9 8 10 7 11 6 12
REMARK SMILES IDX 5 13 4 14 3 15 2 16 1 17 18 18 19 19 20 20 21 21 22 22 23 23
REMARK SMILES IDX 24 25 25 26 26 27 27 28 28 29 29 31 30 32 31 33 83 34 32 35
REMARK SMILES IDX 82 36 33 37 34 38 35 39 76 40 36 41 81 42 75 43 77 44 37 45
REMARK SMILES IDX 80 46 74 47 73 48 38 50 64 51 47 52 63 53 48 54 51 55 62 56
REMARK SMILES IDX 78 57 49 58 50 59 61 61 79 62 52 63 39 64 40 65 45 66 41 67
REMARK SMILES IDX 42 68 44 69 46 70 43 71 65 72 66 73 71 74 67 75 68 76 70 77
REMARK SMILES IDX 72 78 69 79 53 80 54 81 59 82 55 83 56 84 58 85 60 86 57 87
REMARK H PARENT 23 24 27 30 77 49 51 60
REMARK Flexibility Score: inf
ROOT
ATOM      1  C   UNL     1      -6.632  -0.536 -13.101  1.00  0.00    -0.029 C 
ATOM      2  C   UNL     1      -7.438  -0.480 -14.173  1.00  0.00    -0.003 C 
ENDROOT
BRANCH   1   3
ATOM      3  C   UNL     1      -6.149   0.663 -12.332  1.00  0.00     0.031 C 
BRANCH   3   4
ATOM      4  C   UNL     1      -6.723   0.714 -10.905  1.00  0.00     0.031 C 
BRANCH   4   5
ATOM      5  C   UNL     1      -6.270  -0.435 -10.044  1.00  0.00    -0.031 C 
ATOM      6  C   UNL     1      -5.459  -0.312  -8.982  1.00  0.00    -0.027 C 
BRANCH   6   7
ATOM      7  C   UNL     1      -4.974  -1.476  -8.165  1.00  0.00     0.054 C 
BRANCH   7   8
ATOM      8  C   UNL     1      -3.473  -1.522  -8.159  1.00  0.00    -0.027 C 
ATOM      9  C   UNL     1      -2.722  -1.460  -7.048  1.00  0.00    -0.027 C 
BRANCH   9  10
ATOM     10  C   UNL     1      -1.221  -1.458  -7.043  1.00  0.00     0.054 C 
BRANCH  10  11
ATOM     11  C   UNL     1      -0.698  -0.204  -6.403  1.00  0.00    -0.027 C 
ATOM     12  C   UNL     1       0.074  -0.184  -5.304  1.00  0.00    -0.027 C 
BRANCH  12  13
ATOM     13  C   UNL     1       0.573   1.070  -4.647  1.00  0.00     0.054 C 
BRANCH  13  14
ATOM     14  C   UNL     1       0.100   1.151  -3.224  1.00  0.00    -0.027 C 
ATOM     15  C   UNL     1       0.917   1.193  -2.159  1.00  0.00    -0.031 C 
BRANCH  15  16
ATOM     16  C   UNL     1       0.438   1.262  -0.738  1.00  0.00     0.023 C 
ATOM     17  C   UNL     1       0.923   0.065   0.065  1.00  0.00     0.008 C 
ENDBRANCH  15  16
ENDBRANCH  13  14
ENDBRANCH  12  13
ENDBRANCH  10  11
ENDBRANCH   9  10
ENDBRANCH   7   8
ENDBRANCH   6   7
ENDBRANCH   4   5
ENDBRANCH   3   4
ENDBRANCH   1   3
BRANCH   2  18
ATOM     18  C   UNL     1      -8.025  -1.700 -14.810  1.00  0.00     0.188 C 
BRANCH  18  19
ATOM     19  O   UNL     1      -9.451  -1.676 -14.717  1.00  0.00    -0.368 OA
BRANCH  19  20
ATOM     20  C   UNL     1      -9.944  -1.724 -13.383  1.00  0.00     0.260 C 
BRANCH  20  21
ATOM     21  C   UNL     1      -9.578  -2.964 -12.560  1.00  0.00     0.246 C 
ATOM     22  O   UNL     1      -8.871  -2.901 -11.553  1.00  0.00    -0.272 OA
ATOM     23  N   UNL     1     -10.062  -4.181 -12.949  1.00  0.00    -0.354 N 
ATOM     24  H   UNL     1      -9.835  -4.942 -12.366  1.00  0.00     0.163 HD
BRANCH  23  25
ATOM     25  C   UNL     1     -10.868  -4.491 -14.114  1.00  0.00     0.117 C 
BRANCH  25  26
ATOM     26  C   UNL     1     -10.079  -5.255 -15.171  1.00  0.00     0.042 C 
BRANCH  26  27
ATOM     27  C   UNL     1      -9.560  -6.612 -14.704  1.00  0.00     0.118 C 
BRANCH  27  28
ATOM     28  N   UNL     1     -10.626  -7.530 -14.322  1.00  0.00    -0.352 N 
ATOM     29  C   UNL     1     -10.956  -8.767 -14.816  1.00  0.00     0.251 C 
ATOM     30  H   UNL     1     -11.202  -7.211 -13.590  1.00  0.00     0.163 HD
ATOM     31  O   UNL     1     -12.002  -9.306 -14.459  1.00  0.00    -0.269 OA
BRANCH  29  32
ATOM     32  C   UNL     1     -10.081  -9.445 -15.795  1.00  0.00     0.039 A 
ATOM     33  C   UNL     1     -10.665 -10.079 -16.895  1.00  0.00     0.014 A 
ATOM     34  C   UNL     1      -8.694  -9.466 -15.632  1.00  0.00     0.014 A 
ATOM     35  C   UNL     1      -9.855 -10.657 -17.875  1.00  0.00     0.010 A 
ATOM     36  C   UNL     1      -7.885  -9.971 -16.646  1.00  0.00     0.010 A 
ATOM     37  C   UNL     1      -8.457 -10.563 -17.783  1.00  0.00    -0.014 A 
BRANCH  37  38
ATOM     38  C   UNL     1      -7.577 -11.040 -18.880  1.00  0.00     0.031 A 
ATOM     39  C   UNL     1      -6.600 -12.156 -18.646  1.00  0.00     0.074 A 
ATOM     40  C   UNL     1      -7.605 -10.410 -20.070  1.00  0.00     0.049 A 
ATOM     41  N   UNL     1      -5.705 -12.657 -19.460  1.00  0.00    -0.248 NA
ATOM     42  C   UNL     1      -6.615 -12.776 -17.313  1.00  0.00     0.031 C 
ATOM     43  C   UNL     1      -8.484  -9.291 -20.414  1.00  0.00     0.029 A 
ATOM     44  N   UNL     1      -6.869 -10.616 -21.209  1.00  0.00    -0.354 N 
ATOM     45  C   UNL     1      -5.045 -13.642 -18.737  1.00  0.00     0.074 A 
ATOM     46  C   UNL     1      -5.603 -13.625 -17.401  1.00  0.00     0.031 C 
ATOM     47  C   UNL     1      -8.261  -8.933 -21.688  1.00  0.00     0.029 A 
ATOM     48  C   UNL     1      -7.191  -9.761 -22.235  1.00  0.00     0.049 A 
ATOM     49  H   UNL     1      -6.175 -11.311 -21.285  1.00  0.00     0.167 HD
ATOM     50  C   UNL     1      -4.079 -14.496 -19.152  1.00  0.00     0.037 A 
ATOM     51  C   UNL     1      -6.677  -9.649 -23.474  1.00  0.00     0.037 A 
ATOM     52  C   UNL     1      -3.525 -14.506 -20.482  1.00  0.00     0.049 A 
ATOM     53  C   UNL     1      -5.562 -10.566 -23.893  1.00  0.00     0.074 A 
ATOM     54  C   UNL     1      -2.578 -15.362 -21.017  1.00  0.00     0.029 A 
ATOM     55  N   UNL     1      -3.857 -13.605 -21.484  1.00  0.00    -0.354 N 
ATOM     56  N   UNL     1      -4.993 -11.537 -23.223  1.00  0.00    -0.248 NA
ATOM     57  C   UNL     1      -5.016 -10.366 -25.243  1.00  0.00     0.031 C 
ATOM     58  C   UNL     1      -2.293 -14.942 -22.321  1.00  0.00     0.029 A 
ATOM     59  C   UNL     1      -3.106 -13.861 -22.621  1.00  0.00     0.049 A 
ATOM     60  H   UNL     1      -4.527 -12.888 -21.400  1.00  0.00     0.167 HD
ATOM     61  C   UNL     1      -4.044 -12.084 -24.076  1.00  0.00     0.074 A 
ATOM     62  C   UNL     1      -4.122 -11.341 -25.318  1.00  0.00     0.031 C 
ATOM     63  C   UNL     1      -3.189 -13.113 -23.852  1.00  0.00     0.037 A 
BRANCH  50  64
ATOM     64  C   UNL     1      -3.552 -15.477 -18.142  1.00  0.00     0.057 A 
ATOM     65  C   UNL     1      -4.347 -16.513 -17.629  1.00  0.00     0.134 A 
ATOM     66  C   UNL     1      -2.237 -15.384 -17.671  1.00  0.00     0.134 A 
ATOM     67  F   UNL     1      -5.619 -16.656 -18.030  1.00  0.00    -0.206 F 
ATOM     68  C   UNL     1      -3.869 -17.386 -16.651  1.00  0.00     0.040 A 
ATOM     69  C   UNL     1      -1.736 -16.273 -16.717  1.00  0.00     0.040 A 
ATOM     70  F   UNL     1      -1.415 -14.425 -18.125  1.00  0.00    -0.206 F 
ATOM     71  C   UNL     1      -2.558 -17.269 -16.194  1.00  0.00     0.006 A 
ENDBRANCH  50  64
BRANCH  51  72
ATOM     72  C   UNL     1      -7.239  -8.652 -24.419  1.00  0.00     0.057 A 
ATOM     73  C   UNL     1      -7.989  -9.063 -25.527  1.00  0.00     0.134 A 
ATOM     74  C   UNL     1      -7.059  -7.276 -24.235  1.00  0.00     0.134 A 
ATOM     75  F   UNL     1      -8.180 -10.369 -25.765  1.00  0.00    -0.206 F 
ATOM     76  C   UNL     1      -8.533  -8.143 -26.424  1.00  0.00     0.040 A 
ATOM     77  C   UNL     1      -7.618  -6.344 -25.111  1.00  0.00     0.040 A 
ATOM     78  F   UNL     1      -6.356  -6.818 -23.189  1.00  0.00    -0.206 F 
ATOM     79  C   UNL     1      -8.354  -6.778 -26.212  1.00  0.00     0.006 A 
ENDBRANCH  51  72
BRANCH  63  80
ATOM     80  C   UNL     1      -2.287 -13.517 -24.983  1.00  0.00     0.057 A 
ATOM     81  C   UNL     1      -1.210 -12.721 -25.395  1.00  0.00     0.134 A 
ATOM     82  C   UNL     1      -2.474 -14.739 -25.642  1.00  0.00     0.134 A 
ATOM     83  F   UNL     1      -0.983 -11.531 -24.817  1.00  0.00    -0.206 F 
ATOM     84  C   UNL     1      -0.366 -13.116 -26.434  1.00  0.00     0.040 A 
ATOM     85  C   UNL     1      -1.620 -15.159 -26.662  1.00  0.00     0.040 A 
ATOM     86  F   UNL     1      -3.482 -15.553 -25.294  1.00  0.00    -0.206 F 
ATOM     87  C   UNL     1      -0.565 -14.343 -27.065  1.00  0.00     0.006 A 
ENDBRANCH  63  80
ENDBRANCH  37  38
ENDBRANCH  29  32
ENDBRANCH  27  28
ENDBRANCH  26  27
ENDBRANCH  25  26
ENDBRANCH  23  25
ENDBRANCH  20  21
ENDBRANCH  19  20
ENDBRANCH  18  19
ENDBRANCH   2  18
TORSDOF 23
