REMARK SMILES COC(=O)c1ccc(-c2ccc(C(=O)NCCCNC(=O)c3ccc(-c4c5nc(c(-c6c(F)cccc6F)c6ccc([nH]6)c(-c6c(F)cccc6F)c6nc(c(-c7c(F)cccc7F)c7ccc4[nH]7)C=C6)C=C5)cc3)cc2O)cc1F
REMARK SMILES IDX 16 1 15 2 13 3 14 4 12 6 9 7 10 8 77 9 11 10 76 11 8 12 5 13
REMARK SMILES IDX 6 14 80 15 7 16 79 17 81 18 3 19 4 20 2 21 1 22 78 23 17 25
REMARK SMILES IDX 18 26 19 27 20 28 21 30 22 31 23 32 75 33 24 34 74 35 25 36
REMARK SMILES IDX 26 37 27 38 68 39 28 40 73 41 67 42 69 43 29 44 72 45 66 46
REMARK SMILES IDX 65 47 30 49 56 50 39 51 55 52 40 53 43 54 54 55 70 56 41 57
REMARK SMILES IDX 42 58 53 60 71 61 44 62 31 63 32 64 37 65 33 66 34 67 36 68
REMARK SMILES IDX 38 69 35 70 57 71 58 72 63 73 59 74 60 75 62 76 64 77 61 78
REMARK SMILES IDX 45 79 46 80 51 81 47 82 48 83 50 84 52 85 49 86
REMARK H PARENT 15 5 78 24 19 29 69 48 43 59
REMARK Flexibility Score: inf
ROOT
ATOM      1  C   UNL     1      -4.532  11.507   1.826  1.00  0.00     0.118 C 
ENDROOT
BRANCH   1   2
ATOM      2  N   UNL     1      -3.499  12.127   1.021  1.00  0.00    -0.352 N 
ATOM      3  C   UNL     1      -2.332  11.658   0.478  1.00  0.00     0.251 C 
ATOM      4  O   UNL     1      -1.664  12.453  -0.184  1.00  0.00    -0.269 OA
ATOM      5  H   UNL     1      -3.671  13.076   0.824  1.00  0.00     0.163 HD
BRANCH   3   6
ATOM      6  C   UNL     1      -1.862  10.249   0.607  1.00  0.00     0.043 A 
ATOM      7  C   UNL     1      -0.900   7.582   0.649  1.00  0.00     0.024 A 
ATOM      8  C   UNL     1      -0.477   8.478  -0.340  1.00  0.00     0.013 A 
ATOM      9  C   UNL     1      -1.792   8.053   1.623  1.00  0.00     0.124 A 
ATOM     10  C   UNL     1      -0.962   9.790  -0.367  1.00  0.00     0.015 A 
ATOM     11  C   UNL     1      -2.232   9.377   1.632  1.00  0.00     0.060 A 
BRANCH   7  12
ATOM     12  C   UNL     1      -0.401   6.204   0.676  1.00  0.00    -0.012 A 
ATOM     13  C   UNL     1       0.519   3.556   0.882  1.00  0.00     0.095 A 
ATOM     14  C   UNL     1       1.386   4.621   1.151  1.00  0.00     0.019 A 
ATOM     15  C   UNL     1      -0.800   3.815   0.517  1.00  0.00     0.138 A 
ATOM     16  C   UNL     1       0.929   5.936   1.038  1.00  0.00     0.010 A 
ATOM     17  C   UNL     1      -1.258   5.125   0.408  1.00  0.00     0.049 A 
ATOM     18  F   UNL     1      -1.673   2.819   0.303  1.00  0.00    -0.206 F 
BRANCH  13  19
ATOM     19  C   UNL     1       1.028   2.184   1.039  1.00  0.00     0.340 C 
ATOM     20  O   UNL     1       1.848   1.868   1.883  1.00  0.00    -0.246 OA
BRANCH  19  21
ATOM     21  O   UNL     1       0.529   1.391   0.061  1.00  0.00    -0.465 OA
ATOM     22  C   UNL     1       1.022   0.053   0.095  1.00  0.00     0.282 C 
ENDBRANCH  19  21
ENDBRANCH  13  19
ENDBRANCH   7  12
BRANCH   9  23
ATOM     23  O   UNL     1      -2.232   7.194   2.596  1.00  0.00    -0.507 OA
ATOM     24  H   UNL     1      -1.944   6.302   2.599  1.00  0.00     0.293 HD
ENDBRANCH   9  23
ENDBRANCH   3   6
ENDBRANCH   1   2
BRANCH   1  25
ATOM     25  C   UNL     1      -4.312  11.802   3.310  1.00  0.00     0.042 C 
BRANCH  25  26
ATOM     26  C   UNL     1      -4.713  13.223   3.695  1.00  0.00     0.118 C 
BRANCH  26  27
ATOM     27  N   UNL     1      -6.147  13.428   3.554  1.00  0.00    -0.352 N 
ATOM     28  C   UNL     1      -7.087  13.785   4.483  1.00  0.00     0.251 C 
ATOM     29  H   UNL     1      -6.497  13.286   2.645  1.00  0.00     0.163 HD
ATOM     30  O   UNL     1      -8.276  13.626   4.222  1.00  0.00    -0.269 OA
BRANCH  28  31
ATOM     31  C   UNL     1      -6.689  14.367   5.782  1.00  0.00     0.039 A 
ATOM     32  C   UNL     1      -7.470  14.085   6.906  1.00  0.00     0.014 A 
ATOM     33  C   UNL     1      -5.610  15.249   5.886  1.00  0.00     0.014 A 
ATOM     34  C   UNL     1      -7.157  14.670   8.132  1.00  0.00     0.010 A 
ATOM     35  C   UNL     1      -5.245  15.762   7.128  1.00  0.00     0.010 A 
ATOM     36  C   UNL     1      -6.030  15.501   8.258  1.00  0.00    -0.014 A 
BRANCH  36  37
ATOM     37  C   UNL     1      -5.694  16.131   9.559  1.00  0.00     0.031 A 
ATOM     38  C   UNL     1      -5.727  17.629   9.705  1.00  0.00     0.074 A 
ATOM     39  C   UNL     1      -5.354  15.352  10.604  1.00  0.00     0.049 A 
ATOM     40  N   UNL     1      -5.466  18.359  10.760  1.00  0.00    -0.248 NA
ATOM     41  C   UNL     1      -6.080  18.414   8.510  1.00  0.00     0.031 C 
ATOM     42  C   UNL     1      -5.254  13.891  10.571  1.00  0.00     0.029 A 
ATOM     43  N   UNL     1      -5.040  15.676  11.899  1.00  0.00    -0.354 N 
ATOM     44  C   UNL     1      -5.622  19.679  10.355  1.00  0.00     0.074 A 
ATOM     45  C   UNL     1      -5.936  19.657   8.945  1.00  0.00     0.031 C 
ATOM     46  C   UNL     1      -4.952  13.443  11.800  1.00  0.00     0.029 A 
ATOM     47  C   UNL     1      -4.795  14.584  12.696  1.00  0.00     0.049 A 
ATOM     48  H   UNL     1      -4.996  16.603  12.227  1.00  0.00     0.167 HD
ATOM     49  C   UNL     1      -5.545  20.805  11.101  1.00  0.00     0.037 A 
ATOM     50  C   UNL     1      -4.484  14.511  14.005  1.00  0.00     0.037 A 
ATOM     51  C   UNL     1      -5.261  20.820  12.511  1.00  0.00     0.049 A 
ATOM     52  C   UNL     1      -4.387  15.783  14.803  1.00  0.00     0.074 A 
ATOM     53  C   UNL     1      -5.193  21.909  13.362  1.00  0.00     0.029 A 
ATOM     54  N   UNL     1      -5.009  19.694  13.279  1.00  0.00    -0.354 N 
ATOM     55  N   UNL     1      -4.582  17.020  14.414  1.00  0.00    -0.248 NA
ATOM     56  C   UNL     1      -4.036  15.648  16.223  1.00  0.00     0.031 C 
ATOM     57  C   UNL     1      -4.853  21.447  14.635  1.00  0.00     0.029 A 
ATOM     58  C   UNL     1      -4.772  20.064  14.592  1.00  0.00     0.049 A 
ATOM     59  H   UNL     1      -5.000  18.769  12.941  1.00  0.00     0.167 HD
ATOM     60  C   UNL     1      -4.416  17.805  15.548  1.00  0.00     0.074 A 
ATOM     61  C   UNL     1      -4.119  16.903  16.641  1.00  0.00     0.031 C 
ATOM     62  C   UNL     1      -4.500  19.152  15.673  1.00  0.00     0.037 A 
BRANCH  49  63
ATOM     63  C   UNL     1      -5.801  22.121  10.425  1.00  0.00     0.057 A 
ATOM     64  C   UNL     1      -4.776  23.064  10.276  1.00  0.00     0.134 A 
ATOM     65  C   UNL     1      -7.087  22.496  10.015  1.00  0.00     0.134 A 
ATOM     66  F   UNL     1      -3.521  22.771  10.652  1.00  0.00    -0.206 F 
ATOM     67  C   UNL     1      -5.026  24.340   9.770  1.00  0.00     0.040 A 
ATOM     68  C   UNL     1      -7.345  23.760   9.482  1.00  0.00     0.040 A 
ATOM     69  F   UNL     1      -8.111  21.635  10.117  1.00  0.00    -0.206 F 
ATOM     70  C   UNL     1      -6.314  24.692   9.372  1.00  0.00     0.006 A 
ENDBRANCH  49  63
BRANCH  50  71
ATOM     71  C   UNL     1      -4.286  13.189  14.654  1.00  0.00     0.057 A 
ATOM     72  C   UNL     1      -3.196  12.370  14.335  1.00  0.00     0.134 A 
ATOM     73  C   UNL     1      -5.183  12.717  15.619  1.00  0.00     0.134 A 
ATOM     74  F   UNL     1      -2.304  12.757  13.411  1.00  0.00    -0.206 F 
ATOM     75  C   UNL     1      -3.009  11.130  14.948  1.00  0.00     0.040 A 
ATOM     76  C   UNL     1      -4.992  11.493  16.262  1.00  0.00     0.040 A 
ATOM     77  F   UNL     1      -6.240  13.461  15.979  1.00  0.00    -0.206 F 
ATOM     78  C   UNL     1      -3.904  10.693  15.922  1.00  0.00     0.006 A 
ENDBRANCH  50  71
BRANCH  62  79
ATOM     79  C   UNL     1      -4.320  19.737  17.044  1.00  0.00     0.057 A 
ATOM     80  C   UNL     1      -5.396  20.346  17.702  1.00  0.00     0.134 A 
ATOM     81  C   UNL     1      -3.075  19.756  17.685  1.00  0.00     0.134 A 
ATOM     82  F   UNL     1      -6.613  20.376  17.137  1.00  0.00    -0.206 F 
ATOM     83  C   UNL     1      -5.239  20.962  18.944  1.00  0.00     0.040 A 
ATOM     84  C   UNL     1      -2.913  20.340  18.942  1.00  0.00     0.040 A 
ATOM     85  F   UNL     1      -2.006  19.184  17.112  1.00  0.00    -0.206 F 
ATOM     86  C   UNL     1      -3.995  20.953  19.571  1.00  0.00     0.006 A 
ENDBRANCH  62  79
ENDBRANCH  36  37
ENDBRANCH  28  31
ENDBRANCH  26  27
ENDBRANCH  25  26
ENDBRANCH   1  25
TORSDOF 14
