REMARK SMILES CCc1cc(N2CCC[C@H](C(=O)NCCCNC(=O)c3ccc(-c4c5nc(c(-c6c(F)cccc6F)c6ccc([nH]6)c(-c6c(F)cccc6F)c6nc(c(-c7c(F)cccc7F)c7ccc4[nH]7)C=C6)C=C5)cc3)C2)nc(-c2ccc(Cl)cc2)n1
REMARK SMILES IDX 15 1 14 2 13 3 11 4 12 5 10 7 6 8 7 9 74 10 8 11 9 12 5 13
REMARK SMILES IDX 3 14 4 15 84 16 76 17 75 18 2 19 1 20 77 21 78 22 83 23
REMARK SMILES IDX 79 24 82 25 80 26 81 27 16 28 17 29 18 30 19 32 20 33 21 34
REMARK SMILES IDX 73 35 22 36 72 37 23 38 24 39 25 40 66 41 26 42 71 43 65 44
REMARK SMILES IDX 67 45 27 46 70 47 64 48 63 49 28 51 54 52 37 53 53 54 38 55
REMARK SMILES IDX 41 56 52 57 68 58 39 59 40 60 51 62 69 63 42 64 29 65 30 66
REMARK SMILES IDX 35 67 31 68 32 69 34 70 36 71 33 72 55 73 56 74 61 75 57 76
REMARK SMILES IDX 58 77 60 78 62 79 59 80 43 81 44 82 49 83 45 84 46 85 48 86
REMARK SMILES IDX 50 87 47 88
REMARK H PARENT 13 6 17 31 67 50 41 61
REMARK Flexibility Score: inf
ROOT
ATOM      1  C   UNL     1       0.825   7.139  -5.609  1.00  0.00     0.042 C 
ENDROOT
BRANCH   1   2
ATOM      2  C   UNL     1       1.652   6.558  -4.478  1.00  0.00     0.117 C 
BRANCH   2   3
ATOM      3  N   UNL     1       2.630   7.481  -3.947  1.00  0.00    -0.356 N 
ATOM      4  C   UNL     1       2.776   7.995  -2.700  1.00  0.00     0.224 C 
ATOM      5  O   UNL     1       3.821   8.626  -2.494  1.00  0.00    -0.275 OA
ATOM      6  H   UNL     1       3.301   7.788  -4.598  1.00  0.00     0.163 HD
BRANCH   4   7
ATOM      7  C   UNL     1       1.753   7.860  -1.568  1.00  0.00     0.098 C 
ATOM      8  N   UNL     1       0.528   5.723  -1.625  1.00  0.00    -0.356 N 
ATOM      9  C   UNL     1      -0.798   6.315  -1.656  1.00  0.00     0.118 C 
ATOM     10  C   UNL     1       1.622   6.451  -1.004  1.00  0.00     0.131 C 
ATOM     11  C   UNL     1      -0.742   7.718  -2.271  1.00  0.00     0.022 C 
ATOM     12  C   UNL     1       0.418   8.583  -1.779  1.00  0.00     0.017 C 
BRANCH   8  13
ATOM     13  C   UNL     1       0.692   4.356  -1.729  1.00  0.00     0.132 A 
ATOM     14  C   UNL     1       0.590   2.171  -0.856  1.00  0.00     0.046 A 
ATOM     15  C   UNL     1       0.309   3.515  -0.707  1.00  0.00     0.070 A 
ATOM     16  N   UNL     1       1.142   1.679  -1.980  1.00  0.00    -0.233 NA
ATOM     17  C   UNL     1       1.488   2.566  -2.926  1.00  0.00     0.161 A 
ATOM     18  N   UNL     1       1.312   3.894  -2.831  1.00  0.00    -0.211 NA
BRANCH  14  19
ATOM     19  C   UNL     1       0.285   1.218   0.271  1.00  0.00     0.053 C 
ATOM     20  C   UNL     1       0.912  -0.160   0.108  1.00  0.00     0.011 C 
ENDBRANCH  14  19
BRANCH  17  21
ATOM     21  C   UNL     1       2.122   2.030  -4.136  1.00  0.00     0.019 A 
ATOM     22  C   UNL     1       1.526   0.969  -4.845  1.00  0.00     0.013 A 
ATOM     23  C   UNL     1       3.355   2.521  -4.603  1.00  0.00     0.013 A 
ATOM     24  C   UNL     1       2.142   0.409  -5.969  1.00  0.00     0.021 A 
ATOM     25  C   UNL     1       3.983   1.952  -5.718  1.00  0.00     0.021 A 
ATOM     26  C   UNL     1       3.374   0.897  -6.394  1.00  0.00     0.041 A 
ATOM     27  Cl  UNL     1       4.158   0.178  -7.747  1.00  0.00    -0.084 Cl
ENDBRANCH  17  21
ENDBRANCH   8  13
ENDBRANCH   4   7
ENDBRANCH   2   3
ENDBRANCH   1   2
BRANCH   1  28
ATOM     28  C   UNL     1       1.439   6.871  -6.970  1.00  0.00     0.118 C 
BRANCH  28  29
ATOM     29  N   UNL     1       1.379   5.459  -7.341  1.00  0.00    -0.352 N 
ATOM     30  C   UNL     1       0.673   4.817  -8.334  1.00  0.00     0.251 C 
ATOM     31  H   UNL     1       1.938   4.866  -6.788  1.00  0.00     0.163 HD
ATOM     32  O   UNL     1       0.624   3.596  -8.360  1.00  0.00    -0.269 OA
BRANCH  30  33
ATOM     33  C   UNL     1      -0.064   5.603  -9.347  1.00  0.00     0.039 A 
ATOM     34  C   UNL     1      -1.334   5.173  -9.743  1.00  0.00     0.014 A 
ATOM     35  C   UNL     1       0.477   6.768  -9.888  1.00  0.00     0.014 A 
ATOM     36  C   UNL     1      -2.099   5.971 -10.596  1.00  0.00     0.010 A 
ATOM     37  C   UNL     1      -0.325   7.616 -10.640  1.00  0.00     0.010 A 
ATOM     38  C   UNL     1      -1.625   7.230 -10.998  1.00  0.00    -0.014 A 
BRANCH  38  39
ATOM     39  C   UNL     1      -2.472   8.172 -11.769  1.00  0.00     0.031 A 
ATOM     40  C   UNL     1      -2.028   8.651 -13.123  1.00  0.00     0.074 A 
ATOM     41  C   UNL     1      -3.593   8.668 -11.207  1.00  0.00     0.049 A 
ATOM     42  N   UNL     1      -2.571   9.553 -13.900  1.00  0.00    -0.248 NA
ATOM     43  C   UNL     1      -0.791   8.062 -13.662  1.00  0.00     0.031 C 
ATOM     44  C   UNL     1      -4.097   8.324  -9.875  1.00  0.00     0.029 A 
ATOM     45  N   UNL     1      -4.503   9.581 -11.678  1.00  0.00    -0.354 N 
ATOM     46  C   UNL     1      -1.735   9.652 -15.004  1.00  0.00     0.074 A 
ATOM     47  C   UNL     1      -0.618   8.763 -14.772  1.00  0.00     0.031 C 
ATOM     48  C   UNL     1      -5.237   8.995  -9.649  1.00  0.00     0.029 A 
ATOM     49  C   UNL     1      -5.519   9.852 -10.794  1.00  0.00     0.049 A 
ATOM     50  H   UNL     1      -4.434  10.001 -12.566  1.00  0.00     0.167 HD
ATOM     51  C   UNL     1      -1.897  10.397 -16.123  1.00  0.00     0.037 A 
ATOM     52  C   UNL     1      -6.553  10.710 -10.889  1.00  0.00     0.037 A 
ATOM     53  C   UNL     1      -3.025  11.259 -16.358  1.00  0.00     0.049 A 
ATOM     54  C   UNL     1      -6.700  11.540 -12.133  1.00  0.00     0.074 A 
ATOM     55  C   UNL     1      -3.322  11.998 -17.489  1.00  0.00     0.029 A 
ATOM     56  N   UNL     1      -4.037  11.502 -15.442  1.00  0.00    -0.354 N 
ATOM     57  N   UNL     1      -5.944  11.564 -13.204  1.00  0.00    -0.248 NA
ATOM     58  C   UNL     1      -7.840  12.466 -12.180  1.00  0.00     0.031 C 
ATOM     59  C   UNL     1      -4.487  12.730 -17.237  1.00  0.00     0.029 A 
ATOM     60  C   UNL     1      -4.943  12.408 -15.968  1.00  0.00     0.049 A 
ATOM     61  H   UNL     1      -4.102  11.091 -14.550  1.00  0.00     0.167 HD
ATOM     62  C   UNL     1      -6.524  12.492 -14.059  1.00  0.00     0.074 A 
ATOM     63  C   UNL     1      -7.708  12.992 -13.390  1.00  0.00     0.031 C 
ATOM     64  C   UNL     1      -6.112  12.897 -15.284  1.00  0.00     0.037 A 
BRANCH  51  65
ATOM     65  C   UNL     1      -0.833  10.307 -17.178  1.00  0.00     0.057 A 
ATOM     66  C   UNL     1      -0.644   9.147 -17.942  1.00  0.00     0.134 A 
ATOM     67  C   UNL     1      -0.006  11.403 -17.456  1.00  0.00     0.134 A 
ATOM     68  F   UNL     1      -1.393   8.056 -17.718  1.00  0.00    -0.206 F 
ATOM     69  C   UNL     1       0.344   9.071 -18.925  1.00  0.00     0.040 A 
ATOM     70  C   UNL     1       0.966  11.349 -18.457  1.00  0.00     0.040 A 
ATOM     71  F   UNL     1      -0.135  12.546 -16.767  1.00  0.00    -0.206 F 
ATOM     72  C   UNL     1       1.147  10.178 -19.190  1.00  0.00     0.006 A 
ENDBRANCH  51  65
BRANCH  52  73
ATOM     73  C   UNL     1      -7.533  10.821  -9.778  1.00  0.00     0.057 A 
ATOM     74  C   UNL     1      -8.850  10.371  -9.930  1.00  0.00     0.134 A 
ATOM     75  C   UNL     1      -7.184  11.383  -8.544  1.00  0.00     0.134 A 
ATOM     76  F   UNL     1      -9.251   9.840 -11.095  1.00  0.00    -0.206 F 
ATOM     77  C   UNL     1      -9.788  10.491  -8.904  1.00  0.00     0.040 A 
ATOM     78  C   UNL     1      -8.104  11.485  -7.500  1.00  0.00     0.040 A 
ATOM     79  F   UNL     1      -5.937  11.827  -8.330  1.00  0.00    -0.206 F 
ATOM     80  C   UNL     1      -9.414  11.045  -7.681  1.00  0.00     0.006 A 
ENDBRANCH  52  73
BRANCH  64  81
ATOM     81  C   UNL     1      -6.953  13.924 -15.984  1.00  0.00     0.057 A 
ATOM     82  C   UNL     1      -6.977  15.261 -15.569  1.00  0.00     0.134 A 
ATOM     83  C   UNL     1      -7.708  13.583 -17.113  1.00  0.00     0.134 A 
ATOM     84  F   UNL     1      -6.287  15.649 -14.485  1.00  0.00    -0.206 F 
ATOM     85  C   UNL     1      -7.737  16.219 -16.241  1.00  0.00     0.040 A 
ATOM     86  C   UNL     1      -8.449  14.537 -17.811  1.00  0.00     0.040 A 
ATOM     87  F   UNL     1      -7.721  12.321 -17.568  1.00  0.00    -0.206 F 
ATOM     88  C   UNL     1      -8.469  15.859 -17.371  1.00  0.00     0.006 A 
ENDBRANCH  64  81
ENDBRANCH  38  39
ENDBRANCH  30  33
ENDBRANCH  28  29
ENDBRANCH   1  28
TORSDOF 13
