REMARK SMILES Cc1csc(C[NH2+]C[C@H]2CCC[C@H]2C(=O)NCCCNC(=O)c2ccc(-c3c4nc(c(-c5c(F)cccc5F)c5ccc([nH]5)c(-c5c(F)cccc5F)c5nc(c(-c6c(F)cccc6F)c6ccc3[nH]6)C=C5)C=C4)cc2)n1
REMARK SMILES IDX 17 1 16 2 14 3 15 4 13 6 9 7 10 8 11 9 12 10 8 11 7 12 6 15
REMARK SMILES IDX 5 16 1 17 2 18 3 19 77 20 4 21 18 22 19 23 20 24 21 25 22 27
REMARK SMILES IDX 23 28 24 29 76 30 25 31 75 32 26 33 27 34 28 35 69 36 29 37
REMARK SMILES IDX 74 38 68 39 70 40 30 41 73 42 67 43 66 44 31 46 57 47 40 48
REMARK SMILES IDX 56 49 41 50 44 51 55 52 71 53 42 54 43 55 54 57 72 58 45 59
REMARK SMILES IDX 32 60 33 61 38 62 34 63 35 64 37 65 39 66 36 67 58 68 59 69
REMARK SMILES IDX 64 70 60 71 61 72 63 73 65 74 62 75 46 76 47 77 52 78 48 79
REMARK SMILES IDX 49 80 51 81 53 82 50 83
REMARK H PARENT 16 5 7 13 7 14 20 26 70 45 44 56
REMARK Flexibility Score: inf
ROOT
ATOM      1  C   UNL     1       5.265   1.997   0.631  1.00  0.00     0.117 C 
ENDROOT
BRANCH   1   2
ATOM      2  N   UNL     1       4.026   1.552   0.009  1.00  0.00    -0.356 N 
ATOM      3  C   UNL     1       3.299   1.953  -1.061  1.00  0.00     0.223 C 
ATOM      4  O   UNL     1       2.230   1.355  -1.234  1.00  0.00    -0.275 OA
ATOM      5  H   UNL     1       3.623   0.782   0.473  1.00  0.00     0.163 HD
BRANCH   3   6
ATOM      6  C   UNL     1       3.676   3.077  -2.023  1.00  0.00     0.087 C 
ATOM      7  C   UNL     1       3.321   4.533  -1.625  1.00  0.00     0.057 C 
ATOM      8  C   UNL     1       4.204   5.332  -2.592  1.00  0.00     0.010 C 
ATOM      9  C   UNL     1       5.521   4.568  -2.600  1.00  0.00     0.001 C 
ATOM     10  C   UNL     1       5.106   3.099  -2.581  1.00  0.00     0.014 C 
BRANCH   7  11
ATOM     11  C   UNL     1       3.586   4.842  -0.148  1.00  0.00     0.265 C 
BRANCH  11  12
ATOM     12  N   UNL     1       3.553   6.229   0.271  1.00  0.00    -0.340 N 
ATOM     13  H   UNL     1       4.044   6.300   1.162  1.00  0.00     0.346 HD
ATOM     14  H   UNL     1       3.989   6.760  -0.483  1.00  0.00     0.346 HD
BRANCH  12  15
ATOM     15  C   UNL     1       2.220   6.801   0.445  1.00  0.00     0.329 C 
BRANCH  15  16
ATOM     16  C   UNL     1       2.351   8.168   1.073  1.00  0.00     0.147 A 
ATOM     17  C   UNL     1       3.320  10.154   3.912  1.00  0.00     0.067 C 
ATOM     18  C   UNL     1       2.870   9.729   2.563  1.00  0.00     0.049 A 
ATOM     19  C   UNL     1       2.634  10.538   1.469  1.00  0.00     0.090 A 
ATOM     20  N   UNL     1       2.678   8.379   2.333  1.00  0.00    -0.241 NA
ATOM     21  S   UNL     1       2.183   9.588   0.116  1.00  0.00    -0.121 S 
ENDBRANCH  15  16
ENDBRANCH  12  15
ENDBRANCH  11  12
ENDBRANCH   7  11
ENDBRANCH   3   6
ENDBRANCH   1   2
BRANCH   1  22
ATOM     22  C   UNL     1       5.034   2.596   2.020  1.00  0.00     0.042 C 
BRANCH  22  23
ATOM     23  C   UNL     1       4.561   1.604   3.075  1.00  0.00     0.118 C 
BRANCH  23  24
ATOM     24  N   UNL     1       5.656   0.834   3.635  1.00  0.00    -0.352 N 
ATOM     25  C   UNL     1       6.187   0.839   4.902  1.00  0.00     0.251 C 
ATOM     26  H   UNL     1       6.086   0.209   3.008  1.00  0.00     0.163 HD
ATOM     27  O   UNL     1       7.258   0.270   5.098  1.00  0.00    -0.269 OA
BRANCH  25  28
ATOM     28  C   UNL     1       5.507   1.519   6.035  1.00  0.00     0.039 A 
ATOM     29  C   UNL     1       6.300   2.139   7.008  1.00  0.00     0.014 A 
ATOM     30  C   UNL     1       4.120   1.483   6.205  1.00  0.00     0.014 A 
ATOM     31  C   UNL     1       5.707   2.740   8.123  1.00  0.00     0.010 A 
ATOM     32  C   UNL     1       3.523   2.150   7.277  1.00  0.00     0.010 A 
ATOM     33  C   UNL     1       4.310   2.764   8.262  1.00  0.00    -0.014 A 
BRANCH  33  34
ATOM     34  C   UNL     1       3.676   3.390   9.452  1.00  0.00     0.031 A 
ATOM     35  C   UNL     1       2.912   2.550  10.442  1.00  0.00     0.074 A 
ATOM     36  C   UNL     1       3.757   4.722   9.634  1.00  0.00     0.049 A 
ATOM     37  N   UNL     1       2.296   2.917  11.539  1.00  0.00    -0.248 NA
ATOM     38  C   UNL     1       2.801   1.113  10.147  1.00  0.00     0.031 C 
ATOM     39  C   UNL     1       4.407   5.662   8.720  1.00  0.00     0.029 A 
ATOM     40  N   UNL     1       3.286   5.516  10.650  1.00  0.00    -0.354 N 
ATOM     41  C   UNL     1       1.708   1.766  12.048  1.00  0.00     0.074 A 
ATOM     42  C   UNL     1       2.004   0.696  11.120  1.00  0.00     0.031 C 
ATOM     43  C   UNL     1       4.314   6.902   9.228  1.00  0.00     0.029 A 
ATOM     44  C   UNL     1       3.584   6.847  10.492  1.00  0.00     0.049 A 
ATOM     45  H   UNL     1       2.781   5.164  11.419  1.00  0.00     0.167 HD
ATOM     46  C   UNL     1       1.004   1.605  13.194  1.00  0.00     0.037 A 
ATOM     47  C   UNL     1       3.309   7.903  11.280  1.00  0.00     0.037 A 
ATOM     48  C   UNL     1       0.745   2.655  14.144  1.00  0.00     0.049 A 
ATOM     49  C   UNL     1       2.585   7.691  12.579  1.00  0.00     0.074 A 
ATOM     50  C   UNL     1       0.113   2.572  15.373  1.00  0.00     0.029 A 
ATOM     51  N   UNL     1       1.107   3.982  13.970  1.00  0.00    -0.354 N 
ATOM     52  N   UNL     1       2.107   6.582  13.087  1.00  0.00    -0.248 NA
ATOM     53  C   UNL     1       2.374   8.878  13.421  1.00  0.00     0.031 C 
ATOM     54  C   UNL     1       0.068   3.855  15.930  1.00  0.00     0.029 A 
ATOM     55  C   UNL     1       0.700   4.730  15.063  1.00  0.00     0.049 A 
ATOM     56  H   UNL     1       1.582   4.339  13.185  1.00  0.00     0.167 HD
ATOM     57  C   UNL     1       1.555   6.931  14.312  1.00  0.00     0.074 A 
ATOM     58  C   UNL     1       1.774   8.353  14.480  1.00  0.00     0.031 C 
ATOM     59  C   UNL     1       0.922   6.144  15.215  1.00  0.00     0.037 A 
BRANCH  46  60
ATOM     60  C   UNL     1       0.470   0.234  13.487  1.00  0.00     0.057 A 
ATOM     61  C   UNL     1       1.310  -0.819  13.873  1.00  0.00     0.134 A 
ATOM     62  C   UNL     1      -0.902  -0.032  13.403  1.00  0.00     0.134 A 
ATOM     63  F   UNL     1       2.636  -0.633  13.960  1.00  0.00    -0.206 F 
ATOM     64  C   UNL     1       0.808  -2.095  14.136  1.00  0.00     0.040 A 
ATOM     65  C   UNL     1      -1.419  -1.297  13.687  1.00  0.00     0.040 A 
ATOM     66  F   UNL     1      -1.763   0.933  13.046  1.00  0.00    -0.206 F 
ATOM     67  C   UNL     1      -0.561  -2.335  14.048  1.00  0.00     0.006 A 
ENDBRANCH  46  60
BRANCH  47  68
ATOM     68  C   UNL     1       3.763   9.256  10.878  1.00  0.00     0.057 A 
ATOM     69  C   UNL     1       4.845   9.873  11.517  1.00  0.00     0.134 A 
ATOM     70  C   UNL     1       3.135   9.959   9.844  1.00  0.00     0.134 A 
ATOM     71  F   UNL     1       5.473   9.255  12.527  1.00  0.00    -0.206 F 
ATOM     72  C   UNL     1       5.279  11.147  11.150  1.00  0.00     0.040 A 
ATOM     73  C   UNL     1       3.571  11.226   9.454  1.00  0.00     0.040 A 
ATOM     74  F   UNL     1       2.096   9.418   9.191  1.00  0.00    -0.206 F 
ATOM     75  C   UNL     1       4.644  11.825  10.111  1.00  0.00     0.006 A 
ENDBRANCH  47  68
BRANCH  59  76
ATOM     76  C   UNL     1       0.435   6.804  16.470  1.00  0.00     0.057 A 
ATOM     77  C   UNL     1      -0.693   7.635  16.474  1.00  0.00     0.134 A 
ATOM     78  C   UNL     1       1.088   6.591  17.690  1.00  0.00     0.134 A 
ATOM     79  F   UNL     1      -1.353   7.889  15.334  1.00  0.00    -0.206 F 
ATOM     80  C   UNL     1      -1.141   8.250  17.644  1.00  0.00     0.040 A 
ATOM     81  C   UNL     1       0.637   7.184  18.871  1.00  0.00     0.040 A 
ATOM     82  F   UNL     1       2.170   5.801  17.755  1.00  0.00    -0.206 F 
ATOM     83  C   UNL     1      -0.477   8.021  18.848  1.00  0.00     0.006 A 
ENDBRANCH  59  76
ENDBRANCH  33  34
ENDBRANCH  25  28
ENDBRANCH  23  24
ENDBRANCH  22  23
ENDBRANCH   1  22
TORSDOF 14
