REMARK SMILES C[C@H]1C[NH2+]C[C@@H](CC(=O)NCCCNC(=O)c2ccc(-c3c4nc(c(-c5c(F)cccc5F)c5ccc([nH]5)c(-c5c(F)cccc5F)c5nc(c(-c6c(F)cccc6F)c6ccc3[nH]6)C=C5)C=C4)cc2)C1
REMARK SMILES IDX 12 1 11 2 10 3 8 4 9 5 7 7 6 8 1 9 2 10 3 11 71 12 4 13 5 14
REMARK SMILES IDX 13 17 14 18 15 19 16 21 17 22 18 23 70 24 19 25 69 26 20 27
REMARK SMILES IDX 21 28 22 29 63 30 23 31 68 32 62 33 64 34 24 35 67 36 61 37
REMARK SMILES IDX 60 38 25 40 51 41 34 42 50 43 35 44 38 45 49 46 65 47 36 48
REMARK SMILES IDX 37 49 48 51 66 52 39 53 26 54 27 55 32 56 28 57 29 58 31 59
REMARK SMILES IDX 33 60 30 61 52 62 53 63 58 64 54 65 55 66 57 67 59 68 56 69
REMARK SMILES IDX 40 70 41 71 46 72 42 73 43 74 45 75 47 76 44 77
REMARK H PARENT 10 6 4 15 4 16 14 20 64 39 38 50
REMARK Flexibility Score: inf
ROOT
ATOM      1  C   UNL     1      -2.416  -3.224   0.794  1.00  0.00     0.042 C 
ENDROOT
BRANCH   1   2
ATOM      2  C   UNL     1      -1.075  -3.745   1.319  1.00  0.00     0.117 C 
BRANCH   2   3
ATOM      3  N   UNL     1      -0.150  -4.092   0.247  1.00  0.00    -0.356 N 
ATOM      4  C   UNL     1       1.010  -3.510  -0.169  1.00  0.00     0.220 C 
ATOM      5  O   UNL     1       1.591  -4.006  -1.136  1.00  0.00    -0.275 OA
ATOM      6  H   UNL     1      -0.409  -4.890  -0.268  1.00  0.00     0.163 HD
BRANCH   4   7
ATOM      7  C   UNL     1       1.567  -2.280   0.520  1.00  0.00     0.109 C 
BRANCH   7   8
ATOM      8  C   UNL     1       1.245  -0.972  -0.227  1.00  0.00     0.054 C 
ATOM      9  C   UNL     1      -2.149   0.922  -0.382  1.00  0.00     0.013 C 
ATOM     10  C   UNL     1      -0.659   0.703  -0.659  1.00  0.00     0.041 C 
ATOM     11  C   UNL     1       0.192   1.747   0.066  1.00  0.00     0.263 C 
ATOM     12  C   UNL     1      -0.263  -0.709  -0.228  1.00  0.00     0.019 C 
ATOM     13  N   UNL     1       1.619   1.495  -0.140  1.00  0.00    -0.346 N 
ATOM     14  C   UNL     1       2.005   0.198   0.417  1.00  0.00     0.264 C 
ATOM     15  H   UNL     1       2.158   2.230   0.318  1.00  0.00     0.346 HD
ATOM     16  H   UNL     1       1.808   1.490  -1.143  1.00  0.00     0.346 HD
ENDBRANCH   7   8
ENDBRANCH   4   7
ENDBRANCH   2   3
ENDBRANCH   1   2
BRANCH   1  17
ATOM     17  C   UNL     1      -3.266  -4.277   0.088  1.00  0.00     0.118 C 
BRANCH  17  18
ATOM     18  N   UNL     1      -4.236  -4.875   0.986  1.00  0.00    -0.352 N 
ATOM     19  C   UNL     1      -5.593  -4.672   1.100  1.00  0.00     0.251 C 
ATOM     20  H   UNL     1      -3.864  -5.534   1.616  1.00  0.00     0.163 HD
ATOM     21  O   UNL     1      -6.173  -5.095   2.097  1.00  0.00    -0.269 OA
BRANCH  19  22
ATOM     22  C   UNL     1      -6.370  -3.949   0.061  1.00  0.00     0.039 A 
ATOM     23  C   UNL     1      -7.423  -3.122   0.472  1.00  0.00     0.014 A 
ATOM     24  C   UNL     1      -6.148  -4.141  -1.305  1.00  0.00     0.014 A 
ATOM     25  C   UNL     1      -8.215  -2.459  -0.473  1.00  0.00     0.010 A 
ATOM     26  C   UNL     1      -6.896  -3.428  -2.248  1.00  0.00     0.010 A 
ATOM     27  C   UNL     1      -7.944  -2.587  -1.844  1.00  0.00    -0.014 A 
BRANCH  27  28
ATOM     28  C   UNL     1      -8.753  -1.867  -2.865  1.00  0.00     0.031 A 
ATOM     29  C   UNL     1      -9.593  -2.632  -3.853  1.00  0.00     0.074 A 
ATOM     30  C   UNL     1      -8.684  -0.523  -2.953  1.00  0.00     0.049 A 
ATOM     31  N   UNL     1     -10.280  -2.186  -4.876  1.00  0.00    -0.248 NA
ATOM     32  C   UNL     1      -9.651  -4.092  -3.684  1.00  0.00     0.031 C 
ATOM     33  C   UNL     1      -7.882   0.342  -2.087  1.00  0.00     0.029 A 
ATOM     34  N   UNL     1      -9.284   0.348  -3.830  1.00  0.00    -0.354 N 
ATOM     35  C   UNL     1     -10.824  -3.309  -5.488  1.00  0.00     0.074 A 
ATOM     36  C   UNL     1     -10.367  -4.460  -4.738  1.00  0.00     0.031 C 
ATOM     37  C   UNL     1      -8.042   1.619  -2.474  1.00  0.00     0.029 A 
ATOM     38  C   UNL     1      -8.927   1.660  -3.634  1.00  0.00     0.049 A 
ATOM     39  H   UNL     1      -9.910   0.059  -4.533  1.00  0.00     0.167 HD
ATOM     40  C   UNL     1     -11.639  -3.376  -6.567  1.00  0.00     0.037 A 
ATOM     41  C   UNL     1      -9.257   2.771  -4.321  1.00  0.00     0.037 A 
ATOM     42  C   UNL     1     -12.143  -2.234  -7.283  1.00  0.00     0.049 A 
ATOM     43  C   UNL     1     -10.170   2.669  -5.510  1.00  0.00     0.074 A 
ATOM     44  C   UNL     1     -13.063  -2.204  -8.318  1.00  0.00     0.029 A 
ATOM     45  N   UNL     1     -11.770  -0.922  -7.041  1.00  0.00    -0.354 N 
ATOM     46  N   UNL     1     -10.734   1.607  -6.029  1.00  0.00    -0.248 NA
ATOM     47  C   UNL     1     -10.491   3.922  -6.211  1.00  0.00     0.031 C 
ATOM     48  C   UNL     1     -13.217  -0.876  -8.729  1.00  0.00     0.029 A 
ATOM     49  C   UNL     1     -12.417  -0.077  -7.928  1.00  0.00     0.049 A 
ATOM     50  H   UNL     1     -11.138  -0.633  -6.343  1.00  0.00     0.167 HD
ATOM     51  C   UNL     1     -11.485   2.062  -7.105  1.00  0.00     0.074 A 
ATOM     52  C   UNL     1     -11.318   3.499  -7.157  1.00  0.00     0.031 C 
ATOM     53  C   UNL     1     -12.243   1.350  -7.973  1.00  0.00     0.037 A 
BRANCH  40  54
ATOM     54  C   UNL     1     -12.050  -4.736  -7.047  1.00  0.00     0.057 A 
ATOM     55  C   UNL     1     -13.002  -5.503  -6.365  1.00  0.00     0.134 A 
ATOM     56  C   UNL     1     -11.532  -5.254  -8.241  1.00  0.00     0.134 A 
ATOM     57  F   UNL     1     -13.530  -5.065  -5.213  1.00  0.00    -0.206 F 
ATOM     58  C   UNL     1     -13.413  -6.748  -6.845  1.00  0.00     0.040 A 
ATOM     59  C   UNL     1     -11.950  -6.488  -8.741  1.00  0.00     0.040 A 
ATOM     60  F   UNL     1     -10.623  -4.564  -8.945  1.00  0.00    -0.206 F 
ATOM     61  C   UNL     1     -12.891  -7.240  -8.041  1.00  0.00     0.006 A 
ENDBRANCH  40  54
BRANCH  41  62
ATOM     62  C   UNL     1      -8.710   4.086  -3.907  1.00  0.00     0.057 A 
ATOM     63  C   UNL     1      -9.525   5.047  -3.300  1.00  0.00     0.134 A 
ATOM     64  C   UNL     1      -7.367   4.416  -4.121  1.00  0.00     0.134 A 
ATOM     65  F   UNL     1     -10.825   4.795  -3.091  1.00  0.00    -0.206 F 
ATOM     66  C   UNL     1      -9.027   6.298  -2.932  1.00  0.00     0.040 A 
ATOM     67  C   UNL     1      -6.851   5.656  -3.740  1.00  0.00     0.040 A 
ATOM     68  F   UNL     1      -6.536   3.535  -4.697  1.00  0.00    -0.206 F 
ATOM     69  C   UNL     1      -7.685   6.603  -3.148  1.00  0.00     0.006 A 
ENDBRANCH  41  62
BRANCH  53  70
ATOM     70  C   UNL     1     -12.958   2.113  -9.046  1.00  0.00     0.057 A 
ATOM     71  C   UNL     1     -12.282   2.605 -10.168  1.00  0.00     0.134 A 
ATOM     72  C   UNL     1     -14.342   2.318  -8.979  1.00  0.00     0.134 A 
ATOM     73  F   UNL     1     -10.954   2.452 -10.283  1.00  0.00    -0.206 F 
ATOM     74  C   UNL     1     -12.956   3.287 -11.183  1.00  0.00     0.040 A 
ATOM     75  C   UNL     1     -15.029   2.982  -9.996  1.00  0.00     0.040 A 
ATOM     76  F   UNL     1     -15.048   1.866  -7.932  1.00  0.00    -0.206 F 
ATOM     77  C   UNL     1     -14.335   3.471 -11.101  1.00  0.00     0.006 A 
ENDBRANCH  53  70
ENDBRANCH  27  28
ENDBRANCH  19  22
ENDBRANCH  17  18
ENDBRANCH   1  17
TORSDOF 11
