REMARK SMILES Cc1nsc(NC(=O)[C@]2([NH3+])CCC[C@@H](C)C2)c1C(=O)NCCCNC(=O)c1ccc(-c2c3nc(c(-c4c(F)cccc4F)c4ccc([nH]4)c(-c4c(F)cccc4F)c4nc(c(-c5c(F)cccc5F)c5ccc2[nH]5)C=C4)C=C3)cc1
REMARK SMILES IDX 21 1 20 2 18 3 19 4 17 6 1 7 2 8 3 9 4 10 5 11 6 12 7 13
REMARK SMILES IDX 8 15 9 16 11 17 16 18 12 19 14 20 13 21 15 22 10 23 22 27
REMARK SMILES IDX 23 28 24 29 25 30 26 32 27 33 28 34 80 35 29 36 79 37 30 38
REMARK SMILES IDX 31 39 32 40 73 41 33 42 78 43 72 44 74 45 34 46 77 47 71 48
REMARK SMILES IDX 70 49 35 51 61 52 44 53 60 54 45 55 48 56 59 57 75 58 46 59
REMARK SMILES IDX 47 60 58 62 76 63 49 64 36 65 37 66 42 67 38 68 39 69 41 70
REMARK SMILES IDX 43 71 40 72 62 73 63 74 68 75 64 76 65 77 67 78 69 79 66 80
REMARK SMILES IDX 50 81 51 82 56 83 52 84 53 85 55 86 57 87 54 88
REMARK H PARENT 20 5 6 14 10 24 10 25 10 26 24 31 74 50 48 61
REMARK Flexibility Score: inf
ROOT
ATOM      1  C   UNL     1       3.356  -0.630   3.875  1.00  0.00     0.118 C 
ENDROOT
BRANCH   1   2
ATOM      2  N   UNL     1       3.094   0.588   4.600  1.00  0.00    -0.352 N 
ATOM      3  C   UNL     1       2.336   1.693   4.334  1.00  0.00     0.256 C 
ATOM      4  O   UNL     1       2.138   2.421   5.314  1.00  0.00    -0.269 OA
ATOM      5  H   UNL     1       3.558   0.633   5.467  1.00  0.00     0.163 HD
BRANCH   3   6
ATOM      6  C   UNL     1       1.908   2.117   2.997  1.00  0.00     0.097 A 
ATOM      7  C   UNL     1       1.624   0.032   1.308  1.00  0.00     0.069 C 
ATOM      8  C   UNL     1       1.740   1.462   1.700  1.00  0.00     0.066 A 
ATOM      9  N   UNL     1       1.639   2.285   0.654  1.00  0.00    -0.195 NA
ATOM     10  S   UNL     1       1.583   3.820   1.192  1.00  0.00    -0.017 S 
ATOM     11  C   UNL     1       1.444   3.434   2.834  1.00  0.00     0.129 A 
BRANCH  11  12
ATOM     12  N   UNL     1       1.100   4.358   3.813  1.00  0.00    -0.310 N 
ATOM     13  C   UNL     1       0.278   5.461   3.834  1.00  0.00     0.286 C 
ATOM     14  H   UNL     1       1.539   4.187   4.677  1.00  0.00     0.171 HD
ATOM     15  O   UNL     1       0.239   6.097   4.896  1.00  0.00    -0.267 OA
BRANCH  13  16
ATOM     16  C   UNL     1      -0.606   5.912   2.622  1.00  0.00     0.174 C 
ATOM     17  C   UNL     1      -1.551   7.090   2.980  1.00  0.00     0.079 C 
ATOM     18  C   UNL     1      -1.536   4.746   2.195  1.00  0.00     0.082 C 
ATOM     19  C   UNL     1      -2.441   7.488   1.787  1.00  0.00     0.007 C 
ATOM     20  C   UNL     1      -2.472   5.039   1.016  1.00  0.00    -0.008 C 
ATOM     21  C   UNL     1      -3.277   6.319   1.266  1.00  0.00     0.004 C 
ATOM     22  C   UNL     1      -1.742   5.045  -0.328  1.00  0.00     0.008 C 
BRANCH  16  23
ATOM     23  N   UNL     1       0.294   6.492   1.603  1.00  0.00    -0.345 N 
ATOM     24  H   UNL     1      -0.255   6.797   0.799  1.00  0.00     0.345 HD
ATOM     25  H   UNL     1       0.970   5.789   1.306  1.00  0.00     0.345 HD
ATOM     26  H   UNL     1       0.787   7.292   2.000  1.00  0.00     0.345 HD
ENDBRANCH  16  23
ENDBRANCH  13  16
ENDBRANCH  11  12
ENDBRANCH   3   6
ENDBRANCH   1   2
BRANCH   1  27
ATOM     27  C   UNL     1       4.562  -0.570   2.936  1.00  0.00     0.042 C 
BRANCH  27  28
ATOM     28  C   UNL     1       5.784  -1.192   3.584  1.00  0.00     0.118 C 
BRANCH  28  29
ATOM     29  N   UNL     1       5.579  -2.622   3.877  1.00  0.00    -0.352 N 
ATOM     30  C   UNL     1       6.348  -3.480   4.648  1.00  0.00     0.251 C 
ATOM     31  H   UNL     1       4.782  -3.026   3.465  1.00  0.00     0.163 HD
ATOM     32  O   UNL     1       6.223  -4.686   4.578  1.00  0.00    -0.269 OA
BRANCH  30  33
ATOM     33  C   UNL     1       7.320  -2.868   5.565  1.00  0.00     0.039 A 
ATOM     34  C   UNL     1       8.642  -3.302   5.645  1.00  0.00     0.014 A 
ATOM     35  C   UNL     1       6.890  -1.728   6.230  1.00  0.00     0.014 A 
ATOM     36  C   UNL     1       9.546  -2.499   6.332  1.00  0.00     0.010 A 
ATOM     37  C   UNL     1       7.823  -0.818   6.629  1.00  0.00     0.010 A 
ATOM     38  C   UNL     1       9.131  -1.232   6.785  1.00  0.00    -0.014 A 
BRANCH  38  39
ATOM     39  C   UNL     1      10.063  -0.270   7.351  1.00  0.00     0.031 A 
ATOM     40  C   UNL     1      11.286  -0.088   6.540  1.00  0.00     0.074 A 
ATOM     41  C   UNL     1       9.797   0.495   8.433  1.00  0.00     0.049 A 
ATOM     42  N   UNL     1      12.415  -0.682   6.724  1.00  0.00    -0.248 NA
ATOM     43  C   UNL     1      11.202   0.655   5.274  1.00  0.00     0.031 C 
ATOM     44  C   UNL     1       8.537   0.680   9.166  1.00  0.00     0.029 A 
ATOM     45  N   UNL     1      10.645   1.324   9.099  1.00  0.00    -0.354 N 
ATOM     46  C   UNL     1      13.267  -0.189   5.748  1.00  0.00     0.074 A 
ATOM     47  C   UNL     1      12.423   0.447   4.770  1.00  0.00     0.031 C 
ATOM     48  C   UNL     1       8.653   1.712  10.034  1.00  0.00     0.029 A 
ATOM     49  C   UNL     1      10.042   2.123  10.065  1.00  0.00     0.049 A 
ATOM     50  H   UNL     1      11.611   1.357   8.912  1.00  0.00     0.167 HD
ATOM     51  C   UNL     1      14.604  -0.109   5.994  1.00  0.00     0.037 A 
ATOM     52  C   UNL     1      10.657   3.032  10.861  1.00  0.00     0.037 A 
ATOM     53  C   UNL     1      14.947  -0.871   7.175  1.00  0.00     0.049 A 
ATOM     54  C   UNL     1      12.092   2.660  10.902  1.00  0.00     0.074 A 
ATOM     55  C   UNL     1      14.876  -2.199   7.545  1.00  0.00     0.029 A 
ATOM     56  N   UNL     1      15.057  -0.158   8.344  1.00  0.00    -0.354 N 
ATOM     57  N   UNL     1      12.540   1.569  11.457  1.00  0.00    -0.248 NA
ATOM     58  C   UNL     1      12.971   3.269   9.919  1.00  0.00     0.031 C 
ATOM     59  C   UNL     1      14.496  -2.182   8.923  1.00  0.00     0.029 A 
ATOM     60  C   UNL     1      14.433  -0.853   9.346  1.00  0.00     0.049 A 
ATOM     61  H   UNL     1      15.511   0.710   8.445  1.00  0.00     0.167 HD
ATOM     62  C   UNL     1      13.524   1.113  10.592  1.00  0.00     0.074 A 
ATOM     63  C   UNL     1      13.812   2.251   9.719  1.00  0.00     0.031 C 
ATOM     64  C   UNL     1      13.798  -0.222  10.485  1.00  0.00     0.037 A 
BRANCH  51  65
ATOM     65  C   UNL     1      15.506   0.985   5.475  1.00  0.00     0.057 A 
ATOM     66  C   UNL     1      16.887   0.900   5.736  1.00  0.00     0.134 A 
ATOM     67  C   UNL     1      15.061   2.241   5.017  1.00  0.00     0.134 A 
ATOM     68  F   UNL     1      17.434  -0.240   6.184  1.00  0.00    -0.206 F 
ATOM     69  C   UNL     1      17.739   2.006   5.636  1.00  0.00     0.040 A 
ATOM     70  C   UNL     1      15.914   3.338   4.867  1.00  0.00     0.040 A 
ATOM     71  F   UNL     1      13.772   2.514   4.791  1.00  0.00    -0.206 F 
ATOM     72  C   UNL     1      17.251   3.233   5.209  1.00  0.00     0.006 A 
ENDBRANCH  51  65
BRANCH  52  73
ATOM     73  C   UNL     1      10.183   4.374  11.269  1.00  0.00     0.057 A 
ATOM     74  C   UNL     1      10.829   5.088  12.289  1.00  0.00     0.134 A 
ATOM     75  C   UNL     1       9.302   5.112  10.461  1.00  0.00     0.134 A 
ATOM     76  F   UNL     1      11.719   4.479  13.086  1.00  0.00    -0.206 F 
ATOM     77  C   UNL     1      10.640   6.465  12.471  1.00  0.00     0.040 A 
ATOM     78  C   UNL     1       9.104   6.487  10.632  1.00  0.00     0.040 A 
ATOM     79  F   UNL     1       8.682   4.542   9.417  1.00  0.00    -0.206 F 
ATOM     80  C   UNL     1       9.787   7.172  11.630  1.00  0.00     0.006 A 
ENDBRANCH  52  73
BRANCH  64  81
ATOM     81  C   UNL     1      13.234  -1.137  11.543  1.00  0.00     0.057 A 
ATOM     82  C   UNL     1      11.867  -1.371  11.760  1.00  0.00     0.134 A 
ATOM     83  C   UNL     1      14.129  -1.909  12.293  1.00  0.00     0.134 A 
ATOM     84  F   UNL     1      10.930  -0.745  11.037  1.00  0.00    -0.206 F 
ATOM     85  C   UNL     1      11.416  -2.303  12.703  1.00  0.00     0.040 A 
ATOM     86  C   UNL     1      13.693  -2.865  13.213  1.00  0.00     0.040 A 
ATOM     87  F   UNL     1      15.452  -1.776  12.109  1.00  0.00    -0.206 F 
ATOM     88  C   UNL     1      12.332  -3.059  13.428  1.00  0.00     0.006 A 
ENDBRANCH  64  81
ENDBRANCH  38  39
ENDBRANCH  30  33
ENDBRANCH  28  29
ENDBRANCH  27  28
ENDBRANCH   1  27
TORSDOF 13
