REMARK SMILES CC1(C)CSC[C@H](Nc2cc(C(=O)NCCCNC(=O)c3ccc(-c4c5nc(c(-c6c(F)cccc6F)c6ccc([nH]6)c(-c6c(F)cccc6F)c6nc(c(-c7c(F)cccc7F)c7ccc4[nH]7)C=C6)C=C5)cc3)ccc2F)C1
REMARK SMILES IDX 16 1 15 2 14 3 12 4 13 5 11 7 9 8 10 9 77 10 76 11 78 12
REMARK SMILES IDX 75 13 8 14 7 16 1 17 2 18 3 19 4 20 79 21 5 22 6 23 17 24
REMARK SMILES IDX 18 25 19 26 20 28 21 29 22 30 74 31 23 32 73 33 24 34 25 35
REMARK SMILES IDX 26 36 67 37 27 38 72 39 66 40 68 41 28 42 71 43 65 44 64 45
REMARK SMILES IDX 29 47 55 48 38 49 54 50 39 51 42 52 53 53 69 54 40 55 41 56
REMARK SMILES IDX 52 58 70 59 43 60 30 61 31 62 36 63 32 64 33 65 35 66 37 67
REMARK SMILES IDX 34 68 56 69 57 70 62 71 58 72 59 73 61 74 63 75 60 76 44 77
REMARK SMILES IDX 45 78 50 79 46 80 47 81 49 82 51 83 48 84
REMARK H PARENT 14 6 8 15 18 27 68 46 42 57
REMARK Flexibility Score: inf
ROOT
ATOM      1  C   UNL     1       6.366  -9.088   2.257  1.00  0.00     0.042 C 
ENDROOT
BRANCH   1   2
ATOM      2  C   UNL     1       6.064  -8.516   0.873  1.00  0.00     0.118 C 
BRANCH   2   3
ATOM      3  N   UNL     1       4.758  -8.940   0.404  1.00  0.00    -0.352 N 
ATOM      4  C   UNL     1       3.530  -8.334   0.417  1.00  0.00     0.251 C 
ATOM      5  O   UNL     1       2.598  -8.931  -0.123  1.00  0.00    -0.269 OA
ATOM      6  H   UNL     1       4.755  -9.837  -0.003  1.00  0.00     0.163 HD
BRANCH   4   7
ATOM      7  C   UNL     1       3.280  -6.985   0.996  1.00  0.00     0.042 A 
ATOM      8  C   UNL     1       1.930  -4.942   0.846  1.00  0.00     0.071 A 
ATOM      9  C   UNL     1       2.237  -6.240   0.416  1.00  0.00     0.042 A 
ATOM     10  C   UNL     1       2.682  -4.413   1.905  1.00  0.00     0.146 A 
ATOM     11  C   UNL     1       3.690  -5.146   2.519  1.00  0.00     0.042 A 
ATOM     12  F   UNL     1       2.435  -3.180   2.373  1.00  0.00    -0.205 F 
ATOM     13  C   UNL     1       3.983  -6.434   2.070  1.00  0.00     0.017 A 
BRANCH   8  14
ATOM     14  N   UNL     1       0.996  -4.202   0.117  1.00  0.00    -0.379 N 
ATOM     15  H   UNL     1       0.089  -4.549  -0.044  1.00  0.00     0.160 HD
BRANCH  14  16
ATOM     16  C   UNL     1       1.407  -2.893  -0.403  1.00  0.00     0.089 C 
ATOM     17  C   UNL     1       0.967   0.187  -0.151  1.00  0.00     0.012 C 
ATOM     18  C   UNL     1       0.445  -0.675  -1.321  1.00  0.00    -0.024 C 
ATOM     19  C   UNL     1      -0.880  -0.049  -1.803  1.00  0.00     0.012 C 
ATOM     20  C   UNL     1       1.433  -0.661  -2.508  1.00  0.00     0.076 C 
ATOM     21  C   UNL     1       0.154  -2.120  -0.845  1.00  0.00     0.033 C 
ATOM     22  S   UNL     1       3.020  -1.494  -2.203  1.00  0.00    -0.159 SA
ATOM     23  C   UNL     1       2.387  -3.075  -1.574  1.00  0.00     0.094 C 
ENDBRANCH  14  16
ENDBRANCH   8  14
ENDBRANCH   4   7
ENDBRANCH   2   3
ENDBRANCH   1   2
BRANCH   1  24
ATOM     24  C   UNL     1       6.662 -10.584   2.249  1.00  0.00     0.118 C 
BRANCH  24  25
ATOM     25  N   UNL     1       7.956 -10.881   1.655  1.00  0.00    -0.352 N 
ATOM     26  C   UNL     1       9.056 -11.497   2.197  1.00  0.00     0.251 C 
ATOM     27  H   UNL     1       8.059 -10.595   0.719  1.00  0.00     0.163 HD
ATOM     28  O   UNL     1      10.127 -11.448   1.602  1.00  0.00    -0.269 OA
BRANCH  26  29
ATOM     29  C   UNL     1       8.968 -12.213   3.491  1.00  0.00     0.039 A 
ATOM     30  C   UNL     1      10.045 -12.123   4.379  1.00  0.00     0.014 A 
ATOM     31  C   UNL     1       7.871 -13.019   3.808  1.00  0.00     0.014 A 
ATOM     32  C   UNL     1      10.003 -12.803   5.598  1.00  0.00     0.010 A 
ATOM     33  C   UNL     1       7.799 -13.641   5.053  1.00  0.00     0.010 A 
ATOM     34  C   UNL     1       8.868 -13.549   5.955  1.00  0.00    -0.014 A 
BRANCH  34  35
ATOM     35  C   UNL     1       8.792 -14.252   7.260  1.00  0.00     0.031 A 
ATOM     36  C   UNL     1       8.743 -15.754   7.309  1.00  0.00     0.074 A 
ATOM     37  C   UNL     1       8.723 -13.538   8.399  1.00  0.00     0.049 A 
ATOM     38  N   UNL     1       8.613 -16.543   8.345  1.00  0.00    -0.248 NA
ATOM     39  C   UNL     1       8.830 -16.461   6.021  1.00  0.00     0.031 C 
ATOM     40  C   UNL     1       8.736 -12.077   8.481  1.00  0.00     0.029 A 
ATOM     41  N   UNL     1       8.628 -13.945   9.705  1.00  0.00    -0.354 N 
ATOM     42  C   UNL     1       8.591 -17.835   7.835  1.00  0.00     0.074 A 
ATOM     43  C   UNL     1       8.669 -17.723   6.394  1.00  0.00     0.031 C 
ATOM     44  C   UNL     1       8.688 -11.710   9.771  1.00  0.00     0.029 A 
ATOM     45  C   UNL     1       8.601 -12.907  10.604  1.00  0.00     0.049 A 
ATOM     46  H   UNL     1       8.584 -14.891   9.974  1.00  0.00     0.167 HD
ATOM     47  C   UNL     1       8.536 -19.009   8.507  1.00  0.00     0.037 A 
ATOM     48  C   UNL     1       8.517 -12.916  11.947  1.00  0.00     0.037 A 
ATOM     49  C   UNL     1       8.480 -19.119   9.941  1.00  0.00     0.049 A 
ATOM     50  C   UNL     1       8.438 -14.229  12.672  1.00  0.00     0.074 A 
ATOM     51  C   UNL     1       8.456 -20.265  10.717  1.00  0.00     0.029 A 
ATOM     52  N   UNL     1       8.444 -18.043  10.814  1.00  0.00    -0.354 N 
ATOM     53  N   UNL     1       8.445 -15.444  12.179  1.00  0.00    -0.248 NA
ATOM     54  C   UNL     1       8.339 -14.175  14.137  1.00  0.00     0.031 C 
ATOM     55  C   UNL     1       8.370 -19.882  12.059  1.00  0.00     0.029 A 
ATOM     56  C   UNL     1       8.384 -18.497  12.121  1.00  0.00     0.049 A 
ATOM     57  H   UNL     1       8.458 -17.096  10.545  1.00  0.00     0.167 HD
ATOM     58  C   UNL     1       8.373 -16.299  13.271  1.00  0.00     0.074 A 
ATOM     59  C   UNL     1       8.331 -15.463  14.454  1.00  0.00     0.031 C 
ATOM     60  C   UNL     1       8.345 -17.653  13.289  1.00  0.00     0.037 A 
BRANCH  47  61
ATOM     61  C   UNL     1       8.543 -20.272   7.695  1.00  0.00     0.057 A 
ATOM     62  C   UNL     1       7.404 -21.082   7.614  1.00  0.00     0.134 A 
ATOM     63  C   UNL     1       9.693 -20.705   7.021  1.00  0.00     0.134 A 
ATOM     64  F   UNL     1       6.271 -20.730   8.240  1.00  0.00    -0.206 F 
ATOM     65  C   UNL     1       7.409 -22.277   6.893  1.00  0.00     0.040 A 
ATOM     66  C   UNL     1       9.702 -21.885   6.276  1.00  0.00     0.040 A 
ATOM     67  F   UNL     1      10.815 -19.969   7.049  1.00  0.00    -0.206 F 
ATOM     68  C   UNL     1       8.559 -22.679   6.216  1.00  0.00     0.006 A 
ENDBRANCH  47  61
BRANCH  48  69
ATOM     69  C   UNL     1       8.555 -11.633  12.689  1.00  0.00     0.057 A 
ATOM     70  C   UNL     1       7.477 -10.740  12.670  1.00  0.00     0.134 A 
ATOM     71  C   UNL     1       9.699 -11.251  13.398  1.00  0.00     0.134 A 
ATOM     72  F   UNL     1       6.356 -11.046  12.001  1.00  0.00    -0.206 F 
ATOM     73  C   UNL     1       7.543  -9.503  13.313  1.00  0.00     0.040 A 
ATOM     74  C   UNL     1       9.772 -10.026  14.062  1.00  0.00     0.040 A 
ATOM     75  F   UNL     1      10.757 -12.073  13.463  1.00  0.00    -0.206 F 
ATOM     76  C   UNL     1       8.694  -9.144  14.013  1.00  0.00     0.006 A 
ENDBRANCH  48  69
BRANCH  60  77
ATOM     77  C   UNL     1       8.286 -18.326  14.627  1.00  0.00     0.057 A 
ATOM     78  C   UNL     1       9.400 -19.009  15.132  1.00  0.00     0.134 A 
ATOM     79  C   UNL     1       7.106 -18.362  15.380  1.00  0.00     0.134 A 
ATOM     80  F   UNL     1      10.557 -19.020  14.453  1.00  0.00    -0.206 F 
ATOM     81  C   UNL     1       9.339 -19.715  16.333  1.00  0.00     0.040 A 
ATOM     82  C   UNL     1       7.040 -19.047  16.595  1.00  0.00     0.040 A 
ATOM     83  F   UNL     1       6.008 -17.719  14.956  1.00  0.00    -0.206 F 
ATOM     84  C   UNL     1       8.156 -19.734  17.069  1.00  0.00     0.006 A 
ENDBRANCH  60  77
ENDBRANCH  34  35
ENDBRANCH  26  29
ENDBRANCH  24  25
ENDBRANCH   1  24
TORSDOF 12
