REMARK SMILES C[C@H]1[C@H](C)CC[C@@]2(C(=O)NCCCNC(=O)c3ccc(-c4c5nc(c(-c6c(F)cccc6F)c6ccc([nH]6)c(-c6c(F)cccc6F)c6nc(c(-c7c(F)cccc7F)c7ccc4[nH]7)C=C6)C=C5)cc3)CC[C@@]3(C)C(=CC[C@@H]4[C@@]5(C)CC[C@H](O)C(C)(C)[C@@H]5CC[C@]43C)[C@H]12
REMARK SMILES IDX 12 1 11 2 10 3 8 4 9 5 7 7 1 8 2 9 3 10 93 11 4 12 5 13
REMARK SMILES IDX 75 14 6 15 71 16 73 17 76 18 72 19 74 20 91 21 77 22 78 23
REMARK SMILES IDX 90 24 92 25 79 26 89 27 80 28 81 29 88 30 82 31 85 32 83 33
REMARK SMILES IDX 86 34 87 35 84 36 13 38 14 39 15 40 16 42 17 43 18 44 70 45
REMARK SMILES IDX 19 46 69 47 20 48 21 49 22 50 63 51 23 52 68 53 62 54 64 55
REMARK SMILES IDX 24 56 67 57 61 58 60 59 25 61 51 62 34 63 50 64 35 65 38 66
REMARK SMILES IDX 49 67 65 68 36 69 37 70 48 72 66 73 39 74 26 75 27 76 32 77
REMARK SMILES IDX 28 78 29 79 31 80 33 81 30 82 52 83 53 84 58 85 54 86 55 87
REMARK SMILES IDX 57 88 59 89 56 90 40 91 41 92 46 93 42 94 43 95 45 96 47 97
REMARK SMILES IDX 44 98
REMARK H PARENT 10 6 84 37 14 41 64 60 38 71
REMARK Flexibility Score: inf
ROOT
ATOM      1  C   UNL     1       0.604  -0.701  -3.768  1.00  0.00     0.042 C 
ENDROOT
BRANCH   1   2
ATOM      2  C   UNL     1       0.205   0.685  -3.264  1.00  0.00     0.117 C 
BRANCH   2   3
ATOM      3  N   UNL     1       1.317   1.606  -3.130  1.00  0.00    -0.356 N 
ATOM      4  C   UNL     1       1.460   2.802  -2.494  1.00  0.00     0.226 C 
ATOM      5  O   UNL     1       2.357   3.503  -2.985  1.00  0.00    -0.274 OA
ATOM      6  H   UNL     1       2.132   1.307  -3.592  1.00  0.00     0.163 HD
BRANCH   4   7
ATOM      7  C   UNL     1       0.647   3.290  -1.236  1.00  0.00     0.056 C 
ATOM      8  C   UNL     1       0.572   0.440   1.510  1.00  0.00     0.008 C 
ATOM      9  C   UNL     1       0.260   1.135   0.171  1.00  0.00    -0.003 C 
ATOM     10  C   UNL     1      -1.284   1.311   0.018  1.00  0.00    -0.011 C 
ATOM     11  C   UNL     1       0.975   2.507   0.069  1.00  0.00     0.034 C 
ATOM     12  C   UNL     1      -2.031  -0.030  -0.107  1.00  0.00     0.008 C 
ATOM     13  C   UNL     1      -1.751   2.207  -1.142  1.00  0.00     0.005 C 
ATOM     14  C   UNL     1       2.507   2.588   0.220  1.00  0.00    -0.063 C 
ATOM     15  C   UNL     1      -0.861   3.371  -1.546  1.00  0.00     0.018 C 
ATOM     16  C   UNL     1       1.077   4.782  -0.936  1.00  0.00     0.018 C 
ATOM     17  C   UNL     1       3.067   3.985   0.618  1.00  0.00    -0.006 C 
ATOM     18  C   UNL     1       3.305   1.599  -0.231  1.00  0.00    -0.027 C 
ATOM     19  C   UNL     1       2.509   5.017  -0.418  1.00  0.00     0.013 C 
ATOM     20  C   UNL     1       2.533   4.387   2.019  1.00  0.00     0.017 C 
ATOM     21  C   UNL     1       4.700   3.993   0.635  1.00  0.00    -0.020 C 
ATOM     22  C   UNL     1       4.755   1.778  -0.587  1.00  0.00     0.032 C 
ATOM     23  C   UNL     1       5.150   3.272  -0.691  1.00  0.00     0.006 C 
ATOM     24  C   UNL     1       5.283   5.429   0.722  1.00  0.00     0.008 C 
ATOM     25  C   UNL     1       5.235   3.246   1.897  1.00  0.00     0.012 C 
ATOM     26  C   UNL     1       6.593   3.563  -1.285  1.00  0.00    -0.025 C 
ATOM     27  C   UNL     1       6.774   5.505   0.381  1.00  0.00     0.005 C 
ATOM     28  C   UNL     1       7.616   2.561  -0.714  1.00  0.00     0.012 C 
ATOM     29  C   UNL     1       6.521   3.365  -2.835  1.00  0.00     0.010 C 
ATOM     30  C   UNL     1       6.978   5.074  -1.077  1.00  0.00     0.003 C 
ATOM     31  C   UNL     1       7.792   3.770  -3.580  1.00  0.00     0.033 C 
ATOM     32  C   UNL     1       8.331   5.539  -1.740  1.00  0.00    -0.006 C 
ATOM     33  C   UNL     1       8.260   5.192  -3.260  1.00  0.00     0.120 C 
ATOM     34  C   UNL     1       9.602   4.972  -1.072  1.00  0.00     0.014 C 
ATOM     35  C   UNL     1       8.473   7.085  -1.635  1.00  0.00     0.014 C 
BRANCH  33  36
ATOM     36  O   UNL     1       9.512   5.422  -3.906  1.00  0.00    -0.393 OA
ATOM     37  H   UNL     1      10.177   4.812  -3.550  1.00  0.00     0.210 HD
ENDBRANCH  33  36
ENDBRANCH   4   7
ENDBRANCH   2   3
ENDBRANCH   1   2
BRANCH   1  38
ATOM     38  C   UNL     1       1.485  -1.468  -2.780  1.00  0.00     0.118 C 
BRANCH  38  39
ATOM     39  N   UNL     1       0.757  -2.245  -1.778  1.00  0.00    -0.352 N 
ATOM     40  C   UNL     1       0.153  -3.483  -1.813  1.00  0.00     0.251 C 
ATOM     41  H   UNL     1       0.684  -1.795  -0.905  1.00  0.00     0.163 HD
ATOM     42  O   UNL     1      -0.438  -3.890  -0.815  1.00  0.00    -0.269 OA
BRANCH  40  43
ATOM     43  C   UNL     1       0.133  -4.297  -3.050  1.00  0.00     0.039 A 
ATOM     44  C   UNL     1      -1.036  -4.991  -3.388  1.00  0.00     0.014 A 
ATOM     45  C   UNL     1       1.234  -4.373  -3.894  1.00  0.00     0.014 A 
ATOM     46  C   UNL     1      -1.135  -5.633  -4.628  1.00  0.00     0.010 A 
ATOM     47  C   UNL     1       1.089  -4.888  -5.176  1.00  0.00     0.010 A 
ATOM     48  C   UNL     1      -0.102  -5.514  -5.570  1.00  0.00    -0.014 A 
BRANCH  48  49
ATOM     49  C   UNL     1      -0.231  -6.002  -6.972  1.00  0.00     0.031 A 
ATOM     50  C   UNL     1       0.817  -6.917  -7.553  1.00  0.00     0.074 A 
ATOM     51  C   UNL     1      -1.207  -5.515  -7.766  1.00  0.00     0.049 A 
ATOM     52  N   UNL     1       1.012  -7.271  -8.798  1.00  0.00    -0.248 NA
ATOM     53  C   UNL     1       1.816  -7.457  -6.616  1.00  0.00     0.031 C 
ATOM     54  C   UNL     1      -2.246  -4.566  -7.357  1.00  0.00     0.029 A 
ATOM     55  N   UNL     1      -1.474  -5.738  -9.095  1.00  0.00    -0.354 N 
ATOM     56  C   UNL     1       2.183  -8.021  -8.798  1.00  0.00     0.074 A 
ATOM     57  C   UNL     1       2.684  -8.020  -7.442  1.00  0.00     0.031 C 
ATOM     58  C   UNL     1      -3.056  -4.319  -8.399  1.00  0.00     0.029 A 
ATOM     59  C   UNL     1      -2.566  -5.045  -9.563  1.00  0.00     0.049 A 
ATOM     60  H   UNL     1      -0.934  -6.337  -9.659  1.00  0.00     0.167 HD
ATOM     61  C   UNL     1       2.773  -8.676  -9.827  1.00  0.00     0.037 A 
ATOM     62  C   UNL     1      -3.106  -4.993 -10.796  1.00  0.00     0.037 A 
ATOM     63  C   UNL     1       2.227  -8.742 -11.156  1.00  0.00     0.049 A 
ATOM     64  C   UNL     1      -2.473  -5.782 -11.907  1.00  0.00     0.074 A 
ATOM     65  C   UNL     1       2.695  -9.452 -12.248  1.00  0.00     0.029 A 
ATOM     66  N   UNL     1       1.077  -8.085 -11.568  1.00  0.00    -0.354 N 
ATOM     67  N   UNL     1      -1.395  -6.528 -11.879  1.00  0.00    -0.248 NA
ATOM     68  C   UNL     1      -3.131  -5.724 -13.219  1.00  0.00     0.031 C 
ATOM     69  C   UNL     1       1.841  -9.206 -13.328  1.00  0.00     0.029 A 
ATOM     70  C   UNL     1       0.820  -8.373 -12.898  1.00  0.00     0.049 A 
ATOM     71  H   UNL     1       0.524  -7.502 -10.999  1.00  0.00     0.167 HD
ATOM     72  C   UNL     1      -1.264  -7.053 -13.158  1.00  0.00     0.074 A 
ATOM     73  C   UNL     1      -2.378  -6.548 -13.934  1.00  0.00     0.031 C 
ATOM     74  C   UNL     1      -0.306  -7.877 -13.646  1.00  0.00     0.037 A 
BRANCH  61  75
ATOM     75  C   UNL     1       4.063  -9.393  -9.544  1.00  0.00     0.057 A 
ATOM     76  C   UNL     1       4.114 -10.531  -8.727  1.00  0.00     0.134 A 
ATOM     77  C   UNL     1       5.267  -8.951 -10.107  1.00  0.00     0.134 A 
ATOM     78  F   UNL     1       3.000 -11.002  -8.147  1.00  0.00    -0.206 F 
ATOM     79  C   UNL     1       5.319 -11.177  -8.446  1.00  0.00     0.040 A 
ATOM     80  C   UNL     1       6.474  -9.609  -9.860  1.00  0.00     0.040 A 
ATOM     81  F   UNL     1       5.292  -7.875 -10.908  1.00  0.00    -0.206 F 
ATOM     82  C   UNL     1       6.504 -10.719  -9.019  1.00  0.00     0.006 A 
ENDBRANCH  61  75
BRANCH  62  83
ATOM     83  C   UNL     1      -4.337  -4.196 -11.037  1.00  0.00     0.057 A 
ATOM     84  C   UNL     1      -5.562  -4.829 -11.279  1.00  0.00     0.134 A 
ATOM     85  C   UNL     1      -4.324  -2.797 -11.035  1.00  0.00     0.134 A 
ATOM     86  F   UNL     1      -5.634  -6.168 -11.309  1.00  0.00    -0.206 F 
ATOM     87  C   UNL     1      -6.726  -4.102 -11.531  1.00  0.00     0.040 A 
ATOM     88  C   UNL     1      -5.486  -2.056 -11.261  1.00  0.00     0.040 A 
ATOM     89  F   UNL     1      -3.186  -2.129 -10.798  1.00  0.00    -0.206 F 
ATOM     90  C   UNL     1      -6.691  -2.709 -11.518  1.00  0.00     0.006 A 
ENDBRANCH  62  83
BRANCH  74  91
ATOM     91  C   UNL     1      -0.445  -8.322 -15.071  1.00  0.00     0.057 A 
ATOM     92  C   UNL     1      -0.184  -7.462 -16.144  1.00  0.00     0.134 A 
ATOM     93  C   UNL     1      -0.797  -9.645 -15.369  1.00  0.00     0.134 A 
ATOM     94  F   UNL     1       0.144  -6.180 -15.923  1.00  0.00    -0.206 F 
ATOM     95  C   UNL     1      -0.286  -7.897 -17.466  1.00  0.00     0.040 A 
ATOM     96  C   UNL     1      -0.878 -10.098 -16.686  1.00  0.00     0.040 A 
ATOM     97  F   UNL     1      -1.052 -10.521 -14.385  1.00  0.00    -0.206 F 
ATOM     98  C   UNL     1      -0.626  -9.221 -17.739  1.00  0.00     0.006 A 
ENDBRANCH  74  91
ENDBRANCH  48  49
ENDBRANCH  40  43
ENDBRANCH  38  39
ENDBRANCH   1  38
TORSDOF 11
