REMARK SMILES O=C(CCCN1C(=O)C(=O)/C(=C(/[O-])c2ccccc2)[C@@H]1/C=C/c1ccccc1)NCCCNC(=O)c1ccc(-c2c3nc(c(-c4c(F)cccc4F)c4ccc([nH]4)c(-c4c(F)cccc4F)c4nc(c(-c5c(F)cccc5F)c5ccc2[nH]5)C=C4)C=C3)cc1
REMARK SMILES IDX 1 1 2 2 29 3 3 5 4 6 5 7 6 8 7 9 20 10 8 11 9 12 11 13 10 14
REMARK SMILES IDX 12 15 13 16 21 17 22 18 23 19 24 20 28 21 25 22 27 23 26 24
REMARK SMILES IDX 14 25 15 26 19 27 16 28 18 29 17 30 30 31 31 32 32 33 33 34
REMARK SMILES IDX 34 35 35 37 36 38 37 39 89 40 38 41 88 42 39 43 40 44 41 45
REMARK SMILES IDX 82 46 42 47 87 48 81 49 83 50 43 51 86 52 80 53 79 54 44 56
REMARK SMILES IDX 70 57 53 58 69 59 54 60 57 61 68 62 84 63 55 64 56 65 67 67
REMARK SMILES IDX 85 68 58 69 45 70 46 71 51 72 47 73 48 74 50 75 52 76 49 77
REMARK SMILES IDX 71 78 72 79 77 80 73 81 74 82 76 83 78 84 75 85 59 86 60 87
REMARK SMILES IDX 65 88 61 89 62 90 64 91 66 92 63 93
REMARK H PARENT 29 4 33 36 83 55 57 66
REMARK Flexibility Score: inf
ROOT
ATOM      1  O   UNL     1       1.274  -1.497  -0.407  1.00  0.00    -0.275 OA
ATOM      2  C   UNL     1       1.984  -0.553  -0.076  1.00  0.00     0.220 C 
ATOM      3  N   UNL     1       2.337   0.470  -0.921  1.00  0.00    -0.356 N 
ATOM      4  H   UNL     1       2.881   1.208  -0.563  1.00  0.00     0.163 HD
ENDROOT
BRANCH   2   5
ATOM      5  C   UNL     1       2.625  -0.462   1.296  1.00  0.00     0.102 C 
BRANCH   5   6
ATOM      6  C   UNL     1       3.897  -1.303   1.407  1.00  0.00     0.031 C 
BRANCH   6   7
ATOM      7  C   UNL     1       4.946  -1.181   0.293  1.00  0.00     0.121 C 
BRANCH   7   8
ATOM      8  N   UNL     1       5.851  -0.029   0.335  1.00  0.00    -0.325 N 
ATOM      9  C   UNL     1       5.446   1.278   0.210  1.00  0.00     0.295 C 
ATOM     10  C   UNL     1       7.301  -0.174   0.216  1.00  0.00     0.143 C 
ATOM     11  O   UNL     1       4.328   1.752   0.229  1.00  0.00    -0.265 OA
ATOM     12  C   UNL     1       6.677   2.118  -0.051  1.00  0.00     0.248 C 
ATOM     13  C   UNL     1       7.850   1.232   0.138  1.00  0.00     0.024 C 
ATOM     14  O   UNL     1       6.627   3.254  -0.472  1.00  0.00    -0.283 OA
ATOM     15  C   UNL     1       9.119   1.674   0.217  1.00  0.00    -0.092 C 
ATOM     16  O   UNL     1      10.214   0.843   0.333  1.00  0.00    -0.872 OA
BRANCH  10  17
ATOM     17  C   UNL     1       7.642  -0.986  -1.010  1.00  0.00     0.003 C 
ATOM     18  C   UNL     1       7.931  -2.298  -0.962  1.00  0.00     0.006 C 
BRANCH  18  19
ATOM     19  C   UNL     1       8.272  -3.091  -2.142  1.00  0.00    -0.026 A 
ATOM     20  C   UNL     1       7.282  -3.775  -2.856  1.00  0.00     0.008 A 
ATOM     21  C   UNL     1       9.610  -3.212  -2.528  1.00  0.00     0.008 A 
ATOM     22  C   UNL     1       7.635  -4.590  -3.936  1.00  0.00     0.001 A 
ATOM     23  C   UNL     1       9.959  -4.028  -3.606  1.00  0.00     0.001 A 
ATOM     24  C   UNL     1       8.973  -4.720  -4.306  1.00  0.00     0.000 A 
ENDBRANCH  18  19
ENDBRANCH  10  17
BRANCH  15  25
ATOM     25  C   UNL     1       9.489   3.102   0.169  1.00  0.00    -0.033 A 
ATOM     26  C   UNL     1      10.213   3.602  -0.922  1.00  0.00     0.007 A 
ATOM     27  C   UNL     1       9.097   3.988   1.185  1.00  0.00     0.007 A 
ATOM     28  C   UNL     1      10.503   4.966  -1.016  1.00  0.00     0.001 A 
ATOM     29  C   UNL     1       9.382   5.352   1.086  1.00  0.00     0.001 A 
ATOM     30  C   UNL     1      10.079   5.841  -0.017  1.00  0.00     0.000 A 
ENDBRANCH  15  25
ENDBRANCH   7   8
ENDBRANCH   6   7
ENDBRANCH   5   6
ENDBRANCH   2   5
BRANCH   3  31
ATOM     31  C   UNL     1       1.948   0.513  -2.313  1.00  0.00     0.117 C 
BRANCH  31  32
ATOM     32  C   UNL     1       2.298   1.841  -2.979  1.00  0.00     0.042 C 
BRANCH  32  33
ATOM     33  C   UNL     1       3.792   2.094  -3.178  1.00  0.00     0.118 C 
BRANCH  33  34
ATOM     34  N   UNL     1       4.395   1.258  -4.204  1.00  0.00    -0.352 N 
ATOM     35  C   UNL     1       5.161   1.612  -5.289  1.00  0.00     0.251 C 
ATOM     36  H   UNL     1       4.230   0.292  -4.107  1.00  0.00     0.163 HD
ATOM     37  O   UNL     1       5.501   0.752  -6.098  1.00  0.00    -0.269 OA
BRANCH  35  38
ATOM     38  C   UNL     1       5.552   3.023  -5.520  1.00  0.00     0.039 A 
ATOM     39  C   UNL     1       5.427   3.543  -6.813  1.00  0.00     0.014 A 
ATOM     40  C   UNL     1       6.059   3.827  -4.495  1.00  0.00     0.014 A 
ATOM     41  C   UNL     1       5.740   4.883  -7.064  1.00  0.00     0.010 A 
ATOM     42  C   UNL     1       6.315   5.179  -4.734  1.00  0.00     0.010 A 
ATOM     43  C   UNL     1       6.153   5.723  -6.018  1.00  0.00    -0.014 A 
BRANCH  43  44
ATOM     44  C   UNL     1       6.408   7.170  -6.247  1.00  0.00     0.031 A 
ATOM     45  C   UNL     1       7.792   7.734  -6.083  1.00  0.00     0.074 A 
ATOM     46  C   UNL     1       5.383   7.994  -6.543  1.00  0.00     0.049 A 
ATOM     47  N   UNL     1       8.193   8.979  -6.152  1.00  0.00    -0.248 NA
ATOM     48  C   UNL     1       8.865   6.773  -5.787  1.00  0.00     0.031 C 
ATOM     49  C   UNL     1       3.986   7.585  -6.701  1.00  0.00     0.029 A 
ATOM     50  N   UNL     1       5.356   9.352  -6.747  1.00  0.00    -0.354 N 
ATOM     51  C   UNL     1       9.556   8.954  -5.887  1.00  0.00     0.074 A 
ATOM     52  C   UNL     1       9.908   7.575  -5.624  1.00  0.00     0.031 C 
ATOM     53  C   UNL     1       3.242   8.665  -6.987  1.00  0.00     0.029 A 
ATOM     54  C   UNL     1       4.099   9.847  -6.995  1.00  0.00     0.049 A 
ATOM     55  H   UNL     1       6.162   9.917  -6.718  1.00  0.00     0.167 HD
ATOM     56  C   UNL     1      10.437   9.983  -5.878  1.00  0.00     0.037 A 
ATOM     57  C   UNL     1       3.679  11.111  -7.191  1.00  0.00     0.037 A 
ATOM     58  C   UNL     1      10.096  11.353  -6.162  1.00  0.00     0.049 A 
ATOM     59  C   UNL     1       4.675  12.237  -7.164  1.00  0.00     0.074 A 
ATOM     60  C   UNL     1      10.933  12.453  -6.231  1.00  0.00     0.029 A 
ATOM     61  N   UNL     1       8.814  11.810  -6.423  1.00  0.00    -0.354 N 
ATOM     62  N   UNL     1       5.969  12.191  -6.964  1.00  0.00    -0.248 NA
ATOM     63  C   UNL     1       4.150  13.592  -7.392  1.00  0.00     0.031 C 
ATOM     64  C   UNL     1      10.152  13.583  -6.498  1.00  0.00     0.029 A 
ATOM     65  C   UNL     1       8.834  13.179  -6.635  1.00  0.00     0.049 A 
ATOM     66  H   UNL     1       8.008  11.245  -6.453  1.00  0.00     0.167 HD
ATOM     67  C   UNL     1       6.417  13.501  -7.067  1.00  0.00     0.074 A 
ATOM     68  C   UNL     1       5.258  14.319  -7.358  1.00  0.00     0.031 C 
ATOM     69  C   UNL     1       7.676  13.982  -6.933  1.00  0.00     0.037 A 
BRANCH  56  70
ATOM     70  C   UNL     1      11.865   9.663  -5.549  1.00  0.00     0.057 A 
ATOM     71  C   UNL     1      12.695   8.986  -6.451  1.00  0.00     0.134 A 
ATOM     72  C   UNL     1      12.426  10.067  -4.330  1.00  0.00     0.134 A 
ATOM     73  F   UNL     1      12.216   8.563  -7.630  1.00  0.00    -0.206 F 
ATOM     74  C   UNL     1      14.026   8.700  -6.143  1.00  0.00     0.040 A 
ATOM     75  C   UNL     1      13.762   9.807  -4.021  1.00  0.00     0.040 A 
ATOM     76  F   UNL     1      11.687  10.725  -3.425  1.00  0.00    -0.206 F 
ATOM     77  C   UNL     1      14.565   9.116  -4.927  1.00  0.00     0.006 A 
ENDBRANCH  56  70
BRANCH  57  78
ATOM     78  C   UNL     1       2.242  11.385  -7.444  1.00  0.00     0.057 A 
ATOM     79  C   UNL     1       1.796  11.774  -8.711  1.00  0.00     0.134 A 
ATOM     80  C   UNL     1       1.287  11.276  -6.426  1.00  0.00     0.134 A 
ATOM     81  F   UNL     1       2.668  11.918  -9.719  1.00  0.00    -0.206 F 
ATOM     82  C   UNL     1       0.452  12.061  -8.956  1.00  0.00     0.040 A 
ATOM     83  C   UNL     1      -0.063  11.539  -6.662  1.00  0.00     0.040 A 
ATOM     84  F   UNL     1       1.653  10.905  -5.191  1.00  0.00    -0.206 F 
ATOM     85  C   UNL     1      -0.483  11.939  -7.930  1.00  0.00     0.006 A 
ENDBRANCH  57  78
BRANCH  69  86
ATOM     86  C   UNL     1       7.874  15.455  -7.134  1.00  0.00     0.057 A 
ATOM     87  C   UNL     1       7.471  16.392  -6.174  1.00  0.00     0.134 A 
ATOM     88  C   UNL     1       8.507  15.938  -8.286  1.00  0.00     0.134 A 
ATOM     89  F   UNL     1       6.846  15.994  -5.056  1.00  0.00    -0.206 F 
ATOM     90  C   UNL     1       7.674  17.760  -6.362  1.00  0.00     0.040 A 
ATOM     91  C   UNL     1       8.736  17.302  -8.475  1.00  0.00     0.040 A 
ATOM     92  F   UNL     1       8.923  15.092  -9.240  1.00  0.00    -0.206 F 
ATOM     93  C   UNL     1       8.315  18.218  -7.513  1.00  0.00     0.006 A 
ENDBRANCH  69  86
ENDBRANCH  43  44
ENDBRANCH  35  38
ENDBRANCH  33  34
ENDBRANCH  32  33
ENDBRANCH  31  32
ENDBRANCH   3  31
TORSDOF 16
