REMARK SMILES CCCCC[NH2+][C@](C)(C(=O)NCCCNC(=O)c1ccc(-c2c3nc(c(-c4c(F)cccc4F)c4ccc([nH]4)c(-c4c(F)cccc4F)c4nc(c(-c5c(F)cccc5F)c5ccc2[nH]5)C=C4)C=C3)cc1)C(F)(F)F
REMARK SMILES IDX 9 1 10 2 11 3 7 5 8 6 6 7 5 10 4 11 3 12 2 13 1 14 72 15
REMARK SMILES IDX 73 16 74 17 75 18 12 19 13 20 14 21 15 22 16 23 17 25 18 26
REMARK SMILES IDX 19 27 71 28 20 29 70 30 21 31 22 32 23 33 64 34 24 35 69 36
REMARK SMILES IDX 63 37 65 38 25 39 68 40 62 41 61 42 26 44 52 45 35 46 51 47
REMARK SMILES IDX 36 48 39 49 50 50 66 51 37 52 38 53 49 55 67 56 40 57 27 58
REMARK SMILES IDX 28 59 33 60 29 61 30 62 32 63 34 64 31 65 53 66 54 67 59 68
REMARK SMILES IDX 55 69 56 70 58 71 60 72 57 73 41 74 42 75 47 76 43 77 44 78
REMARK SMILES IDX 46 79 48 80 45 81
REMARK H PARENT 11 4 6 8 6 9 15 24 65 43 39 54
REMARK Flexibility Score: inf
ROOT
ATOM      1  C   UNL     1      -3.503  -2.935  -3.856  1.00  0.00     0.290 C 
ATOM      2  O   UNL     1      -4.209  -3.859  -4.266  1.00  0.00    -0.267 OA
ATOM      3  N   UNL     1      -3.242  -1.941  -4.763  1.00  0.00    -0.350 N 
ATOM      4  H   UNL     1      -3.613  -2.101  -5.660  1.00  0.00     0.163 HD
ENDROOT
BRANCH   1   5
ATOM      5  C   UNL     1      -2.928  -2.889  -2.417  1.00  0.00     0.268 C 
ATOM      6  C   UNL     1      -1.400  -3.059  -2.497  1.00  0.00     0.101 C 
BRANCH   5   7
ATOM      7  N   UNL     1      -3.366  -1.575  -1.821  1.00  0.00    -0.326 N 
ATOM      8  H   UNL     1      -3.247  -0.853  -2.532  1.00  0.00     0.347 HD
ATOM      9  H   UNL     1      -4.334  -1.712  -1.528  1.00  0.00     0.347 HD
BRANCH   7  10
ATOM     10  C   UNL     1      -2.647  -1.151  -0.627  1.00  0.00     0.261 C 
BRANCH  10  11
ATOM     11  C   UNL     1      -3.172   0.206  -0.139  1.00  0.00     0.061 C 
BRANCH  11  12
ATOM     12  C   UNL     1      -4.645   0.233   0.287  1.00  0.00     0.006 C 
BRANCH  12  13
ATOM     13  C   UNL     1      -5.045  -0.813   1.328  1.00  0.00    -0.003 C 
ATOM     14  C   UNL     1      -4.258  -0.703   2.625  1.00  0.00     0.004 C 
ENDBRANCH  12  13
ENDBRANCH  11  12
ENDBRANCH  10  11
ENDBRANCH   7  10
ENDBRANCH   5   7
BRANCH   5  15
ATOM     15  C   UNL     1      -3.508  -4.127  -1.676  1.00  0.00     0.453 C 
ATOM     16  F   UNL     1      -3.178  -5.302  -2.254  1.00  0.00    -0.164 F 
ATOM     17  F   UNL     1      -3.022  -4.183  -0.405  1.00  0.00    -0.164 F 
ATOM     18  F   UNL     1      -4.855  -4.062  -1.558  1.00  0.00    -0.164 F 
ENDBRANCH   5  15
ENDBRANCH   1   5
BRANCH   3  19
ATOM     19  C   UNL     1      -2.510  -0.691  -4.630  1.00  0.00     0.118 C 
BRANCH  19  20
ATOM     20  C   UNL     1      -1.216  -0.693  -5.435  1.00  0.00     0.042 C 
BRANCH  20  21
ATOM     21  C   UNL     1      -1.422  -0.781  -6.942  1.00  0.00     0.118 C 
BRANCH  21  22
ATOM     22  N   UNL     1      -2.095   0.389  -7.488  1.00  0.00    -0.352 N 
ATOM     23  C   UNL     1      -1.671   1.297  -8.425  1.00  0.00     0.251 C 
ATOM     24  H   UNL     1      -2.996   0.554  -7.129  1.00  0.00     0.163 HD
ATOM     25  O   UNL     1      -2.328   2.320  -8.618  1.00  0.00    -0.269 OA
BRANCH  23  26
ATOM     26  C   UNL     1      -0.424   1.074  -9.188  1.00  0.00     0.039 A 
ATOM     27  C   UNL     1       0.429   2.159  -9.414  1.00  0.00     0.014 A 
ATOM     28  C   UNL     1      -0.102  -0.184  -9.703  1.00  0.00     0.014 A 
ATOM     29  C   UNL     1       1.634   1.966 -10.093  1.00  0.00     0.010 A 
ATOM     30  C   UNL     1       1.133  -0.391 -10.311  1.00  0.00     0.010 A 
ATOM     31  C   UNL     1       2.014   0.682 -10.514  1.00  0.00    -0.014 A 
BRANCH  31  32
ATOM     32  C   UNL     1       3.327   0.439 -11.163  1.00  0.00     0.031 A 
ATOM     33  C   UNL     1       3.391  -0.057 -12.582  1.00  0.00     0.074 A 
ATOM     34  C   UNL     1       4.461   0.594 -10.451  1.00  0.00     0.049 A 
ATOM     35  N   UNL     1       4.435  -0.414 -13.286  1.00  0.00    -0.248 NA
ATOM     36  C   UNL     1       2.111  -0.194 -13.294  1.00  0.00     0.031 C 
ATOM     37  C   UNL     1       4.532   1.023  -9.053  1.00  0.00     0.029 A 
ATOM     38  N   UNL     1       5.772   0.391 -10.802  1.00  0.00    -0.354 N 
ATOM     39  C   UNL     1       3.937  -0.836 -14.512  1.00  0.00     0.074 A 
ATOM     40  C   UNL     1       2.496  -0.732 -14.442  1.00  0.00     0.031 C 
ATOM     41  C   UNL     1       5.818   1.067  -8.671  1.00  0.00     0.029 A 
ATOM     42  C   UNL     1       6.660   0.633  -9.781  1.00  0.00     0.049 A 
ATOM     43  H   UNL     1       6.051   0.101 -11.701  1.00  0.00     0.167 HD
ATOM     44  C   UNL     1       4.620  -1.252 -15.605  1.00  0.00     0.037 A 
ATOM     45  C   UNL     1       8.000   0.509  -9.741  1.00  0.00     0.037 A 
ATOM     46  C   UNL     1       6.056  -1.322 -15.686  1.00  0.00     0.049 A 
ATOM     47  C   UNL     1       8.733   0.049 -10.970  1.00  0.00     0.074 A 
ATOM     48  C   UNL     1       6.841  -1.667 -16.772  1.00  0.00     0.029 A 
ATOM     49  N   UNL     1       6.920  -1.041 -14.639  1.00  0.00    -0.354 N 
ATOM     50  N   UNL     1       8.253  -0.283 -12.144  1.00  0.00    -0.248 NA
ATOM     51  C   UNL     1      10.197  -0.048 -10.871  1.00  0.00     0.031 C 
ATOM     52  C   UNL     1       8.181  -1.631 -16.372  1.00  0.00     0.029 A 
ATOM     53  C   UNL     1       8.231  -1.222 -15.049  1.00  0.00     0.049 A 
ATOM     54  H   UNL     1       6.644  -0.754 -13.739  1.00  0.00     0.167 HD
ATOM     55  C   UNL     1       9.353  -0.601 -12.928  1.00  0.00     0.074 A 
ATOM     56  C   UNL     1      10.527  -0.410 -12.102  1.00  0.00     0.031 C 
ATOM     57  C   UNL     1       9.389  -1.016 -14.218  1.00  0.00     0.037 A 
BRANCH  44  58
ATOM     58  C   UNL     1       3.824  -1.659 -16.809  1.00  0.00     0.057 A 
ATOM     59  C   UNL     1       3.155  -0.718 -17.603  1.00  0.00     0.134 A 
ATOM     60  C   UNL     1       3.765  -3.000 -17.209  1.00  0.00     0.134 A 
ATOM     61  F   UNL     1       3.163   0.581 -17.269  1.00  0.00    -0.206 F 
ATOM     62  C   UNL     1       2.440  -1.099 -18.740  1.00  0.00     0.040 A 
ATOM     63  C   UNL     1       3.074  -3.390 -18.357  1.00  0.00     0.040 A 
ATOM     64  F   UNL     1       4.388  -3.951 -16.497  1.00  0.00    -0.206 F 
ATOM     65  C   UNL     1       2.405  -2.438 -19.124  1.00  0.00     0.006 A 
ENDBRANCH  44  58
BRANCH  45  66
ATOM     66  C   UNL     1       8.741   0.836  -8.498  1.00  0.00     0.057 A 
ATOM     67  C   UNL     1       9.560   1.968  -8.424  1.00  0.00     0.134 A 
ATOM     68  C   UNL     1       8.664   0.020  -7.364  1.00  0.00     0.134 A 
ATOM     69  F   UNL     1       9.689   2.778  -9.486  1.00  0.00    -0.206 F 
ATOM     70  C   UNL     1      10.294   2.266  -7.275  1.00  0.00     0.040 A 
ATOM     71  C   UNL     1       9.374   0.319  -6.199  1.00  0.00     0.040 A 
ATOM     72  F   UNL     1       7.891  -1.076  -7.368  1.00  0.00    -0.206 F 
ATOM     73  C   UNL     1      10.199   1.441  -6.156  1.00  0.00     0.006 A 
ENDBRANCH  45  66
BRANCH  57  74
ATOM     74  C   UNL     1      10.739  -1.256 -14.825  1.00  0.00     0.057 A 
ATOM     75  C   UNL     1      11.512  -2.373 -14.487  1.00  0.00     0.134 A 
ATOM     76  C   UNL     1      11.252  -0.379 -15.788  1.00  0.00     0.134 A 
ATOM     77  F   UNL     1      11.082  -3.244 -13.561  1.00  0.00    -0.206 F 
ATOM     78  C   UNL     1      12.759  -2.599 -15.071  1.00  0.00     0.040 A 
ATOM     79  C   UNL     1      12.486  -0.606 -16.397  1.00  0.00     0.040 A 
ATOM     80  F   UNL     1      10.557   0.706 -16.162  1.00  0.00    -0.206 F 
ATOM     81  C   UNL     1      13.246  -1.717 -16.035  1.00  0.00     0.006 A 
ENDBRANCH  57  74
ENDBRANCH  31  32
ENDBRANCH  23  26
ENDBRANCH  21  22
ENDBRANCH  20  21
ENDBRANCH  19  20
ENDBRANCH   3  19
TORSDOF 16
