REMARK SMILES CC(C)(C[S@@](=O)c1ccc(C(C)(C)C)cc1)C(=O)NCCCNC(=O)c1ccc(-c2c3nc(c(-c4c(F)cccc4F)c4ccc([nH]4)c(-c4c(F)cccc4F)c4nc(c(-c5c(F)cccc5F)c5ccc2[nH]5)C=C4)C=C3)cc1
REMARK SMILES IDX 20 1 19 2 17 3 18 4 2 6 1 7 3 8 4 9 5 10 6 11 7 12 8 13
REMARK SMILES IDX 16 14 9 15 15 16 10 17 11 18 12 19 13 20 14 21 21 22 22 23
REMARK SMILES IDX 23 24 24 25 25 27 26 28 27 29 79 30 28 31 78 32 29 33 30 34
REMARK SMILES IDX 31 35 72 36 32 37 77 38 71 39 73 40 33 41 76 42 70 43 69 44
REMARK SMILES IDX 34 46 60 47 43 48 59 49 44 50 47 51 58 52 74 53 45 54 46 55
REMARK SMILES IDX 57 57 75 58 48 59 35 60 36 61 41 62 37 63 38 64 40 65 42 66
REMARK SMILES IDX 39 67 61 68 62 69 67 70 63 71 64 72 66 73 68 74 65 75 49 76
REMARK SMILES IDX 50 77 55 78 51 79 52 80 54 81 56 82 53 83
REMARK H PARENT 19 5 23 26 73 45 47 56
REMARK Flexibility Score: inf
ROOT
ATOM      1  C   UNL     1      -0.069   1.378  -4.281  1.00  0.00     0.117 C 
ENDROOT
BRANCH   1   2
ATOM      2  N   UNL     1       0.762   1.961  -3.243  1.00  0.00    -0.356 N 
ATOM      3  C   UNL     1       1.142   1.550  -2.008  1.00  0.00     0.226 C 
ATOM      4  O   UNL     1       1.846   2.348  -1.379  1.00  0.00    -0.274 OA
ATOM      5  H   UNL     1       1.128   2.842  -3.488  1.00  0.00     0.163 HD
BRANCH   3   6
ATOM      6  C   UNL     1       0.726   0.202  -1.395  1.00  0.00     0.055 C 
ATOM      7  C   UNL     1       1.461   0.031  -0.044  1.00  0.00     0.022 C 
ATOM      8  C   UNL     1       1.229  -0.970  -2.266  1.00  0.00     0.022 C 
BRANCH   6   9
ATOM      9  C   UNL     1      -0.797   0.094  -1.204  1.00  0.00     0.126 C 
BRANCH   9  10
ATOM     10  S   UNL     1      -1.613   1.510  -0.383  1.00  0.00     0.054 S 
ATOM     11  O   UNL     1      -3.090   1.285  -0.526  1.00  0.00    -0.254 OA
BRANCH  10  12
ATOM     12  C   UNL     1      -1.262   1.164   1.352  1.00  0.00     0.039 A 
ATOM     13  C   UNL     1      -1.444  -0.096   1.919  1.00  0.00     0.018 A 
ATOM     14  C   UNL     1      -0.764   2.196   2.150  1.00  0.00     0.018 A 
ATOM     15  C   UNL     1      -1.038  -0.342   3.235  1.00  0.00     0.005 A 
ATOM     16  C   UNL     1      -0.387   1.954   3.477  1.00  0.00     0.005 A 
ATOM     17  C   UNL     1      -0.490   0.673   4.042  1.00  0.00    -0.043 A 
BRANCH  17  18
ATOM     18  C   UNL     1      -0.006   0.352   5.467  1.00  0.00    -0.013 C 
ATOM     19  C   UNL     1      -1.120  -0.354   6.269  1.00  0.00     0.016 C 
ATOM     20  C   UNL     1       1.223  -0.579   5.378  1.00  0.00     0.016 C 
ATOM     21  C   UNL     1       0.416   1.597   6.279  1.00  0.00     0.016 C 
ENDBRANCH  17  18
ENDBRANCH  10  12
ENDBRANCH   9  10
ENDBRANCH   6   9
ENDBRANCH   3   6
ENDBRANCH   1   2
BRANCH   1  22
ATOM     22  C   UNL     1      -1.323   2.201  -4.548  1.00  0.00     0.042 C 
BRANCH  22  23
ATOM     23  C   UNL     1      -1.051   3.607  -5.067  1.00  0.00     0.118 C 
BRANCH  23  24
ATOM     24  N   UNL     1      -0.376   3.612  -6.359  1.00  0.00    -0.352 N 
ATOM     25  C   UNL     1      -0.798   4.076  -7.580  1.00  0.00     0.251 C 
ATOM     26  H   UNL     1       0.527   3.221  -6.355  1.00  0.00     0.163 HD
ATOM     27  O   UNL     1      -0.143   3.812  -8.587  1.00  0.00    -0.269 OA
BRANCH  25  28
ATOM     28  C   UNL     1      -2.039   4.870  -7.700  1.00  0.00     0.039 A 
ATOM     29  C   UNL     1      -2.896   4.627  -8.778  1.00  0.00     0.014 A 
ATOM     30  C   UNL     1      -2.351   5.868  -6.774  1.00  0.00     0.014 A 
ATOM     31  C   UNL     1      -4.096   5.333  -8.885  1.00  0.00     0.010 A 
ATOM     32  C   UNL     1      -3.585   6.509  -6.833  1.00  0.00     0.010 A 
ATOM     33  C   UNL     1      -4.469   6.252  -7.891  1.00  0.00    -0.014 A 
BRANCH  33  34
ATOM     34  C   UNL     1      -5.774   6.958  -7.939  1.00  0.00     0.031 A 
ATOM     35  C   UNL     1      -5.820   8.456  -8.060  1.00  0.00     0.074 A 
ATOM     36  C   UNL     1      -6.917   6.258  -7.797  1.00  0.00     0.049 A 
ATOM     37  N   UNL     1      -6.854   9.258  -8.027  1.00  0.00    -0.248 NA
ATOM     38  C   UNL     1      -4.529   9.148  -8.210  1.00  0.00     0.031 C 
ATOM     39  C   UNL     1      -7.005   4.807  -7.621  1.00  0.00     0.029 A 
ATOM     40  N   UNL     1      -8.223   6.676  -7.765  1.00  0.00    -0.354 N 
ATOM     41  C   UNL     1      -6.338  10.544  -8.128  1.00  0.00     0.074 A 
ATOM     42  C   UNL     1      -4.897  10.419  -8.175  1.00  0.00     0.031 C 
ATOM     43  C   UNL     1      -8.297   4.454  -7.521  1.00  0.00     0.029 A 
ATOM     44  C   UNL     1      -9.124   5.655  -7.585  1.00  0.00     0.049 A 
ATOM     45  H   UNL     1      -8.489   7.619  -7.861  1.00  0.00     0.167 HD
ATOM     46  C   UNL     1      -7.004  11.721  -8.199  1.00  0.00     0.037 A 
ATOM     47  C   UNL     1     -10.466   5.683  -7.477  1.00  0.00     0.037 A 
ATOM     48  C   UNL     1      -8.438  11.841  -8.184  1.00  0.00     0.049 A 
ATOM     49  C   UNL     1     -11.182   7.002  -7.563  1.00  0.00     0.074 A 
ATOM     50  C   UNL     1      -9.210  12.982  -8.315  1.00  0.00     0.029 A 
ATOM     51  N   UNL     1      -9.317  10.780  -8.028  1.00  0.00    -0.354 N 
ATOM     52  N   UNL     1     -10.685   8.204  -7.725  1.00  0.00    -0.248 NA
ATOM     53  C   UNL     1     -12.648   6.967  -7.456  1.00  0.00     0.031 C 
ATOM     54  C   UNL     1     -10.555  12.616  -8.201  1.00  0.00     0.029 A 
ATOM     55  C   UNL     1     -10.623  11.242  -8.042  1.00  0.00     0.049 A 
ATOM     56  H   UNL     1      -9.052   9.837  -7.923  1.00  0.00     0.167 HD
ATOM     57  C   UNL     1     -11.775   9.063  -7.768  1.00  0.00     0.074 A 
ATOM     58  C   UNL     1     -12.960   8.243  -7.627  1.00  0.00     0.031 C 
ATOM     59  C   UNL     1     -11.792  10.411  -7.911  1.00  0.00     0.037 A 
BRANCH  46  60
ATOM     60  C   UNL     1      -6.185  12.974  -8.307  1.00  0.00     0.057 A 
ATOM     61  C   UNL     1      -5.474  13.294  -9.471  1.00  0.00     0.134 A 
ATOM     62  C   UNL     1      -6.130  13.887  -7.246  1.00  0.00     0.134 A 
ATOM     63  F   UNL     1      -5.474  12.456 -10.519  1.00  0.00    -0.206 F 
ATOM     64  C   UNL     1      -4.716  14.462  -9.567  1.00  0.00     0.040 A 
ATOM     65  C   UNL     1      -5.398  15.072  -7.340  1.00  0.00     0.040 A 
ATOM     66  F   UNL     1      -6.793  13.647  -6.105  1.00  0.00    -0.206 F 
ATOM     67  C   UNL     1      -4.683  15.359  -8.501  1.00  0.00     0.006 A 
ENDBRANCH  46  60
BRANCH  47  68
ATOM     68  C   UNL     1     -11.223   4.420  -7.299  1.00  0.00     0.057 A 
ATOM     69  C   UNL     1     -12.018   3.906  -8.330  1.00  0.00     0.134 A 
ATOM     70  C   UNL     1     -11.176   3.699  -6.099  1.00  0.00     0.134 A 
ATOM     71  F   UNL     1     -12.118   4.562  -9.495  1.00  0.00    -0.206 F 
ATOM     72  C   UNL     1     -12.755   2.731  -8.170  1.00  0.00     0.040 A 
ATOM     73  C   UNL     1     -11.888   2.510  -5.934  1.00  0.00     0.040 A 
ATOM     74  F   UNL     1     -10.427   4.135  -5.076  1.00  0.00    -0.206 F 
ATOM     75  C   UNL     1     -12.686   2.027  -6.969  1.00  0.00     0.006 A 
ENDBRANCH  47  68
BRANCH  59  76
ATOM     76  C   UNL     1     -13.134  11.078  -7.960  1.00  0.00     0.057 A 
ATOM     77  C   UNL     1     -13.929  11.226  -6.817  1.00  0.00     0.134 A 
ATOM     78  C   UNL     1     -13.619  11.613  -9.160  1.00  0.00     0.134 A 
ATOM     79  F   UNL     1     -13.527  10.723  -5.639  1.00  0.00    -0.206 F 
ATOM     80  C   UNL     1     -15.169  11.865  -6.870  1.00  0.00     0.040 A 
ATOM     81  C   UNL     1     -14.845  12.276  -9.220  1.00  0.00     0.040 A 
ATOM     82  F   UNL     1     -12.902  11.512 -10.290  1.00  0.00    -0.206 F 
ATOM     83  C   UNL     1     -15.626  12.399  -8.073  1.00  0.00     0.006 A 
ENDBRANCH  59  76
ENDBRANCH  33  34
ENDBRANCH  25  28
ENDBRANCH  23  24
ENDBRANCH  22  23
ENDBRANCH   1  22
TORSDOF 14
