REMARK SMILES CCOc1ccccc1NC(=O)N[C@@](C)(CC)C(=O)NCCCNC(=O)c1ccc(-c2c3nc(c(-c4c(F)cccc4F)c4ccc([nH]4)c(-c4c(F)cccc4F)c4nc(c(-c5c(F)cccc5F)c5ccc2[nH]5)C=C4)C=C3)cc1
REMARK SMILES IDX 21 1 20 2 18 3 19 4 14 6 15 7 13 8 10 9 11 10 12 12 9 14
REMARK SMILES IDX 4 15 5 16 6 17 8 18 7 19 3 20 2 21 1 22 16 23 17 24 22 25
REMARK SMILES IDX 23 26 24 27 25 28 26 30 27 31 28 32 80 33 29 34 79 35 30 36
REMARK SMILES IDX 31 37 32 38 73 39 33 40 78 41 72 42 74 43 34 44 77 45 71 46
REMARK SMILES IDX 70 47 35 49 61 50 44 51 60 52 45 53 48 54 59 55 75 56 46 57
REMARK SMILES IDX 47 58 58 60 76 61 49 62 36 63 37 64 42 65 38 66 39 67 41 68
REMARK SMILES IDX 43 69 40 70 62 71 63 72 68 73 64 74 65 75 67 76 69 77 66 78
REMARK SMILES IDX 50 79 51 80 56 81 52 82 53 83 55 84 57 85 54 86
REMARK H PARENT 20 5 10 11 13 13 24 29 74 48 48 59
REMARK Flexibility Score: inf
ROOT
ATOM      1  C   UNL     1       6.704   3.848  -1.632  1.00  0.00     0.117 C 
ENDROOT
BRANCH   1   2
ATOM      2  N   UNL     1       5.945   2.625  -1.687  1.00  0.00    -0.354 N 
ATOM      3  C   UNL     1       6.399   1.545  -0.970  1.00  0.00     0.245 C 
ATOM      4  O   UNL     1       7.051   1.709   0.064  1.00  0.00    -0.272 OA
ATOM      5  H   UNL     1       5.122   2.565  -2.225  1.00  0.00     0.163 HD
BRANCH   3   6
ATOM      6  C   UNL     1       6.082   0.140  -1.556  1.00  0.00     0.117 C 
ATOM      7  C   UNL     1       7.346  -0.667  -1.105  1.00  0.00     0.045 C 
BRANCH   6   8
ATOM      8  N   UNL     1       4.949  -0.640  -1.008  1.00  0.00    -0.324 N 
ATOM      9  N   UNL     1       2.888   0.532  -0.851  1.00  0.00    -0.305 N 
ATOM     10  C   UNL     1       3.626  -0.541  -1.129  1.00  0.00     0.320 C 
ATOM     11  H   UNL     1       2.035   0.515  -1.342  1.00  0.00     0.172 HD
ATOM     12  O   UNL     1       3.033  -1.548  -1.530  1.00  0.00    -0.248 OA
ATOM     13  H   UNL     1       5.232  -1.388  -0.435  1.00  0.00     0.166 HD
BRANCH   9  14
ATOM     14  C   UNL     1       2.990   1.678  -0.053  1.00  0.00     0.085 A 
ATOM     15  C   UNL     1       1.885   2.542  -0.074  1.00  0.00     0.142 A 
ATOM     16  C   UNL     1       1.957   3.839   0.431  1.00  0.00     0.048 A 
ATOM     17  C   UNL     1       3.103   4.227   1.114  1.00  0.00     0.004 A 
ATOM     18  C   UNL     1       4.037   2.003   0.789  1.00  0.00     0.030 A 
ATOM     19  C   UNL     1       4.111   3.288   1.348  1.00  0.00     0.002 A 
BRANCH  15  20
ATOM     20  O   UNL     1       0.676   2.069  -0.537  1.00  0.00    -0.492 OA
BRANCH  20  21
ATOM     21  C   UNL     1      -0.047   1.459   0.559  1.00  0.00     0.226 C 
ATOM     22  C   UNL     1       0.003  -0.062   0.481  1.00  0.00     0.049 C 
ENDBRANCH  20  21
ENDBRANCH  15  20
ENDBRANCH   9  14
ENDBRANCH   6   8
BRANCH   6  23
ATOM     23  C   UNL     1       6.158   0.161  -3.119  1.00  0.00     0.035 C 
ATOM     24  C   UNL     1       4.885   0.448  -3.903  1.00  0.00     0.007 C 
ENDBRANCH   6  23
ENDBRANCH   3   6
ENDBRANCH   1   2
BRANCH   1  25
ATOM     25  C   UNL     1       6.224   4.878  -2.635  1.00  0.00     0.042 C 
BRANCH  25  26
ATOM     26  C   UNL     1       5.048   5.683  -2.105  1.00  0.00     0.118 C 
BRANCH  26  27
ATOM     27  N   UNL     1       5.405   6.476  -0.930  1.00  0.00    -0.352 N 
ATOM     28  C   UNL     1       5.832   7.776  -0.823  1.00  0.00     0.251 C 
ATOM     29  H   UNL     1       5.327   5.999  -0.073  1.00  0.00     0.163 HD
ATOM     30  O   UNL     1       6.319   8.183   0.231  1.00  0.00    -0.269 OA
BRANCH  28  31
ATOM     31  C   UNL     1       5.735   8.681  -1.984  1.00  0.00     0.039 A 
ATOM     32  C   UNL     1       6.812   9.512  -2.303  1.00  0.00     0.014 A 
ATOM     33  C   UNL     1       4.583   8.692  -2.769  1.00  0.00     0.014 A 
ATOM     34  C   UNL     1       6.770  10.271  -3.474  1.00  0.00     0.010 A 
ATOM     35  C   UNL     1       4.587   9.360  -3.986  1.00  0.00     0.010 A 
ATOM     36  C   UNL     1       5.683  10.151  -4.356  1.00  0.00    -0.014 A 
BRANCH  36  37
ATOM     37  C   UNL     1       5.676  10.820  -5.680  1.00  0.00     0.031 A 
ATOM     38  C   UNL     1       4.602  11.815  -6.019  1.00  0.00     0.074 A 
ATOM     39  C   UNL     1       6.586  10.462  -6.608  1.00  0.00     0.049 A 
ATOM     40  N   UNL     1       4.372  12.431  -7.150  1.00  0.00    -0.248 NA
ATOM     41  C   UNL     1       3.637  12.136  -4.954  1.00  0.00     0.031 C 
ATOM     42  C   UNL     1       7.645   9.467  -6.419  1.00  0.00     0.029 A 
ATOM     43  N   UNL     1       6.760  10.886  -7.902  1.00  0.00    -0.354 N 
ATOM     44  C   UNL     1       3.235  13.198  -6.937  1.00  0.00     0.074 A 
ATOM     45  C   UNL     1       2.782  12.921  -5.591  1.00  0.00     0.031 C 
ATOM     46  C   UNL     1       8.375   9.382  -7.542  1.00  0.00     0.029 A 
ATOM     47  C   UNL     1       7.810  10.276  -8.545  1.00  0.00     0.049 A 
ATOM     48  H   UNL     1       6.186  11.562  -8.328  1.00  0.00     0.167 HD
ATOM     49  C   UNL     1       2.638  14.077  -7.776  1.00  0.00     0.037 A 
ATOM     50  C   UNL     1       8.260  10.416  -9.806  1.00  0.00     0.037 A 
ATOM     51  C   UNL     1       3.102  14.361  -9.108  1.00  0.00     0.049 A 
ATOM     52  C   UNL     1       7.563  11.379 -10.727  1.00  0.00     0.074 A 
ATOM     53  C   UNL     1       2.602  15.275 -10.018  1.00  0.00     0.029 A 
ATOM     54  N   UNL     1       4.174  13.729  -9.722  1.00  0.00    -0.354 N 
ATOM     55  N   UNL     1       6.533  12.154 -10.488  1.00  0.00    -0.248 NA
ATOM     56  C   UNL     1       8.092  11.488 -12.094  1.00  0.00     0.031 C 
ATOM     57  C   UNL     1       3.337  15.158 -11.202  1.00  0.00     0.029 A 
ATOM     58  C   UNL     1       4.332  14.212 -11.010  1.00  0.00     0.049 A 
ATOM     59  H   UNL     1       4.738  13.039  -9.303  1.00  0.00     0.167 HD
ATOM     60  C   UNL     1       6.308  12.861 -11.662  1.00  0.00     0.074 A 
ATOM     61  C   UNL     1       7.320  12.435 -12.606  1.00  0.00     0.031 C 
ATOM     62  C   UNL     1       5.348  13.779 -11.936  1.00  0.00     0.037 A 
BRANCH  49  63
ATOM     63  C   UNL     1       1.418  14.794  -7.271  1.00  0.00     0.057 A 
ATOM     64  C   UNL     1       1.491  15.748  -6.248  1.00  0.00     0.134 A 
ATOM     65  C   UNL     1       0.158  14.543  -7.829  1.00  0.00     0.134 A 
ATOM     66  F   UNL     1       2.665  16.027  -5.660  1.00  0.00    -0.206 F 
ATOM     67  C   UNL     1       0.353  16.403  -5.775  1.00  0.00     0.040 A 
ATOM     68  C   UNL     1      -0.984  15.215  -7.386  1.00  0.00     0.040 A 
ATOM     69  F   UNL     1       0.014  13.647  -8.816  1.00  0.00    -0.206 F 
ATOM     70  C   UNL     1      -0.889  16.142  -6.350  1.00  0.00     0.006 A 
ENDBRANCH  49  63
BRANCH  50  71
ATOM     71  C   UNL     1       9.440   9.642 -10.269  1.00  0.00     0.057 A 
ATOM     72  C   UNL     1      10.653  10.280 -10.556  1.00  0.00     0.134 A 
ATOM     73  C   UNL     1       9.385   8.254 -10.447  1.00  0.00     0.134 A 
ATOM     74  F   UNL     1      10.763  11.610 -10.422  1.00  0.00    -0.206 F 
ATOM     75  C   UNL     1      11.760   9.571 -11.026  1.00  0.00     0.040 A 
ATOM     76  C   UNL     1      10.493   7.529 -10.889  1.00  0.00     0.040 A 
ATOM     77  F   UNL     1       8.257   7.581 -10.180  1.00  0.00    -0.206 F 
ATOM     78  C   UNL     1      11.683   8.190 -11.188  1.00  0.00     0.006 A 
ENDBRANCH  50  71
BRANCH  62  79
ATOM     79  C   UNL     1       5.367  14.407 -13.299  1.00  0.00     0.057 A 
ATOM     80  C   UNL     1       5.005  13.693 -14.448  1.00  0.00     0.134 A 
ATOM     81  C   UNL     1       5.711  15.756 -13.457  1.00  0.00     0.134 A 
ATOM     82  F   UNL     1       4.678  12.394 -14.367  1.00  0.00    -0.206 F 
ATOM     83  C   UNL     1       5.007  14.292 -15.709  1.00  0.00     0.040 A 
ATOM     84  C   UNL     1       5.687  16.373 -14.708  1.00  0.00     0.040 A 
ATOM     85  F   UNL     1       6.059  16.500 -12.397  1.00  0.00    -0.206 F 
ATOM     86  C   UNL     1       5.340  15.639 -15.840  1.00  0.00     0.006 A 
ENDBRANCH  62  79
ENDBRANCH  36  37
ENDBRANCH  28  31
ENDBRANCH  26  27
ENDBRANCH  25  26
ENDBRANCH   1  25
TORSDOF 15
