REMARK SMILES CC[C@H]1CCCCN1S(=O)(=O)CC(=O)NCCCNC(=O)c1ccc(-c2c3nc(c(-c4c(F)cccc4F)c4ccc([nH]4)c(-c4c(F)cccc4F)c4nc(c(-c5c(F)cccc5F)c5ccc2[nH]5)C=C4)C=C3)cc1
REMARK SMILES IDX 16 1 15 2 13 3 14 4 12 6 9 7 10 8 11 9 8 10 3 11 4 12 5 13
REMARK SMILES IDX 7 14 6 15 2 16 1 17 17 18 18 19 19 20 20 21 21 23 22 24
REMARK SMILES IDX 23 25 75 26 24 27 74 28 25 29 26 30 27 31 68 32 28 33 73 34
REMARK SMILES IDX 67 35 69 36 29 37 72 38 66 39 65 40 30 42 56 43 39 44 55 45
REMARK SMILES IDX 40 46 43 47 54 48 70 49 41 50 42 51 53 53 71 54 44 55 31 56
REMARK SMILES IDX 32 57 37 58 33 59 34 60 36 61 38 62 35 63 57 64 58 65 63 66
REMARK SMILES IDX 59 67 60 68 62 69 64 70 61 71 45 72 46 73 51 74 47 75 48 76
REMARK SMILES IDX 50 77 52 78 49 79
REMARK H PARENT 15 5 19 22 69 41 43 52
REMARK Flexibility Score: inf
ROOT
ATOM      1  C   UNL     1       4.803   1.994  -0.506  1.00  0.00     0.117 C 
ENDROOT
BRANCH   1   2
ATOM      2  N   UNL     1       5.100   0.578  -0.353  1.00  0.00    -0.355 N 
ATOM      3  C   UNL     1       5.048  -0.424  -1.276  1.00  0.00     0.236 C 
ATOM      4  O   UNL     1       5.192  -1.581  -0.873  1.00  0.00    -0.274 OA
ATOM      5  H   UNL     1       5.381   0.303   0.549  1.00  0.00     0.163 HD
BRANCH   3   6
ATOM      6  C   UNL     1       4.957  -0.123  -2.736  1.00  0.00     0.253 C 
BRANCH   6   7
ATOM      7  S   UNL     1       3.292   0.013  -3.324  1.00  0.00     0.223 S 
ATOM      8  O   UNL     1       3.325  -0.179  -4.757  1.00  0.00    -0.212 OA
ATOM      9  O   UNL     1       2.721   1.232  -2.778  1.00  0.00    -0.212 OA
BRANCH   7  10
ATOM     10  N   UNL     1       2.448  -1.302  -2.654  1.00  0.00    -0.198 NA
ATOM     11  C   UNL     1       0.949  -1.127  -2.562  1.00  0.00     0.072 C 
ATOM     12  C   UNL     1       0.362  -2.273  -1.720  1.00  0.00     0.020 C 
ATOM     13  C   UNL     1       0.741  -3.643  -2.264  1.00  0.00     0.003 C 
ATOM     14  C   UNL     1       2.868  -2.642  -3.164  1.00  0.00     0.102 C 
ATOM     15  C   UNL     1       2.257  -3.762  -2.331  1.00  0.00     0.017 C 
BRANCH  11  16
ATOM     16  C   UNL     1       0.300  -0.963  -3.952  1.00  0.00     0.017 C 
ATOM     17  C   UNL     1      -1.216  -0.824  -3.920  1.00  0.00     0.005 C 
ENDBRANCH  11  16
ENDBRANCH   7  10
ENDBRANCH   6   7
ENDBRANCH   3   6
ENDBRANCH   1   2
BRANCH   1  18
ATOM     18  C   UNL     1       3.447   2.345   0.101  1.00  0.00     0.042 C 
BRANCH  18  19
ATOM     19  C   UNL     1       3.402   2.250   1.622  1.00  0.00     0.118 C 
BRANCH  19  20
ATOM     20  N   UNL     1       4.177   3.294   2.274  1.00  0.00    -0.352 N 
ATOM     21  C   UNL     1       3.792   4.215   3.218  1.00  0.00     0.251 C 
ATOM     22  H   UNL     1       5.120   3.349   1.998  1.00  0.00     0.163 HD
ATOM     23  O   UNL     1       4.556   5.127   3.522  1.00  0.00    -0.269 OA
BRANCH  21  24
ATOM     24  C   UNL     1       2.459   4.131   3.858  1.00  0.00     0.039 A 
ATOM     25  C   UNL     1       1.736   5.311   4.057  1.00  0.00     0.014 A 
ATOM     26  C   UNL     1       1.936   2.911   4.295  1.00  0.00     0.014 A 
ATOM     27  C   UNL     1       0.468   5.262   4.640  1.00  0.00     0.010 A 
ATOM     28  C   UNL     1       0.643   2.854   4.814  1.00  0.00     0.010 A 
ATOM     29  C   UNL     1      -0.101   4.029   4.997  1.00  0.00    -0.014 A 
BRANCH  29  30
ATOM     30  C   UNL     1      -1.469   3.950   5.569  1.00  0.00     0.031 A 
ATOM     31  C   UNL     1      -1.675   3.475   6.980  1.00  0.00     0.074 A 
ATOM     32  C   UNL     1      -2.532   4.248   4.798  1.00  0.00     0.049 A 
ATOM     33  N   UNL     1      -2.793   3.274   7.631  1.00  0.00    -0.248 NA
ATOM     34  C   UNL     1      -0.464   3.161   7.754  1.00  0.00     0.031 C 
ATOM     35  C   UNL     1      -2.471   4.682   3.402  1.00  0.00     0.029 A 
ATOM     36  N   UNL     1      -3.875   4.222   5.080  1.00  0.00    -0.354 N 
ATOM     37  C   UNL     1      -2.422   2.792   8.879  1.00  0.00     0.074 A 
ATOM     38  C   UNL     1      -0.979   2.689   8.880  1.00  0.00     0.031 C 
ATOM     39  C   UNL     1      -3.718   4.904   2.957  1.00  0.00     0.029 A 
ATOM     40  C   UNL     1      -4.667   4.597   4.022  1.00  0.00     0.049 A 
ATOM     41  H   UNL     1      -4.237   3.959   5.957  1.00  0.00     0.167 HD
ATOM     42  C   UNL     1      -3.210   2.482   9.937  1.00  0.00     0.037 A 
ATOM     43  C   UNL     1      -6.006   4.680   3.922  1.00  0.00     0.037 A 
ATOM     44  C   UNL     1      -4.643   2.612   9.947  1.00  0.00     0.049 A 
ATOM     45  C   UNL     1      -6.860   4.332   5.108  1.00  0.00     0.074 A 
ATOM     46  C   UNL     1      -5.523   2.384  10.991  1.00  0.00     0.029 A 
ATOM     47  N   UNL     1      -5.407   3.006   8.859  1.00  0.00    -0.354 N 
ATOM     48  N   UNL     1      -6.493   3.931   6.300  1.00  0.00    -0.248 NA
ATOM     49  C   UNL     1      -8.314   4.451   4.934  1.00  0.00     0.031 C 
ATOM     50  C   UNL     1      -6.824   2.607  10.524  1.00  0.00     0.029 A 
ATOM     51  C   UNL     1      -6.750   3.010   9.200  1.00  0.00     0.049 A 
ATOM     52  H   UNL     1      -5.048   3.247   7.975  1.00  0.00     0.167 HD
ATOM     53  C   UNL     1      -7.666   3.773   7.026  1.00  0.00     0.074 A 
ATOM     54  C   UNL     1      -8.756   4.130   6.142  1.00  0.00     0.031 C 
ATOM     55  C   UNL     1      -7.824   3.369   8.310  1.00  0.00     0.037 A 
BRANCH  42  56
ATOM     56  C   UNL     1      -2.529   1.970  11.172  1.00  0.00     0.057 A 
ATOM     57  C   UNL     1      -1.757   2.806  11.989  1.00  0.00     0.134 A 
ATOM     58  C   UNL     1      -2.657   0.630  11.556  1.00  0.00     0.134 A 
ATOM     59  F   UNL     1      -1.584   4.098  11.669  1.00  0.00    -0.206 F 
ATOM     60  C   UNL     1      -1.110   2.321  13.127  1.00  0.00     0.040 A 
ATOM     61  C   UNL     1      -2.035   0.138  12.706  1.00  0.00     0.040 A 
ATOM     62  F   UNL     1      -3.386  -0.224  10.822  1.00  0.00    -0.206 F 
ATOM     63  C   UNL     1      -1.252   0.983  13.490  1.00  0.00     0.006 A 
ENDBRANCH  42  56
BRANCH  43  64
ATOM     64  C   UNL     1      -6.621   5.147   2.656  1.00  0.00     0.057 A 
ATOM     65  C   UNL     1      -7.189   6.423   2.564  1.00  0.00     0.134 A 
ATOM     66  C   UNL     1      -6.644   4.343   1.511  1.00  0.00     0.134 A 
ATOM     67  F   UNL     1      -7.212   7.230   3.635  1.00  0.00    -0.206 F 
ATOM     68  C   UNL     1      -7.767   6.881   1.379  1.00  0.00     0.040 A 
ATOM     69  C   UNL     1      -7.201   4.796   0.314  1.00  0.00     0.040 A 
ATOM     70  F   UNL     1      -6.110   3.113   1.536  1.00  0.00    -0.206 F 
ATOM     71  C   UNL     1      -7.768   6.067   0.247  1.00  0.00     0.006 A 
ENDBRANCH  43  64
BRANCH  55  72
ATOM     72  C   UNL     1      -9.224   3.320   8.843  1.00  0.00     0.057 A 
ATOM     73  C   UNL     1     -10.117   2.306   8.475  1.00  0.00     0.134 A 
ATOM     74  C   UNL     1      -9.672   4.277   9.762  1.00  0.00     0.134 A 
ATOM     75  F   UNL     1      -9.752   1.368   7.588  1.00  0.00    -0.206 F 
ATOM     76  C   UNL     1     -11.414   2.257   8.988  1.00  0.00     0.040 A 
ATOM     77  C   UNL     1     -10.959   4.226  10.299  1.00  0.00     0.040 A 
ATOM     78  F   UNL     1      -8.863   5.270  10.160  1.00  0.00    -0.206 F 
ATOM     79  C   UNL     1     -11.835   3.215   9.908  1.00  0.00     0.006 A 
ENDBRANCH  55  72
ENDBRANCH  29  30
ENDBRANCH  21  24
ENDBRANCH  19  20
ENDBRANCH  18  19
ENDBRANCH   1  18
TORSDOF 13
