REMARK SMILES CC(C)Cc1ccc([C@@H](C)C(=O)NCCCNC(=O)c2ccc(-c3c4nc(c(-c5c(F)cccc5F)c5ccc([nH]5)c(-c5c(F)cccc5F)c5nc(c(-c6c(F)cccc6F)c6ccc3[nH]6)C=C5)C=C4)cc2)cc1
REMARK SMILES IDX 14 1 13 2 11 3 12 4 9 6 10 7 8 8 5 9 6 10 75 11 7 12 74 13
REMARK SMILES IDX 4 14 2 15 1 16 3 17 15 18 16 19 17 20 18 21 19 23 20 24
REMARK SMILES IDX 21 25 73 26 22 27 72 28 23 29 24 30 25 31 66 32 26 33 71 34
REMARK SMILES IDX 65 35 67 36 27 37 70 38 64 39 63 40 28 42 54 43 37 44 53 45
REMARK SMILES IDX 38 46 41 47 52 48 68 49 39 50 40 51 51 53 69 54 42 55 29 56
REMARK SMILES IDX 30 57 35 58 31 59 32 60 34 61 36 62 33 63 55 64 56 65 61 66
REMARK SMILES IDX 57 67 58 68 60 69 62 70 59 71 43 72 44 73 49 74 45 75 46 76
REMARK SMILES IDX 48 77 50 78 47 79
REMARK H PARENT 13 5 17 22 67 41 41 52
REMARK Flexibility Score: inf
ROOT
ATOM      1  C   UNL     1      -3.724  -1.723   5.941  1.00  0.00     0.117 C 
ENDROOT
BRANCH   1   2
ATOM      2  N   UNL     1      -4.241  -2.784   5.099  1.00  0.00    -0.356 N 
ATOM      3  C   UNL     1      -3.658  -3.536   4.126  1.00  0.00     0.227 C 
ATOM      4  O   UNL     1      -4.397  -4.336   3.539  1.00  0.00    -0.274 OA
ATOM      5  H   UNL     1      -5.187  -3.000   5.262  1.00  0.00     0.163 HD
BRANCH   3   6
ATOM      6  C   UNL     1      -2.176  -3.442   3.745  1.00  0.00     0.105 C 
ATOM      7  C   UNL     1      -1.208  -3.772   4.882  1.00  0.00     0.023 C 
BRANCH   6   8
ATOM      8  C   UNL     1      -1.840  -2.208   2.924  1.00  0.00    -0.036 A 
ATOM      9  C   UNL     1      -1.247   0.039   1.311  1.00  0.00    -0.048 A 
ATOM     10  C   UNL     1      -1.097   0.097   2.699  1.00  0.00     0.004 A 
ATOM     11  C   UNL     1      -1.714  -1.144   0.731  1.00  0.00     0.004 A 
ATOM     12  C   UNL     1      -1.365  -1.021   3.491  1.00  0.00     0.005 A 
ATOM     13  C   UNL     1      -2.018  -2.249   1.530  1.00  0.00     0.005 A 
BRANCH   9  14
ATOM     14  C   UNL     1      -0.850   1.219   0.456  1.00  0.00     0.038 C 
BRANCH  14  15
ATOM     15  C   UNL     1       0.672   1.465   0.466  1.00  0.00    -0.013 C 
ATOM     16  C   UNL     1       1.439   0.316  -0.195  1.00  0.00     0.008 C 
ATOM     17  C   UNL     1       1.000   2.784  -0.233  1.00  0.00     0.008 C 
ENDBRANCH  14  15
ENDBRANCH   9  14
ENDBRANCH   6   8
ENDBRANCH   3   6
ENDBRANCH   1   2
BRANCH   1  18
ATOM     18  C   UNL     1      -4.090  -0.334   5.423  1.00  0.00     0.042 C 
BRANCH  18  19
ATOM     19  C   UNL     1      -5.530   0.073   5.715  1.00  0.00     0.118 C 
BRANCH  19  20
ATOM     20  N   UNL     1      -5.764   0.304   7.135  1.00  0.00    -0.352 N 
ATOM     21  C   UNL     1      -6.012   1.461   7.832  1.00  0.00     0.251 C 
ATOM     22  H   UNL     1      -5.741  -0.509   7.690  1.00  0.00     0.163 HD
ATOM     23  O   UNL     1      -5.958   1.445   9.058  1.00  0.00    -0.269 OA
BRANCH  21  24
ATOM     24  C   UNL     1      -6.328   2.729   7.134  1.00  0.00     0.039 A 
ATOM     25  C   UNL     1      -5.805   3.924   7.643  1.00  0.00     0.014 A 
ATOM     26  C   UNL     1      -7.176   2.763   6.025  1.00  0.00     0.014 A 
ATOM     27  C   UNL     1      -6.067   5.135   6.996  1.00  0.00     0.010 A 
ATOM     28  C   UNL     1      -7.381   3.960   5.339  1.00  0.00     0.010 A 
ATOM     29  C   UNL     1      -6.823   5.157   5.814  1.00  0.00    -0.014 A 
BRANCH  29  30
ATOM     30  C   UNL     1      -7.020   6.410   5.041  1.00  0.00     0.031 A 
ATOM     31  C   UNL     1      -8.395   6.991   4.867  1.00  0.00     0.074 A 
ATOM     32  C   UNL     1      -5.967   6.976   4.420  1.00  0.00     0.049 A 
ATOM     33  N   UNL     1      -8.778   8.003   4.131  1.00  0.00    -0.248 NA
ATOM     34  C   UNL     1      -9.488   6.334   5.601  1.00  0.00     0.031 C 
ATOM     35  C   UNL     1      -4.587   6.489   4.481  1.00  0.00     0.029 A 
ATOM     36  N   UNL     1      -5.895   8.073   3.599  1.00  0.00    -0.354 N 
ATOM     37  C   UNL     1     -10.154   8.094   4.297  1.00  0.00     0.074 A 
ATOM     38  C   UNL     1     -10.545   7.011   5.175  1.00  0.00     0.031 C 
ATOM     39  C   UNL     1      -3.806   7.288   3.737  1.00  0.00     0.029 A 
ATOM     40  C   UNL     1      -4.633   8.315   3.113  1.00  0.00     0.049 A 
ATOM     41  H   UNL     1      -6.674   8.634   3.380  1.00  0.00     0.167 HD
ATOM     42  C   UNL     1     -11.010   9.006   3.779  1.00  0.00     0.037 A 
ATOM     43  C   UNL     1      -4.194   9.244   2.244  1.00  0.00     0.037 A 
ATOM     44  C   UNL     1     -10.616  10.097   2.926  1.00  0.00     0.049 A 
ATOM     45  C   UNL     1      -5.169  10.227   1.660  1.00  0.00     0.074 A 
ATOM     46  C   UNL     1     -11.399  11.117   2.414  1.00  0.00     0.029 A 
ATOM     47  N   UNL     1      -9.329  10.306   2.455  1.00  0.00    -0.354 N 
ATOM     48  N   UNL     1      -6.457  10.339   1.876  1.00  0.00    -0.248 NA
ATOM     49  C   UNL     1      -4.631  11.207   0.706  1.00  0.00     0.031 C 
ATOM     50  C   UNL     1     -10.594  11.918   1.596  1.00  0.00     0.029 A 
ATOM     51  C   UNL     1      -9.301  11.420   1.632  1.00  0.00     0.049 A 
ATOM     52  H   UNL     1      -8.549   9.745   2.674  1.00  0.00     0.167 HD
ATOM     53  C   UNL     1      -6.881  11.408   1.098  1.00  0.00     0.074 A 
ATOM     54  C   UNL     1      -5.710  11.923   0.419  1.00  0.00     0.031 C 
ATOM     55  C   UNL     1      -8.130  11.915   0.957  1.00  0.00     0.037 A 
BRANCH  42  56
ATOM     56  C   UNL     1     -12.465   8.865   4.121  1.00  0.00     0.057 A 
ATOM     57  C   UNL     1     -12.953   9.156   5.401  1.00  0.00     0.134 A 
ATOM     58  C   UNL     1     -13.393   8.474   3.148  1.00  0.00     0.134 A 
ATOM     59  F   UNL     1     -12.115   9.527   6.380  1.00  0.00    -0.206 F 
ATOM     60  C   UNL     1     -14.310   9.041   5.707  1.00  0.00     0.040 A 
ATOM     61  C   UNL     1     -14.756   8.379   3.436  1.00  0.00     0.040 A 
ATOM     62  F   UNL     1     -12.993   8.188   1.900  1.00  0.00    -0.206 F 
ATOM     63  C   UNL     1     -15.217   8.658   4.721  1.00  0.00     0.006 A 
ENDBRANCH  42  56
BRANCH  43  64
ATOM     64  C   UNL     1      -2.758   9.288   1.870  1.00  0.00     0.057 A 
ATOM     65  C   UNL     1      -1.931  10.325   2.314  1.00  0.00     0.134 A 
ATOM     66  C   UNL     1      -2.180   8.300   1.064  1.00  0.00     0.134 A 
ATOM     67  F   UNL     1      -2.433  11.311   3.072  1.00  0.00    -0.206 F 
ATOM     68  C   UNL     1      -0.582  10.386   1.961  1.00  0.00     0.040 A 
ATOM     69  C   UNL     1      -0.828   8.336   0.722  1.00  0.00     0.040 A 
ATOM     70  F   UNL     1      -2.920   7.277   0.611  1.00  0.00    -0.206 F 
ATOM     71  C   UNL     1      -0.026   9.385   1.166  1.00  0.00     0.006 A 
ENDBRANCH  43  64
BRANCH  55  72
ATOM     72  C   UNL     1      -8.291  13.089   0.039  1.00  0.00     0.057 A 
ATOM     73  C   UNL     1      -8.247  12.943  -1.353  1.00  0.00     0.134 A 
ATOM     74  C   UNL     1      -8.534  14.370   0.549  1.00  0.00     0.134 A 
ATOM     75  F   UNL     1      -8.002  11.744  -1.903  1.00  0.00    -0.206 F 
ATOM     76  C   UNL     1      -8.423  14.033  -2.206  1.00  0.00     0.040 A 
ATOM     77  C   UNL     1      -8.735  15.464  -0.293  1.00  0.00     0.040 A 
ATOM     78  F   UNL     1      -8.594  14.576   1.874  1.00  0.00    -0.206 F 
ATOM     79  C   UNL     1      -8.676  15.297  -1.676  1.00  0.00     0.006 A 
ENDBRANCH  55  72
ENDBRANCH  29  30
ENDBRANCH  21  24
ENDBRANCH  19  20
ENDBRANCH  18  19
ENDBRANCH   1  18
TORSDOF 13
