REMARK SMILES O=C(NCCCNC(=O)[C@H]1C[N@H+](Cc2ccc(Cl)c(Cl)c2)CC12CCCCC2)c1ccc(-c2c3nc(c(-c4c(F)cccc4F)c4ccc([nH]4)c(-c4c(F)cccc4F)c4nc(c(-c5c(F)cccc5F)c5ccc2[nH]5)C=C4)C=C3)cc1
REMARK SMILES IDX 5 1 4 2 3 3 1 4 2 5 29 7 30 8 82 9 31 10 81 11 32 12 33 13
REMARK SMILES IDX 34 14 75 15 35 16 80 17 74 18 76 19 36 20 79 21 73 22 72 23
REMARK SMILES IDX 37 25 63 26 46 27 62 28 47 29 50 30 61 31 77 32 48 33 49 34
REMARK SMILES IDX 60 36 78 37 51 38 38 39 39 40 44 41 40 42 41 43 43 44 45 45
REMARK SMILES IDX 42 46 64 47 65 48 70 49 66 50 67 51 69 52 71 53 68 54 52 55
REMARK SMILES IDX 53 56 58 57 54 58 55 59 57 60 59 61 56 62 6 63 7 64 8 65
REMARK SMILES IDX 9 67 10 68 11 69 23 70 12 71 22 72 24 73 28 74 25 76 27 77
REMARK SMILES IDX 26 78 13 79 14 80 15 81 21 82 16 83 19 84 17 85 20 86 18 87
REMARK H PARENT 3 6 76 24 50 35 7 66 12 75
REMARK Flexibility Score: inf
ROOT
ATOM      1  C   UNL     1       4.697   1.255  -1.791  1.00  0.00     0.042 C 
ENDROOT
BRANCH   1   2
ATOM      2  C   UNL     1       4.401   1.282  -0.302  1.00  0.00     0.118 C 
BRANCH   2   3
ATOM      3  N   UNL     1       2.983   1.072  -0.022  1.00  0.00    -0.352 N 
ATOM      4  O   UNL     1       1.092  -0.110   0.314  1.00  0.00    -0.269 OA
ATOM      5  C   UNL     1       2.318  -0.058   0.385  1.00  0.00     0.251 C 
ATOM      6  H   UNL     1       2.414   1.867  -0.144  1.00  0.00     0.163 HD
BRANCH   5   7
ATOM      7  C   UNL     1       3.079  -1.213   0.899  1.00  0.00     0.039 A 
ATOM      8  C   UNL     1       4.195  -1.000   1.704  1.00  0.00     0.014 A 
ATOM      9  C   UNL     1       2.671  -2.518   0.603  1.00  0.00     0.014 A 
ATOM     10  C   UNL     1       5.017  -2.060   2.036  1.00  0.00     0.010 A 
ATOM     11  C   UNL     1       3.420  -3.602   1.073  1.00  0.00     0.010 A 
ATOM     12  C   UNL     1       4.614  -3.379   1.773  1.00  0.00    -0.014 A 
BRANCH  12  13
ATOM     13  C   UNL     1       5.429  -4.474   2.354  1.00  0.00     0.031 A 
ATOM     14  C   UNL     1       6.128  -5.484   1.492  1.00  0.00     0.074 A 
ATOM     15  C   UNL     1       5.598  -4.480   3.693  1.00  0.00     0.049 A 
ATOM     16  N   UNL     1       6.937  -6.447   1.855  1.00  0.00    -0.248 NA
ATOM     17  C   UNL     1       5.888  -5.417   0.043  1.00  0.00     0.031 C 
ATOM     18  C   UNL     1       4.947  -3.552   4.626  1.00  0.00     0.029 A 
ATOM     19  N   UNL     1       6.399  -5.244   4.498  1.00  0.00    -0.354 N 
ATOM     20  C   UNL     1       7.287  -7.112   0.688  1.00  0.00     0.074 A 
ATOM     21  C   UNL     1       6.587  -6.456  -0.396  1.00  0.00     0.031 C 
ATOM     22  C   UNL     1       5.443  -3.740   5.855  1.00  0.00     0.029 A 
ATOM     23  C   UNL     1       6.374  -4.858   5.817  1.00  0.00     0.049 A 
ATOM     24  H   UNL     1       6.940  -5.997   4.166  1.00  0.00     0.167 HD
ATOM     25  C   UNL     1       8.120  -8.170   0.542  1.00  0.00     0.037 A 
ATOM     26  C   UNL     1       7.016  -5.359   6.887  1.00  0.00     0.037 A 
ATOM     27  C   UNL     1       8.822  -8.804   1.630  1.00  0.00     0.049 A 
ATOM     28  C   UNL     1       7.930  -6.528   6.688  1.00  0.00     0.074 A 
ATOM     29  C   UNL     1       9.691  -9.881   1.586  1.00  0.00     0.029 A 
ATOM     30  N   UNL     1       8.738  -8.415   2.959  1.00  0.00    -0.354 N 
ATOM     31  N   UNL     1       8.249  -7.144   5.576  1.00  0.00    -0.248 NA
ATOM     32  C   UNL     1       8.562  -7.081   7.891  1.00  0.00     0.031 C 
ATOM     33  C   UNL     1      10.105 -10.164   2.892  1.00  0.00     0.029 A 
ATOM     34  C   UNL     1       9.529  -9.237   3.745  1.00  0.00     0.049 A 
ATOM     35  H   UNL     1       8.196  -7.664   3.295  1.00  0.00     0.167 HD
ATOM     36  C   UNL     1       9.116  -8.161   5.944  1.00  0.00     0.074 A 
ATOM     37  C   UNL     1       9.305  -8.050   7.377  1.00  0.00     0.031 C 
ATOM     38  C   UNL     1       9.692  -9.112   5.170  1.00  0.00     0.037 A 
BRANCH  25  39
ATOM     39  C   UNL     1       8.314  -8.722  -0.840  1.00  0.00     0.057 A 
ATOM     40  C   UNL     1       9.082  -8.055  -1.802  1.00  0.00     0.134 A 
ATOM     41  C   UNL     1       7.781  -9.969  -1.192  1.00  0.00     0.134 A 
ATOM     42  F   UNL     1       9.609  -6.850  -1.535  1.00  0.00    -0.206 F 
ATOM     43  C   UNL     1       9.306  -8.603  -3.067  1.00  0.00     0.040 A 
ATOM     44  C   UNL     1       8.015 -10.538  -2.446  1.00  0.00     0.040 A 
ATOM     45  F   UNL     1       7.039 -10.664  -0.317  1.00  0.00    -0.206 F 
ATOM     46  C   UNL     1       8.779  -9.853  -3.388  1.00  0.00     0.006 A 
ENDBRANCH  25  39
BRANCH  26  47
ATOM     47  C   UNL     1       6.785  -4.776   8.232  1.00  0.00     0.057 A 
ATOM     48  C   UNL     1       7.800  -4.103   8.920  1.00  0.00     0.134 A 
ATOM     49  C   UNL     1       5.536  -4.875   8.860  1.00  0.00     0.134 A 
ATOM     50  F   UNL     1       9.021  -3.987   8.379  1.00  0.00    -0.206 F 
ATOM     51  C   UNL     1       7.588  -3.565  10.191  1.00  0.00     0.040 A 
ATOM     52  C   UNL     1       5.301  -4.315  10.115  1.00  0.00     0.040 A 
ATOM     53  F   UNL     1       4.518  -5.499   8.249  1.00  0.00    -0.206 F 
ATOM     54  C   UNL     1       6.332  -3.665  10.789  1.00  0.00     0.006 A 
ENDBRANCH  26  47
BRANCH  38  55
ATOM     55  C   UNL     1      10.582 -10.092   5.873  1.00  0.00     0.057 A 
ATOM     56  C   UNL     1      10.059 -11.089   6.707  1.00  0.00     0.134 A 
ATOM     57  C   UNL     1      11.971 -10.034   5.720  1.00  0.00     0.134 A 
ATOM     58  F   UNL     1       8.736 -11.184   6.907  1.00  0.00    -0.206 F 
ATOM     59  C   UNL     1      10.892 -11.973   7.393  1.00  0.00     0.040 A 
ATOM     60  C   UNL     1      12.813 -10.929   6.380  1.00  0.00     0.040 A 
ATOM     61  F   UNL     1      12.532  -9.105   4.931  1.00  0.00    -0.206 F 
ATOM     62  C   UNL     1      12.274 -11.896   7.227  1.00  0.00     0.006 A 
ENDBRANCH  38  55
ENDBRANCH  12  13
ENDBRANCH   5   7
ENDBRANCH   2   3
ENDBRANCH   1   2
BRANCH   1  63
ATOM     63  C   UNL     1       4.062   2.424  -2.523  1.00  0.00     0.117 C 
BRANCH  63  64
ATOM     64  N   UNL     1       4.661   3.689  -2.120  1.00  0.00    -0.356 N 
ATOM     65  C   UNL     1       5.508   4.580  -2.683  1.00  0.00     0.229 C 
ATOM     66  H   UNL     1       4.380   3.962  -1.217  1.00  0.00     0.163 HD
ATOM     67  O   UNL     1       5.998   5.396  -1.892  1.00  0.00    -0.275 OA
BRANCH  65  68
ATOM     68  C   UNL     1       5.928   4.599  -4.150  1.00  0.00     0.145 C 
ATOM     69  C   UNL     1       5.201   3.663  -5.096  1.00  0.00     0.276 C 
ATOM     70  C   UNL     1       5.848   5.997  -4.864  1.00  0.00     0.037 C 
ATOM     71  N   UNL     1       5.346   4.192  -6.436  1.00  0.00    -0.330 N 
ATOM     72  C   UNL     1       5.332   5.641  -6.295  1.00  0.00     0.270 C 
ATOM     73  C   UNL     1       4.890   7.010  -4.180  1.00  0.00     0.014 C 
ATOM     74  C   UNL     1       7.242   6.668  -4.910  1.00  0.00     0.014 C 
ATOM     75  H   UNL     1       4.562   3.910  -7.025  1.00  0.00     0.348 HD
ATOM     76  C   UNL     1       4.854   8.371  -4.880  1.00  0.00     0.001 C 
ATOM     77  C   UNL     1       7.240   8.005  -5.651  1.00  0.00     0.001 C 
ATOM     78  C   UNL     1       6.247   8.979  -5.032  1.00  0.00     0.000 C 
BRANCH  71  79
ATOM     79  C   UNL     1       6.346   3.571  -7.303  1.00  0.00     0.299 C 
BRANCH  79  80
ATOM     80  C   UNL     1       7.802   3.856  -7.016  1.00  0.00     0.008 A 
ATOM     81  C   UNL     1       8.488   3.199  -5.985  1.00  0.00     0.011 A 
ATOM     82  C   UNL     1       8.486   4.825  -7.769  1.00  0.00     0.031 A 
ATOM     83  C   UNL     1       9.791   3.574  -5.647  1.00  0.00     0.022 A 
ATOM     84  C   UNL     1       9.798   5.189  -7.446  1.00  0.00     0.060 A 
ATOM     85  C   UNL     1      10.443   4.580  -6.365  1.00  0.00     0.059 A 
ATOM     86  Cl  UNL     1      10.540   6.431  -8.390  1.00  0.00    -0.083 Cl
ATOM     87  Cl  UNL     1      12.024   5.044  -5.847  1.00  0.00    -0.083 Cl
ENDBRANCH  79  80
ENDBRANCH  71  79
ENDBRANCH  65  68
ENDBRANCH  63  64
ENDBRANCH   1  63
TORSDOF 12
