REMARK SMILES NS(=O)(=O)c1ccc(-n2nc(C(=O)NCCCCCCCCCCC(=O)NCCCNC(=O)c3ccc(-c4c5nc(c(-c6c(F)cccc6F)c6ccc([nH]6)c(-c6c(F)cccc6F)c6nc(c(-c7c(F)cccc7F)c7ccc4[nH]7)C=C6)C=C5)cc3)cc2-c2ccccc2)cc1
REMARK SMILES IDX 21 1 20 2 19 3 18 4 17 5 16 6 15 7 14 8 12 9 13 10 11 12
REMARK SMILES IDX 9 13 10 14 89 15 88 16 8 17 5 18 6 19 97 20 7 21 96 22 2 23
REMARK SMILES IDX 3 24 4 25 1 26 90 29 91 30 95 31 92 32 94 33 93 34 22 35
REMARK SMILES IDX 23 36 24 37 25 38 26 39 27 40 28 42 29 43 30 44 31 45 32 46
REMARK SMILES IDX 33 48 34 49 35 50 87 51 36 52 86 53 37 54 38 55 39 56 80 57
REMARK SMILES IDX 40 58 85 59 79 60 81 61 41 62 84 63 78 64 77 65 42 67 68 68
REMARK SMILES IDX 51 69 67 70 52 71 55 72 66 73 82 74 53 75 54 76 65 78 83 79
REMARK SMILES IDX 56 80 43 81 44 82 49 83 45 84 46 85 48 86 50 87 47 88 69 89
REMARK SMILES IDX 70 90 75 91 71 92 72 93 74 94 76 95 73 96 57 97 58 98 63 99
REMARK SMILES IDX 59 100 60 101 62 102 64 103 61 104
REMARK H PARENT 14 11 1 27 1 28 27 41 31 47 81 66 55 77
REMARK Flexibility Score: inf
ROOT
ATOM      1  C   UNL     1       6.300  -6.279  14.031  1.00  0.00     0.000 C 
ENDROOT
BRANCH   1   2
ATOM      2  C   UNL     1       5.976  -5.877  12.601  1.00  0.00     0.000 C 
BRANCH   2   3
ATOM      3  C   UNL     1       4.479  -5.944  12.293  1.00  0.00     0.000 C 
BRANCH   3   4
ATOM      4  C   UNL     1       3.621  -5.029  13.177  1.00  0.00     0.000 C 
BRANCH   4   5
ATOM      5  C   UNL     1       3.919  -3.533  13.000  1.00  0.00     0.002 C 
BRANCH   5   6
ATOM      6  C   UNL     1       3.965  -3.090  11.534  1.00  0.00     0.021 C 
BRANCH   6   7
ATOM      7  C   UNL     1       2.677  -3.447  10.794  1.00  0.00     0.116 C 
BRANCH   7   8
ATOM      8  N   UNL     1       1.764  -2.335  10.834  1.00  0.00    -0.351 N 
ATOM      9  C   UNL     1       1.433  -1.387   9.899  1.00  0.00     0.271 C 
ATOM     10  O   UNL     1       0.631  -0.526  10.270  1.00  0.00    -0.267 OA
ATOM     11  H   UNL     1       1.288  -2.237  11.691  1.00  0.00     0.163 HD
BRANCH   9  12
ATOM     12  C   UNL     1       1.958  -1.448   8.520  1.00  0.00     0.151 A 
ATOM     13  N   UNL     1       1.909  -1.127   6.397  1.00  0.00    -0.232 N 
ATOM     14  N   UNL     1       1.396  -0.686   7.563  1.00  0.00    -0.162 NA
ATOM     15  C   UNL     1       2.901  -2.071   6.583  1.00  0.00     0.075 A 
ATOM     16  C   UNL     1       3.025  -2.186   7.951  1.00  0.00     0.065 A 
BRANCH  13  17
ATOM     17  C   UNL     1       1.452  -0.585   5.179  1.00  0.00     0.065 A 
ATOM     18  C   UNL     1       0.790   0.526   2.734  1.00  0.00     0.082 A 
ATOM     19  C   UNL     1       0.845  -0.865   2.864  1.00  0.00     0.024 A 
ATOM     20  C   UNL     1       1.024   1.365   3.829  1.00  0.00     0.024 A 
ATOM     21  C   UNL     1       1.196  -1.424   4.089  1.00  0.00     0.030 A 
ATOM     22  C   UNL     1       1.322   0.805   5.070  1.00  0.00     0.030 A 
BRANCH  18  23
ATOM     23  S   UNL     1       0.504   1.244   1.147  1.00  0.00     0.238 S 
ATOM     24  O   UNL     1       1.250   2.474   1.047  1.00  0.00    -0.207 OA
ATOM     25  O   UNL     1      -0.906   1.149   0.847  1.00  0.00    -0.207 OA
BRANCH  23  26
ATOM     26  N   UNL     1       1.279   0.180   0.099  1.00  0.00    -0.225 NA
ATOM     27  H   UNL     1       1.171   0.509  -0.861  1.00  0.00     0.137 HD
ATOM     28  H   UNL     1       0.864  -0.748   0.188  1.00  0.00     0.137 HD
ENDBRANCH  23  26
ENDBRANCH  18  23
ENDBRANCH  13  17
BRANCH  15  29
ATOM     29  C   UNL     1       3.737  -2.670   5.552  1.00  0.00     0.000 A 
ATOM     30  C   UNL     1       4.649  -1.889   4.836  1.00  0.00     0.010 A 
ATOM     31  C   UNL     1       3.655  -4.045   5.295  1.00  0.00     0.010 A 
ATOM     32  C   UNL     1       5.463  -2.473   3.865  1.00  0.00     0.001 A 
ATOM     33  C   UNL     1       4.467  -4.626   4.320  1.00  0.00     0.001 A 
ATOM     34  C   UNL     1       5.371  -3.840   3.607  1.00  0.00     0.000 A 
ENDBRANCH  15  29
ENDBRANCH   9  12
ENDBRANCH   7   8
ENDBRANCH   6   7
ENDBRANCH   5   6
ENDBRANCH   4   5
ENDBRANCH   3   4
ENDBRANCH   2   3
ENDBRANCH   1   2
BRANCH   1  35
ATOM     35  C   UNL     1       5.973  -7.748  14.319  1.00  0.00     0.001 C 
BRANCH  35  36
ATOM     36  C   UNL     1       7.200  -8.608  14.567  1.00  0.00     0.010 C 
BRANCH  36  37
ATOM     37  C   UNL     1       8.068  -8.162  15.744  1.00  0.00     0.100 C 
BRANCH  37  38
ATOM     38  C   UNL     1       7.488  -8.514  17.100  1.00  0.00     0.219 C 
ATOM     39  O   UNL     1       7.747  -9.601  17.622  1.00  0.00    -0.275 OA
ATOM     40  N   UNL     1       6.674  -7.660  17.785  1.00  0.00    -0.356 N 
ATOM     41  H   UNL     1       6.331  -8.025  18.632  1.00  0.00     0.163 HD
BRANCH  40  42
ATOM     42  C   UNL     1       6.218  -6.304  17.494  1.00  0.00     0.117 C 
BRANCH  42  43
ATOM     43  C   UNL     1       4.711  -6.219  17.189  1.00  0.00     0.042 C 
BRANCH  43  44
ATOM     44  C   UNL     1       3.827  -6.212  18.415  1.00  0.00     0.118 C 
BRANCH  44  45
ATOM     45  N   UNL     1       3.731  -4.903  19.060  1.00  0.00    -0.352 N 
ATOM     46  C   UNL     1       2.984  -4.588  20.184  1.00  0.00     0.251 C 
ATOM     47  H   UNL     1       4.250  -4.171  18.654  1.00  0.00     0.163 HD
ATOM     48  O   UNL     1       2.637  -3.437  20.416  1.00  0.00    -0.269 OA
BRANCH  46  49
ATOM     49  C   UNL     1       2.607  -5.687  21.090  1.00  0.00     0.039 A 
ATOM     50  C   UNL     1       1.334  -5.786  21.654  1.00  0.00     0.014 A 
ATOM     51  C   UNL     1       3.550  -6.689  21.281  1.00  0.00     0.014 A 
ATOM     52  C   UNL     1       1.000  -6.955  22.334  1.00  0.00     0.010 A 
ATOM     53  C   UNL     1       3.142  -7.912  21.730  1.00  0.00     0.010 A 
ATOM     54  C   UNL     1       1.903  -8.031  22.341  1.00  0.00    -0.014 A 
BRANCH  54  55
ATOM     55  C   UNL     1       1.537  -9.336  22.882  1.00  0.00     0.031 A 
ATOM     56  C   UNL     1       0.247  -9.865  22.362  1.00  0.00     0.074 A 
ATOM     57  C   UNL     1       2.389 -10.097  23.608  1.00  0.00     0.049 A 
ATOM     58  N   UNL     1      -0.855 -10.034  23.012  1.00  0.00    -0.248 NA
ATOM     59  C   UNL     1       0.118 -10.080  20.909  1.00  0.00     0.031 C 
ATOM     60  C   UNL     1       3.803  -9.846  23.923  1.00  0.00     0.029 A 
ATOM     61  N   UNL     1       2.193 -11.333  24.144  1.00  0.00    -0.354 N 
ATOM     62  C   UNL     1      -1.745 -10.605  22.107  1.00  0.00     0.074 A 
ATOM     63  C   UNL     1      -1.171 -10.410  20.803  1.00  0.00     0.031 C 
ATOM     64  C   UNL     1       4.386 -10.982  24.363  1.00  0.00     0.029 A 
ATOM     65  C   UNL     1       3.357 -11.984  24.549  1.00  0.00     0.049 A 
ATOM     66  H   UNL     1       1.300 -11.735  24.239  1.00  0.00     0.167 HD
ATOM     67  C   UNL     1      -2.729 -11.443  22.538  1.00  0.00     0.037 A 
ATOM     68  C   UNL     1       3.460 -13.262  24.992  1.00  0.00     0.037 A 
ATOM     69  C   UNL     1      -2.964 -11.273  23.953  1.00  0.00     0.049 A 
ATOM     70  C   UNL     1       2.100 -13.690  25.397  1.00  0.00     0.074 A 
ATOM     71  C   UNL     1      -3.302 -10.203  24.762  1.00  0.00     0.029 A 
ATOM     72  N   UNL     1      -2.466 -12.230  24.803  1.00  0.00    -0.354 N 
ATOM     73  N   UNL     1       1.462 -13.204  26.424  1.00  0.00    -0.248 NA
ATOM     74  C   UNL     1       1.272 -14.322  24.383  1.00  0.00     0.031 C 
ATOM     75  C   UNL     1      -2.527 -10.379  25.947  1.00  0.00     0.029 A 
ATOM     76  C   UNL     1      -1.832 -11.582  25.831  1.00  0.00     0.049 A 
ATOM     77  H   UNL     1      -2.550 -13.205  24.694  1.00  0.00     0.167 HD
ATOM     78  C   UNL     1       0.153 -13.068  25.988  1.00  0.00     0.074 A 
ATOM     79  C   UNL     1       0.080 -13.849  24.753  1.00  0.00     0.031 C 
ATOM     80  C   UNL     1      -0.662 -12.100  26.502  1.00  0.00     0.037 A 
BRANCH  67  81
ATOM     81  C   UNL     1      -3.162 -12.688  21.794  1.00  0.00     0.057 A 
ATOM     82  C   UNL     1      -4.229 -13.450  22.308  1.00  0.00     0.134 A 
ATOM     83  C   UNL     1      -2.406 -13.332  20.791  1.00  0.00     0.134 A 
ATOM     84  F   UNL     1      -5.023 -12.960  23.272  1.00  0.00    -0.206 F 
ATOM     85  C   UNL     1      -4.462 -14.777  21.923  1.00  0.00     0.040 A 
ATOM     86  C   UNL     1      -2.663 -14.637  20.363  1.00  0.00     0.040 A 
ATOM     87  F   UNL     1      -1.319 -12.786  20.238  1.00  0.00    -0.206 F 
ATOM     88  C   UNL     1      -3.671 -15.379  20.955  1.00  0.00     0.006 A 
ENDBRANCH  67  81
BRANCH  68  89
ATOM     89  C   UNL     1       4.560 -14.241  24.824  1.00  0.00     0.057 A 
ATOM     90  C   UNL     1       4.571 -15.437  25.560  1.00  0.00     0.134 A 
ATOM     91  C   UNL     1       5.444 -14.183  23.733  1.00  0.00     0.134 A 
ATOM     92  F   UNL     1       3.745 -15.601  26.603  1.00  0.00    -0.206 F 
ATOM     93  C   UNL     1       5.372 -16.529  25.202  1.00  0.00     0.040 A 
ATOM     94  C   UNL     1       6.254 -15.265  23.368  1.00  0.00     0.040 A 
ATOM     95  F   UNL     1       5.480 -13.112  22.928  1.00  0.00    -0.206 F 
ATOM     96  C   UNL     1       6.205 -16.451  24.091  1.00  0.00     0.006 A 
ENDBRANCH  68  89
BRANCH  80  97
ATOM     97  C   UNL     1      -0.199 -11.364  27.731  1.00  0.00     0.057 A 
ATOM     98  C   UNL     1       0.950 -10.559  27.795  1.00  0.00     0.134 A 
ATOM     99  C   UNL     1      -1.033 -11.358  28.855  1.00  0.00     0.134 A 
ATOM    100  F   UNL     1       1.763 -10.421  26.741  1.00  0.00    -0.206 F 
ATOM    101  C   UNL     1       1.271  -9.818  28.939  1.00  0.00     0.040 A 
ATOM    102  C   UNL     1      -0.742 -10.596  29.989  1.00  0.00     0.040 A 
ATOM    103  F   UNL     1      -2.175 -12.063  28.851  1.00  0.00    -0.206 F 
ATOM    104  C   UNL     1       0.418  -9.830  30.038  1.00  0.00     0.006 A 
ENDBRANCH  80  97
ENDBRANCH  54  55
ENDBRANCH  46  49
ENDBRANCH  44  45
ENDBRANCH  43  44
ENDBRANCH  42  43
ENDBRANCH  40  42
ENDBRANCH  37  38
ENDBRANCH  36  37
ENDBRANCH  35  36
ENDBRANCH   1  35
TORSDOF 25
