REMARK SMILES COc1cccc([C@@H]2CC(c3cccc(C)c3)=NN2C(=O)CCC(=O)NCCCNC(=O)c2ccc(-c3c4nc(c(-c5c(F)cccc5F)c5ccc([nH]5)c(-c5c(F)cccc5F)c5nc(c(-c6c(F)cccc6F)c6ccc3[nH]6)C=C5)C=C4)cc2)c1
REMARK SMILES IDX 24 1 25 2 26 3 23 5 22 6 20 7 21 8 19 9 8 10 9 11 10 12
REMARK SMILES IDX 18 13 7 14 3 15 4 16 87 17 5 18 6 19 2 20 1 21 11 22 12 23
REMARK SMILES IDX 17 24 13 25 15 26 14 27 16 28 27 29 28 30 29 31 30 32 31 33
REMARK SMILES IDX 32 35 33 36 34 37 86 38 35 39 85 40 36 41 37 42 38 43 79 44
REMARK SMILES IDX 39 45 84 46 78 47 80 48 40 49 83 50 77 51 76 52 41 54 67 55
REMARK SMILES IDX 50 56 66 57 51 58 54 59 65 60 81 61 52 62 53 63 64 65 82 66
REMARK SMILES IDX 55 67 42 68 43 69 48 70 44 71 45 72 47 73 49 74 46 75 68 76
REMARK SMILES IDX 69 77 74 78 70 79 71 80 73 81 75 82 72 83 56 84 57 85 62 86
REMARK SMILES IDX 58 87 59 88 61 89 63 90 60 91
REMARK H PARENT 26 4 30 34 80 53 54 64
REMARK Flexibility Score: inf
ROOT
ATOM      1  C   UNL     1       2.512  -1.179   3.068  1.00  0.00     0.220 C 
ATOM      2  O   UNL     1       1.586  -1.728   2.464  1.00  0.00    -0.275 OA
ATOM      3  N   UNL     1       3.535  -0.627   2.348  1.00  0.00    -0.356 N 
ATOM      4  H   UNL     1       3.569  -0.912   1.406  1.00  0.00     0.163 HD
ENDROOT
BRANCH   1   5
ATOM      5  C   UNL     1       2.566  -1.245   4.583  1.00  0.00     0.110 C 
BRANCH   5   6
ATOM      6  C   UNL     1       3.227  -2.521   5.109  1.00  0.00     0.112 C 
BRANCH   6   7
ATOM      7  C   UNL     1       4.453  -2.902   4.323  1.00  0.00     0.243 C 
ATOM      8  O   UNL     1       5.570  -2.647   4.782  1.00  0.00    -0.273 OA
BRANCH   7   9
ATOM      9  N   UNL     1       4.242  -3.418   3.056  1.00  0.00    -0.225 N 
ATOM     10  C   UNL     1       3.312  -4.468   2.620  1.00  0.00     0.147 C 
ATOM     11  C   UNL     1       3.656  -4.702   1.139  1.00  0.00     0.091 C 
ATOM     12  C   UNL     1       4.791  -3.747   1.024  1.00  0.00     0.071 C 
ATOM     13  N   UNL     1       5.116  -3.105   2.094  1.00  0.00    -0.174 NA
BRANCH  10  14
ATOM     14  C   UNL     1       3.524  -5.637   3.562  1.00  0.00    -0.019 A 
ATOM     15  C   UNL     1       2.650  -6.689   5.562  1.00  0.00     0.119 A 
ATOM     16  C   UNL     1       3.942  -7.090   5.906  1.00  0.00     0.046 A 
ATOM     17  C   UNL     1       2.444  -5.996   4.373  1.00  0.00     0.052 A 
ATOM     18  C   UNL     1       5.019  -6.819   5.059  1.00  0.00     0.004 A 
ATOM     19  C   UNL     1       4.812  -6.104   3.882  1.00  0.00     0.006 A 
BRANCH  15  20
ATOM     20  O   UNL     1       1.671  -6.949   6.482  1.00  0.00    -0.497 OA
ATOM     21  C   UNL     1       0.358  -6.524   6.124  1.00  0.00     0.278 C 
ENDBRANCH  15  20
ENDBRANCH  10  14
BRANCH  12  22
ATOM     22  C   UNL     1       5.712  -3.652  -0.089  1.00  0.00    -0.002 A 
ATOM     23  C   UNL     1       7.329  -3.809   0.564  1.00  0.00     0.010 A 
ATOM     24  C   UNL     1       5.348  -3.321  -1.798  1.00  0.00     0.013 A 
ATOM     25  C   UNL     1       8.691  -3.613  -0.533  1.00  0.00     0.001 A 
ATOM     26  C   UNL     1       6.628  -3.120  -3.026  1.00  0.00    -0.050 A 
ATOM     27  C   UNL     1       8.351  -3.282  -2.493  1.00  0.00     0.003 A 
ATOM     28  C   UNL     1       6.316  -2.513  -4.361  1.00  0.00     0.044 C 
ENDBRANCH  12  22
ENDBRANCH   7   9
ENDBRANCH   6   7
ENDBRANCH   5   6
ENDBRANCH   1   5
BRANCH   3  29
ATOM     29  C   UNL     1       4.580   0.307   2.732  1.00  0.00     0.117 C 
BRANCH  29  30
ATOM     30  C   UNL     1       6.052  -0.138   2.770  1.00  0.00     0.042 C 
BRANCH  30  31
ATOM     31  C   UNL     1       6.796  -0.726   1.559  1.00  0.00     0.118 C 
BRANCH  31  32
ATOM     32  N   UNL     1       6.195  -0.521   0.261  1.00  0.00    -0.352 N 
ATOM     33  C   UNL     1       6.404  -1.151  -0.948  1.00  0.00     0.251 C 
ATOM     34  H   UNL     1       5.518   0.193   0.236  1.00  0.00     0.163 HD
ATOM     35  O   UNL     1       5.907  -0.596  -1.931  1.00  0.00    -0.269 OA
BRANCH  33  36
ATOM     36  C   UNL     1       7.353  -2.398  -1.122  1.00  0.00     0.039 A 
ATOM     37  C   UNL     1       8.983  -1.633  -1.284  1.00  0.00     0.014 A 
ATOM     38  C   UNL     1       7.247  -4.394  -1.461  1.00  0.00     0.014 A 
ATOM     39  C   UNL     1      10.371  -2.654  -1.673  1.00  0.00     0.010 A 
ATOM     40  C   UNL     1       8.754  -5.305  -1.803  1.00  0.00     0.010 A 
ATOM     41  C   UNL     1      10.285  -4.424  -1.862  1.00  0.00    -0.014 A 
BRANCH  41  42
ATOM     42  C   UNL     1      11.533  -5.251  -1.607  1.00  0.00     0.031 A 
ATOM     43  C   UNL     1      11.720  -6.552  -2.354  1.00  0.00     0.074 A 
ATOM     44  C   UNL     1      12.371  -4.976  -0.571  1.00  0.00     0.049 A 
ATOM     45  N   UNL     1      12.601  -7.504  -2.160  1.00  0.00    -0.248 NA
ATOM     46  C   UNL     1      10.743  -6.862  -3.410  1.00  0.00     0.031 C 
ATOM     47  C   UNL     1      12.267  -3.860   0.378  1.00  0.00     0.029 A 
ATOM     48  N   UNL     1      13.488  -5.649  -0.107  1.00  0.00    -0.354 N 
ATOM     49  C   UNL     1      12.249  -8.525  -3.035  1.00  0.00     0.074 A 
ATOM     50  C   UNL     1      11.009  -8.134  -3.663  1.00  0.00     0.031 C 
ATOM     51  C   UNL     1      13.270  -3.903   1.266  1.00  0.00     0.029 A 
ATOM     52  C   UNL     1      14.099  -5.060   0.985  1.00  0.00     0.049 A 
ATOM     53  H   UNL     1      13.820  -6.478  -0.520  1.00  0.00     0.167 HD
ATOM     54  C   UNL     1      12.928  -9.653  -3.351  1.00  0.00     0.037 A 
ATOM     55  C   UNL     1      15.204  -5.390   1.685  1.00  0.00     0.037 A 
ATOM     56  C   UNL     1      14.208  -9.999  -2.800  1.00  0.00     0.049 A 
ATOM     57  C   UNL     1      15.981  -6.610   1.267  1.00  0.00     0.074 A 
ATOM     58  C   UNL     1      15.045 -11.041  -3.157  1.00  0.00     0.029 A 
ATOM     59  N   UNL     1      14.838  -9.306  -1.780  1.00  0.00    -0.354 N 
ATOM     60  N   UNL     1      15.715  -7.471   0.316  1.00  0.00    -0.248 NA
ATOM     61  C   UNL     1      17.222  -6.896   2.003  1.00  0.00     0.031 C 
ATOM     62  C   UNL     1      16.156 -11.014  -2.310  1.00  0.00     0.029 A 
ATOM     63  C   UNL     1      16.043  -9.913  -1.477  1.00  0.00     0.049 A 
ATOM     64  H   UNL     1      14.481  -8.502  -1.337  1.00  0.00     0.167 HD
ATOM     65  C   UNL     1      16.777  -8.366   0.308  1.00  0.00     0.074 A 
ATOM     66  C   UNL     1      17.699  -7.934   1.335  1.00  0.00     0.031 C 
ATOM     67  C   UNL     1      16.968  -9.451  -0.478  1.00  0.00     0.037 A 
BRANCH  54  68
ATOM     68  C   UNL     1      12.335 -10.560  -4.392  1.00  0.00     0.057 A 
ATOM     69  C   UNL     1      12.207 -10.161  -5.731  1.00  0.00     0.134 A 
ATOM     70  C   UNL     1      11.934 -11.861  -4.067  1.00  0.00     0.134 A 
ATOM     71  F   UNL     1      12.569  -8.926  -6.110  1.00  0.00    -0.206 F 
ATOM     72  C   UNL     1      11.666 -11.007  -6.698  1.00  0.00     0.040 A 
ATOM     73  C   UNL     1      11.425 -12.730  -5.035  1.00  0.00     0.040 A 
ATOM     74  F   UNL     1      12.040 -12.316  -2.810  1.00  0.00    -0.206 F 
ATOM     75  C   UNL     1      11.281 -12.300  -6.352  1.00  0.00     0.006 A 
ENDBRANCH  54  68
BRANCH  55  76
ATOM     76  C   UNL     1      15.699  -4.551   2.821  1.00  0.00     0.057 A 
ATOM     77  C   UNL     1      16.932  -3.884   2.746  1.00  0.00     0.134 A 
ATOM     78  C   UNL     1      15.011  -4.468   4.038  1.00  0.00     0.134 A 
ATOM     79  F   UNL     1      17.654  -3.928   1.616  1.00  0.00    -0.206 F 
ATOM     80  C   UNL     1      17.490  -3.232   3.849  1.00  0.00     0.040 A 
ATOM     81  C   UNL     1      15.540  -3.785   5.139  1.00  0.00     0.040 A 
ATOM     82  F   UNL     1      13.816  -5.060   4.183  1.00  0.00    -0.206 F 
ATOM     83  C   UNL     1      16.794  -3.184   5.053  1.00  0.00     0.006 A 
ENDBRANCH  55  76
BRANCH  67  84
ATOM     84  C   UNL     1      18.250 -10.212  -0.315  1.00  0.00     0.057 A 
ATOM     85  C   UNL     1      18.522 -10.981   0.822  1.00  0.00     0.134 A 
ATOM     86  C   UNL     1      19.196 -10.225  -1.349  1.00  0.00     0.134 A 
ATOM     87  F   UNL     1      17.662 -11.002   1.852  1.00  0.00    -0.206 F 
ATOM     88  C   UNL     1      19.700 -11.721   0.934  1.00  0.00     0.040 A 
ATOM     89  C   UNL     1      20.358 -10.990  -1.265  1.00  0.00     0.040 A 
ATOM     90  F   UNL     1      18.990  -9.518  -2.471  1.00  0.00    -0.206 F 
ATOM     91  C   UNL     1      20.615 -11.736  -0.117  1.00  0.00     0.006 A 
ENDBRANCH  67  84
ENDBRANCH  41  42
ENDBRANCH  33  36
ENDBRANCH  31  32
ENDBRANCH  30  31
ENDBRANCH  29  30
ENDBRANCH   3  29
TORSDOF 16
