REMARK SMILES O=C(NCCCNC(=O)[C@@H](CO)NC(=O)c1ccc2noc(-c3ccccc3)c2c1)c1ccc(-c2c3nc(c(-c4c(F)cccc4F)c4ccc([nH]4)c(-c4c(F)cccc4F)c4nc(c(-c5c(F)cccc5F)c5ccc2[nH]5)C=C4)C=C3)cc1
REMARK SMILES IDX 5 1 4 2 3 3 1 4 2 5 31 7 32 8 84 9 33 10 83 11 34 12 35 13
REMARK SMILES IDX 36 14 77 15 37 16 82 17 76 18 78 19 38 20 81 21 75 22 74 23
REMARK SMILES IDX 39 25 65 26 48 27 64 28 49 29 52 30 63 31 79 32 50 33 51 34
REMARK SMILES IDX 62 36 80 37 53 38 40 39 41 40 46 41 42 42 43 43 45 44 47 45
REMARK SMILES IDX 44 46 66 47 67 48 72 49 68 50 69 51 71 52 73 53 70 54 54 55
REMARK SMILES IDX 55 56 60 57 56 58 57 59 59 60 61 61 58 62 6 63 7 64 8 65
REMARK SMILES IDX 9 67 10 68 11 69 12 70 13 72 14 73 15 75 16 76 17 77 30 78
REMARK SMILES IDX 18 79 29 80 19 81 22 82 20 83 21 84 23 85 24 86 28 87 25 88
REMARK SMILES IDX 27 89 26 90
REMARK H PARENT 3 6 78 24 52 35 7 66 12 71 13 74
REMARK Flexibility Score: inf
ROOT
ATOM      1  C   UNL     1       4.536   0.878  -2.675  1.00  0.00     0.042 C 
ENDROOT
BRANCH   1   2
ATOM      2  C   UNL     1       4.148   0.525  -1.256  1.00  0.00     0.118 C 
BRANCH   2   3
ATOM      3  N   UNL     1       2.716   0.293  -1.058  1.00  0.00    -0.352 N 
ATOM      4  O   UNL     1       0.986  -0.520   0.190  1.00  0.00    -0.269 OA
ATOM      5  C   UNL     1       2.077  -0.003   0.147  1.00  0.00     0.251 C 
ATOM      6  H   UNL     1       2.144   0.351  -1.857  1.00  0.00     0.163 HD
BRANCH   5   7
ATOM      7  C   UNL     1       2.808   0.348   1.382  1.00  0.00     0.039 A 
ATOM      8  C   UNL     1       3.013  -0.565   2.415  1.00  0.00     0.014 A 
ATOM      9  C   UNL     1       3.447   1.577   1.374  1.00  0.00     0.014 A 
ATOM     10  C   UNL     1       3.969  -0.260   3.385  1.00  0.00     0.010 A 
ATOM     11  C   UNL     1       4.556   1.734   2.159  1.00  0.00     0.010 A 
ATOM     12  C   UNL     1       4.777   0.881   3.230  1.00  0.00    -0.014 A 
BRANCH  12  13
ATOM     13  C   UNL     1       5.882   1.178   4.144  1.00  0.00     0.031 A 
ATOM     14  C   UNL     1       6.680   0.010   4.599  1.00  0.00     0.074 A 
ATOM     15  C   UNL     1       6.258   2.431   4.494  1.00  0.00     0.049 A 
ATOM     16  N   UNL     1       6.631  -0.549   5.762  1.00  0.00    -0.248 NA
ATOM     17  C   UNL     1       7.532  -0.699   3.634  1.00  0.00     0.031 C 
ATOM     18  C   UNL     1       5.781   3.727   3.988  1.00  0.00     0.029 A 
ATOM     19  N   UNL     1       7.237   2.806   5.366  1.00  0.00    -0.354 N 
ATOM     20  C   UNL     1       7.603  -1.543   5.757  1.00  0.00     0.074 A 
ATOM     21  C   UNL     1       7.993  -1.707   4.380  1.00  0.00     0.031 C 
ATOM     22  C   UNL     1       6.621   4.711   4.369  1.00  0.00     0.029 A 
ATOM     23  C   UNL     1       7.558   4.156   5.322  1.00  0.00     0.049 A 
ATOM     24  H   UNL     1       7.679   2.173   5.976  1.00  0.00     0.167 HD
ATOM     25  C   UNL     1       8.175  -1.960   6.922  1.00  0.00     0.037 A 
ATOM     26  C   UNL     1       8.498   4.806   6.045  1.00  0.00     0.037 A 
ATOM     27  C   UNL     1       7.392  -1.540   8.063  1.00  0.00     0.049 A 
ATOM     28  C   UNL     1       8.763   3.988   7.248  1.00  0.00     0.074 A 
ATOM     29  C   UNL     1       6.084  -1.721   8.474  1.00  0.00     0.029 A 
ATOM     30  N   UNL     1       7.863  -0.486   8.808  1.00  0.00    -0.354 N 
ATOM     31  N   UNL     1       7.905   3.832   8.217  1.00  0.00    -0.248 NA
ATOM     32  C   UNL     1       9.806   2.979   7.171  1.00  0.00     0.031 C 
ATOM     33  C   UNL     1       5.701  -0.472   9.050  1.00  0.00     0.029 A 
ATOM     34  C   UNL     1       6.814   0.370   9.019  1.00  0.00     0.049 A 
ATOM     35  H   UNL     1       8.786  -0.367   9.130  1.00  0.00     0.167 HD
ATOM     36  C   UNL     1       8.020   2.497   8.574  1.00  0.00     0.074 A 
ATOM     37  C   UNL     1       9.281   2.056   7.980  1.00  0.00     0.031 C 
ATOM     38  C   UNL     1       6.952   1.806   9.072  1.00  0.00     0.037 A 
BRANCH  25  39
ATOM     39  C   UNL     1       9.626  -2.362   7.067  1.00  0.00     0.057 A 
ATOM     40  C   UNL     1      10.647  -1.999   6.166  1.00  0.00     0.134 A 
ATOM     41  C   UNL     1      10.076  -2.837   8.315  1.00  0.00     0.134 A 
ATOM     42  F   UNL     1      10.395  -1.495   4.953  1.00  0.00    -0.206 F 
ATOM     43  C   UNL     1      12.003  -2.036   6.503  1.00  0.00     0.040 A 
ATOM     44  C   UNL     1      11.428  -2.829   8.679  1.00  0.00     0.040 A 
ATOM     45  F   UNL     1       9.206  -3.227   9.258  1.00  0.00    -0.206 F 
ATOM     46  C   UNL     1      12.396  -2.410   7.777  1.00  0.00     0.006 A 
ENDBRANCH  25  39
BRANCH  26  47
ATOM     47  C   UNL     1       9.300   5.988   5.674  1.00  0.00     0.057 A 
ATOM     48  C   UNL     1       9.636   6.251   4.334  1.00  0.00     0.134 A 
ATOM     49  C   UNL     1       9.986   6.733   6.641  1.00  0.00     0.134 A 
ATOM     50  F   UNL     1       9.084   5.551   3.331  1.00  0.00    -0.206 F 
ATOM     51  C   UNL     1      10.620   7.177   3.977  1.00  0.00     0.040 A 
ATOM     52  C   UNL     1      10.979   7.659   6.298  1.00  0.00     0.040 A 
ATOM     53  F   UNL     1       9.754   6.533   7.946  1.00  0.00    -0.206 F 
ATOM     54  C   UNL     1      11.309   7.872   4.963  1.00  0.00     0.006 A 
ENDBRANCH  26  47
BRANCH  38  55
ATOM     55  C   UNL     1       5.742   2.600   9.486  1.00  0.00     0.057 A 
ATOM     56  C   UNL     1       5.286   2.493  10.803  1.00  0.00     0.134 A 
ATOM     57  C   UNL     1       4.963   3.370   8.608  1.00  0.00     0.134 A 
ATOM     58  F   UNL     1       5.945   1.727  11.687  1.00  0.00    -0.206 F 
ATOM     59  C   UNL     1       4.127   3.141  11.239  1.00  0.00     0.040 A 
ATOM     60  C   UNL     1       3.820   4.051   9.039  1.00  0.00     0.040 A 
ATOM     61  F   UNL     1       5.258   3.450   7.305  1.00  0.00    -0.206 F 
ATOM     62  C   UNL     1       3.397   3.936  10.359  1.00  0.00     0.006 A 
ENDBRANCH  38  55
ENDBRANCH  12  13
ENDBRANCH   5   7
ENDBRANCH   2   3
ENDBRANCH   1   2
BRANCH   1  63
ATOM     63  C   UNL     1       4.116   2.286  -3.107  1.00  0.00     0.117 C 
BRANCH  63  64
ATOM     64  N   UNL     1       4.815   3.365  -2.416  1.00  0.00    -0.354 N 
ATOM     65  C   UNL     1       5.741   4.280  -2.818  1.00  0.00     0.244 C 
ATOM     66  H   UNL     1       4.567   3.448  -1.467  1.00  0.00     0.163 HD
ATOM     67  O   UNL     1       6.239   4.979  -1.924  1.00  0.00    -0.273 OA
BRANCH  65  68
ATOM     68  C   UNL     1       6.308   4.376  -4.250  1.00  0.00     0.197 C 
BRANCH  68  69
ATOM     69  C   UNL     1       7.418   3.333  -4.447  1.00  0.00     0.191 C 
BRANCH  69  70
ATOM     70  O   UNL     1       6.939   1.996  -4.362  1.00  0.00    -0.394 OA
ATOM     71  H   UNL     1       6.569   1.841  -3.479  1.00  0.00     0.210 HD
ENDBRANCH  69  70
ENDBRANCH  68  69
BRANCH  68  72
ATOM     72  N   UNL     1       5.302   4.377  -5.319  1.00  0.00    -0.338 N 
ATOM     73  C   UNL     1       5.040   5.319  -6.276  1.00  0.00     0.252 C 
ATOM     74  H   UNL     1       4.729   3.577  -5.354  1.00  0.00     0.164 HD
ATOM     75  O   UNL     1       3.991   5.273  -6.909  1.00  0.00    -0.269 OA
BRANCH  73  76
ATOM     76  C   UNL     1       6.006   6.406  -6.540  1.00  0.00     0.040 A 
ATOM     77  C   UNL     1       7.381   6.080  -6.790  1.00  0.00     0.016 A 
ATOM     78  C   UNL     1       5.489   7.717  -6.581  1.00  0.00     0.028 A 
ATOM     79  C   UNL     1       8.387   7.045  -7.010  1.00  0.00     0.033 A 
ATOM     80  C   UNL     1       6.503   8.639  -6.822  1.00  0.00     0.050 A 
ATOM     81  C   UNL     1       7.903   8.363  -7.027  1.00  0.00     0.114 A 
ATOM     82  C   UNL     1       6.357   9.988  -6.984  1.00  0.00     0.174 A 
ATOM     83  N   UNL     1       8.553   9.519  -7.237  1.00  0.00    -0.079 NA
ATOM     84  O   UNL     1       7.591  10.519  -7.227  1.00  0.00    -0.355 OA
BRANCH  82  85
ATOM     85  C   UNL     1       5.250  10.923  -6.994  1.00  0.00     0.021 A 
ATOM     86  C   UNL     1       5.035  11.738  -8.113  1.00  0.00     0.012 A 
ATOM     87  C   UNL     1       4.359  10.995  -5.916  1.00  0.00     0.012 A 
ATOM     88  C   UNL     1       3.941  12.603  -8.159  1.00  0.00     0.001 A 
ATOM     89  C   UNL     1       3.269  11.867  -5.959  1.00  0.00     0.001 A 
ATOM     90  C   UNL     1       3.059  12.666  -7.082  1.00  0.00     0.000 A 
ENDBRANCH  82  85
ENDBRANCH  73  76
ENDBRANCH  68  72
ENDBRANCH  65  68
ENDBRANCH  63  64
ENDBRANCH   1  63
TORSDOF 15
