REMARK SMILES C[C@@H](NC(=O)[C@@H]([NH3+])CC(=O)NCCCNC(=O)c1ccc(-c2c3nc(c(-c4c(F)cccc4F)c4ccc([nH]4)c(-c4c(F)cccc4F)c4nc(c(-c5c(F)cccc5F)c5ccc2[nH]5)C=C4)C=C3)cc1)C(=O)NC1C(C)(C)SC1(C)C
REMARK SMILES IDX 9 1 10 2 11 3 8 5 6 6 4 7 3 8 5 10 2 11 1 12 72 13 73 14
REMARK SMILES IDX 74 15 75 17 76 18 80 19 77 20 78 21 79 22 81 23 82 24 7 25
REMARK SMILES IDX 12 29 13 30 14 31 15 32 16 33 17 35 18 36 19 37 71 38 20 39
REMARK SMILES IDX 70 40 21 41 22 42 23 43 64 44 24 45 69 46 63 47 65 48 25 49
REMARK SMILES IDX 68 50 62 51 61 52 26 54 52 55 35 56 51 57 36 58 39 59 50 60
REMARK SMILES IDX 66 61 37 62 38 63 49 65 67 66 40 67 27 68 28 69 33 70 29 71
REMARK SMILES IDX 30 72 32 73 34 74 31 75 53 76 54 77 59 78 55 79 56 80 58 81
REMARK SMILES IDX 60 82 57 83 41 84 42 85 47 86 43 87 44 88 46 89 48 90 45 91
REMARK H PARENT 11 4 3 9 74 16 7 26 7 27 7 28 15 34 65 53 39 64
REMARK Flexibility Score: inf
ROOT
ATOM      1  C   UNL     1      -1.377  -5.017   2.616  1.00  0.00     0.226 C 
ATOM      2  O   UNL     1      -2.251  -5.715   3.131  1.00  0.00    -0.275 OA
ATOM      3  N   UNL     1      -0.078  -5.403   2.732  1.00  0.00    -0.356 N 
ATOM      4  H   UNL     1       0.066  -6.291   3.132  1.00  0.00     0.163 HD
ENDROOT
BRANCH   1   5
ATOM      5  C   UNL     1      -1.722  -3.745   1.880  1.00  0.00     0.175 C 
BRANCH   5   6
ATOM      6  C   UNL     1      -1.802  -2.575   2.849  1.00  0.00     0.280 C 
BRANCH   6   7
ATOM      7  C   UNL     1      -0.522  -1.713   3.018  1.00  0.00     0.279 C 
ATOM      8  N   UNL     1       0.123  -1.050   2.025  1.00  0.00    -0.339 N 
ATOM      9  H   UNL     1       0.908  -0.535   2.321  1.00  0.00     0.164 HD
ATOM     10  O   UNL     1      -0.068  -1.522   4.154  1.00  0.00    -0.268 OA
BRANCH   8  11
ATOM     11  C   UNL     1      -0.148  -0.971   0.595  1.00  0.00     0.168 C 
ATOM     12  C   UNL     1       0.966  -0.216  -0.132  1.00  0.00     0.041 C 
BRANCH  11  13
ATOM     13  C   UNL     1      -1.512  -0.339   0.292  1.00  0.00     0.242 C 
ATOM     14  O   UNL     1      -2.133  -0.654  -0.728  1.00  0.00    -0.273 OA
ATOM     15  N   UNL     1      -2.028   0.661   1.078  1.00  0.00    -0.349 N 
ATOM     16  H   UNL     1      -3.010   0.721   1.092  1.00  0.00     0.163 HD
BRANCH  15  17
ATOM     17  C   UNL     1      -1.319   1.667   1.911  1.00  0.00     0.113 C 
ATOM     18  C   UNL     1      -1.637   3.126   1.393  1.00  0.00     0.032 C 
ATOM     19  C   UNL     1      -1.827   1.952   3.393  1.00  0.00     0.032 C 
ATOM     20  C   UNL     1      -0.496   3.694   0.554  1.00  0.00     0.025 C 
ATOM     21  C   UNL     1      -2.987   3.376   0.717  1.00  0.00     0.025 C 
ATOM     22  S   UNL     1      -1.625   3.773   3.094  1.00  0.00    -0.145 SA
ATOM     23  C   UNL     1      -3.261   1.635   3.817  1.00  0.00     0.025 C 
ATOM     24  C   UNL     1      -0.854   1.543   4.506  1.00  0.00     0.025 C 
ENDBRANCH  15  17
ENDBRANCH  11  13
ENDBRANCH   8  11
ENDBRANCH   6   7
BRANCH   6  25
ATOM     25  N   UNL     1      -2.928  -1.703   2.469  1.00  0.00    -0.347 N 
ATOM     26  H   UNL     1      -2.746  -1.293   1.553  1.00  0.00     0.345 HD
ATOM     27  H   UNL     1      -3.032  -0.960   3.160  1.00  0.00     0.345 HD
ATOM     28  H   UNL     1      -3.786  -2.253   2.430  1.00  0.00     0.345 HD
ENDBRANCH   6  25
ENDBRANCH   5   6
ENDBRANCH   1   5
BRANCH   3  29
ATOM     29  C   UNL     1       1.124  -4.689   2.348  1.00  0.00     0.117 C 
BRANCH  29  30
ATOM     30  C   UNL     1       1.717  -3.953   3.538  1.00  0.00     0.042 C 
BRANCH  30  31
ATOM     31  C   UNL     1       2.511  -4.819   4.491  1.00  0.00     0.118 C 
BRANCH  31  32
ATOM     32  N   UNL     1       3.725  -5.336   3.891  1.00  0.00    -0.352 N 
ATOM     33  C   UNL     1       5.021  -5.257   4.317  1.00  0.00     0.251 C 
ATOM     34  H   UNL     1       3.595  -5.820   3.043  1.00  0.00     0.163 HD
ATOM     35  O   UNL     1       5.918  -5.617   3.550  1.00  0.00    -0.269 OA
BRANCH  33  36
ATOM     36  C   UNL     1       5.370  -4.742   5.662  1.00  0.00     0.039 A 
ATOM     37  C   UNL     1       6.598  -4.090   5.819  1.00  0.00     0.014 A 
ATOM     38  C   UNL     1       4.550  -4.940   6.777  1.00  0.00     0.014 A 
ATOM     39  C   UNL     1       6.992  -3.637   7.078  1.00  0.00     0.010 A 
ATOM     40  C   UNL     1       4.891  -4.389   8.008  1.00  0.00     0.010 A 
ATOM     41  C   UNL     1       6.136  -3.773   8.182  1.00  0.00    -0.014 A 
BRANCH  41  42
ATOM     42  C   UNL     1       6.567  -3.350   9.536  1.00  0.00     0.031 A 
ATOM     43  C   UNL     1       6.717  -4.375  10.630  1.00  0.00     0.074 A 
ATOM     44  C   UNL     1       6.800  -2.049   9.787  1.00  0.00     0.049 A 
ATOM     45  N   UNL     1       7.070  -4.207  11.879  1.00  0.00    -0.248 NA
ATOM     46  C   UNL     1       6.397  -5.769  10.283  1.00  0.00     0.031 C 
ATOM     47  C   UNL     1       6.630  -0.958   8.826  1.00  0.00     0.029 A 
ATOM     48  N   UNL     1       7.232  -1.424  10.928  1.00  0.00    -0.354 N 
ATOM     49  C   UNL     1       6.998  -5.465  12.464  1.00  0.00     0.074 A 
ATOM     50  C   UNL     1       6.501  -6.374  11.456  1.00  0.00     0.031 C 
ATOM     51  C   UNL     1       6.985   0.199   9.409  1.00  0.00     0.029 A 
ATOM     52  C   UNL     1       7.380  -0.066  10.789  1.00  0.00     0.049 A 
ATOM     53  H   UNL     1       7.419  -1.903  11.768  1.00  0.00     0.167 HD
ATOM     54  C   UNL     1       7.345  -5.839  13.718  1.00  0.00     0.037 A 
ATOM     55  C   UNL     1       7.793   0.858  11.675  1.00  0.00     0.037 A 
ATOM     56  C   UNL     1       7.871  -4.937  14.707  1.00  0.00     0.049 A 
ATOM     57  C   UNL     1       8.206   0.417  13.050  1.00  0.00     0.074 A 
ATOM     58  C   UNL     1       8.304  -5.218  15.991  1.00  0.00     0.029 A 
ATOM     59  N   UNL     1       8.040  -3.574  14.515  1.00  0.00    -0.354 N 
ATOM     60  N   UNL     1       8.195  -0.787  13.570  1.00  0.00    -0.248 NA
ATOM     61  C   UNL     1       8.705   1.459  13.957  1.00  0.00     0.031 C 
ATOM     62  C   UNL     1       8.704  -4.017  16.588  1.00  0.00     0.029 A 
ATOM     63  C   UNL     1       8.562  -2.997  15.661  1.00  0.00     0.049 A 
ATOM     64  H   UNL     1       7.822  -3.088  13.687  1.00  0.00     0.167 HD
ATOM     65  C   UNL     1       8.704  -0.652  14.855  1.00  0.00     0.074 A 
ATOM     66  C   UNL     1       9.032   0.749  15.027  1.00  0.00     0.031 C 
ATOM     67  C   UNL     1       8.883  -1.600  15.808  1.00  0.00     0.037 A 
BRANCH  54  68
ATOM     68  C   UNL     1       7.176  -7.288  14.076  1.00  0.00     0.057 A 
ATOM     69  C   UNL     1       7.982  -8.287  13.512  1.00  0.00     0.134 A 
ATOM     70  C   UNL     1       6.202  -7.691  14.997  1.00  0.00     0.134 A 
ATOM     71  F   UNL     1       8.925  -7.972  12.611  1.00  0.00    -0.206 F 
ATOM     72  C   UNL     1       7.803  -9.636  13.825  1.00  0.00     0.040 A 
ATOM     73  C   UNL     1       6.032  -9.034  15.340  1.00  0.00     0.040 A 
ATOM     74  F   UNL     1       5.398  -6.788  15.578  1.00  0.00    -0.206 F 
ATOM     75  C   UNL     1       6.828 -10.012  14.746  1.00  0.00     0.006 A 
ENDBRANCH  54  68
BRANCH  55  76
ATOM     76  C   UNL     1       7.872   2.284  11.271  1.00  0.00     0.057 A 
ATOM     77  C   UNL     1       9.106   2.914  11.077  1.00  0.00     0.134 A 
ATOM     78  C   UNL     1       6.717   3.045  11.054  1.00  0.00     0.134 A 
ATOM     79  F   UNL     1      10.248   2.241  11.283  1.00  0.00    -0.206 F 
ATOM     80  C   UNL     1       9.191   4.255  10.699  1.00  0.00     0.040 A 
ATOM     81  C   UNL     1       6.787   4.380  10.653  1.00  0.00     0.040 A 
ATOM     82  F   UNL     1       5.504   2.495  11.211  1.00  0.00    -0.206 F 
ATOM     83  C   UNL     1       8.027   4.990  10.480  1.00  0.00     0.006 A 
ENDBRANCH  55  76
BRANCH  67  84
ATOM     84  C   UNL     1       9.484  -1.155  17.107  1.00  0.00     0.057 A 
ATOM     85  C   UNL     1       8.761  -0.392  18.032  1.00  0.00     0.134 A 
ATOM     86  C   UNL     1      10.792  -1.521  17.449  1.00  0.00     0.134 A 
ATOM     87  F   UNL     1       7.507   0.001  17.758  1.00  0.00    -0.206 F 
ATOM     88  C   UNL     1       9.327   0.015  19.241  1.00  0.00     0.040 A 
ATOM     89  C   UNL     1      11.360  -1.143  18.666  1.00  0.00     0.040 A 
ATOM     90  F   UNL     1      11.534  -2.259  16.610  1.00  0.00    -0.206 F 
ATOM     91  C   UNL     1      10.629  -0.367  19.563  1.00  0.00     0.006 A 
ENDBRANCH  67  84
ENDBRANCH  41  42
ENDBRANCH  33  36
ENDBRANCH  31  32
ENDBRANCH  30  31
ENDBRANCH  29  30
ENDBRANCH   3  29
TORSDOF 16
