REMARK SMILES COc1cccc([C@@H]2[NH2+][C@@](C)(C(=O)NCCCNC(=O)c3ccc(-c4c5nc(c(-c6c(F)cccc6F)c6ccc([nH]6)c(-c6c(F)cccc6F)c6nc(c(-c7c(F)cccc7F)c7ccc4[nH]7)C=C6)C=C5)cc3)[C@@H]3C(=O)N(C)C(=O)[C@@H]32)c1O
REMARK SMILES IDX 16 1 15 2 14 3 12 4 13 5 10 7 8 8 9 9 82 10 75 13 80 14
REMARK SMILES IDX 11 15 76 16 78 17 81 18 77 19 79 20 7 21 3 22 4 23 83 24
REMARK SMILES IDX 5 25 6 26 2 27 1 28 84 29 17 31 18 32 19 33 20 35 21 36
REMARK SMILES IDX 22 37 74 38 23 39 73 40 24 41 25 42 26 43 67 44 27 45 72 46
REMARK SMILES IDX 66 47 68 48 28 49 71 50 65 51 64 52 29 54 55 55 38 56 54 57
REMARK SMILES IDX 39 58 42 59 53 60 69 61 40 62 41 63 52 65 70 66 43 67 30 68
REMARK SMILES IDX 31 69 36 70 32 71 33 72 35 73 37 74 34 75 56 76 57 77 62 78
REMARK SMILES IDX 58 79 59 80 61 81 63 82 60 83 44 84 45 85 50 86 46 87 47 88
REMARK SMILES IDX 49 89 51 90 48 91
REMARK H PARENT 14 6 9 11 9 12 84 30 18 34 68 53 42 64
REMARK Flexibility Score: inf
ROOT
ATOM      1  C   UNL     1      -7.316  -1.846   2.794  1.00  0.00     0.042 C 
ENDROOT
BRANCH   1   2
ATOM      2  C   UNL     1      -6.489  -2.891   2.062  1.00  0.00     0.118 C 
BRANCH   2   3
ATOM      3  N   UNL     1      -6.777  -2.936   0.640  1.00  0.00    -0.351 N 
ATOM      4  C   UNL     1      -5.949  -2.796  -0.432  1.00  0.00     0.281 C 
ATOM      5  O   UNL     1      -6.486  -2.805  -1.545  1.00  0.00    -0.268 OA
ATOM      6  H   UNL     1      -7.723  -3.092   0.415  1.00  0.00     0.163 HD
BRANCH   4   7
ATOM      7  C   UNL     1      -4.404  -2.628  -0.266  1.00  0.00     0.185 C 
ATOM      8  C   UNL     1      -4.087  -0.271  -0.551  1.00  0.00     0.232 C 
ATOM      9  N   UNL     1      -4.141  -1.357   0.465  1.00  0.00    -0.326 N 
ATOM     10  C   UNL     1      -3.944  -0.926  -1.934  1.00  0.00     0.161 C 
ATOM     11  H   UNL     1      -4.891  -1.176   1.132  1.00  0.00     0.347 HD
ATOM     12  H   UNL     1      -3.265  -1.412   0.985  1.00  0.00     0.347 HD
ATOM     13  C   UNL     1      -3.788  -2.414  -1.652  1.00  0.00     0.169 C 
ATOM     14  C   UNL     1      -2.704  -0.597  -2.721  1.00  0.00     0.239 C 
ATOM     15  C   UNL     1      -3.829  -3.863   0.441  1.00  0.00     0.091 C 
ATOM     16  C   UNL     1      -2.307  -2.646  -1.823  1.00  0.00     0.240 C 
ATOM     17  N   UNL     1      -1.793  -1.599  -2.533  1.00  0.00    -0.285 N 
ATOM     18  O   UNL     1      -2.546   0.406  -3.395  1.00  0.00    -0.274 OA
ATOM     19  O   UNL     1      -1.686  -3.636  -1.464  1.00  0.00    -0.274 OA
ATOM     20  C   UNL     1      -0.441  -1.548  -3.029  1.00  0.00     0.156 C 
BRANCH   8  21
ATOM     21  C   UNL     1      -3.061   0.814  -0.239  1.00  0.00     0.056 A 
ATOM     22  C   UNL     1      -0.765   1.550   0.223  1.00  0.00     0.161 A 
ATOM     23  C   UNL     1      -1.178   2.872   0.001  1.00  0.00     0.050 A 
ATOM     24  C   UNL     1      -1.721   0.528   0.123  1.00  0.00     0.166 A 
ATOM     25  C   UNL     1      -2.499   3.177  -0.320  1.00  0.00     0.005 A 
ATOM     26  C   UNL     1      -3.433   2.154  -0.445  1.00  0.00     0.014 A 
BRANCH  22  27
ATOM     27  O   UNL     1       0.553   1.481   0.573  1.00  0.00    -0.493 OA
ATOM     28  C   UNL     1       1.306   0.311   0.318  1.00  0.00     0.278 C 
ENDBRANCH  22  27
BRANCH  24  29
ATOM     29  O   UNL     1      -1.467  -0.791   0.384  1.00  0.00    -0.504 OA
ATOM     30  H   UNL     1      -0.604  -1.062   0.631  1.00  0.00     0.293 HD
ENDBRANCH  24  29
ENDBRANCH   8  21
ENDBRANCH   4   7
ENDBRANCH   2   3
ENDBRANCH   1   2
BRANCH   1  31
ATOM     31  C   UNL     1      -8.822  -2.055   2.709  1.00  0.00     0.118 C 
BRANCH  31  32
ATOM     32  N   UNL     1      -9.262  -3.317   3.288  1.00  0.00    -0.352 N 
ATOM     33  C   UNL     1     -10.111  -3.573   4.336  1.00  0.00     0.251 C 
ATOM     34  H   UNL     1      -8.890  -4.119   2.855  1.00  0.00     0.163 HD
ATOM     35  O   UNL     1     -10.217  -4.722   4.758  1.00  0.00    -0.269 OA
BRANCH  33  36
ATOM     36  C   UNL     1     -10.873  -2.482   4.984  1.00  0.00     0.039 A 
ATOM     37  C   UNL     1     -11.020  -2.506   6.374  1.00  0.00     0.014 A 
ATOM     38  C   UNL     1     -11.454  -1.450   4.244  1.00  0.00     0.014 A 
ATOM     39  C   UNL     1     -11.678  -1.458   7.020  1.00  0.00     0.010 A 
ATOM     40  C   UNL     1     -12.021  -0.357   4.896  1.00  0.00     0.010 A 
ATOM     41  C   UNL     1     -12.140  -0.348   6.292  1.00  0.00    -0.014 A 
BRANCH  41  42
ATOM     42  C   UNL     1     -12.720   0.828   6.991  1.00  0.00     0.031 A 
ATOM     43  C   UNL     1     -14.144   1.249   6.748  1.00  0.00     0.074 A 
ATOM     44  C   UNL     1     -11.941   1.545   7.825  1.00  0.00     0.049 A 
ATOM     45  N   UNL     1     -14.815   2.237   7.286  1.00  0.00    -0.248 NA
ATOM     46  C   UNL     1     -14.908   0.479   5.755  1.00  0.00     0.031 C 
ATOM     47  C   UNL     1     -10.524   1.284   8.092  1.00  0.00     0.029 A 
ATOM     48  N   UNL     1     -12.228   2.636   8.606  1.00  0.00    -0.354 N 
ATOM     49  C   UNL     1     -16.073   2.208   6.696  1.00  0.00     0.074 A 
ATOM     50  C   UNL     1     -16.052   1.146   5.713  1.00  0.00     0.031 C 
ATOM     51  C   UNL     1     -10.080   2.160   9.007  1.00  0.00     0.029 A 
ATOM     52  C   UNL     1     -11.165   3.068   9.361  1.00  0.00     0.049 A 
ATOM     53  H   UNL     1     -13.112   3.069   8.623  1.00  0.00     0.167 HD
ATOM     54  C   UNL     1     -17.155   2.978   6.965  1.00  0.00     0.037 A 
ATOM     55  C   UNL     1     -11.073   4.080  10.244  1.00  0.00     0.037 A 
ATOM     56  C   UNL     1     -17.176   4.028   7.951  1.00  0.00     0.049 A 
ATOM     57  C   UNL     1     -12.289   4.916  10.527  1.00  0.00     0.074 A 
ATOM     58  C   UNL     1     -18.239   4.825   8.339  1.00  0.00     0.029 A 
ATOM     59  N   UNL     1     -16.081   4.433   8.700  1.00  0.00    -0.354 N 
ATOM     60  N   UNL     1     -13.496   4.821  10.022  1.00  0.00    -0.248 NA
ATOM     61  C   UNL     1     -12.133   5.993  11.513  1.00  0.00     0.031 C 
ATOM     62  C   UNL     1     -17.774   5.748   9.283  1.00  0.00     0.029 A 
ATOM     63  C   UNL     1     -16.436   5.487   9.528  1.00  0.00     0.049 A 
ATOM     64  H   UNL     1     -15.184   4.032   8.650  1.00  0.00     0.167 HD
ATOM     65  C   UNL     1     -14.246   5.810  10.644  1.00  0.00     0.074 A 
ATOM     66  C   UNL     1     -13.366   6.472  11.585  1.00  0.00     0.031 C 
ATOM     67  C   UNL     1     -15.546   6.145  10.451  1.00  0.00     0.037 A 
BRANCH  54  68
ATOM     68  C   UNL     1     -18.410   2.709   6.183  1.00  0.00     0.057 A 
ATOM     69  C   UNL     1     -19.155   1.534   6.359  1.00  0.00     0.134 A 
ATOM     70  C   UNL     1     -18.901   3.651   5.270  1.00  0.00     0.134 A 
ATOM     71  F   UNL     1     -18.736   0.584   7.208  1.00  0.00    -0.206 F 
ATOM     72  C   UNL     1     -20.326   1.295   5.638  1.00  0.00     0.040 A 
ATOM     73  C   UNL     1     -20.088   3.437   4.566  1.00  0.00     0.040 A 
ATOM     74  F   UNL     1     -18.244   4.800   5.056  1.00  0.00    -0.206 F 
ATOM     75  C   UNL     1     -20.800   2.253   4.744  1.00  0.00     0.006 A 
ENDBRANCH  54  68
BRANCH  55  76
ATOM     76  C   UNL     1      -9.791   4.342  10.947  1.00  0.00     0.057 A 
ATOM     77  C   UNL     1      -9.659   4.119  12.323  1.00  0.00     0.134 A 
ATOM     78  C   UNL     1      -8.671   4.834  10.265  1.00  0.00     0.134 A 
ATOM     79  F   UNL     1     -10.701   3.666  13.036  1.00  0.00    -0.206 F 
ATOM     80  C   UNL     1      -8.471   4.399  13.000  1.00  0.00     0.040 A 
ATOM     81  C   UNL     1      -7.468   5.090  10.923  1.00  0.00     0.040 A 
ATOM     82  F   UNL     1      -8.728   5.061   8.944  1.00  0.00    -0.206 F 
ATOM     83  C   UNL     1      -7.369   4.882  12.297  1.00  0.00     0.006 A 
ENDBRANCH  55  76
BRANCH  67  84
ATOM     84  C   UNL     1     -16.091   7.263  11.295  1.00  0.00     0.057 A 
ATOM     85  C   UNL     1     -15.675   8.591  11.125  1.00  0.00     0.134 A 
ATOM     86  C   UNL     1     -17.038   7.007  12.295  1.00  0.00     0.134 A 
ATOM     87  F   UNL     1     -14.762   8.904  10.194  1.00  0.00    -0.206 F 
ATOM     88  C   UNL     1     -16.148   9.615  11.948  1.00  0.00     0.040 A 
ATOM     89  C   UNL     1     -17.543   8.028  13.101  1.00  0.00     0.040 A 
ATOM     90  F   UNL     1     -17.490   5.761  12.505  1.00  0.00    -0.206 F 
ATOM     91  C   UNL     1     -17.087   9.334  12.938  1.00  0.00     0.006 A 
ENDBRANCH  67  84
ENDBRANCH  41  42
ENDBRANCH  33  36
ENDBRANCH  31  32
ENDBRANCH   1  31
TORSDOF 13
