REMARK SMILES O=C(NCCCNC(=O)c1ccc(C[N@H+]2CC[N@H+]3CCCC[C@@H]3C2)c(F)c1)c1ccc(-c2c3nc(c(-c4c(F)cccc4F)c4ccc([nH]4)c(-c4c(F)cccc4F)c4nc(c(-c5c(F)cccc5F)c5ccc2[nH]5)C=C4)C=C3)cc1
REMARK SMILES IDX 5 1 4 2 3 3 1 4 2 5 28 7 29 8 81 9 30 10 80 11 31 12 32 13
REMARK SMILES IDX 33 14 74 15 34 16 79 17 73 18 75 19 35 20 78 21 72 22 71 23
REMARK SMILES IDX 36 25 62 26 45 27 61 28 46 29 49 30 60 31 76 32 47 33 48 34
REMARK SMILES IDX 59 36 77 37 50 38 37 39 38 40 43 41 39 42 40 43 42 44 44 45
REMARK SMILES IDX 41 46 63 47 64 48 69 49 65 50 66 51 68 52 70 53 67 54 51 55
REMARK SMILES IDX 52 56 57 57 53 58 54 59 56 60 58 61 55 62 6 63 7 64 8 65
REMARK SMILES IDX 9 67 10 68 11 69 27 70 12 71 25 72 13 73 26 74 14 75 15 76
REMARK SMILES IDX 16 77 24 78 17 80 23 81 18 82 22 83 19 84 21 86 20 87
REMARK H PARENT 3 6 75 24 49 35 7 66 15 79 18 85
REMARK Flexibility Score: inf
ROOT
ATOM      1  C   UNL     1       5.074  -2.477   0.330  1.00  0.00     0.042 C 
ENDROOT
BRANCH   1   2
ATOM      2  C   UNL     1       4.632  -1.364  -0.613  1.00  0.00     0.118 C 
BRANCH   2   3
ATOM      3  N   UNL     1       3.201  -1.091  -0.548  1.00  0.00    -0.352 N 
ATOM      4  O   UNL     1       1.279  -0.049  -0.039  1.00  0.00    -0.269 OA
ATOM      5  C   UNL     1       2.502   0.020  -0.136  1.00  0.00     0.251 C 
ATOM      6  H   UNL     1       2.633  -1.835  -0.852  1.00  0.00     0.163 HD
BRANCH   5   7
ATOM      7  C   UNL     1       3.189   1.286   0.215  1.00  0.00     0.039 A 
ATOM      8  C   UNL     1       4.299   1.739  -0.495  1.00  0.00     0.014 A 
ATOM      9  C   UNL     1       2.675   2.070   1.257  1.00  0.00     0.014 A 
ATOM     10  C   UNL     1       4.996   2.862  -0.059  1.00  0.00     0.010 A 
ATOM     11  C   UNL     1       3.314   3.259   1.627  1.00  0.00     0.010 A 
ATOM     12  C   UNL     1       4.506   3.646   0.997  1.00  0.00    -0.014 A 
BRANCH  12  13
ATOM     13  C   UNL     1       5.229   4.888   1.381  1.00  0.00     0.031 A 
ATOM     14  C   UNL     1       5.842   5.046   2.745  1.00  0.00     0.074 A 
ATOM     15  C   UNL     1       5.370   5.867   0.466  1.00  0.00     0.049 A 
ATOM     16  N   UNL     1       6.538   6.047   3.223  1.00  0.00    -0.248 NA
ATOM     17  C   UNL     1       5.644   3.944   3.699  1.00  0.00     0.031 C 
ATOM     18  C   UNL     1       4.819   5.833  -0.890  1.00  0.00     0.029 A 
ATOM     19  N   UNL     1       6.039   7.063   0.522  1.00  0.00    -0.354 N 
ATOM     20  C   UNL     1       6.853   5.703   4.532  1.00  0.00     0.074 A 
ATOM     21  C   UNL     1       6.239   4.417   4.786  1.00  0.00     0.031 C 
ATOM     22  C   UNL     1       5.222   6.924  -1.556  1.00  0.00     0.029 A 
ATOM     23  C   UNL     1       6.000   7.768  -0.656  1.00  0.00     0.049 A 
ATOM     24  H   UNL     1       6.502   7.386   1.329  1.00  0.00     0.167 HD
ATOM     25  C   UNL     1       7.596   6.390   5.433  1.00  0.00     0.037 A 
ATOM     26  C   UNL     1       6.521   8.966  -0.981  1.00  0.00     0.037 A 
ATOM     27  C   UNL     1       8.208   7.669   5.172  1.00  0.00     0.049 A 
ATOM     28  C   UNL     1       7.302   9.729   0.046  1.00  0.00     0.074 A 
ATOM     29  C   UNL     1       8.996   8.433   6.016  1.00  0.00     0.029 A 
ATOM     30  N   UNL     1       8.099   8.374   3.982  1.00  0.00    -0.354 N 
ATOM     31  N   UNL     1       7.604   9.383   1.274  1.00  0.00    -0.248 NA
ATOM     32  C   UNL     1       7.809  11.049  -0.351  1.00  0.00     0.031 C 
ATOM     33  C   UNL     1       9.317   9.624   5.357  1.00  0.00     0.029 A 
ATOM     34  C   UNL     1       8.784   9.575   4.080  1.00  0.00     0.049 A 
ATOM     35  H   UNL     1       7.607   8.067   3.187  1.00  0.00     0.167 HD
ATOM     36  C   UNL     1       8.351  10.432   1.792  1.00  0.00     0.074 A 
ATOM     37  C   UNL     1       8.466  11.422   0.740  1.00  0.00     0.031 C 
ATOM     38  C   UNL     1       8.892  10.557   3.028  1.00  0.00     0.037 A 
BRANCH  25  39
ATOM     39  C   UNL     1       7.779   5.782   6.795  1.00  0.00     0.057 A 
ATOM     40  C   UNL     1       7.198   6.372   7.926  1.00  0.00     0.134 A 
ATOM     41  C   UNL     1       8.570   4.644   7.000  1.00  0.00     0.134 A 
ATOM     42  F   UNL     1       6.436   7.470   7.807  1.00  0.00    -0.206 F 
ATOM     43  C   UNL     1       7.402   5.857   9.208  1.00  0.00     0.040 A 
ATOM     44  C   UNL     1       8.759   4.103   8.273  1.00  0.00     0.040 A 
ATOM     45  F   UNL     1       9.149   4.023   5.960  1.00  0.00    -0.206 F 
ATOM     46  C   UNL     1       8.180   4.715   9.383  1.00  0.00     0.006 A 
ENDBRANCH  25  39
BRANCH  26  47
ATOM     47  C   UNL     1       6.323   9.489  -2.356  1.00  0.00     0.057 A 
ATOM     48  C   UNL     1       5.058   9.882  -2.811  1.00  0.00     0.134 A 
ATOM     49  C   UNL     1       7.382   9.536  -3.268  1.00  0.00     0.134 A 
ATOM     50  F   UNL     1       4.001   9.848  -1.986  1.00  0.00    -0.206 F 
ATOM     51  C   UNL     1       4.845  10.268  -4.135  1.00  0.00     0.040 A 
ATOM     52  C   UNL     1       7.189   9.946  -4.588  1.00  0.00     0.040 A 
ATOM     53  F   UNL     1       8.619   9.187  -2.886  1.00  0.00    -0.206 F 
ATOM     54  C   UNL     1       5.914  10.301  -5.028  1.00  0.00     0.006 A 
ENDBRANCH  26  47
BRANCH  38  55
ATOM     55  C   UNL     1       9.684  11.799   3.316  1.00  0.00     0.057 A 
ATOM     56  C   UNL     1      11.074  11.732   3.485  1.00  0.00     0.134 A 
ATOM     57  C   UNL     1       9.069  13.043   3.500  1.00  0.00     0.134 A 
ATOM     58  F   UNL     1      11.724  10.569   3.331  1.00  0.00    -0.206 F 
ATOM     59  C   UNL     1      11.820  12.855   3.844  1.00  0.00     0.040 A 
ATOM     60  C   UNL     1       9.809  14.179   3.833  1.00  0.00     0.040 A 
ATOM     61  F   UNL     1       7.744  13.176   3.341  1.00  0.00    -0.206 F 
ATOM     62  C   UNL     1      11.188  14.084   4.016  1.00  0.00     0.006 A 
ENDBRANCH  38  55
ENDBRANCH  12  13
ENDBRANCH   5   7
ENDBRANCH   2   3
ENDBRANCH   1   2
BRANCH   1  63
ATOM     63  C   UNL     1       4.542  -3.863  -0.023  1.00  0.00     0.118 C 
BRANCH  63  64
ATOM     64  N   UNL     1       5.114  -4.367  -1.260  1.00  0.00    -0.352 N 
ATOM     65  C   UNL     1       6.005  -5.394  -1.456  1.00  0.00     0.251 C 
ATOM     66  H   UNL     1       4.821  -3.905  -2.078  1.00  0.00     0.163 HD
ATOM     67  O   UNL     1       6.539  -5.551  -2.549  1.00  0.00    -0.269 OA
BRANCH  65  68
ATOM     68  C   UNL     1       6.335  -6.312  -0.350  1.00  0.00     0.042 A 
ATOM     69  C   UNL     1       5.346  -7.107   0.235  1.00  0.00     0.014 A 
ATOM     70  C   UNL     1       7.661  -6.415   0.067  1.00  0.00     0.053 A 
ATOM     71  C   UNL     1       5.676  -7.950   1.302  1.00  0.00     0.013 A 
ATOM     72  C   UNL     1       7.970  -7.234   1.148  1.00  0.00     0.132 A 
ATOM     73  C   UNL     1       6.984  -7.967   1.819  1.00  0.00     0.042 A 
ATOM     74  F   UNL     1       9.239  -7.275   1.578  1.00  0.00    -0.206 F 
BRANCH  73  75
ATOM     75  C   UNL     1       7.313  -8.720   3.089  1.00  0.00     0.302 C 
BRANCH  75  76
ATOM     76  N   UNL     1       7.140  -8.029   4.377  1.00  0.00    -0.322 N 
ATOM     77  C   UNL     1       8.077  -6.933   4.659  1.00  0.00     0.324 C 
ATOM     78  C   UNL     1       5.771  -7.637   4.730  1.00  0.00     0.328 C 
ATOM     79  H   UNL     1       7.391  -8.797   5.000  1.00  0.00     0.348 HD
ATOM     80  C   UNL     1       7.636  -5.514   4.213  1.00  0.00     0.324 C 
ATOM     81  C   UNL     1       5.332  -6.271   4.149  1.00  0.00     0.239 C 
ATOM     82  N   UNL     1       6.232  -5.163   4.529  1.00  0.00    -0.323 N 
ATOM     83  C   UNL     1       3.882  -5.952   4.529  1.00  0.00     0.071 C 
ATOM     84  C   UNL     1       5.851  -3.929   3.822  1.00  0.00     0.262 C 
ATOM     85  H   UNL     1       6.147  -5.006   5.534  1.00  0.00     0.348 HD
ATOM     86  C   UNL     1       3.429  -4.702   3.781  1.00  0.00     0.012 C 
ATOM     87  C   UNL     1       4.386  -3.547   4.063  1.00  0.00     0.062 C 
ENDBRANCH  75  76
ENDBRANCH  73  75
ENDBRANCH  65  68
ENDBRANCH  63  64
ENDBRANCH   1  63
TORSDOF 12
