REMARK SMILES CCOc1ccc(C(=O)N2CCC(C(=O)NCCCNC(=O)c3ccc(-c4c5nc(c(-c6c(F)cccc6F)c6ccc([nH]6)c(-c6c(F)cccc6F)c6nc(c(-c7c(F)cccc7F)c7ccc4[nH]7)C=C6)C=C5)cc3)(c3ccccc3)CC2)cc1OC
REMARK SMILES IDX 17 1 16 2 14 3 15 4 13 6 8 7 9 8 10 9 11 10 84 11 12 12
REMARK SMILES IDX 83 13 7 14 4 15 5 16 86 17 6 18 85 19 3 20 2 21 1 22 87 23
REMARK SMILES IDX 88 24 77 25 78 26 82 27 79 28 81 29 80 30 18 31 19 32 20 33
REMARK SMILES IDX 21 34 22 36 23 37 24 38 76 39 25 40 75 41 26 42 27 43 28 44
REMARK SMILES IDX 69 45 29 46 74 47 68 48 70 49 30 50 73 51 67 52 66 53 31 55
REMARK SMILES IDX 57 56 40 57 56 58 41 59 44 60 55 61 71 62 42 63 43 64 54 66
REMARK SMILES IDX 72 67 45 68 32 69 33 70 38 71 34 72 35 73 37 74 39 75 36 76
REMARK SMILES IDX 58 77 59 78 64 79 60 80 61 81 63 82 65 83 62 84 46 85 47 86
REMARK SMILES IDX 52 87 48 88 49 89 51 90 53 91 50 92
REMARK H PARENT 16 5 20 35 70 54 44 65
REMARK Flexibility Score: inf
ROOT
ATOM      1  C   UNL     1      10.324   3.397   3.664  1.00  0.00     0.117 C 
ENDROOT
BRANCH   1   2
ATOM      2  N   UNL     1      11.152   3.588   2.479  1.00  0.00    -0.355 N 
ATOM      3  C   UNL     1      11.066   3.139   1.189  1.00  0.00     0.230 C 
ATOM      4  O   UNL     1      12.046   3.442   0.505  1.00  0.00    -0.274 OA
ATOM      5  H   UNL     1      11.937   4.160   2.641  1.00  0.00     0.163 HD
BRANCH   3   6
ATOM      6  C   UNL     1       9.841   2.298   0.680  1.00  0.00     0.077 C 
ATOM      7  C   UNL     1       6.551   0.707   3.059  1.00  0.00     0.253 C 
ATOM      8  O   UNL     1       6.883   0.095   4.075  1.00  0.00    -0.269 OA
ATOM      9  N   UNL     1       7.516   1.229   2.178  1.00  0.00    -0.339 N 
ATOM     10  C   UNL     1       8.601   0.318   1.860  1.00  0.00     0.121 C 
ATOM     11  C   UNL     1       7.319   2.396   1.319  1.00  0.00     0.121 C 
ATOM     12  C   UNL     1       9.917   0.968   1.478  1.00  0.00     0.043 C 
ATOM     13  C   UNL     1       8.582   3.166   0.971  1.00  0.00     0.043 C 
BRANCH   7  14
ATOM     14  C   UNL     1       5.093   0.745   2.715  1.00  0.00     0.043 A 
ATOM     15  C   UNL     1       2.359   0.563   2.030  1.00  0.00     0.161 A 
ATOM     16  C   UNL     1       2.784   0.319   3.345  1.00  0.00     0.051 A 
ATOM     17  C   UNL     1       3.290   0.927   1.062  1.00  0.00     0.161 A 
ATOM     18  C   UNL     1       4.142   0.419   3.688  1.00  0.00     0.018 A 
ATOM     19  C   UNL     1       4.644   0.934   1.409  1.00  0.00     0.064 A 
BRANCH  15  20
ATOM     20  O   UNL     1       1.030   0.476   1.728  1.00  0.00    -0.490 OA
BRANCH  20  21
ATOM     21  C   UNL     1       0.533  -0.867   1.771  1.00  0.00     0.226 C 
ATOM     22  C   UNL     1      -0.116  -1.185   0.434  1.00  0.00     0.049 C 
ENDBRANCH  20  21
ENDBRANCH  15  20
BRANCH  17  23
ATOM     23  O   UNL     1       3.116   1.270  -0.247  1.00  0.00    -0.493 OA
ATOM     24  C   UNL     1       1.814   1.491  -0.753  1.00  0.00     0.278 C 
ENDBRANCH  17  23
ENDBRANCH   7  14
BRANCH   6  25
ATOM     25  C   UNL     1       9.817   1.940  -0.852  1.00  0.00    -0.032 A 
ATOM     26  C   UNL     1      10.761   2.392  -1.788  1.00  0.00     0.005 A 
ATOM     27  C   UNL     1       8.784   1.130  -1.380  1.00  0.00     0.005 A 
ATOM     28  C   UNL     1      10.686   2.052  -3.148  1.00  0.00     0.000 A 
ATOM     29  C   UNL     1       8.693   0.802  -2.738  1.00  0.00     0.000 A 
ATOM     30  C   UNL     1       9.650   1.262  -3.626  1.00  0.00     0.000 A 
ENDBRANCH   6  25
ENDBRANCH   3   6
ENDBRANCH   1   2
BRANCH   1  31
ATOM     31  C   UNL     1      11.055   2.647   4.769  1.00  0.00     0.042 C 
BRANCH  31  32
ATOM     32  C   UNL     1      12.340   3.312   5.237  1.00  0.00     0.118 C 
BRANCH  32  33
ATOM     33  N   UNL     1      12.120   4.634   5.801  1.00  0.00    -0.352 N 
ATOM     34  C   UNL     1      12.372   5.117   7.061  1.00  0.00     0.251 C 
ATOM     35  H   UNL     1      11.726   5.288   5.179  1.00  0.00     0.163 HD
ATOM     36  O   UNL     1      11.940   6.220   7.381  1.00  0.00    -0.269 OA
BRANCH  34  37
ATOM     37  C   UNL     1      13.138   4.315   8.041  1.00  0.00     0.039 A 
ATOM     38  C   UNL     1      12.732   4.334   9.378  1.00  0.00     0.014 A 
ATOM     39  C   UNL     1      14.264   3.575   7.668  1.00  0.00     0.014 A 
ATOM     40  C   UNL     1      13.416   3.568  10.323  1.00  0.00     0.010 A 
ATOM     41  C   UNL     1      14.890   2.742   8.592  1.00  0.00     0.010 A 
ATOM     42  C   UNL     1      14.480   2.737   9.932  1.00  0.00    -0.014 A 
BRANCH  42  43
ATOM     43  C   UNL     1      15.156   1.861  10.922  1.00  0.00     0.031 A 
ATOM     44  C   UNL     1      16.608   2.060  11.261  1.00  0.00     0.074 A 
ATOM     45  C   UNL     1      14.462   0.859  11.497  1.00  0.00     0.049 A 
ATOM     46  N   UNL     1      17.352   1.407  12.119  1.00  0.00    -0.248 NA
ATOM     47  C   UNL     1      17.326   3.111  10.525  1.00  0.00     0.031 C 
ATOM     48  C   UNL     1      13.069   0.517  11.202  1.00  0.00     0.029 A 
ATOM     49  N   UNL     1      14.833  -0.053  12.452  1.00  0.00    -0.354 N 
ATOM     50  C   UNL     1      18.622   1.962  12.019  1.00  0.00     0.074 A 
ATOM     51  C   UNL     1      18.563   2.964  10.977  1.00  0.00     0.031 C 
ATOM     52  C   UNL     1      12.691  -0.502  11.989  1.00  0.00     0.029 A 
ATOM     53  C   UNL     1      13.819  -0.904  12.822  1.00  0.00     0.049 A 
ATOM     54  H   UNL     1      15.738  -0.094  12.836  1.00  0.00     0.167 HD
ATOM     55  C   UNL     1      19.730   1.682  12.746  1.00  0.00     0.037 A 
ATOM     56  C   UNL     1      13.799  -1.891  13.737  1.00  0.00     0.037 A 
ATOM     57  C   UNL     1      19.782   0.700  13.797  1.00  0.00     0.049 A 
ATOM     58  C   UNL     1      15.033  -2.164  14.548  1.00  0.00     0.074 A 
ATOM     59  C   UNL     1      20.839   0.385  14.634  1.00  0.00     0.029 A 
ATOM     60  N   UNL     1      18.730  -0.131  14.155  1.00  0.00    -0.354 N 
ATOM     61  N   UNL     1      16.203  -1.575  14.499  1.00  0.00    -0.248 NA
ATOM     62  C   UNL     1      14.938  -3.232  15.553  1.00  0.00     0.031 C 
ATOM     63  C   UNL     1      20.440  -0.664  15.470  1.00  0.00     0.029 A 
ATOM     64  C   UNL     1      19.119  -0.970  15.187  1.00  0.00     0.049 A 
ATOM     65  H   UNL     1      17.838  -0.124  13.737  1.00  0.00     0.167 HD
ATOM     66  C   UNL     1      16.977  -2.185  15.478  1.00  0.00     0.074 A 
ATOM     67  C   UNL     1      16.134  -3.171  16.121  1.00  0.00     0.031 C 
ATOM     68  C   UNL     1      18.270  -1.952  15.812  1.00  0.00     0.037 A 
BRANCH  55  69
ATOM     69  C   UNL     1      20.976   2.459  12.434  1.00  0.00     0.057 A 
ATOM     70  C   UNL     1      21.094   3.821  12.743  1.00  0.00     0.134 A 
ATOM     71  C   UNL     1      22.083   1.834  11.846  1.00  0.00     0.134 A 
ATOM     72  F   UNL     1      20.067   4.484  13.296  1.00  0.00    -0.206 F 
ATOM     73  C   UNL     1      22.257   4.539  12.456  1.00  0.00     0.040 A 
ATOM     74  C   UNL     1      23.261   2.534  11.579  1.00  0.00     0.040 A 
ATOM     75  F   UNL     1      22.041   0.531  11.529  1.00  0.00    -0.206 F 
ATOM     76  C   UNL     1      23.348   3.892  11.878  1.00  0.00     0.006 A 
ENDBRANCH  55  69
BRANCH  56  77
ATOM     77  C   UNL     1      12.554  -2.666  13.964  1.00  0.00     0.057 A 
ATOM     78  C   UNL     1      11.815  -2.516  15.144  1.00  0.00     0.134 A 
ATOM     79  C   UNL     1      12.076  -3.576  13.014  1.00  0.00     0.134 A 
ATOM     80  F   UNL     1      12.233  -1.672  16.099  1.00  0.00    -0.206 F 
ATOM     81  C   UNL     1      10.657  -3.257  15.381  1.00  0.00     0.040 A 
ATOM     82  C   UNL     1      10.905  -4.306  13.227  1.00  0.00     0.040 A 
ATOM     83  F   UNL     1      12.734  -3.759  11.861  1.00  0.00    -0.206 F 
ATOM     84  C   UNL     1      10.197  -4.153  14.417  1.00  0.00     0.006 A 
ENDBRANCH  56  77
BRANCH  68  85
ATOM     85  C   UNL     1      18.836  -2.767  16.938  1.00  0.00     0.057 A 
ATOM     86  C   UNL     1      19.107  -4.135  16.797  1.00  0.00     0.134 A 
ATOM     87  C   UNL     1      19.116  -2.177  18.177  1.00  0.00     0.134 A 
ATOM     88  F   UNL     1      18.849  -4.763  15.639  1.00  0.00    -0.206 F 
ATOM     89  C   UNL     1      19.601  -4.894  17.859  1.00  0.00     0.040 A 
ATOM     90  C   UNL     1      19.637  -2.920  19.237  1.00  0.00     0.040 A 
ATOM     91  F   UNL     1      18.889  -0.870  18.377  1.00  0.00    -0.206 F 
ATOM     92  C   UNL     1      19.871  -4.285  19.083  1.00  0.00     0.006 A 
ENDBRANCH  68  85
ENDBRANCH  42  43
ENDBRANCH  34  37
ENDBRANCH  32  33
ENDBRANCH  31  32
ENDBRANCH   1  31
TORSDOF 15
