REMARK SMILES CC[C@H](NC(=O)N1CCO[C@@H](CC(=O)NCCCNC(=O)c2ccc(-c3c4nc(c(-c5c(F)cccc5F)c5ccc([nH]5)c(-c5c(F)cccc5F)c5nc(c(-c6c(F)cccc6F)c6ccc3[nH]6)C=C5)C=C4)cc2)C1)c1cccs1
REMARK SMILES IDX 16 1 15 2 13 3 14 4 12 6 11 7 7 8 8 9 76 10 9 11 10 12 5 13
REMARK SMILES IDX 4 14 6 16 3 17 2 18 1 19 77 20 78 21 81 22 79 23 80 24 17 25
REMARK SMILES IDX 18 26 19 27 20 28 21 30 22 31 23 32 75 33 24 34 74 35 25 36
REMARK SMILES IDX 26 37 27 38 68 39 28 40 73 41 67 42 69 43 29 44 72 45 66 46
REMARK SMILES IDX 65 47 30 49 56 50 39 51 55 52 40 53 43 54 54 55 70 56 41 57
REMARK SMILES IDX 42 58 53 60 71 61 44 62 31 63 32 64 37 65 33 66 34 67 36 68
REMARK SMILES IDX 38 69 35 70 57 71 58 72 63 73 59 74 60 75 62 76 64 77 61 78
REMARK SMILES IDX 45 79 46 80 51 81 47 82 48 83 50 84 52 85 49 86
REMARK H PARENT 15 5 4 15 19 29 69 48 43 59
REMARK Flexibility Score: inf
ROOT
ATOM      1  C   UNL     1       1.915   5.111  -2.721  1.00  0.00     0.117 C 
ENDROOT
BRANCH   1   2
ATOM      2  N   UNL     1       2.827   4.971  -1.589  1.00  0.00    -0.356 N 
ATOM      3  C   UNL     1       3.979   4.253  -1.433  1.00  0.00     0.222 C 
ATOM      4  O   UNL     1       4.542   4.296  -0.337  1.00  0.00    -0.275 OA
ATOM      5  H   UNL     1       2.564   5.489  -0.794  1.00  0.00     0.163 HD
BRANCH   3   6
ATOM      6  C   UNL     1       4.530   3.385  -2.545  1.00  0.00     0.133 C 
BRANCH   6   7
ATOM      7  C   UNL     1       4.208   1.900  -2.328  1.00  0.00     0.147 C 
ATOM      8  N   UNL     1       2.219   0.345  -2.290  1.00  0.00    -0.320 N 
ATOM      9  C   UNL     1       2.843  -0.408  -3.381  1.00  0.00     0.150 C 
ATOM     10  C   UNL     1       2.695   1.715  -2.220  1.00  0.00     0.154 C 
ATOM     11  C   UNL     1       4.365  -0.229  -3.368  1.00  0.00     0.182 C 
ATOM     12  O   UNL     1       4.723   1.161  -3.455  1.00  0.00    -0.374 OA
BRANCH   8  13
ATOM     13  C   UNL     1       0.956   0.155  -1.796  1.00  0.00     0.318 C 
ATOM     14  N   UNL     1       0.443  -1.062  -1.597  1.00  0.00    -0.330 N 
ATOM     15  H   UNL     1      -0.522  -1.048  -1.403  1.00  0.00     0.166 HD
ATOM     16  O   UNL     1       0.228   1.098  -1.469  1.00  0.00    -0.249 OA
BRANCH  14  17
ATOM     17  C   UNL     1       0.999  -2.397  -1.605  1.00  0.00     0.124 C 
BRANCH  17  18
ATOM     18  C   UNL     1       0.611  -3.128  -0.306  1.00  0.00     0.027 C 
ATOM     19  C   UNL     1       1.226  -2.469   0.927  1.00  0.00     0.006 C 
ENDBRANCH  17  18
BRANCH  17  20
ATOM     20  C   UNL     1       0.516  -3.140  -2.841  1.00  0.00     0.027 A 
ATOM     21  C   UNL     1       0.919  -4.391  -3.277  1.00  0.00     0.017 A 
ATOM     22  S   UNL     1      -0.619  -2.458  -3.948  1.00  0.00    -0.147 S 
ATOM     23  C   UNL     1       0.337  -4.758  -4.526  1.00  0.00     0.012 A 
ATOM     24  C   UNL     1      -0.500  -3.782  -5.012  1.00  0.00     0.065 A 
ENDBRANCH  17  20
ENDBRANCH  14  17
ENDBRANCH   8  13
ENDBRANCH   6   7
ENDBRANCH   3   6
ENDBRANCH   1   2
BRANCH   1  25
ATOM     25  C   UNL     1       0.590   4.371  -2.520  1.00  0.00     0.042 C 
BRANCH  25  26
ATOM     26  C   UNL     1      -0.355   4.974  -1.490  1.00  0.00     0.118 C 
BRANCH  26  27
ATOM     27  N   UNL     1      -1.272   5.925  -2.094  1.00  0.00    -0.352 N 
ATOM     28  C   UNL     1      -2.622   5.842  -2.334  1.00  0.00     0.251 C 
ATOM     29  H   UNL     1      -0.856   6.770  -2.378  1.00  0.00     0.163 HD
ATOM     30  O   UNL     1      -3.128   6.676  -3.085  1.00  0.00    -0.269 OA
BRANCH  28  31
ATOM     31  C   UNL     1      -3.493   4.799  -1.725  1.00  0.00     0.039 A 
ATOM     32  C   UNL     1      -4.628   4.392  -2.439  1.00  0.00     0.014 A 
ATOM     33  C   UNL     1      -3.298   4.300  -0.434  1.00  0.00     0.014 A 
ATOM     34  C   UNL     1      -5.545   3.496  -1.875  1.00  0.00     0.010 A 
ATOM     35  C   UNL     1      -4.169   3.342   0.098  1.00  0.00     0.010 A 
ATOM     36  C   UNL     1      -5.323   2.955  -0.600  1.00  0.00    -0.014 A 
BRANCH  36  37
ATOM     37  C   UNL     1      -6.322   2.048   0.032  1.00  0.00     0.031 A 
ATOM     38  C   UNL     1      -7.057   2.474   1.279  1.00  0.00     0.074 A 
ATOM     39  C   UNL     1      -6.570   0.834  -0.498  1.00  0.00     0.049 A 
ATOM     40  N   UNL     1      -7.953   1.822   1.980  1.00  0.00    -0.248 NA
ATOM     41  C   UNL     1      -6.724   3.799   1.825  1.00  0.00     0.031 C 
ATOM     42  C   UNL     1      -5.909   0.273  -1.676  1.00  0.00     0.029 A 
ATOM     43  N   UNL     1      -7.451  -0.148  -0.112  1.00  0.00    -0.354 N 
ATOM     44  C   UNL     1      -8.272   2.647   3.053  1.00  0.00     0.074 A 
ATOM     45  C   UNL     1      -7.439   3.824   2.939  1.00  0.00     0.031 C 
ATOM     46  C   UNL     1      -6.426  -0.939  -1.935  1.00  0.00     0.029 A 
ATOM     47  C   UNL     1      -7.435  -1.254  -0.927  1.00  0.00     0.049 A 
ATOM     48  H   UNL     1      -8.037  -0.067   0.674  1.00  0.00     0.167 HD
ATOM     49  C   UNL     1      -9.190   2.458   4.031  1.00  0.00     0.037 A 
ATOM     50  C   UNL     1      -8.155  -2.391  -0.873  1.00  0.00     0.037 A 
ATOM     51  C   UNL     1     -10.050   1.308   4.131  1.00  0.00     0.049 A 
ATOM     52  C   UNL     1      -9.185  -2.570   0.209  1.00  0.00     0.074 A 
ATOM     53  C   UNL     1     -11.047   1.053   5.056  1.00  0.00     0.029 A 
ATOM     54  N   UNL     1     -10.017   0.222   3.270  1.00  0.00    -0.354 N 
ATOM     55  N   UNL     1      -9.513  -1.755   1.182  1.00  0.00    -0.248 NA
ATOM     56  C   UNL     1      -9.953  -3.824   0.192  1.00  0.00     0.031 C 
ATOM     57  C   UNL     1     -11.597  -0.203   4.775  1.00  0.00     0.029 A 
ATOM     58  C   UNL     1     -10.969  -0.711   3.649  1.00  0.00     0.049 A 
ATOM     59  H   UNL     1      -9.408   0.127   2.503  1.00  0.00     0.167 HD
ATOM     60  C   UNL     1     -10.542  -2.382   1.873  1.00  0.00     0.074 A 
ATOM     61  C   UNL     1     -10.793  -3.640   1.201  1.00  0.00     0.031 C 
ATOM     62  C   UNL     1     -11.219  -1.953   2.966  1.00  0.00     0.037 A 
BRANCH  49  63
ATOM     63  C   UNL     1      -9.317   3.531   5.075  1.00  0.00     0.057 A 
ATOM     64  C   UNL     1      -9.880   4.780   4.784  1.00  0.00     0.134 A 
ATOM     65  C   UNL     1      -8.897   3.303   6.391  1.00  0.00     0.134 A 
ATOM     66  F   UNL     1     -10.294   5.067   3.540  1.00  0.00    -0.206 F 
ATOM     67  C   UNL     1      -9.993   5.776   5.756  1.00  0.00     0.040 A 
ATOM     68  C   UNL     1      -9.029   4.281   7.379  1.00  0.00     0.040 A 
ATOM     69  F   UNL     1      -8.357   2.126   6.741  1.00  0.00    -0.206 F 
ATOM     70  C   UNL     1      -9.571   5.524   7.060  1.00  0.00     0.006 A 
ENDBRANCH  49  63
BRANCH  50  71
ATOM     71  C   UNL     1      -7.957  -3.442  -1.902  1.00  0.00     0.057 A 
ATOM     72  C   UNL     1      -8.930  -3.687  -2.879  1.00  0.00     0.134 A 
ATOM     73  C   UNL     1      -6.801  -4.231  -1.930  1.00  0.00     0.134 A 
ATOM     74  F   UNL     1     -10.068  -2.978  -2.890  1.00  0.00    -0.206 F 
ATOM     75  C   UNL     1      -8.769  -4.690  -3.836  1.00  0.00     0.040 A 
ATOM     76  C   UNL     1      -6.617  -5.221  -2.896  1.00  0.00     0.040 A 
ATOM     77  F   UNL     1      -5.832  -4.043  -1.023  1.00  0.00    -0.206 F 
ATOM     78  C   UNL     1      -7.606  -5.457  -3.849  1.00  0.00     0.006 A 
ENDBRANCH  50  71
BRANCH  62  79
ATOM     79  C   UNL     1     -12.322  -2.831   3.480  1.00  0.00     0.057 A 
ATOM     80  C   UNL     1     -12.061  -4.029   4.156  1.00  0.00     0.134 A 
ATOM     81  C   UNL     1     -13.662  -2.455   3.322  1.00  0.00     0.134 A 
ATOM     82  F   UNL     1     -10.799  -4.451   4.329  1.00  0.00    -0.206 F 
ATOM     83  C   UNL     1     -13.095  -4.836   4.635  1.00  0.00     0.040 A 
ATOM     84  C   UNL     1     -14.703  -3.241   3.817  1.00  0.00     0.040 A 
ATOM     85  F   UNL     1     -13.980  -1.315   2.691  1.00  0.00    -0.206 F 
ATOM     86  C   UNL     1     -14.421  -4.439   4.471  1.00  0.00     0.006 A 
ENDBRANCH  62  79
ENDBRANCH  36  37
ENDBRANCH  28  31
ENDBRANCH  26  27
ENDBRANCH  25  26
ENDBRANCH   1  25
TORSDOF 15
