REMARK SMILES CC(=O)N1C[C@@H]2C[N@H+](CC(=O)NCc3ccccc3)C[C@]2(C(=O)NCCCNC(=O)c2ccc(-c3c4nc(c(-c5c(F)cccc5F)c5ccc([nH]5)c(-c5c(F)cccc5F)c5nc(c(-c6c(F)cccc6F)c6ccc3[nH]6)C=C5)C=C4)cc2)C1
REMARK SMILES IDX 25 1 24 2 22 3 23 4 21 6 4 7 5 8 85 9 6 10 7 11 20 12 8 13
REMARK SMILES IDX 2 15 1 16 3 17 9 18 10 19 11 20 12 21 13 23 14 24 15 25
REMARK SMILES IDX 19 26 16 27 18 28 17 29 26 30 27 31 28 32 29 33 30 35 31 36
REMARK SMILES IDX 32 37 84 38 33 39 83 40 34 41 35 42 36 43 77 44 37 45 82 46
REMARK SMILES IDX 76 47 78 48 38 49 81 50 75 51 74 52 39 54 65 55 48 56 64 57
REMARK SMILES IDX 49 58 52 59 63 60 79 61 50 62 51 63 62 65 80 66 53 67 40 68
REMARK SMILES IDX 41 69 46 70 42 71 43 72 45 73 47 74 44 75 66 76 67 77 72 78
REMARK SMILES IDX 68 79 69 80 71 81 73 82 70 83 54 84 55 85 60 86 56 87 57 88
REMARK SMILES IDX 59 89 61 90 58 91
REMARK H PARENT 24 5 8 14 12 22 28 34 78 53 52 64
REMARK Flexibility Score: inf
ROOT
ATOM      1  C   UNL     1       4.697   0.221   5.856  1.00  0.00     0.117 C 
ENDROOT
BRANCH   1   2
ATOM      2  N   UNL     1       4.516  -1.142   5.351  1.00  0.00    -0.355 N 
ATOM      3  C   UNL     1       3.372  -1.828   4.946  1.00  0.00     0.234 C 
ATOM      4  O   UNL     1       3.526  -3.012   4.642  1.00  0.00    -0.274 OA
ATOM      5  H   UNL     1       5.347  -1.665   5.286  1.00  0.00     0.163 HD
BRANCH   3   6
ATOM      6  C   UNL     1       1.971  -1.093   4.923  1.00  0.00     0.125 C 
ATOM      7  N   UNL     1       0.336  -1.151   2.965  1.00  0.00    -0.341 N 
ATOM      8  C   UNL     1      -0.541  -1.213   4.065  1.00  0.00     0.130 C 
ATOM      9  C   UNL     1       1.665  -1.542   3.412  1.00  0.00     0.143 C 
ATOM     10  C   UNL     1       0.373  -1.589   5.212  1.00  0.00     0.087 C 
ATOM     11  C   UNL     1      -0.195  -0.869   6.450  1.00  0.00     0.269 C 
ATOM     12  C   UNL     1       1.995  -1.085   6.484  1.00  0.00     0.282 C 
ATOM     13  N   UNL     1       0.966  -0.189   6.973  1.00  0.00    -0.326 N 
ATOM     14  H   UNL     1       0.922  -0.049   7.983  1.00  0.00     0.348 HD
BRANCH   7  15
ATOM     15  C   UNL     1       0.045  -0.289   1.929  1.00  0.00     0.219 C 
ATOM     16  C   UNL     1       0.117  -0.878   0.550  1.00  0.00     0.114 C 
ATOM     17  O   UNL     1      -0.400   0.848   2.094  1.00  0.00    -0.275 OA
ENDBRANCH   7  15
BRANCH  13  18
ATOM     18  C   UNL     1       1.169   1.246   6.572  1.00  0.00     0.363 C 
BRANCH  18  19
ATOM     19  C   UNL     1       0.660   1.685   5.188  1.00  0.00     0.275 C 
ATOM     20  O   UNL     1      -0.554   1.903   5.064  1.00  0.00    -0.268 OA
ATOM     21  N   UNL     1       1.407   1.818   4.055  1.00  0.00    -0.347 N 
ATOM     22  H   UNL     1       0.881   1.600   3.251  1.00  0.00     0.164 HD
BRANCH  21  23
ATOM     23  C   UNL     1       2.784   2.200   3.706  1.00  0.00     0.151 C 
BRANCH  23  24
ATOM     24  C   UNL     1       3.369   1.420   2.527  1.00  0.00    -0.029 A 
ATOM     25  C   UNL     1       2.708   1.358   1.296  1.00  0.00     0.005 A 
ATOM     26  C   UNL     1       4.598   0.745   2.588  1.00  0.00     0.005 A 
ATOM     27  C   UNL     1       3.172   0.534   0.254  1.00  0.00     0.000 A 
ATOM     28  C   UNL     1       5.041  -0.122   1.580  1.00  0.00     0.000 A 
ATOM     29  C   UNL     1       4.308  -0.250   0.416  1.00  0.00     0.000 A 
ENDBRANCH  23  24
ENDBRANCH  21  23
ENDBRANCH  18  19
ENDBRANCH  13  18
ENDBRANCH   3   6
ENDBRANCH   1   2
BRANCH   1  30
ATOM     30  C   UNL     1       5.202   0.364   7.288  1.00  0.00     0.042 C 
BRANCH  30  31
ATOM     31  C   UNL     1       6.388   1.325   7.372  1.00  0.00     0.118 C 
BRANCH  31  32
ATOM     32  N   UNL     1       6.100   2.710   6.989  1.00  0.00    -0.352 N 
ATOM     33  C   UNL     1       6.619   3.875   7.520  1.00  0.00     0.251 C 
ATOM     34  H   UNL     1       5.452   2.825   6.257  1.00  0.00     0.163 HD
ATOM     35  O   UNL     1       6.250   4.969   7.101  1.00  0.00    -0.269 OA
BRANCH  33  36
ATOM     36  C   UNL     1       7.584   3.791   8.637  1.00  0.00     0.039 A 
ATOM     37  C   UNL     1       7.383   4.566   9.781  1.00  0.00     0.014 A 
ATOM     38  C   UNL     1       8.620   2.860   8.590  1.00  0.00     0.014 A 
ATOM     39  C   UNL     1       8.151   4.317  10.922  1.00  0.00     0.010 A 
ATOM     40  C   UNL     1       9.288   2.526   9.759  1.00  0.00     0.010 A 
ATOM     41  C   UNL     1       9.065   3.251  10.939  1.00  0.00    -0.014 A 
BRANCH  41  42
ATOM     42  C   UNL     1       9.812   2.872  12.166  1.00  0.00     0.031 A 
ATOM     43  C   UNL     1      11.317   2.849  12.143  1.00  0.00     0.074 A 
ATOM     44  C   UNL     1       9.144   2.453  13.260  1.00  0.00     0.049 A 
ATOM     45  N   UNL     1      12.154   2.436  13.060  1.00  0.00    -0.248 NA
ATOM     46  C   UNL     1      11.968   3.300  10.901  1.00  0.00     0.031 C 
ATOM     47  C   UNL     1       7.687   2.347  13.381  1.00  0.00     0.029 A 
ATOM     48  N   UNL     1       9.605   2.027  14.480  1.00  0.00    -0.354 N 
ATOM     49  C   UNL     1      13.417   2.546  12.492  1.00  0.00     0.074 A 
ATOM     50  C   UNL     1      13.234   2.987  11.128  1.00  0.00     0.031 C 
ATOM     51  C   UNL     1       7.376   1.928  14.618  1.00  0.00     0.029 A 
ATOM     52  C   UNL     1       8.607   1.699  15.366  1.00  0.00     0.049 A 
ATOM     53  H   UNL     1      10.563   1.963  14.701  1.00  0.00     0.167 HD
ATOM     54  C   UNL     1      14.626   2.337  13.064  1.00  0.00     0.037 A 
ATOM     55  C   UNL     1       8.680   1.268  16.640  1.00  0.00     0.037 A 
ATOM     56  C   UNL     1      14.804   1.960  14.439  1.00  0.00     0.049 A 
ATOM     57  C   UNL     1      10.033   1.095  17.272  1.00  0.00     0.074 A 
ATOM     58  C   UNL     1      15.983   1.804  15.146  1.00  0.00     0.029 A 
ATOM     59  N   UNL     1      13.767   1.694  15.321  1.00  0.00    -0.354 N 
ATOM     60  N   UNL     1      11.221   1.276  16.745  1.00  0.00    -0.248 NA
ATOM     61  C   UNL     1      10.058   0.668  18.678  1.00  0.00     0.031 C 
ATOM     62  C   UNL     1      15.659   1.410  16.448  1.00  0.00     0.029 A 
ATOM     63  C   UNL     1      14.278   1.363  16.564  1.00  0.00     0.049 A 
ATOM     64  H   UNL     1      12.809   1.734  15.096  1.00  0.00     0.167 HD
ATOM     65  C   UNL     1      12.131   1.012  17.760  1.00  0.00     0.074 A 
ATOM     66  C   UNL     1      11.357   0.676  18.938  1.00  0.00     0.031 C 
ATOM     67  C   UNL     1      13.486   1.043  17.723  1.00  0.00     0.037 A 
BRANCH  54  68
ATOM     68  C   UNL     1      15.841   2.540  12.205  1.00  0.00     0.057 A 
ATOM     69  C   UNL     1      16.219   3.810  11.746  1.00  0.00     0.134 A 
ATOM     70  C   UNL     1      16.648   1.457  11.838  1.00  0.00     0.134 A 
ATOM     71  F   UNL     1      15.480   4.889  12.047  1.00  0.00    -0.206 F 
ATOM     72  C   UNL     1      17.333   3.990  10.925  1.00  0.00     0.040 A 
ATOM     73  C   UNL     1      17.783   1.629  11.043  1.00  0.00     0.040 A 
ATOM     74  F   UNL     1      16.348   0.214  12.243  1.00  0.00    -0.206 F 
ATOM     75  C   UNL     1      18.123   2.897  10.576  1.00  0.00     0.006 A 
ENDBRANCH  54  68
BRANCH  55  76
ATOM     76  C   UNL     1       7.439   1.018  17.418  1.00  0.00     0.057 A 
ATOM     77  C   UNL     1       7.066   1.866  18.468  1.00  0.00     0.134 A 
ATOM     78  C   UNL     1       6.602  -0.069  17.142  1.00  0.00     0.134 A 
ATOM     79  F   UNL     1       7.835   2.916  18.793  1.00  0.00    -0.206 F 
ATOM     80  C   UNL     1       5.919   1.631  19.229  1.00  0.00     0.040 A 
ATOM     81  C   UNL     1       5.438  -0.302  17.878  1.00  0.00     0.040 A 
ATOM     82  F   UNL     1       6.896  -0.914  16.142  1.00  0.00    -0.206 F 
ATOM     83  C   UNL     1       5.099   0.545  18.931  1.00  0.00     0.006 A 
ENDBRANCH  55  76
BRANCH  67  84
ATOM     84  C   UNL     1      14.211   0.739  18.999  1.00  0.00     0.057 A 
ATOM     85  C   UNL     1      14.279  -0.559  19.519  1.00  0.00     0.134 A 
ATOM     86  C   UNL     1      14.883   1.753  19.693  1.00  0.00     0.134 A 
ATOM     87  F   UNL     1      13.647  -1.571  18.906  1.00  0.00    -0.206 F 
ATOM     88  C   UNL     1      14.971  -0.834  20.700  1.00  0.00     0.040 A 
ATOM     89  C   UNL     1      15.600   1.486  20.859  1.00  0.00     0.040 A 
ATOM     90  F   UNL     1      14.866   3.016  19.241  1.00  0.00    -0.206 F 
ATOM     91  C   UNL     1      15.639   0.190  21.369  1.00  0.00     0.006 A 
ENDBRANCH  67  84
ENDBRANCH  41  42
ENDBRANCH  33  36
ENDBRANCH  31  32
ENDBRANCH  30  31
ENDBRANCH   1  30
TORSDOF 15
