REMARK SMILES CCC[C@@H](C[NH2+]C(C)C)C(=O)NCCCNC(=O)c1ccc(-c2c3nc(c(-c4c(F)cccc4F)c4ccc([nH]4)c(-c4c(F)cccc4F)c4nc(c(-c5c(F)cccc5F)c5ccc2[nH]5)C=C4)C=C3)cc1
REMARK SMILES IDX 13 1 12 2 10 3 11 4 4 6 3 7 2 8 1 9 5 10 6 11 7 14 8 15 9 16
REMARK SMILES IDX 14 17 15 18 16 19 17 20 18 22 19 23 20 24 72 25 21 26 71 27
REMARK SMILES IDX 22 28 23 29 24 30 65 31 25 32 70 33 64 34 66 35 26 36 69 37
REMARK SMILES IDX 63 38 62 39 27 41 53 42 36 43 52 44 37 45 40 46 51 47 67 48
REMARK SMILES IDX 38 49 39 50 50 52 68 53 41 54 28 55 29 56 34 57 30 58 31 59
REMARK SMILES IDX 33 60 35 61 32 62 54 63 55 64 60 65 56 66 57 67 59 68 61 69
REMARK SMILES IDX 58 70 42 71 43 72 48 73 44 74 45 75 47 76 49 77 46 78
REMARK H PARENT 12 5 6 12 6 13 16 21 66 40 40 51
REMARK Flexibility Score: inf
ROOT
ATOM      1  C   UNL     1      -0.071  -3.427  -4.079  1.00  0.00     0.117 C 
ENDROOT
BRANCH   1   2
ATOM      2  N   UNL     1       0.714  -4.078  -3.048  1.00  0.00    -0.356 N 
ATOM      3  C   UNL     1       0.867  -3.770  -1.733  1.00  0.00     0.228 C 
ATOM      4  O   UNL     1       1.511  -4.567  -1.044  1.00  0.00    -0.275 OA
ATOM      5  H   UNL     1       1.217  -4.869  -3.349  1.00  0.00     0.163 HD
BRANCH   3   6
ATOM      6  C   UNL     1       0.299  -2.496  -1.104  1.00  0.00     0.133 C 
BRANCH   6   7
ATOM      7  C   UNL     1       0.949  -1.231  -1.697  1.00  0.00     0.019 C 
BRANCH   7   8
ATOM      8  C   UNL     1       0.533   0.095  -1.057  1.00  0.00    -0.002 C 
ATOM      9  C   UNL     1       0.971   0.234   0.390  1.00  0.00     0.004 C 
ENDBRANCH   7   8
ENDBRANCH   6   7
BRANCH   6  10
ATOM     10  C   UNL     1      -1.241  -2.541  -0.968  1.00  0.00     0.274 C 
BRANCH  10  11
ATOM     11  N   UNL     1      -1.970  -2.103  -2.155  1.00  0.00    -0.344 N 
ATOM     12  H   UNL     1      -1.561  -2.566  -2.966  1.00  0.00     0.346 HD
ATOM     13  H   UNL     1      -1.884  -1.087  -2.181  1.00  0.00     0.346 HD
BRANCH  11  14
ATOM     14  C   UNL     1      -3.402  -2.390  -2.143  1.00  0.00     0.176 C 
ATOM     15  C   UNL     1      -4.180  -1.198  -1.595  1.00  0.00     0.075 C 
ATOM     16  C   UNL     1      -3.817  -2.676  -3.589  1.00  0.00     0.075 C 
ENDBRANCH  11  14
ENDBRANCH  10  11
ENDBRANCH   6  10
ENDBRANCH   3   6
ENDBRANCH   1   2
BRANCH   1  17
ATOM     17  C   UNL     1       0.721  -3.142  -5.340  1.00  0.00     0.042 C 
BRANCH  17  18
ATOM     18  C   UNL     1       1.086  -4.396  -6.109  1.00  0.00     0.118 C 
BRANCH  18  19
ATOM     19  N   UNL     1      -0.077  -5.056  -6.693  1.00  0.00    -0.352 N 
ATOM     20  C   UNL     1      -0.501  -5.126  -8.001  1.00  0.00     0.251 C 
ATOM     21  H   UNL     1      -0.651  -5.528  -6.048  1.00  0.00     0.163 HD
ATOM     22  O   UNL     1      -1.612  -5.568  -8.264  1.00  0.00    -0.269 OA
BRANCH  20  23
ATOM     23  C   UNL     1       0.375  -4.638  -9.087  1.00  0.00     0.039 A 
ATOM     24  C   UNL     1      -0.177  -3.897 -10.134  1.00  0.00     0.014 A 
ATOM     25  C   UNL     1       1.744  -4.901  -9.064  1.00  0.00     0.014 A 
ATOM     26  C   UNL     1       0.661  -3.342 -11.106  1.00  0.00     0.010 A 
ATOM     27  C   UNL     1       2.585  -4.250  -9.954  1.00  0.00     0.010 A 
ATOM     28  C   UNL     1       2.054  -3.471 -10.993  1.00  0.00    -0.014 A 
BRANCH  28  29
ATOM     29  C   UNL     1       2.992  -2.842 -11.956  1.00  0.00     0.031 A 
ATOM     30  C   UNL     1       3.949  -3.710 -12.728  1.00  0.00     0.074 A 
ATOM     31  C   UNL     1       3.057  -1.500 -12.060  1.00  0.00     0.049 A 
ATOM     32  N   UNL     1       4.964  -3.363 -13.477  1.00  0.00    -0.248 NA
ATOM     33  C   UNL     1       3.766  -5.166 -12.603  1.00  0.00     0.031 C 
ATOM     34  C   UNL     1       2.216  -0.547 -11.335  1.00  0.00     0.029 A 
ATOM     35  N   UNL     1       3.888  -0.704 -12.808  1.00  0.00    -0.354 N 
ATOM     36  C   UNL     1       5.556  -4.553 -13.881  1.00  0.00     0.074 A 
ATOM     37  C   UNL     1       4.826  -5.629 -13.247  1.00  0.00     0.031 C 
ATOM     38  C   UNL     1       2.557   0.702 -11.691  1.00  0.00     0.029 A 
ATOM     39  C   UNL     1       3.671   0.641 -12.631  1.00  0.00     0.049 A 
ATOM     40  H   UNL     1       4.575  -1.063 -13.415  1.00  0.00     0.167 HD
ATOM     41  C   UNL     1       6.595  -4.738 -14.729  1.00  0.00     0.037 A 
ATOM     42  C   UNL     1       4.309   1.703 -13.157  1.00  0.00     0.037 A 
ATOM     43  C   UNL     1       7.287  -3.668 -15.395  1.00  0.00     0.049 A 
ATOM     44  C   UNL     1       5.459   1.473 -14.100  1.00  0.00     0.074 A 
ATOM     45  C   UNL     1       8.317  -3.748 -16.315  1.00  0.00     0.029 A 
ATOM     46  N   UNL     1       7.008  -2.322 -15.219  1.00  0.00    -0.354 N 
ATOM     47  N   UNL     1       5.979   0.341 -14.509  1.00  0.00    -0.248 NA
ATOM     48  C   UNL     1       6.109   2.668 -14.655  1.00  0.00     0.031 C 
ATOM     49  C   UNL     1       8.682  -2.447 -16.674  1.00  0.00     0.029 A 
ATOM     50  C   UNL     1       7.852  -1.559 -16.008  1.00  0.00     0.049 A 
ATOM     51  H   UNL     1       6.313  -1.961 -14.622  1.00  0.00     0.167 HD
ATOM     52  C   UNL     1       6.992   0.686 -15.394  1.00  0.00     0.074 A 
ATOM     53  C   UNL     1       7.009   2.132 -15.468  1.00  0.00     0.031 C 
ATOM     54  C   UNL     1       7.833  -0.121 -16.084  1.00  0.00     0.037 A 
BRANCH  41  55
ATOM     55  C   UNL     1       7.029  -6.150 -14.992  1.00  0.00     0.057 A 
ATOM     56  C   UNL     1       6.233  -7.041 -15.726  1.00  0.00     0.134 A 
ATOM     57  C   UNL     1       8.261  -6.621 -14.524  1.00  0.00     0.134 A 
ATOM     58  F   UNL     1       5.034  -6.657 -16.190  1.00  0.00    -0.206 F 
ATOM     59  C   UNL     1       6.634  -8.357 -15.959  1.00  0.00     0.040 A 
ATOM     60  C   UNL     1       8.686  -7.927 -14.776  1.00  0.00     0.040 A 
ATOM     61  F   UNL     1       9.074  -5.821 -13.819  1.00  0.00    -0.206 F 
ATOM     62  C   UNL     1       7.867  -8.802 -15.488  1.00  0.00     0.006 A 
ENDBRANCH  41  55
BRANCH  42  63
ATOM     63  C   UNL     1       3.866   3.081 -12.829  1.00  0.00     0.057 A 
ATOM     64  C   UNL     1       3.241   3.882 -13.792  1.00  0.00     0.134 A 
ATOM     65  C   UNL     1       4.066   3.638 -11.560  1.00  0.00     0.134 A 
ATOM     66  F   UNL     1       3.037   3.412 -15.031  1.00  0.00    -0.206 F 
ATOM     67  C   UNL     1       2.853   5.194 -13.514  1.00  0.00     0.040 A 
ATOM     68  C   UNL     1       3.661   4.939 -11.261  1.00  0.00     0.040 A 
ATOM     69  F   UNL     1       4.652   2.920 -10.590  1.00  0.00    -0.206 F 
ATOM     70  C   UNL     1       3.059   5.725 -12.243  1.00  0.00     0.006 A 
ENDBRANCH  42  63
BRANCH  54  71
ATOM     71  C   UNL     1       8.804   0.534 -17.019  1.00  0.00     0.057 A 
ATOM     72  C   UNL     1       9.935   1.215 -16.554  1.00  0.00     0.134 A 
ATOM     73  C   UNL     1       8.633   0.430 -18.406  1.00  0.00     0.134 A 
ATOM     74  F   UNL     1      10.148   1.359 -15.237  1.00  0.00    -0.206 F 
ATOM     75  C   UNL     1      10.854   1.785 -17.436  1.00  0.00     0.040 A 
ATOM     76  C   UNL     1       9.557   0.974 -19.297  1.00  0.00     0.040 A 
ATOM     77  F   UNL     1       7.574  -0.218 -18.914  1.00  0.00    -0.206 F 
ATOM     78  C   UNL     1      10.671   1.657 -18.812  1.00  0.00     0.006 A 
ENDBRANCH  54  71
ENDBRANCH  28  29
ENDBRANCH  20  23
ENDBRANCH  18  19
ENDBRANCH  17  18
ENDBRANCH   1  17
TORSDOF 15
