REMARK SMILES O=C(NCCCNC(=O)c1cccc([C@@H]2CCC[N@@H+](Cc3cccc(OCCO)c3)C2)c1)c1ccc(-c2c3nc(c(-c4c(F)cccc4F)c4ccc([nH]4)c(-c4c(F)cccc4F)c4nc(c(-c5c(F)cccc5F)c5ccc2[nH]5)C=C4)C=C3)cc1
REMARK SMILES IDX 10 1 11 2 12 3 13 4 14 5 32 6 8 7 7 8 9 10 6 11 5 12 4 13
REMARK SMILES IDX 3 14 1 15 2 16 33 18 34 19 86 20 35 21 85 22 36 23 37 24
REMARK SMILES IDX 38 25 79 26 39 27 84 28 78 29 80 30 40 31 83 32 77 33 76 34
REMARK SMILES IDX 41 36 67 37 50 38 66 39 51 40 54 41 65 42 81 43 52 44 53 45
REMARK SMILES IDX 64 47 82 48 55 49 42 50 43 51 48 52 44 53 45 54 47 55 49 56
REMARK SMILES IDX 46 57 68 58 69 59 74 60 70 61 71 62 73 63 75 64 72 65 56 66
REMARK SMILES IDX 57 67 62 68 58 69 59 70 61 71 63 72 60 73 15 74 16 75 31 76
REMARK SMILES IDX 17 77 19 78 18 79 20 81 21 82 22 83 30 84 23 85 25 86 24 87
REMARK SMILES IDX 26 88 27 89 28 90 29 91
REMARK H PARENT 7 9 3 17 80 35 54 46 19 80 29 92
REMARK Flexibility Score: inf
ROOT
ATOM      1  C   UNL     1       6.597   5.773   1.945  1.00  0.00     0.040 A 
ATOM      2  C   UNL     1       7.848   6.291   1.623  1.00  0.00     0.014 A 
ATOM      3  C   UNL     1       7.926   7.379   0.755  1.00  0.00     0.001 A 
ATOM      4  C   UNL     1       6.762   7.915   0.188  1.00  0.00     0.004 A 
ATOM      5  C   UNL     1       5.496   7.409   0.525  1.00  0.00    -0.039 A 
ATOM      6  C   UNL     1       5.435   6.387   1.472  1.00  0.00     0.018 A 
ENDROOT
BRANCH   1   7
ATOM      7  C   UNL     1       6.494   4.507   2.703  1.00  0.00     0.251 C 
ATOM      8  N   UNL     1       5.669   3.508   2.235  1.00  0.00    -0.352 N 
ATOM      9  H   UNL     1       5.573   2.723   2.821  1.00  0.00     0.163 HD
ATOM     10  O   UNL     1       7.155   4.339   3.722  1.00  0.00    -0.269 OA
BRANCH   8  11
ATOM     11  C   UNL     1       4.917   3.459   0.985  1.00  0.00     0.118 C 
BRANCH  11  12
ATOM     12  C   UNL     1       5.201   2.219   0.165  1.00  0.00     0.042 C 
BRANCH  12  13
ATOM     13  C   UNL     1       4.637   0.958   0.782  1.00  0.00     0.118 C 
BRANCH  13  14
ATOM     14  N   UNL     1       3.190   0.851   0.633  1.00  0.00    -0.352 N 
ATOM     15  O   UNL     1       1.238   0.093  -0.201  1.00  0.00    -0.269 OA
ATOM     16  C   UNL     1       2.441  -0.076  -0.057  1.00  0.00     0.251 C 
ATOM     17  H   UNL     1       2.670   1.547   1.096  1.00  0.00     0.163 HD
BRANCH  16  18
ATOM     18  C   UNL     1       3.101  -1.265  -0.647  1.00  0.00     0.039 A 
ATOM     19  C   UNL     1       4.112  -1.933   0.044  1.00  0.00     0.014 A 
ATOM     20  C   UNL     1       2.703  -1.722  -1.907  1.00  0.00     0.014 A 
ATOM     21  C   UNL     1       4.849  -2.921  -0.590  1.00  0.00     0.010 A 
ATOM     22  C   UNL     1       3.361  -2.809  -2.494  1.00  0.00     0.010 A 
ATOM     23  C   UNL     1       4.458  -3.401  -1.849  1.00  0.00    -0.014 A 
BRANCH  23  24
ATOM     24  C   UNL     1       5.145  -4.597  -2.395  1.00  0.00     0.031 A 
ATOM     25  C   UNL     1       5.926  -4.547  -3.677  1.00  0.00     0.074 A 
ATOM     26  C   UNL     1       5.076  -5.740  -1.683  1.00  0.00     0.049 A 
ATOM     27  N   UNL     1       6.587  -5.510  -4.270  1.00  0.00    -0.248 NA
ATOM     28  C   UNL     1       5.969  -3.263  -4.392  1.00  0.00     0.031 C 
ATOM     29  C   UNL     1       4.330  -5.908  -0.430  1.00  0.00     0.029 A 
ATOM     30  N   UNL     1       5.651  -6.967  -1.888  1.00  0.00    -0.354 N 
ATOM     31  C   UNL     1       7.102  -4.958  -5.436  1.00  0.00     0.074 A 
ATOM     32  C   UNL     1       6.670  -3.578  -5.475  1.00  0.00     0.031 C 
ATOM     33  C   UNL     1       4.533  -7.143   0.045  1.00  0.00     0.029 A 
ATOM     34  C   UNL     1       5.355  -7.880  -0.905  1.00  0.00     0.049 A 
ATOM     35  H   UNL     1       6.220  -7.174  -2.664  1.00  0.00     0.167 HD
ATOM     36  C   UNL     1       7.867  -5.556  -6.380  1.00  0.00     0.037 A 
ATOM     37  C   UNL     1       5.679  -9.180  -0.792  1.00  0.00     0.037 A 
ATOM     38  C   UNL     1       8.316  -6.924  -6.315  1.00  0.00     0.049 A 
ATOM     39  C   UNL     1       6.510  -9.813  -1.866  1.00  0.00     0.074 A 
ATOM     40  C   UNL     1       9.149  -7.599  -7.192  1.00  0.00     0.029 A 
ATOM     41  N   UNL     1       7.966  -7.827  -5.323  1.00  0.00    -0.354 N 
ATOM     42  N   UNL     1       7.028  -9.264  -2.938  1.00  0.00    -0.248 NA
ATOM     43  C   UNL     1       6.792 -11.247  -1.724  1.00  0.00     0.031 C 
ATOM     44  C   UNL     1       9.263  -8.923  -6.757  1.00  0.00     0.029 A 
ATOM     45  C   UNL     1       8.537  -9.063  -5.586  1.00  0.00     0.049 A 
ATOM     46  H   UNL     1       7.396  -7.622  -4.547  1.00  0.00     0.167 HD
ATOM     47  C   UNL     1       7.699 -10.283  -3.596  1.00  0.00     0.074 A 
ATOM     48  C   UNL     1       7.551 -11.475  -2.786  1.00  0.00     0.031 C 
ATOM     49  C   UNL     1       8.370 -10.238  -4.772  1.00  0.00     0.037 A 
BRANCH  36  50
ATOM     50  C   UNL     1       8.265  -4.753  -7.583  1.00  0.00     0.057 A 
ATOM     51  C   UNL     1       9.264  -3.774  -7.524  1.00  0.00     0.134 A 
ATOM     52  C   UNL     1       7.709  -5.035  -8.838  1.00  0.00     0.134 A 
ATOM     53  F   UNL     1       9.833  -3.452  -6.353  1.00  0.00    -0.206 F 
ATOM     54  C   UNL     1       9.695  -3.103  -8.671  1.00  0.00     0.040 A 
ATOM     55  C   UNL     1       8.145  -4.384  -9.994  1.00  0.00     0.040 A 
ATOM     56  F   UNL     1       6.753  -5.967  -8.965  1.00  0.00    -0.206 F 
ATOM     57  C   UNL     1       9.142  -3.415  -9.912  1.00  0.00     0.006 A 
ENDBRANCH  36  50
BRANCH  37  58
ATOM     58  C   UNL     1       5.178  -9.973   0.358  1.00  0.00     0.057 A 
ATOM     59  C   UNL     1       6.046 -10.469   1.335  1.00  0.00     0.134 A 
ATOM     60  C   UNL     1       3.813 -10.255   0.503  1.00  0.00     0.134 A 
ATOM     61  F   UNL     1       7.365 -10.246   1.242  1.00  0.00    -0.206 F 
ATOM     62  C   UNL     1       5.580 -11.235   2.404  1.00  0.00     0.040 A 
ATOM     63  C   UNL     1       3.329 -10.993   1.582  1.00  0.00     0.040 A 
ATOM     64  F   UNL     1       2.927  -9.799  -0.396  1.00  0.00    -0.206 F 
ATOM     65  C   UNL     1       4.216 -11.493   2.532  1.00  0.00     0.006 A 
ENDBRANCH  37  58
BRANCH  49  66
ATOM     66  C   UNL     1       8.993 -11.518  -5.240  1.00  0.00     0.057 A 
ATOM     67  C   UNL     1       8.217 -12.569  -5.744  1.00  0.00     0.134 A 
ATOM     68  C   UNL     1      10.381 -11.696  -5.199  1.00  0.00     0.134 A 
ATOM     69  F   UNL     1       6.880 -12.465  -5.791  1.00  0.00    -0.206 F 
ATOM     70  C   UNL     1       8.799 -13.764  -6.169  1.00  0.00     0.040 A 
ATOM     71  C   UNL     1      10.976 -12.876  -5.645  1.00  0.00     0.040 A 
ATOM     72  F   UNL     1      11.180 -10.725  -4.731  1.00  0.00    -0.206 F 
ATOM     73  C   UNL     1      10.183 -13.917  -6.125  1.00  0.00     0.006 A 
ENDBRANCH  49  66
ENDBRANCH  23  24
ENDBRANCH  16  18
ENDBRANCH  13  14
ENDBRANCH  12  13
ENDBRANCH  11  12
ENDBRANCH   8  11
ENDBRANCH   1   7
BRANCH   5  74
ATOM     74  C   UNL     1       4.253   7.851  -0.233  1.00  0.00     0.074 C 
ATOM     75  C   UNL     1       3.132   8.441   0.637  1.00  0.00     0.020 C 
ATOM     76  C   UNL     1       3.703   6.725  -1.147  1.00  0.00     0.270 C 
ATOM     77  C   UNL     1       2.206   7.398   1.259  1.00  0.00     0.062 C 
ATOM     78  N   UNL     1       2.876   5.715  -0.462  1.00  0.00    -0.331 N 
ATOM     79  C   UNL     1       1.755   6.330   0.260  1.00  0.00     0.262 C 
ATOM     80  H   UNL     1       3.476   5.278   0.238  1.00  0.00     0.348 HD
BRANCH  78  81
ATOM     81  C   UNL     1       2.449   4.606  -1.350  1.00  0.00     0.299 C 
BRANCH  81  82
ATOM     82  C   UNL     1       1.283   4.895  -2.275  1.00  0.00     0.010 A 
ATOM     83  C   UNL     1       0.011   4.370  -2.010  1.00  0.00     0.010 A 
ATOM     84  C   UNL     1       1.443   5.764  -3.364  1.00  0.00     0.056 A 
ATOM     85  C   UNL     1      -1.082   4.759  -2.783  1.00  0.00     0.004 A 
ATOM     86  C   UNL     1       0.343   6.227  -4.083  1.00  0.00     0.119 A 
ATOM     87  C   UNL     1      -0.918   5.701  -3.800  1.00  0.00     0.046 A 
BRANCH  86  88
ATOM     88  O   UNL     1       0.367   7.214  -5.029  1.00  0.00    -0.491 OA
BRANCH  88  89
ATOM     89  C   UNL     1       1.547   8.017  -5.169  1.00  0.00     0.257 C 
BRANCH  89  90
ATOM     90  C   UNL     1       1.541   9.232  -4.235  1.00  0.00     0.197 C 
BRANCH  90  91
ATOM     91  O   UNL     1       1.567   8.879  -2.857  1.00  0.00    -0.393 OA
ATOM     92  H   UNL     1       0.772   8.367  -2.640  1.00  0.00     0.210 HD
ENDBRANCH  90  91
ENDBRANCH  89  90
ENDBRANCH  88  89
ENDBRANCH  86  88
ENDBRANCH  81  82
ENDBRANCH  78  81
ENDBRANCH   5  74
TORSDOF 17
