REMARK SMILES Cc1ccc(S(=O)(=O)N2c3ccc(C(=O)NCCCNC(=O)c4ccc(-c5c6nc(c(-c7c(F)cccc7F)c7ccc([nH]7)c(-c7c(F)cccc7F)c7nc(c(-c8c(F)cccc8F)c8ccc5[nH]8)C=C7)C=C6)cc4)cc3C[C@H]2C)cc1
REMARK SMILES IDX 18 1 17 2 16 3 14 4 15 5 13 7 9 8 10 9 80 10 11 11 78 12
REMARK SMILES IDX 79 13 81 14 12 15 77 16 6 17 7 18 8 19 5 20 1 21 2 22 3 23
REMARK SMILES IDX 83 24 4 25 82 26 19 27 20 28 21 29 22 31 23 32 24 33 76 34
REMARK SMILES IDX 25 35 75 36 26 37 27 38 28 39 69 40 29 41 74 42 68 43 70 44
REMARK SMILES IDX 30 45 73 46 67 47 66 48 31 50 57 51 40 52 56 53 41 54 44 55
REMARK SMILES IDX 55 56 71 57 42 58 43 59 54 61 72 62 45 63 32 64 33 65 38 66
REMARK SMILES IDX 34 67 35 68 37 69 39 70 36 71 58 72 59 73 64 74 60 75 61 76
REMARK SMILES IDX 63 77 65 78 62 79 46 80 47 81 52 82 48 83 49 84 51 85 53 86
REMARK SMILES IDX 50 87
REMARK H PARENT 16 6 20 30 70 49 44 60
REMARK Flexibility Score: inf
ROOT
ATOM      1  C   UNL     1     -10.299   0.700   2.484  1.00  0.00     0.042 C 
ENDROOT
BRANCH   1   2
ATOM      2  C   UNL     1     -10.643   0.516   1.004  1.00  0.00     0.118 C 
BRANCH   2   3
ATOM      3  N   UNL     1     -10.585   1.772   0.274  1.00  0.00    -0.352 N 
ATOM      4  C   UNL     1      -9.549   2.516  -0.237  1.00  0.00     0.251 C 
ATOM      5  O   UNL     1      -9.864   3.521  -0.879  1.00  0.00    -0.269 OA
ATOM      6  H   UNL     1     -11.470   2.172   0.112  1.00  0.00     0.163 HD
BRANCH   4   7
ATOM      7  C   UNL     1      -8.092   2.209  -0.055  1.00  0.00     0.040 A 
ATOM      8  N   UNL     1      -3.892   1.804   0.285  1.00  0.00    -0.263 N 
ATOM      9  C   UNL     1      -5.333   1.846   0.264  1.00  0.00     0.055 A 
ATOM     10  C   UNL     1      -3.488   3.075  -0.446  1.00  0.00     0.101 C 
ATOM     11  C   UNL     1      -6.190   1.047   0.981  1.00  0.00     0.028 A 
ATOM     12  C   UNL     1      -5.819   2.815  -0.605  1.00  0.00    -0.021 A 
ATOM     13  C   UNL     1      -4.696   3.489  -1.317  1.00  0.00     0.063 C 
ATOM     14  C   UNL     1      -3.199   4.144   0.621  1.00  0.00     0.032 C 
ATOM     15  C   UNL     1      -7.565   1.227   0.801  1.00  0.00     0.016 A 
ATOM     16  C   UNL     1      -7.185   3.009  -0.775  1.00  0.00     0.019 A 
BRANCH   8  17
ATOM     17  S   UNL     1      -3.307   0.318  -0.377  1.00  0.00     0.264 S 
ATOM     18  O   UNL     1      -3.483   0.377  -1.815  1.00  0.00    -0.201 OA
ATOM     19  O   UNL     1      -3.876  -0.770   0.398  1.00  0.00    -0.201 OA
BRANCH  17  20
ATOM     20  C   UNL     1      -1.552   0.218  -0.094  1.00  0.00     0.088 A 
ATOM     21  C   UNL     1       2.724  -0.227   0.107  1.00  0.00     0.044 C 
ATOM     22  C   UNL     1       1.232  -0.078   0.079  1.00  0.00    -0.051 A 
ATOM     23  C   UNL     1       0.421  -1.190  -0.168  1.00  0.00     0.005 A 
ATOM     24  C   UNL     1       0.632   1.164   0.311  1.00  0.00     0.005 A 
ATOM     25  C   UNL     1      -0.963  -1.044  -0.260  1.00  0.00     0.022 A 
ATOM     26  C   UNL     1      -0.756   1.309   0.240  1.00  0.00     0.022 A 
ENDBRANCH  17  20
ENDBRANCH   8  17
ENDBRANCH   4   7
ENDBRANCH   2   3
ENDBRANCH   1   2
BRANCH   1  27
ATOM     27  C   UNL     1     -11.505   0.660   3.396  1.00  0.00     0.118 C 
BRANCH  27  28
ATOM     28  N   UNL     1     -11.803  -0.669   3.919  1.00  0.00    -0.352 N 
ATOM     29  C   UNL     1     -12.904  -1.105   4.640  1.00  0.00     0.251 C 
ATOM     30  H   UNL     1     -11.124  -1.356   3.732  1.00  0.00     0.163 HD
ATOM     31  O   UNL     1     -12.965  -2.255   5.032  1.00  0.00    -0.269 OA
BRANCH  29  32
ATOM     32  C   UNL     1     -14.068  -0.196   4.791  1.00  0.00     0.039 A 
ATOM     33  C   UNL     1     -15.331  -0.712   4.485  1.00  0.00     0.014 A 
ATOM     34  C   UNL     1     -13.885   1.173   4.950  1.00  0.00     0.014 A 
ATOM     35  C   UNL     1     -16.331   0.158   4.062  1.00  0.00     0.010 A 
ATOM     36  C   UNL     1     -14.822   2.023   4.406  1.00  0.00     0.010 A 
ATOM     37  C   UNL     1     -16.020   1.508   3.905  1.00  0.00    -0.014 A 
BRANCH  37  38
ATOM     38  C   UNL     1     -16.838   2.428   3.131  1.00  0.00     0.031 A 
ATOM     39  C   UNL     1     -17.624   3.475   3.812  1.00  0.00     0.074 A 
ATOM     40  C   UNL     1     -16.847   2.360   1.781  1.00  0.00     0.049 A 
ATOM     41  N   UNL     1     -18.741   3.931   3.356  1.00  0.00    -0.248 NA
ATOM     42  C   UNL     1     -17.230   4.068   5.087  1.00  0.00     0.031 C 
ATOM     43  C   UNL     1     -17.402   3.345   0.856  1.00  0.00     0.029 A 
ATOM     44  N   UNL     1     -16.508   1.271   0.969  1.00  0.00    -0.354 N 
ATOM     45  C   UNL     1     -19.066   5.034   4.106  1.00  0.00     0.074 A 
ATOM     46  C   UNL     1     -18.139   5.040   5.213  1.00  0.00     0.031 C 
ATOM     47  C   UNL     1     -17.619   2.756  -0.330  1.00  0.00     0.029 A 
ATOM     48  C   UNL     1     -17.339   1.340  -0.168  1.00  0.00     0.049 A 
ATOM     49  H   UNL     1     -15.822   0.589   1.156  1.00  0.00     0.167 HD
ATOM     50  C   UNL     1     -19.988   5.922   3.647  1.00  0.00     0.037 A 
ATOM     51  C   UNL     1     -18.203   0.337  -0.491  1.00  0.00     0.037 A 
ATOM     52  C   UNL     1     -20.498   5.548   2.337  1.00  0.00     0.049 A 
ATOM     53  C   UNL     1     -19.647   0.771  -0.536  1.00  0.00     0.074 A 
ATOM     54  C   UNL     1     -20.128   5.930   1.058  1.00  0.00     0.029 A 
ATOM     55  N   UNL     1     -21.288   4.412   2.196  1.00  0.00    -0.354 N 
ATOM     56  N   UNL     1     -20.106   1.827   0.077  1.00  0.00    -0.248 NA
ATOM     57  C   UNL     1     -20.688   0.047  -1.258  1.00  0.00     0.031 C 
ATOM     58  C   UNL     1     -20.682   5.008   0.142  1.00  0.00     0.029 A 
ATOM     59  C   UNL     1     -21.401   4.070   0.862  1.00  0.00     0.049 A 
ATOM     60  H   UNL     1     -21.706   3.921   2.939  1.00  0.00     0.167 HD
ATOM     61  C   UNL     1     -21.460   1.923  -0.130  1.00  0.00     0.074 A 
ATOM     62  C   UNL     1     -21.772   0.795  -0.985  1.00  0.00     0.031 C 
ATOM     63  C   UNL     1     -22.196   2.931   0.429  1.00  0.00     0.037 A 
BRANCH  50  64
ATOM     64  C   UNL     1     -20.149   7.275   4.279  1.00  0.00     0.057 A 
ATOM     65  C   UNL     1     -20.254   8.442   3.503  1.00  0.00     0.134 A 
ATOM     66  C   UNL     1     -20.156   7.478   5.669  1.00  0.00     0.134 A 
ATOM     67  F   UNL     1     -20.318   8.399   2.167  1.00  0.00    -0.206 F 
ATOM     68  C   UNL     1     -20.271   9.723   4.065  1.00  0.00     0.040 A 
ATOM     69  C   UNL     1     -20.127   8.755   6.244  1.00  0.00     0.040 A 
ATOM     70  F   UNL     1     -20.186   6.439   6.518  1.00  0.00    -0.206 F 
ATOM     71  C   UNL     1     -20.175   9.886   5.439  1.00  0.00     0.006 A 
ENDBRANCH  50  64
BRANCH  51  72
ATOM     72  C   UNL     1     -17.733  -1.007  -0.074  1.00  0.00     0.057 A 
ATOM     73  C   UNL     1     -16.630  -1.568  -0.740  1.00  0.00     0.134 A 
ATOM     74  C   UNL     1     -18.070  -1.546   1.171  1.00  0.00     0.134 A 
ATOM     75  F   UNL     1     -16.256  -1.095  -1.939  1.00  0.00    -0.206 F 
ATOM     76  C   UNL     1     -15.828  -2.544  -0.144  1.00  0.00     0.040 A 
ATOM     77  C   UNL     1     -17.275  -2.526   1.776  1.00  0.00     0.040 A 
ATOM     78  F   UNL     1     -19.098  -1.049   1.873  1.00  0.00    -0.206 F 
ATOM     79  C   UNL     1     -16.130  -2.999   1.136  1.00  0.00     0.006 A 
ENDBRANCH  51  72
BRANCH  63  80
ATOM     80  C   UNL     1     -23.706   3.022   0.514  1.00  0.00     0.057 A 
ATOM     81  C   UNL     1     -24.579   1.929   0.420  1.00  0.00     0.134 A 
ATOM     82  C   UNL     1     -24.334   4.249   0.844  1.00  0.00     0.134 A 
ATOM     83  F   UNL     1     -24.132   0.682   0.232  1.00  0.00    -0.206 F 
ATOM     84  C   UNL     1     -25.968   2.055   0.576  1.00  0.00     0.040 A 
ATOM     85  C   UNL     1     -25.710   4.375   1.058  1.00  0.00     0.040 A 
ATOM     86  F   UNL     1     -23.638   5.384   1.002  1.00  0.00    -0.206 F 
ATOM     87  C   UNL     1     -26.538   3.277   0.908  1.00  0.00     0.006 A 
ENDBRANCH  63  80
ENDBRANCH  37  38
ENDBRANCH  29  32
ENDBRANCH  27  28
ENDBRANCH   1  27
TORSDOF 12
