REMARK SMILES O=C(NCCCNC(=O)c1cccn2c(=O)c3ccc(Cl)cc3nc12)c1ccc(-c2c3nc(c(-c4c(F)cccc4F)c4ccc([nH]4)c(-c4c(F)cccc4F)c4nc(c(-c5c(F)cccc5F)c5ccc2[nH]5)C=C4)C=C3)cc1
REMARK SMILES IDX 4 1 3 2 1 3 2 4 26 6 27 7 79 8 28 9 78 10 29 11 30 12 31 13
REMARK SMILES IDX 72 14 32 15 77 16 71 17 73 18 33 19 76 20 70 21 69 22 34 24
REMARK SMILES IDX 60 25 43 26 59 27 44 28 47 29 58 30 74 31 45 32 46 33 57 35
REMARK SMILES IDX 75 36 48 37 35 38 36 39 41 40 37 41 38 42 40 43 42 44 39 45
REMARK SMILES IDX 61 46 62 47 67 48 63 49 64 50 66 51 68 52 65 53 49 54 50 55
REMARK SMILES IDX 55 56 51 57 52 58 54 59 56 60 53 61 5 62 6 63 7 64 8 65 9 67
REMARK SMILES IDX 10 68 11 69 25 70 12 71 14 72 24 73 13 74 15 75 23 76 16 77
REMARK SMILES IDX 17 78 22 79 18 80 20 81 19 82 21 83
REMARK H PARENT 3 5 73 23 47 34 7 66
REMARK Flexibility Score: inf
ROOT
ATOM      1  C   UNL     1       4.704  -0.971  -1.008  1.00  0.00     0.118 C 
ENDROOT
BRANCH   1   2
ATOM      2  N   UNL     1       3.280  -0.681  -0.935  1.00  0.00    -0.352 N 
ATOM      3  O   UNL     1       1.299  -0.081  -0.093  1.00  0.00    -0.269 OA
ATOM      4  C   UNL     1       2.525  -0.024   0.001  1.00  0.00     0.251 C 
ATOM      5  H   UNL     1       2.763  -1.020  -1.701  1.00  0.00     0.163 HD
BRANCH   4   6
ATOM      6  C   UNL     1       3.130   0.746   1.114  1.00  0.00     0.039 A 
ATOM      7  C   UNL     1       2.426   0.827   2.322  1.00  0.00     0.014 A 
ATOM      8  C   UNL     1       4.313   1.473   0.966  1.00  0.00     0.014 A 
ATOM      9  C   UNL     1       2.909   1.617   3.370  1.00  0.00     0.010 A 
ATOM     10  C   UNL     1       4.847   2.179   2.044  1.00  0.00     0.010 A 
ATOM     11  C   UNL     1       4.129   2.296   3.242  1.00  0.00    -0.014 A 
BRANCH  11  12
ATOM     12  C   UNL     1       4.605   3.224   4.301  1.00  0.00     0.031 A 
ATOM     13  C   UNL     1       4.718   4.699   4.006  1.00  0.00     0.074 A 
ATOM     14  C   UNL     1       4.947   2.756   5.516  1.00  0.00     0.049 A 
ATOM     15  N   UNL     1       5.154   5.668   4.771  1.00  0.00    -0.248 NA
ATOM     16  C   UNL     1       4.316   5.136   2.659  1.00  0.00     0.031 C 
ATOM     17  C   UNL     1       4.921   1.350   5.924  1.00  0.00     0.029 A 
ATOM     18  N   UNL     1       5.382   3.420   6.635  1.00  0.00    -0.354 N 
ATOM     19  C   UNL     1       5.092   6.819   3.994  1.00  0.00     0.074 A 
ATOM     20  C   UNL     1       4.644   6.418   2.679  1.00  0.00     0.031 C 
ATOM     21  C   UNL     1       5.297   1.260   7.211  1.00  0.00     0.029 A 
ATOM     22  C   UNL     1       5.610   2.596   7.710  1.00  0.00     0.049 A 
ATOM     23  H   UNL     1       5.518   4.394   6.665  1.00  0.00     0.167 HD
ATOM     24  C   UNL     1       5.349   8.102   4.346  1.00  0.00     0.037 A 
ATOM     25  C   UNL     1       6.018   2.890   8.959  1.00  0.00     0.037 A 
ATOM     26  C   UNL     1       5.761   8.514   5.660  1.00  0.00     0.049 A 
ATOM     27  C   UNL     1       6.272   4.324   9.335  1.00  0.00     0.074 A 
ATOM     28  C   UNL     1       6.033   9.790   6.124  1.00  0.00     0.029 A 
ATOM     29  N   UNL     1       5.944   7.652   6.730  1.00  0.00    -0.354 N 
ATOM     30  N   UNL     1       6.183   5.403   8.595  1.00  0.00    -0.248 NA
ATOM     31  C   UNL     1       6.669   4.580  10.726  1.00  0.00     0.031 C 
ATOM     32  C   UNL     1       6.394   9.697   7.474  1.00  0.00     0.029 A 
ATOM     33  C   UNL     1       6.318   8.367   7.855  1.00  0.00     0.049 A 
ATOM     34  H   UNL     1       5.826   6.675   6.696  1.00  0.00     0.167 HD
ATOM     35  C   UNL     1       6.491   6.465   9.435  1.00  0.00     0.074 A 
ATOM     36  C   UNL     1       6.747   5.902  10.745  1.00  0.00     0.031 C 
ATOM     37  C   UNL     1       6.561   7.788   9.150  1.00  0.00     0.037 A 
BRANCH  24  38
ATOM     38  C   UNL     1       5.167   9.146   3.284  1.00  0.00     0.057 A 
ATOM     39  C   UNL     1       6.269   9.787   2.706  1.00  0.00     0.134 A 
ATOM     40  C   UNL     1       3.893   9.508   2.824  1.00  0.00     0.134 A 
ATOM     41  F   UNL     1       7.516   9.491   3.102  1.00  0.00    -0.206 F 
ATOM     42  C   UNL     1       6.111  10.744   1.701  1.00  0.00     0.040 A 
ATOM     43  C   UNL     1       3.724  10.443   1.801  1.00  0.00     0.040 A 
ATOM     44  F   UNL     1       2.798   8.916   3.323  1.00  0.00    -0.206 F 
ATOM     45  C   UNL     1       4.835  11.067   1.239  1.00  0.00     0.006 A 
ENDBRANCH  24  38
BRANCH  25  46
ATOM     46  C   UNL     1       6.178   1.812   9.966  1.00  0.00     0.057 A 
ATOM     47  C   UNL     1       7.249   0.913   9.909  1.00  0.00     0.134 A 
ATOM     48  C   UNL     1       5.279   1.681  11.030  1.00  0.00     0.134 A 
ATOM     49  F   UNL     1       8.141   0.984   8.910  1.00  0.00    -0.206 F 
ATOM     50  C   UNL     1       7.422  -0.076  10.878  1.00  0.00     0.040 A 
ATOM     51  C   UNL     1       5.452   0.711  12.018  1.00  0.00     0.040 A 
ATOM     52  F   UNL     1       4.245   2.528  11.147  1.00  0.00    -0.206 F 
ATOM     53  C   UNL     1       6.526  -0.173  11.942  1.00  0.00     0.006 A 
ENDBRANCH  25  46
BRANCH  37  54
ATOM     54  C   UNL     1       6.896   8.708  10.286  1.00  0.00     0.057 A 
ATOM     55  C   UNL     1       5.912   9.526  10.854  1.00  0.00     0.134 A 
ATOM     56  C   UNL     1       8.190   8.783  10.816  1.00  0.00     0.134 A 
ATOM     57  F   UNL     1       4.655   9.505  10.388  1.00  0.00    -0.206 F 
ATOM     58  C   UNL     1       6.203  10.381  11.918  1.00  0.00     0.040 A 
ATOM     59  C   UNL     1       8.487   9.617  11.894  1.00  0.00     0.040 A 
ATOM     60  F   UNL     1       9.172   8.013  10.324  1.00  0.00    -0.206 F 
ATOM     61  C   UNL     1       7.492  10.422  12.446  1.00  0.00     0.006 A 
ENDBRANCH  37  54
ENDBRANCH  11  12
ENDBRANCH   4   6
ENDBRANCH   1   2
BRANCH   1  62
ATOM     62  C   UNL     1       5.018  -2.451  -0.828  1.00  0.00     0.042 C 
BRANCH  62  63
ATOM     63  C   UNL     1       4.388  -3.365  -1.869  1.00  0.00     0.118 C 
BRANCH  63  64
ATOM     64  N   UNL     1       4.813  -3.056  -3.226  1.00  0.00    -0.352 N 
ATOM     65  C   UNL     1       5.608  -3.747  -4.097  1.00  0.00     0.255 C 
ATOM     66  H   UNL     1       4.470  -2.203  -3.577  1.00  0.00     0.163 HD
ATOM     67  O   UNL     1       5.860  -3.245  -5.190  1.00  0.00    -0.269 OA
BRANCH  65  68
ATOM     68  C   UNL     1       6.110  -5.094  -3.730  1.00  0.00     0.083 A 
ATOM     69  C   UNL     1       5.212  -6.045  -3.421  1.00  0.00     0.019 A 
ATOM     70  C   UNL     1       7.558  -5.475  -3.870  1.00  0.00     0.153 A 
ATOM     71  C   UNL     1       5.626  -7.374  -3.073  1.00  0.00     0.019 A 
ATOM     72  N   UNL     1       7.889  -6.802  -3.562  1.00  0.00    -0.267 N 
ATOM     73  N   UNL     1       8.436  -4.600  -4.254  1.00  0.00    -0.229 NA
ATOM     74  C   UNL     1       6.917  -7.706  -3.149  1.00  0.00     0.096 A 
ATOM     75  C   UNL     1       9.208  -7.254  -3.654  1.00  0.00     0.265 A 
ATOM     76  C   UNL     1       9.760  -5.002  -4.453  1.00  0.00     0.080 A 
ATOM     77  O   UNL     1       9.587  -8.384  -3.341  1.00  0.00    -0.268 OA
ATOM     78  C   UNL     1      10.195  -6.295  -4.175  1.00  0.00     0.066 A 
ATOM     79  C   UNL     1      10.672  -4.084  -4.982  1.00  0.00     0.049 A 
ATOM     80  C   UNL     1      11.521  -6.681  -4.410  1.00  0.00     0.017 A 
ATOM     81  C   UNL     1      11.992  -4.464  -5.226  1.00  0.00     0.043 A 
ATOM     82  C   UNL     1      12.422  -5.760  -4.941  1.00  0.00     0.021 A 
ATOM     83  Cl  UNL     1      13.100  -3.330  -5.895  1.00  0.00    -0.084 Cl
ENDBRANCH  65  68
ENDBRANCH  63  64
ENDBRANCH  62  63
ENDBRANCH   1  62
TORSDOF 10
