REMARK SMILES CCOc1cc(NC(=O)c2c(C(=O)NCCCNC(=O)c3ccc(-c4c5nc(c(-c6c(F)cccc6F)c6ccc([nH]6)c(-c6c(F)cccc6F)c6nc(c(-c7c(F)cccc7F)c7ccc4[nH]7)C=C6)C=C5)cc3)cnn2C)ccc1OC(F)F
REMARK SMILES IDX 15 1 14 2 12 3 13 4 11 6 10 7 77 8 75 9 76 10 78 11 8 12
REMARK SMILES IDX 7 13 9 15 6 16 4 17 5 18 81 19 80 20 79 21 3 22 2 23 1 24
REMARK SMILES IDX 82 25 83 26 84 27 85 28 16 29 17 30 18 31 19 32 20 34 21 35
REMARK SMILES IDX 22 36 74 37 23 38 73 39 24 40 25 41 26 42 67 43 27 44 72 45
REMARK SMILES IDX 66 46 68 47 28 48 71 49 65 50 64 51 29 53 55 54 38 55 54 56
REMARK SMILES IDX 39 57 42 58 53 59 69 60 40 61 41 62 52 64 70 65 43 66 30 67
REMARK SMILES IDX 31 68 36 69 32 70 33 71 35 72 37 73 34 74 56 75 57 76 62 77
REMARK SMILES IDX 58 78 59 79 61 80 63 81 60 82 44 83 45 84 50 85 46 86 47 87
REMARK SMILES IDX 49 88 51 89 48 90
REMARK H PARENT 14 5 7 14 18 33 68 52 42 63
REMARK Flexibility Score: inf
ROOT
ATOM      1  C   UNL     1       3.595  -3.527   6.938  1.00  0.00     0.118 C 
ENDROOT
BRANCH   1   2
ATOM      2  N   UNL     1       2.341  -4.186   7.235  1.00  0.00    -0.352 N 
ATOM      3  C   UNL     1       1.352  -4.737   6.470  1.00  0.00     0.255 C 
ATOM      4  O   UNL     1       0.361  -5.117   7.099  1.00  0.00    -0.269 OA
ATOM      5  H   UNL     1       2.161  -4.252   8.200  1.00  0.00     0.163 HD
BRANCH   3   6
ATOM      6  C   UNL     1       1.379  -4.874   5.022  1.00  0.00     0.090 A 
ATOM      7  C   UNL     1       2.386  -4.956   4.062  1.00  0.00     0.138 A 
ATOM      8  N   UNL     1       1.751  -5.297   2.888  1.00  0.00    -0.262 N 
ATOM      9  C   UNL     1       0.189  -5.051   4.261  1.00  0.00     0.149 A 
ATOM     10  N   UNL     1       0.412  -5.239   2.962  1.00  0.00    -0.180 NA
ATOM     11  C   UNL     1       2.348  -5.671   1.625  1.00  0.00     0.174 C 
BRANCH   7  12
ATOM     12  C   UNL     1       3.808  -4.896   4.176  1.00  0.00     0.274 C 
ATOM     13  N   UNL     1       4.515  -3.832   3.658  1.00  0.00    -0.321 N 
ATOM     14  H   UNL     1       5.489  -3.954   3.730  1.00  0.00     0.170 HD
ATOM     15  O   UNL     1       4.453  -5.783   4.738  1.00  0.00    -0.267 OA
BRANCH  13  16
ATOM     16  C   UNL     1       4.164  -2.608   3.046  1.00  0.00     0.045 A 
ATOM     17  C   UNL     1       2.638  -0.955   2.085  1.00  0.00     0.163 A 
ATOM     18  C   UNL     1       2.872  -2.181   2.737  1.00  0.00     0.076 A 
ATOM     19  C   UNL     1       3.705  -0.094   1.820  1.00  0.00     0.168 A 
ATOM     20  C   UNL     1       4.995  -0.490   2.178  1.00  0.00     0.053 A 
ATOM     21  C   UNL     1       5.225  -1.742   2.756  1.00  0.00     0.030 A 
BRANCH  17  22
ATOM     22  O   UNL     1       1.364  -0.551   1.784  1.00  0.00    -0.490 OA
BRANCH  22  23
ATOM     23  C   UNL     1       0.554  -1.564   1.170  1.00  0.00     0.226 C 
ATOM     24  C   UNL     1      -0.472  -0.886   0.279  1.00  0.00     0.049 C 
ENDBRANCH  22  23
ENDBRANCH  17  22
BRANCH  19  25
ATOM     25  O   UNL     1       3.629   1.163   1.290  1.00  0.00    -0.431 OA
BRANCH  25  26
ATOM     26  C   UNL     1       2.747   1.362   0.190  1.00  0.00     0.542 C 
ATOM     27  F   UNL     1       2.637   0.244  -0.568  1.00  0.00    -0.167 F 
ATOM     28  F   UNL     1       1.522   1.723   0.633  1.00  0.00    -0.167 F 
ENDBRANCH  25  26
ENDBRANCH  19  25
ENDBRANCH  13  16
ENDBRANCH   7  12
ENDBRANCH   3   6
ENDBRANCH   1   2
BRANCH   1  29
ATOM     29  C   UNL     1       3.905  -2.345   7.860  1.00  0.00     0.042 C 
BRANCH  29  30
ATOM     30  C   UNL     1       3.917  -2.646   9.356  1.00  0.00     0.118 C 
BRANCH  30  31
ATOM     31  N   UNL     1       5.044  -3.451   9.794  1.00  0.00    -0.352 N 
ATOM     32  C   UNL     1       6.290  -3.137  10.278  1.00  0.00     0.251 C 
ATOM     33  H   UNL     1       4.882  -4.420   9.730  1.00  0.00     0.163 HD
ATOM     34  O   UNL     1       7.071  -4.061  10.502  1.00  0.00    -0.269 OA
BRANCH  32  35
ATOM     35  C   UNL     1       6.757  -1.743  10.501  1.00  0.00     0.039 A 
ATOM     36  C   UNL     1       8.114  -1.473  10.268  1.00  0.00     0.014 A 
ATOM     37  C   UNL     1       5.951  -0.724  11.008  1.00  0.00     0.014 A 
ATOM     38  C   UNL     1       8.636  -0.191  10.477  1.00  0.00     0.010 A 
ATOM     39  C   UNL     1       6.452   0.575  11.146  1.00  0.00     0.010 A 
ATOM     40  C   UNL     1       7.800   0.858  10.883  1.00  0.00    -0.014 A 
BRANCH  40  41
ATOM     41  C   UNL     1       8.315   2.243  11.054  1.00  0.00     0.031 A 
ATOM     42  C   UNL     1       8.271   2.912  12.402  1.00  0.00     0.074 A 
ATOM     43  C   UNL     1       8.767   2.935   9.990  1.00  0.00     0.049 A 
ATOM     44  N   UNL     1       8.483   4.168  12.708  1.00  0.00    -0.248 NA
ATOM     45  C   UNL     1       7.915   2.065  13.550  1.00  0.00     0.031 C 
ATOM     46  C   UNL     1       8.852   2.431   8.619  1.00  0.00     0.029 A 
ATOM     47  N   UNL     1       9.233   4.223   9.900  1.00  0.00    -0.354 N 
ATOM     48  C   UNL     1       8.212   4.277  14.065  1.00  0.00     0.074 A 
ATOM     49  C   UNL     1       7.848   2.955  14.531  1.00  0.00     0.031 C 
ATOM     50  C   UNL     1       9.364   3.389   7.830  1.00  0.00     0.029 A 
ATOM     51  C   UNL     1       9.605   4.586   8.630  1.00  0.00     0.049 A 
ATOM     52  H   UNL     1       9.294   4.830  10.673  1.00  0.00     0.167 HD
ATOM     53  C   UNL     1       8.250   5.380  14.850  1.00  0.00     0.037 A 
ATOM     54  C   UNL     1      10.075   5.754   8.156  1.00  0.00     0.037 A 
ATOM     55  C   UNL     1       8.686   6.681  14.420  1.00  0.00     0.049 A 
ATOM     56  C   UNL     1      10.234   6.928   9.075  1.00  0.00     0.074 A 
ATOM     57  C   UNL     1       8.768   7.853  15.154  1.00  0.00     0.029 A 
ATOM     58  N   UNL     1       9.146   6.973  13.148  1.00  0.00    -0.354 N 
ATOM     59  N   UNL     1       9.924   7.027  10.342  1.00  0.00    -0.248 NA
ATOM     60  C   UNL     1      10.799   8.155   8.493  1.00  0.00     0.031 C 
ATOM     61  C   UNL     1       9.290   8.854  14.325  1.00  0.00     0.029 A 
ATOM     62  C   UNL     1       9.536   8.300  13.080  1.00  0.00     0.049 A 
ATOM     63  H   UNL     1       9.190   6.333  12.401  1.00  0.00     0.167 HD
ATOM     64  C   UNL     1      10.251   8.324  10.711  1.00  0.00     0.074 A 
ATOM     65  C   UNL     1      10.800   8.972   9.538  1.00  0.00     0.031 C 
ATOM     66  C   UNL     1      10.096   8.926  11.914  1.00  0.00     0.037 A 
BRANCH  53  67
ATOM     67  C   UNL     1       7.779   5.227  16.261  1.00  0.00     0.057 A 
ATOM     68  C   UNL     1       8.608   4.721  17.266  1.00  0.00     0.134 A 
ATOM     69  C   UNL     1       6.482   5.618  16.618  1.00  0.00     0.134 A 
ATOM     70  F   UNL     1       9.854   4.316  16.979  1.00  0.00    -0.206 F 
ATOM     71  C   UNL     1       8.160   4.598  18.582  1.00  0.00     0.040 A 
ATOM     72  C   UNL     1       6.027   5.511  17.932  1.00  0.00     0.040 A 
ATOM     73  F   UNL     1       5.641   6.110  15.696  1.00  0.00    -0.206 F 
ATOM     74  C   UNL     1       6.867   4.997  18.919  1.00  0.00     0.006 A 
ENDBRANCH  53  67
BRANCH  54  75
ATOM     75  C   UNL     1      10.440   5.869   6.727  1.00  0.00     0.057 A 
ATOM     76  C   UNL     1      11.773   5.756   6.319  1.00  0.00     0.134 A 
ATOM     77  C   UNL     1       9.471   6.086   5.742  1.00  0.00     0.134 A 
ATOM     78  F   UNL     1      12.742   5.565   7.226  1.00  0.00    -0.206 F 
ATOM     79  C   UNL     1      12.133   5.860   4.976  1.00  0.00     0.040 A 
ATOM     80  C   UNL     1       9.816   6.182   4.394  1.00  0.00     0.040 A 
ATOM     81  F   UNL     1       8.178   6.200   6.079  1.00  0.00    -0.206 F 
ATOM     82  C   UNL     1      11.152   6.071   4.009  1.00  0.00     0.006 A 
ENDBRANCH  54  75
BRANCH  66  83
ATOM     83  C   UNL     1      10.542  10.348  12.022  1.00  0.00     0.057 A 
ATOM     84  C   UNL     1       9.705  11.403  11.644  1.00  0.00     0.134 A 
ATOM     85  C   UNL     1      11.807  10.664  12.530  1.00  0.00     0.134 A 
ATOM     86  F   UNL     1       8.486  11.156  11.140  1.00  0.00    -0.206 F 
ATOM     87  C   UNL     1      10.114  12.731  11.763  1.00  0.00     0.040 A 
ATOM     88  C   UNL     1      12.226  11.989  12.658  1.00  0.00     0.040 A 
ATOM     89  F   UNL     1      12.653   9.693  12.903  1.00  0.00    -0.206 F 
ATOM     90  C   UNL     1      11.377  13.027  12.273  1.00  0.00     0.006 A 
ENDBRANCH  66  83
ENDBRANCH  40  41
ENDBRANCH  32  35
ENDBRANCH  30  31
ENDBRANCH  29  30
ENDBRANCH   1  29
TORSDOF 16
