REMARK SMILES C[C@@H]1CC[N@H+]1[C@H](C(=O)NCCCNC(=O)c1ccc(-c2c3nc(c(-c4c(F)cccc4F)c4ccc([nH]4)c(-c4c(F)cccc4F)c4nc(c(-c5c(F)cccc5F)c5ccc2[nH]5)C=C4)C=C3)cc1)C1CC1
REMARK SMILES IDX 11 1 10 2 9 3 7 4 8 5 6 7 5 8 1 9 2 10 3 11 4 12 70 14 71 15
REMARK SMILES IDX 72 16 12 17 13 18 14 19 15 21 16 22 17 23 69 24 18 25 68 26
REMARK SMILES IDX 19 27 20 28 21 29 62 30 22 31 67 32 61 33 63 34 23 35 66 36
REMARK SMILES IDX 60 37 59 38 24 40 50 41 33 42 49 43 34 44 37 45 48 46 64 47
REMARK SMILES IDX 35 48 36 49 47 51 65 52 38 53 25 54 26 55 31 56 27 57 28 58
REMARK SMILES IDX 30 59 32 60 29 61 51 62 52 63 57 64 53 65 54 66 56 67 58 68
REMARK SMILES IDX 55 69 39 70 40 71 45 72 41 73 42 74 44 75 46 76 43 77
REMARK H PARENT 9 6 5 13 13 20 63 39 37 50
REMARK Flexibility Score: inf
ROOT
ATOM      1  C   UNL     1      -3.425  -0.570  -2.126  1.00  0.00     0.042 C 
ENDROOT
BRANCH   1   2
ATOM      2  C   UNL     1      -2.151  -0.567  -1.282  1.00  0.00     0.118 C 
BRANCH   2   3
ATOM      3  N   UNL     1      -1.335   0.611  -1.517  1.00  0.00    -0.351 N 
ATOM      4  C   UNL     1      -1.031   1.686  -0.731  1.00  0.00     0.278 C 
ATOM      5  O   UNL     1      -0.388   2.585  -1.285  1.00  0.00    -0.268 OA
ATOM      6  H   UNL     1      -0.925   0.640  -2.412  1.00  0.00     0.163 HD
BRANCH   4   7
ATOM      7  C   UNL     1      -1.482   1.759   0.757  1.00  0.00     0.277 C 
BRANCH   7   8
ATOM      8  N   UNL     1      -0.262   1.989   1.577  1.00  0.00    -0.322 N 
ATOM      9  C   UNL     1       1.266   3.926   1.105  1.00  0.00     0.075 C 
ATOM     10  C   UNL     1       0.052   3.412   1.859  1.00  0.00     0.187 C 
ATOM     11  C   UNL     1       0.352   2.993   3.318  1.00  0.00     0.126 C 
ATOM     12  C   UNL     1      -0.483   1.740   3.014  1.00  0.00     0.269 C 
ATOM     13  H   UNL     1       0.402   1.432   1.039  1.00  0.00     0.349 HD
ENDBRANCH   7   8
BRANCH   7  14
ATOM     14  C   UNL     1      -2.653   2.694   1.016  1.00  0.00     0.057 C 
ATOM     15  C   UNL     1      -3.027   3.845   0.108  1.00  0.00     0.011 C 
ATOM     16  C   UNL     1      -3.915   2.637   0.189  1.00  0.00     0.011 C 
ENDBRANCH   7  14
ENDBRANCH   4   7
ENDBRANCH   2   3
ENDBRANCH   1   2
BRANCH   1  17
ATOM     17  C   UNL     1      -3.196  -0.474  -3.631  1.00  0.00     0.118 C 
BRANCH  17  18
ATOM     18  N   UNL     1      -2.687  -1.712  -4.201  1.00  0.00    -0.352 N 
ATOM     19  C   UNL     1      -3.267  -2.560  -5.112  1.00  0.00     0.251 C 
ATOM     20  H   UNL     1      -1.794  -1.982  -3.887  1.00  0.00     0.163 HD
ATOM     21  O   UNL     1      -2.757  -3.660  -5.333  1.00  0.00    -0.269 OA
BRANCH  19  22
ATOM     22  C   UNL     1      -4.514  -2.180  -5.813  1.00  0.00     0.039 A 
ATOM     23  C   UNL     1      -5.527  -3.132  -5.957  1.00  0.00     0.014 A 
ATOM     24  C   UNL     1      -4.683  -0.900  -6.348  1.00  0.00     0.014 A 
ATOM     25  C   UNL     1      -6.733  -2.782  -6.571  1.00  0.00     0.010 A 
ATOM     26  C   UNL     1      -5.913  -0.528  -6.887  1.00  0.00     0.010 A 
ATOM     27  C   UNL     1      -6.951  -1.465  -7.008  1.00  0.00    -0.014 A 
BRANCH  27  28
ATOM     28  C   UNL     1      -8.248  -1.046  -7.601  1.00  0.00     0.031 A 
ATOM     29  C   UNL     1      -8.306  -0.555  -9.022  1.00  0.00     0.074 A 
ATOM     30  C   UNL     1      -9.361  -1.030  -6.841  1.00  0.00     0.049 A 
ATOM     31  N   UNL     1      -9.315  -0.043  -9.682  1.00  0.00    -0.248 NA
ATOM     32  C   UNL     1      -7.056  -0.622  -9.794  1.00  0.00     0.031 C 
ATOM     33  C   UNL     1      -9.436  -1.443  -5.439  1.00  0.00     0.029 A 
ATOM     34  N   UNL     1     -10.642  -0.632  -7.139  1.00  0.00    -0.354 N 
ATOM     35  C   UNL     1      -8.815   0.293 -10.934  1.00  0.00     0.074 A 
ATOM     36  C   UNL     1      -7.404  -0.027 -10.925  1.00  0.00     0.031 C 
ATOM     37  C   UNL     1     -10.697  -1.291  -5.003  1.00  0.00     0.029 A 
ATOM     38  C   UNL     1     -11.510  -0.730  -6.078  1.00  0.00     0.049 A 
ATOM     39  H   UNL     1     -10.912  -0.307  -8.028  1.00  0.00     0.167 HD
ATOM     40  C   UNL     1      -9.475   0.805 -12.001  1.00  0.00     0.037 A 
ATOM     41  C   UNL     1     -12.809  -0.391  -5.976  1.00  0.00     0.037 A 
ATOM     42  C   UNL     1     -10.884   1.097 -12.018  1.00  0.00     0.049 A 
ATOM     43  C   UNL     1     -13.519   0.185  -7.170  1.00  0.00     0.074 A 
ATOM     44  C   UNL     1     -11.656   1.555 -13.071  1.00  0.00     0.029 A 
ATOM     45  N   UNL     1     -11.732   0.963 -10.929  1.00  0.00    -0.354 N 
ATOM     46  N   UNL     1     -13.049   0.439  -8.367  1.00  0.00    -0.248 NA
ATOM     47  C   UNL     1     -14.941   0.518  -7.000  1.00  0.00     0.031 C 
ATOM     48  C   UNL     1     -12.962   1.744 -12.607  1.00  0.00     0.029 A 
ATOM     49  C   UNL     1     -13.014   1.353 -11.278  1.00  0.00     0.049 A 
ATOM     50  H   UNL     1     -11.462   0.639 -10.039  1.00  0.00     0.167 HD
ATOM     51  C   UNL     1     -14.121   0.931  -9.100  1.00  0.00     0.074 A 
ATOM     52  C   UNL     1     -15.268   0.934  -8.216  1.00  0.00     0.031 C 
ATOM     53  C   UNL     1     -14.151   1.341 -10.392  1.00  0.00     0.037 A 
BRANCH  40  54
ATOM     54  C   UNL     1      -8.674   1.086 -13.240  1.00  0.00     0.057 A 
ATOM     55  C   UNL     1      -8.145   0.056 -14.030  1.00  0.00     0.134 A 
ATOM     56  C   UNL     1      -8.450   2.402 -13.662  1.00  0.00     0.134 A 
ATOM     57  F   UNL     1      -8.313  -1.227 -13.676  1.00  0.00    -0.206 F 
ATOM     58  C   UNL     1      -7.395   0.326 -15.176  1.00  0.00     0.040 A 
ATOM     59  C   UNL     1      -7.727   2.684 -14.823  1.00  0.00     0.040 A 
ATOM     60  F   UNL     1      -8.935   3.436 -12.959  1.00  0.00    -0.206 F 
ATOM     61  C   UNL     1      -7.190   1.644 -15.579  1.00  0.00     0.006 A 
ENDBRANCH  40  54
BRANCH  41  62
ATOM     62  C   UNL     1     -13.529  -0.603  -4.695  1.00  0.00     0.057 A 
ATOM     63  C   UNL     1     -14.505  -1.599  -4.572  1.00  0.00     0.134 A 
ATOM     64  C   UNL     1     -13.258   0.177  -3.564  1.00  0.00     0.134 A 
ATOM     65  F   UNL     1     -14.822  -2.366  -5.626  1.00  0.00    -0.206 F 
ATOM     66  C   UNL     1     -15.195  -1.804  -3.377  1.00  0.00     0.040 A 
ATOM     67  C   UNL     1     -13.924  -0.033  -2.355  1.00  0.00     0.040 A 
ATOM     68  F   UNL     1     -12.329   1.143  -3.614  1.00  0.00    -0.206 F 
ATOM     69  C   UNL     1     -14.900  -1.023  -2.261  1.00  0.00     0.006 A 
ENDBRANCH  41  62
BRANCH  53  70
ATOM     70  C   UNL     1     -15.471   1.788 -10.947  1.00  0.00     0.057 A 
ATOM     71  C   UNL     1     -16.047   3.014 -10.592  1.00  0.00     0.134 A 
ATOM     72  C   UNL     1     -16.145   1.006 -11.894  1.00  0.00     0.134 A 
ATOM     73  F   UNL     1     -15.460   3.804  -9.681  1.00  0.00    -0.206 F 
ATOM     74  C   UNL     1     -17.254   3.440 -11.150  1.00  0.00     0.040 A 
ATOM     75  C   UNL     1     -17.338   1.433 -12.478  1.00  0.00     0.040 A 
ATOM     76  F   UNL     1     -15.643  -0.175 -12.283  1.00  0.00    -0.206 F 
ATOM     77  C   UNL     1     -17.898   2.652 -12.103  1.00  0.00     0.006 A 
ENDBRANCH  53  70
ENDBRANCH  27  28
ENDBRANCH  19  22
ENDBRANCH  17  18
ENDBRANCH   1  17
TORSDOF 12
