REMARK SMILES COCCCC(=O)Nc1nc2ccc(C(=O)NCCCNC(=O)c3ccc(-c4c5nc(c(-c6c(F)cccc6F)c6ccc([nH]6)c(-c6c(F)cccc6F)c6nc(c(-c7c(F)cccc7F)c7ccc4[nH]7)C=C6)C=C5)cc3)cc2s1
REMARK SMILES IDX 15 1 16 2 17 3 14 5 9 6 10 7 80 8 11 9 79 10 12 11 78 12
REMARK SMILES IDX 13 13 8 14 6 15 7 16 5 18 4 19 3 20 2 21 1 22 18 23 19 24
REMARK SMILES IDX 20 25 21 26 22 27 23 29 24 30 25 31 77 32 26 33 76 34 27 35
REMARK SMILES IDX 28 36 29 37 70 38 30 39 75 40 69 41 71 42 31 43 74 44 68 45
REMARK SMILES IDX 67 46 32 48 58 49 41 50 57 51 42 52 45 53 56 54 72 55 43 56
REMARK SMILES IDX 44 57 55 59 73 60 46 61 33 62 34 63 39 64 35 65 36 66 38 67
REMARK SMILES IDX 40 68 37 69 59 70 60 71 65 72 61 73 62 74 64 75 66 76 63 77
REMARK SMILES IDX 47 78 48 79 53 80 49 81 50 82 52 83 54 84 51 85
REMARK H PARENT 17 4 8 17 21 28 71 47 45 58
REMARK Flexibility Score: inf
ROOT
ATOM      1  C   UNL     1      -0.461  -0.935   5.330  1.00  0.00     0.251 C 
ATOM      2  O   UNL     1      -1.343  -1.738   5.007  1.00  0.00    -0.269 OA
ATOM      3  N   UNL     1      -0.548  -0.323   6.548  1.00  0.00    -0.352 N 
ATOM      4  H   UNL     1      -1.398  -0.468   7.024  1.00  0.00     0.163 HD
ENDROOT
BRANCH   1   5
ATOM      5  C   UNL     1       0.654  -0.683   4.386  1.00  0.00     0.041 A 
ATOM      6  C   UNL     1       3.164  -1.366   0.503  1.00  0.00     0.190 A 
ATOM      7  N   UNL     1       3.090  -0.171   1.028  1.00  0.00    -0.220 NA
ATOM      8  S   UNL     1       2.803  -2.671   1.541  1.00  0.00    -0.097 S 
ATOM      9  C   UNL     1       2.427  -0.260   2.247  1.00  0.00     0.084 A 
ATOM     10  C   UNL     1       2.035  -1.552   2.612  1.00  0.00     0.057 A 
ATOM     11  C   UNL     1       2.029   0.821   3.058  1.00  0.00     0.031 A 
ATOM     12  C   UNL     1       1.143  -1.787   3.669  1.00  0.00     0.035 A 
ATOM     13  C   UNL     1       1.117   0.604   4.101  1.00  0.00     0.016 A 
BRANCH   6  14
ATOM     14  N   UNL     1       3.684  -1.705  -0.704  1.00  0.00    -0.302 N 
ATOM     15  C   UNL     1       3.090  -1.583  -1.919  1.00  0.00     0.226 C 
ATOM     16  O   UNL     1       3.772  -1.883  -2.907  1.00  0.00    -0.275 OA
ATOM     17  H   UNL     1       4.594  -2.080  -0.698  1.00  0.00     0.172 HD
BRANCH  15  18
ATOM     18  C   UNL     1       1.657  -1.100  -2.126  1.00  0.00     0.103 C 
BRANCH  18  19
ATOM     19  C   UNL     1       0.516  -2.087  -1.843  1.00  0.00     0.038 C 
BRANCH  19  20
ATOM     20  C   UNL     1      -0.213  -1.996  -0.500  1.00  0.00     0.160 C 
BRANCH  20  21
ATOM     21  O   UNL     1      -1.029  -0.841  -0.343  1.00  0.00    -0.385 OA
ATOM     22  C   UNL     1      -0.335   0.360  -0.053  1.00  0.00     0.194 C 
ENDBRANCH  20  21
ENDBRANCH  19  20
ENDBRANCH  18  19
ENDBRANCH  15  18
ENDBRANCH   6  14
ENDBRANCH   1   5
BRANCH   3  23
ATOM     23  C   UNL     1       0.412   0.507   7.251  1.00  0.00     0.118 C 
BRANCH  23  24
ATOM     24  C   UNL     1      -0.084   1.944   7.386  1.00  0.00     0.042 C 
BRANCH  24  25
ATOM     25  C   UNL     1      -1.174   2.116   8.441  1.00  0.00     0.118 C 
BRANCH  25  26
ATOM     26  N   UNL     1      -0.664   1.911   9.792  1.00  0.00    -0.352 N 
ATOM     27  C   UNL     1      -0.580   2.781  10.843  1.00  0.00     0.251 C 
ATOM     28  H   UNL     1      -0.327   1.004   9.975  1.00  0.00     0.163 HD
ATOM     29  O   UNL     1       0.112   2.477  11.826  1.00  0.00    -0.269 OA
BRANCH  27  30
ATOM     30  C   UNL     1      -1.291   4.074  10.829  1.00  0.00     0.039 A 
ATOM     31  C   UNL     1      -0.661   5.201  11.366  1.00  0.00     0.014 A 
ATOM     32  C   UNL     1      -2.596   4.173  10.337  1.00  0.00     0.014 A 
ATOM     33  C   UNL     1      -1.316   6.434  11.360  1.00  0.00     0.010 A 
ATOM     34  C   UNL     1      -3.219   5.417  10.263  1.00  0.00     0.010 A 
ATOM     35  C   UNL     1      -2.589   6.558  10.781  1.00  0.00    -0.014 A 
BRANCH  35  36
ATOM     36  C   UNL     1      -3.278   7.872  10.708  1.00  0.00     0.031 A 
ATOM     37  C   UNL     1      -4.574   8.090  11.439  1.00  0.00     0.074 A 
ATOM     38  C   UNL     1      -2.772   8.844   9.925  1.00  0.00     0.049 A 
ATOM     39  N   UNL     1      -5.360   9.137  11.435  1.00  0.00    -0.248 NA
ATOM     40  C   UNL     1      -5.066   6.974  12.261  1.00  0.00     0.031 C 
ATOM     41  C   UNL     1      -1.549   8.736   9.127  1.00  0.00     0.029 A 
ATOM     42  N   UNL     1      -3.232  10.109   9.659  1.00  0.00    -0.354 N 
ATOM     43  C   UNL     1      -6.445   8.799  12.233  1.00  0.00     0.074 A 
ATOM     44  C   UNL     1      -6.242   7.433  12.664  1.00  0.00     0.031 C 
ATOM     45  C   UNL     1      -1.346   9.892   8.477  1.00  0.00     0.029 A 
ATOM     46  C   UNL     1      -2.441  10.807   8.780  1.00  0.00     0.049 A 
ATOM     47  H   UNL     1      -4.050  10.480  10.061  1.00  0.00     0.167 HD
ATOM     48  C   UNL     1      -7.505   9.563  12.590  1.00  0.00     0.037 A 
ATOM     49  C   UNL     1      -2.588  12.043   8.266  1.00  0.00     0.037 A 
ATOM     50  C   UNL     1      -7.690  10.930  12.178  1.00  0.00     0.049 A 
ATOM     51  C   UNL     1      -3.769  12.875   8.680  1.00  0.00     0.074 A 
ATOM     52  C   UNL     1      -8.692  11.812  12.540  1.00  0.00     0.029 A 
ATOM     53  N   UNL     1      -6.854  11.612  11.306  1.00  0.00    -0.354 N 
ATOM     54  N   UNL     1      -4.751  12.568   9.493  1.00  0.00    -0.248 NA
ATOM     55  C   UNL     1      -3.860  14.226   8.112  1.00  0.00     0.031 C 
ATOM     56  C   UNL     1      -8.490  13.012  11.850  1.00  0.00     0.029 A 
ATOM     57  C   UNL     1      -7.331  12.895  11.099  1.00  0.00     0.049 A 
ATOM     58  H   UNL     1      -6.041  11.238  10.895  1.00  0.00     0.167 HD
ATOM     59  C   UNL     1      -5.560  13.694   9.556  1.00  0.00     0.074 A 
ATOM     60  C   UNL     1      -4.947  14.696   8.708  1.00  0.00     0.031 C 
ATOM     61  C   UNL     1      -6.707  13.882  10.254  1.00  0.00     0.037 A 
BRANCH  48  62
ATOM     62  C   UNL     1      -8.548   8.934  13.470  1.00  0.00     0.057 A 
ATOM     63  C   UNL     1      -8.291   8.609  14.809  1.00  0.00     0.134 A 
ATOM     64  C   UNL     1      -9.833   8.671  12.979  1.00  0.00     0.134 A 
ATOM     65  F   UNL     1      -7.079   8.824  15.341  1.00  0.00    -0.206 F 
ATOM     66  C   UNL     1      -9.264   8.016  15.617  1.00  0.00     0.040 A 
ATOM     67  C   UNL     1     -10.822   8.105  13.785  1.00  0.00     0.040 A 
ATOM     68  F   UNL     1     -10.151   8.963  11.708  1.00  0.00    -0.206 F 
ATOM     69  C   UNL     1     -10.536   7.768  15.106  1.00  0.00     0.006 A 
ENDBRANCH  48  62
BRANCH  49  70
ATOM     70  C   UNL     1      -1.573  12.576   7.322  1.00  0.00     0.057 A 
ATOM     71  C   UNL     1      -0.698  13.599   7.705  1.00  0.00     0.134 A 
ATOM     72  C   UNL     1      -1.445  12.070   6.023  1.00  0.00     0.134 A 
ATOM     73  F   UNL     1      -0.783  14.135   8.931  1.00  0.00    -0.206 F 
ATOM     74  C   UNL     1       0.258  14.111   6.826  1.00  0.00     0.040 A 
ATOM     75  C   UNL     1      -0.478  12.555   5.142  1.00  0.00     0.040 A 
ATOM     76  F   UNL     1      -2.247  11.082   5.599  1.00  0.00    -0.206 F 
ATOM     77  C   UNL     1       0.374  13.583   5.542  1.00  0.00     0.006 A 
ENDBRANCH  49  70
BRANCH  61  78
ATOM     78  C   UNL     1      -7.356  15.232  10.156  1.00  0.00     0.057 A 
ATOM     79  C   UNL     1      -8.017  15.655   8.997  1.00  0.00     0.134 A 
ATOM     80  C   UNL     1      -7.354  16.103  11.254  1.00  0.00     0.134 A 
ATOM     81  F   UNL     1      -8.045  14.873   7.906  1.00  0.00    -0.206 F 
ATOM     82  C   UNL     1      -8.634  16.905   8.924  1.00  0.00     0.040 A 
ATOM     83  C   UNL     1      -7.990  17.343  11.203  1.00  0.00     0.040 A 
ATOM     84  F   UNL     1      -6.745  15.756  12.398  1.00  0.00    -0.206 F 
ATOM     85  C   UNL     1      -8.628  17.750  10.033  1.00  0.00     0.006 A 
ENDBRANCH  61  78
ENDBRANCH  35  36
ENDBRANCH  27  30
ENDBRANCH  25  26
ENDBRANCH  24  25
ENDBRANCH  23  24
ENDBRANCH   3  23
TORSDOF 15
