REMARK SMILES O=C(NCCCNC(=O)[C@@H](Cc1ccc(O)cc1)Nc1c2ccccc2nc2ccccc12)c1ccc(-c2c3nc(c(-c4c(F)cccc4F)c4ccc([nH]4)c(-c4c(F)cccc4F)c4nc(c(-c5c(F)cccc5F)c5ccc2[nH]5)C=C4)C=C3)cc1
REMARK SMILES IDX 5 1 4 2 3 3 1 4 2 5 34 7 35 8 87 9 36 10 86 11 37 12 38 13
REMARK SMILES IDX 39 14 80 15 40 16 85 17 79 18 81 19 41 20 84 21 78 22 77 23
REMARK SMILES IDX 42 25 68 26 51 27 67 28 52 29 55 30 66 31 82 32 53 33 54 34
REMARK SMILES IDX 65 36 83 37 56 38 43 39 44 40 49 41 45 42 46 43 48 44 50 45
REMARK SMILES IDX 47 46 69 47 70 48 75 49 71 50 72 51 74 52 76 53 73 54 57 55
REMARK SMILES IDX 58 56 63 57 59 58 60 59 62 60 64 61 61 62 6 63 7 64 8 65
REMARK SMILES IDX 9 67 10 68 11 69 12 70 13 71 18 72 14 73 17 74 15 75 16 76
REMARK SMILES IDX 19 78 20 80 21 81 33 82 22 83 26 84 28 85 32 86 23 87 25 88
REMARK SMILES IDX 27 89 29 90 31 91 24 92 30 93
REMARK H PARENT 3 6 81 24 55 35 7 66 16 77 19 79
REMARK Flexibility Score: inf
ROOT
ATOM      1  C   UNL     1       4.134   2.038   1.320  1.00  0.00     0.042 C 
ENDROOT
BRANCH   1   2
ATOM      2  C   UNL     1       3.656   0.692   1.843  1.00  0.00     0.118 C 
BRANCH   2   3
ATOM      3  N   UNL     1       2.361   0.331   1.293  1.00  0.00    -0.352 N 
ATOM      4  O   UNL     1       0.813  -0.204  -0.214  1.00  0.00    -0.269 OA
ATOM      5  C   UNL     1       1.998  -0.285   0.121  1.00  0.00     0.251 C 
ATOM      6  H   UNL     1       1.601   0.573   1.869  1.00  0.00     0.163 HD
BRANCH   5   7
ATOM      7  C   UNL     1       2.936  -1.050  -0.751  1.00  0.00     0.039 A 
ATOM      8  C   UNL     1       4.032  -1.762  -0.264  1.00  0.00     0.014 A 
ATOM      9  C   UNL     1       2.591  -1.204  -2.105  1.00  0.00     0.014 A 
ATOM     10  C   UNL     1       4.799  -2.567  -1.115  1.00  0.00     0.010 A 
ATOM     11  C   UNL     1       3.302  -2.080  -2.938  1.00  0.00     0.010 A 
ATOM     12  C   UNL     1       4.406  -2.785  -2.444  1.00  0.00    -0.014 A 
BRANCH  12  13
ATOM     13  C   UNL     1       5.039  -3.881  -3.230  1.00  0.00     0.031 A 
ATOM     14  C   UNL     1       5.816  -3.614  -4.488  1.00  0.00     0.074 A 
ATOM     15  C   UNL     1       4.872  -5.152  -2.808  1.00  0.00     0.049 A 
ATOM     16  N   UNL     1       6.405  -4.473  -5.285  1.00  0.00    -0.248 NA
ATOM     17  C   UNL     1       5.941  -2.214  -4.917  1.00  0.00     0.031 C 
ATOM     18  C   UNL     1       4.094  -5.554  -1.631  1.00  0.00     0.029 A 
ATOM     19  N   UNL     1       5.341  -6.341  -3.311  1.00  0.00    -0.354 N 
ATOM     20  C   UNL     1       6.953  -3.723  -6.317  1.00  0.00     0.074 A 
ATOM     21  C   UNL     1       6.615  -2.339  -6.055  1.00  0.00     0.031 C 
ATOM     22  C   UNL     1       4.167  -6.885  -1.485  1.00  0.00     0.029 A 
ATOM     23  C   UNL     1       4.947  -7.440  -2.584  1.00  0.00     0.049 A 
ATOM     24  H   UNL     1       5.905  -6.401  -4.115  1.00  0.00     0.167 HD
ATOM     25  C   UNL     1       7.676  -4.152  -7.380  1.00  0.00     0.037 A 
ATOM     26  C   UNL     1       5.163  -8.753  -2.785  1.00  0.00     0.037 A 
ATOM     27  C   UNL     1       8.042  -5.525  -7.624  1.00  0.00     0.049 A 
ATOM     28  C   UNL     1       5.961  -9.194  -3.976  1.00  0.00     0.074 A 
ATOM     29  C   UNL     1       8.862  -6.032  -8.620  1.00  0.00     0.029 A 
ATOM     30  N   UNL     1       7.605  -6.607  -6.879  1.00  0.00    -0.354 N 
ATOM     31  N   UNL     1       6.538  -8.463  -4.896  1.00  0.00    -0.248 NA
ATOM     32  C   UNL     1       6.127 -10.643  -4.164  1.00  0.00     0.031 C 
ATOM     33  C   UNL     1       8.885  -7.426  -8.502  1.00  0.00     0.029 A 
ATOM     34  C   UNL     1       8.106  -7.783  -7.415  1.00  0.00     0.049 A 
ATOM     35  H   UNL     1       7.024  -6.550  -6.086  1.00  0.00     0.167 HD
ATOM     36  C   UNL     1       7.132  -9.358  -5.773  1.00  0.00     0.074 A 
ATOM     37  C   UNL     1       6.871 -10.687  -5.260  1.00  0.00     0.031 C 
ATOM     38  C   UNL     1       7.824  -9.100  -6.908  1.00  0.00     0.037 A 
BRANCH  25  39
ATOM     39  C   UNL     1       8.131  -3.131  -8.379  1.00  0.00     0.057 A 
ATOM     40  C   UNL     1       9.219  -2.288  -8.127  1.00  0.00     0.134 A 
ATOM     41  C   UNL     1       7.534  -3.061  -9.645  1.00  0.00     0.134 A 
ATOM     42  F   UNL     1       9.832  -2.307  -6.934  1.00  0.00    -0.206 F 
ATOM     43  C   UNL     1       9.695  -1.405  -9.098  1.00  0.00     0.040 A 
ATOM     44  C   UNL     1       8.011  -2.194 -10.629  1.00  0.00     0.040 A 
ATOM     45  F   UNL     1       6.495  -3.852  -9.952  1.00  0.00    -0.206 F 
ATOM     46  C   UNL     1       9.096  -1.363 -10.356  1.00  0.00     0.006 A 
ENDBRANCH  25  39
BRANCH  26  47
ATOM     47  C   UNL     1       4.585  -9.750  -1.851  1.00  0.00     0.057 A 
ATOM     48  C   UNL     1       5.397 -10.482  -0.978  1.00  0.00     0.134 A 
ATOM     49  C   UNL     1       3.208  -9.996  -1.814  1.00  0.00     0.134 A 
ATOM     50  F   UNL     1       6.726 -10.305  -0.984  1.00  0.00    -0.206 F 
ATOM     51  C   UNL     1       4.861 -11.432  -0.108  1.00  0.00     0.040 A 
ATOM     52  C   UNL     1       2.655 -10.925  -0.932  1.00  0.00     0.040 A 
ATOM     53  F   UNL     1       2.378  -9.323  -2.624  1.00  0.00    -0.206 F 
ATOM     54  C   UNL     1       3.484 -11.652  -0.080  1.00  0.00     0.006 A 
ENDBRANCH  26  47
BRANCH  38  55
ATOM     55  C   UNL     1       8.335 -10.281  -7.674  1.00  0.00     0.057 A 
ATOM     56  C   UNL     1       7.478 -11.070  -8.451  1.00  0.00     0.134 A 
ATOM     57  C   UNL     1       9.692 -10.622  -7.652  1.00  0.00     0.134 A 
ATOM     58  F   UNL     1       6.164 -10.805  -8.497  1.00  0.00    -0.206 F 
ATOM     59  C   UNL     1       7.952 -12.168  -9.170  1.00  0.00     0.040 A 
ATOM     60  C   UNL     1      10.181 -11.706  -8.382  1.00  0.00     0.040 A 
ATOM     61  F   UNL     1      10.564  -9.904  -6.928  1.00  0.00    -0.206 F 
ATOM     62  C   UNL     1       9.309 -12.485  -9.141  1.00  0.00     0.006 A 
ENDBRANCH  38  55
ENDBRANCH  12  13
ENDBRANCH   5   7
ENDBRANCH   2   3
ENDBRANCH   1   2
BRANCH   1  63
ATOM     63  C   UNL     1       3.694   3.232   2.163  1.00  0.00     0.117 C 
BRANCH  63  64
ATOM     64  N   UNL     1       4.549   3.398   3.325  1.00  0.00    -0.354 N 
ATOM     65  C   UNL     1       5.632   4.183   3.575  1.00  0.00     0.242 C 
ATOM     66  H   UNL     1       4.293   2.828   4.085  1.00  0.00     0.163 HD
ATOM     67  O   UNL     1       6.268   3.888   4.598  1.00  0.00    -0.273 OA
BRANCH  65  68
ATOM     68  C   UNL     1       6.117   5.357   2.688  1.00  0.00     0.173 C 
BRANCH  68  69
ATOM     69  C   UNL     1       6.972   4.911   1.474  1.00  0.00     0.070 C 
BRANCH  69  70
ATOM     70  C   UNL     1       6.362   4.327   0.218  1.00  0.00    -0.045 A 
ATOM     71  C   UNL     1       5.329   4.959  -0.487  1.00  0.00     0.007 A 
ATOM     72  C   UNL     1       6.913   3.151  -0.326  1.00  0.00     0.007 A 
ATOM     73  C   UNL     1       4.773   4.368  -1.628  1.00  0.00     0.046 A 
ATOM     74  C   UNL     1       6.369   2.566  -1.472  1.00  0.00     0.046 A 
ATOM     75  C   UNL     1       5.285   3.164  -2.098  1.00  0.00     0.115 A 
BRANCH  75  76
ATOM     76  O   UNL     1       4.742   2.527  -3.173  1.00  0.00    -0.508 OA
ATOM     77  H   UNL     1       4.009   2.903  -3.619  1.00  0.00     0.293 HD
ENDBRANCH  75  76
ENDBRANCH  69  70
ENDBRANCH  68  69
BRANCH  68  78
ATOM     78  N   UNL     1       5.060   6.337   2.368  1.00  0.00    -0.372 N 
ATOM     79  H   UNL     1       4.452   6.152   1.616  1.00  0.00     0.161 HD
BRANCH  78  80
ATOM     80  C   UNL     1       4.891   7.531   3.103  1.00  0.00     0.054 A 
ATOM     81  C   UNL     1       5.915   8.527   3.184  1.00  0.00     0.024 A 
ATOM     82  C   UNL     1       3.660   7.756   3.796  1.00  0.00     0.024 A 
ATOM     83  C   UNL     1       7.172   8.471   2.531  1.00  0.00     0.012 A 
ATOM     84  C   UNL     1       5.638   9.687   3.937  1.00  0.00     0.073 A 
ATOM     85  C   UNL     1       3.511   8.981   4.478  1.00  0.00     0.073 A 
ATOM     86  C   UNL     1       2.578   6.838   3.854  1.00  0.00     0.012 A 
ATOM     87  C   UNL     1       8.134   9.472   2.670  1.00  0.00     0.001 A 
ATOM     88  C   UNL     1       6.601  10.682   4.054  1.00  0.00     0.029 A 
ATOM     89  N   UNL     1       4.471   9.906   4.546  1.00  0.00    -0.248 NA
ATOM     90  C   UNL     1       2.316   9.271   5.123  1.00  0.00     0.029 A 
ATOM     91  C   UNL     1       1.389   7.143   4.521  1.00  0.00     0.001 A 
ATOM     92  C   UNL     1       7.849  10.583   3.442  1.00  0.00     0.002 A 
ATOM     93  C   UNL     1       1.253   8.370   5.147  1.00  0.00     0.002 A 
ENDBRANCH  78  80
ENDBRANCH  68  78
ENDBRANCH  65  68
ENDBRANCH  63  64
ENDBRANCH   1  63
TORSDOF 15
