REMARK SMILES CC[C@@H](C)[C@H](NC(=O)[C@H]1CCCN(S(=O)(=O)c2ccccc2)C1)C(=O)NCCCNC(=O)c1ccc(-c2c3nc(c(-c4c(F)cccc4F)c4ccc([nH]4)c(-c4c(F)cccc4F)c4nc(c(-c5c(F)cccc5F)c5ccc2[nH]5)C=C4)C=C3)cc1
REMARK SMILES IDX 27 1 26 2 24 3 25 4 5 6 3 7 4 8 2 9 1 10 6 11 7 12 8 14 9 15
REMARK SMILES IDX 10 16 23 17 11 18 13 19 12 20 14 21 15 22 16 23 17 24 18 25
REMARK SMILES IDX 22 26 19 27 21 28 20 29 28 30 29 31 30 32 31 33 32 35 33 36
REMARK SMILES IDX 34 37 86 38 35 39 85 40 36 41 37 42 38 43 79 44 39 45 84 46
REMARK SMILES IDX 78 47 80 48 40 49 83 50 77 51 76 52 41 54 67 55 50 56 66 57
REMARK SMILES IDX 51 58 54 59 65 60 81 61 52 62 53 63 64 65 82 66 55 67 42 68
REMARK SMILES IDX 43 69 48 70 44 71 45 72 47 73 49 74 46 75 68 76 69 77 74 78
REMARK SMILES IDX 70 79 71 80 73 81 75 82 72 83 56 84 57 85 62 86 58 87 59 88
REMARK SMILES IDX 61 89 63 90 60 91
REMARK H PARENT 26 5 6 13 30 34 80 53 54 64
REMARK Flexibility Score: inf
ROOT
ATOM      1  C   UNL     1      -3.078   0.663   4.628  1.00  0.00     0.117 C 
ENDROOT
BRANCH   1   2
ATOM      2  N   UNL     1      -3.209  -0.510   3.782  1.00  0.00    -0.354 N 
ATOM      3  C   UNL     1      -2.412  -1.053   2.825  1.00  0.00     0.242 C 
ATOM      4  O   UNL     1      -2.718  -2.191   2.449  1.00  0.00    -0.273 OA
ATOM      5  H   UNL     1      -4.042  -1.013   3.932  1.00  0.00     0.163 HD
BRANCH   3   6
ATOM      6  C   UNL     1      -1.127  -0.386   2.275  1.00  0.00     0.174 C 
BRANCH   6   7
ATOM      7  C   UNL     1       0.124  -0.591   3.174  1.00  0.00     0.018 C 
ATOM      8  C   UNL     1       0.182   0.294   4.419  1.00  0.00     0.010 C 
BRANCH   7   9
ATOM      9  C   UNL     1       1.403  -0.441   2.316  1.00  0.00     0.002 C 
ATOM     10  C   UNL     1       2.694  -0.733   3.070  1.00  0.00     0.004 C 
ENDBRANCH   7   9
ENDBRANCH   6   7
BRANCH   6  11
ATOM     11  N   UNL     1      -1.345   0.989   1.827  1.00  0.00    -0.344 N 
ATOM     12  C   UNL     1      -1.518   1.572   0.616  1.00  0.00     0.225 C 
ATOM     13  H   UNL     1      -1.372   1.635   2.570  1.00  0.00     0.164 HD
ATOM     14  O   UNL     1      -2.032   2.697   0.682  1.00  0.00    -0.275 OA
BRANCH  12  15
ATOM     15  C   UNL     1      -1.004   1.037  -0.738  1.00  0.00     0.094 C 
ATOM     16  C   UNL     1      -1.143  -0.458  -1.008  1.00  0.00     0.016 C 
ATOM     17  C   UNL     1      -1.730   1.854  -1.837  1.00  0.00     0.116 C 
ATOM     18  C   UNL     1      -0.799  -0.816  -2.446  1.00  0.00     0.018 C 
ATOM     19  N   UNL     1      -1.405   1.423  -3.251  1.00  0.00    -0.197 NA
ATOM     20  C   UNL     1      -1.635  -0.032  -3.436  1.00  0.00     0.102 C 
BRANCH  19  21
ATOM     21  S   UNL     1      -2.291   2.413  -4.379  1.00  0.00     0.243 S 
ATOM     22  O   UNL     1      -3.680   1.991  -4.319  1.00  0.00    -0.207 OA
ATOM     23  O   UNL     1      -1.926   3.788  -4.129  1.00  0.00    -0.207 OA
BRANCH  21  24
ATOM     24  C   UNL     1      -1.677   1.976  -5.994  1.00  0.00     0.082 A 
ATOM     25  C   UNL     1      -0.821   2.851  -6.670  1.00  0.00     0.022 A 
ATOM     26  C   UNL     1      -2.177   0.840  -6.643  1.00  0.00     0.022 A 
ATOM     27  C   UNL     1      -0.435   2.564  -7.982  1.00  0.00     0.001 A 
ATOM     28  C   UNL     1      -1.764   0.543  -7.942  1.00  0.00     0.001 A 
ATOM     29  C   UNL     1      -0.896   1.406  -8.611  1.00  0.00     0.000 A 
ENDBRANCH  21  24
ENDBRANCH  19  21
ENDBRANCH  12  15
ENDBRANCH   6  11
ENDBRANCH   3   6
ENDBRANCH   1   2
BRANCH   1  30
ATOM     30  C   UNL     1      -4.324   1.535   4.637  1.00  0.00     0.042 C 
BRANCH  30  31
ATOM     31  C   UNL     1      -5.544   0.857   5.253  1.00  0.00     0.118 C 
BRANCH  31  32
ATOM     32  N   UNL     1      -5.378   0.566   6.673  1.00  0.00    -0.352 N 
ATOM     33  C   UNL     1      -5.796   1.250   7.791  1.00  0.00     0.251 C 
ATOM     34  H   UNL     1      -4.882  -0.262   6.865  1.00  0.00     0.163 HD
ATOM     35  O   UNL     1      -5.370   0.923   8.895  1.00  0.00    -0.269 OA
BRANCH  33  36
ATOM     36  C   UNL     1      -6.724   2.395   7.673  1.00  0.00     0.039 A 
ATOM     37  C   UNL     1      -6.489   3.544   8.436  1.00  0.00     0.014 A 
ATOM     38  C   UNL     1      -7.831   2.340   6.827  1.00  0.00     0.014 A 
ATOM     39  C   UNL     1      -7.297   4.672   8.264  1.00  0.00     0.010 A 
ATOM     40  C   UNL     1      -8.576   3.489   6.587  1.00  0.00     0.010 A 
ATOM     41  C   UNL     1      -8.309   4.673   7.291  1.00  0.00    -0.014 A 
BRANCH  41  42
ATOM     42  C   UNL     1      -9.080   5.897   6.952  1.00  0.00     0.031 A 
ATOM     43  C   UNL     1     -10.578   5.907   7.090  1.00  0.00     0.074 A 
ATOM     44  C   UNL     1      -8.447   6.947   6.391  1.00  0.00     0.049 A 
ATOM     45  N   UNL     1     -11.441   6.793   6.663  1.00  0.00    -0.248 NA
ATOM     46  C   UNL     1     -11.190   4.749   7.761  1.00  0.00     0.031 C 
ATOM     47  C   UNL     1      -7.005   7.038   6.146  1.00  0.00     0.029 A 
ATOM     48  N   UNL     1      -8.941   8.127   5.892  1.00  0.00    -0.354 N 
ATOM     49  C   UNL     1     -12.694   6.279   6.971  1.00  0.00     0.074 A 
ATOM     50  C   UNL     1     -12.483   4.994   7.600  1.00  0.00     0.031 C 
ATOM     51  C   UNL     1      -6.732   8.209   5.548  1.00  0.00     0.029 A 
ATOM     52  C   UNL     1      -7.980   8.929   5.324  1.00  0.00     0.049 A 
ATOM     53  H   UNL     1      -9.893   8.374   5.937  1.00  0.00     0.167 HD
ATOM     54  C   UNL     1     -13.909   6.837   6.759  1.00  0.00     0.037 A 
ATOM     55  C   UNL     1      -8.093  10.100   4.669  1.00  0.00     0.037 A 
ATOM     56  C   UNL     1     -14.113   8.146   6.201  1.00  0.00     0.049 A 
ATOM     57  C   UNL     1      -9.453  10.707   4.473  1.00  0.00     0.074 A 
ATOM     58  C   UNL     1     -15.296   8.854   6.076  1.00  0.00     0.029 A 
ATOM     59  N   UNL     1     -13.110   8.944   5.676  1.00  0.00    -0.354 N 
ATOM     60  N   UNL     1     -10.622  10.250   4.850  1.00  0.00    -0.248 NA
ATOM     61  C   UNL     1      -9.512  11.987   3.752  1.00  0.00     0.031 C 
ATOM     62  C   UNL     1     -15.014  10.067   5.441  1.00  0.00     0.029 A 
ATOM     63  C   UNL     1     -13.651  10.126   5.197  1.00  0.00     0.049 A 
ATOM     64  H   UNL     1     -12.154   8.707   5.647  1.00  0.00     0.167 HD
ATOM     65  C   UNL     1     -11.551  11.190   4.427  1.00  0.00     0.074 A 
ATOM     66  C   UNL     1     -10.811  12.252   3.779  1.00  0.00     0.031 C 
ATOM     67  C   UNL     1     -12.899  11.173   4.559  1.00  0.00     0.037 A 
BRANCH  54  68
ATOM     68  C   UNL     1     -15.121   6.044   7.144  1.00  0.00     0.057 A 
ATOM     69  C   UNL     1     -15.499   5.873   8.481  1.00  0.00     0.134 A 
ATOM     70  C   UNL     1     -15.956   5.501   6.159  1.00  0.00     0.134 A 
ATOM     71  F   UNL     1     -14.735   6.361   9.470  1.00  0.00    -0.206 F 
ATOM     72  C   UNL     1     -16.659   5.178   8.827  1.00  0.00     0.040 A 
ATOM     73  C   UNL     1     -17.129   4.822   6.492  1.00  0.00     0.040 A 
ATOM     74  F   UNL     1     -15.653   5.635   4.859  1.00  0.00    -0.206 F 
ATOM     75  C   UNL     1     -17.482   4.658   7.830  1.00  0.00     0.006 A 
ENDBRANCH  54  68
BRANCH  55  76
ATOM     76  C   UNL     1      -6.885  10.776   4.135  1.00  0.00     0.057 A 
ATOM     77  C   UNL     1      -6.401  11.952   4.720  1.00  0.00     0.134 A 
ATOM     78  C   UNL     1      -6.200  10.279   3.020  1.00  0.00     0.134 A 
ATOM     79  F   UNL     1      -7.029  12.487   5.777  1.00  0.00    -0.206 F 
ATOM     80  C   UNL     1      -5.290  12.621   4.204  1.00  0.00     0.040 A 
ATOM     81  C   UNL     1      -5.075  10.925   2.507  1.00  0.00     0.040 A 
ATOM     82  F   UNL     1      -6.613   9.153   2.419  1.00  0.00    -0.206 F 
ATOM     83  C   UNL     1      -4.622  12.105   3.095  1.00  0.00     0.006 A 
ENDBRANCH  55  76
BRANCH  67  84
ATOM     84  C   UNL     1     -13.656  12.341   4.008  1.00  0.00     0.057 A 
ATOM     85  C   UNL     1     -13.880  12.483   2.634  1.00  0.00     0.134 A 
ATOM     86  C   UNL     1     -14.210  13.303   4.862  1.00  0.00     0.134 A 
ATOM     87  F   UNL     1     -13.362  11.600   1.766  1.00  0.00    -0.206 F 
ATOM     88  C   UNL     1     -14.622  13.550   2.125  1.00  0.00     0.040 A 
ATOM     89  C   UNL     1     -14.970  14.362   4.367  1.00  0.00     0.040 A 
ATOM     90  F   UNL     1     -14.034  13.217   6.189  1.00  0.00    -0.206 F 
ATOM     91  C   UNL     1     -15.175  14.489   2.994  1.00  0.00     0.006 A 
ENDBRANCH  67  84
ENDBRANCH  41  42
ENDBRANCH  33  36
ENDBRANCH  31  32
ENDBRANCH  30  31
ENDBRANCH   1  30
TORSDOF 16
