REMARK SMILES CC(C)(C)OC(=O)N1C[C@@H](c2cccc(Cl)c2)CC[C@H]1C(=O)NCCCNC(=O)c1ccc(-c2c3nc(c(-c4c(F)cccc4F)c4ccc([nH]4)c(-c4c(F)cccc4F)c4nc(c(-c5c(F)cccc5F)c5ccc2[nH]5)C=C4)C=C3)cc1
REMARK SMILES IDX 24 1 23 2 21 3 22 4 20 6 8 7 9 8 10 9 19 10 18 11 6 12 7 13
REMARK SMILES IDX 5 14 2 15 1 16 3 17 4 18 11 19 12 20 17 21 13 22 15 23 14 24
REMARK SMILES IDX 16 25 25 26 26 27 27 28 28 29 29 31 30 32 31 33 83 34 32 35
REMARK SMILES IDX 82 36 33 37 34 38 35 39 76 40 36 41 81 42 75 43 77 44 37 45
REMARK SMILES IDX 80 46 74 47 73 48 38 50 64 51 47 52 63 53 48 54 51 55 62 56
REMARK SMILES IDX 78 57 49 58 50 59 61 61 79 62 52 63 39 64 40 65 45 66 41 67
REMARK SMILES IDX 42 68 44 69 46 70 43 71 65 72 66 73 71 74 67 75 68 76 70 77
REMARK SMILES IDX 72 78 69 79 53 80 54 81 59 82 55 83 56 84 58 85 60 86 57 87
REMARK H PARENT 23 5 27 30 77 49 51 60
REMARK Flexibility Score: inf
ROOT
ATOM      1  C   UNL     1       3.119   7.520  -3.406  1.00  0.00     0.117 C 
ENDROOT
BRANCH   1   2
ATOM      2  N   UNL     1       2.739   6.715  -2.259  1.00  0.00    -0.354 N 
ATOM      3  C   UNL     1       2.361   5.430  -2.051  1.00  0.00     0.242 C 
ATOM      4  O   UNL     1       2.128   5.167  -0.860  1.00  0.00    -0.273 OA
ATOM      5  H   UNL     1       2.762   7.232  -1.421  1.00  0.00     0.163 HD
BRANCH   3   6
ATOM      6  C   UNL     1       2.151   4.315  -3.120  1.00  0.00     0.177 C 
ATOM      7  N   UNL     1       0.786   3.794  -3.020  1.00  0.00    -0.296 N 
ATOM      8  C   UNL     1      -0.252   4.694  -3.451  1.00  0.00     0.132 C 
ATOM      9  C   UNL     1      -0.168   5.010  -4.952  1.00  0.00     0.039 C 
ATOM     10  C   UNL     1       2.405   4.524  -4.614  1.00  0.00     0.036 C 
ATOM     11  C   UNL     1       1.304   5.291  -5.374  1.00  0.00     0.013 C 
BRANCH   7  12
ATOM     12  C   UNL     1       0.490   2.450  -2.960  1.00  0.00     0.410 C 
ATOM     13  O   UNL     1      -0.401   1.948  -3.632  1.00  0.00    -0.224 OA
BRANCH  12  14
ATOM     14  O   UNL     1       1.204   1.802  -2.007  1.00  0.00    -0.444 OA
BRANCH  14  15
ATOM     15  C   UNL     1       0.756   0.490  -1.564  1.00  0.00     0.106 C 
ATOM     16  C   UNL     1       1.463   0.251  -0.221  1.00  0.00     0.056 C 
ATOM     17  C   UNL     1       1.200  -0.576  -2.567  1.00  0.00     0.056 C 
ATOM     18  C   UNL     1      -0.761   0.419  -1.299  1.00  0.00     0.056 C 
ENDBRANCH  14  15
ENDBRANCH  12  14
ENDBRANCH   7  12
BRANCH   9  19
ATOM     19  C   UNL     1      -1.138   6.137  -5.345  1.00  0.00    -0.042 A 
ATOM     20  C   UNL     1      -0.997   6.821  -6.563  1.00  0.00     0.004 A 
ATOM     21  C   UNL     1      -2.219   6.511  -4.518  1.00  0.00     0.024 A 
ATOM     22  C   UNL     1      -1.859   7.869  -6.911  1.00  0.00     0.002 A 
ATOM     23  C   UNL     1      -3.074   7.558  -4.866  1.00  0.00     0.041 A 
ATOM     24  C   UNL     1      -2.893   8.246  -6.058  1.00  0.00     0.020 A 
ATOM     25  Cl  UNL     1      -4.351   8.001  -3.801  1.00  0.00    -0.084 Cl
ENDBRANCH   9  19
ENDBRANCH   3   6
ENDBRANCH   1   2
BRANCH   1  26
ATOM     26  C   UNL     1       1.977   8.411  -3.897  1.00  0.00     0.042 C 
BRANCH  26  27
ATOM     27  C   UNL     1       1.730   9.661  -3.060  1.00  0.00     0.118 C 
BRANCH  27  28
ATOM     28  N   UNL     1       2.743  10.685  -3.267  1.00  0.00    -0.352 N 
ATOM     29  C   UNL     1       2.676  11.917  -3.874  1.00  0.00     0.251 C 
ATOM     30  H   UNL     1       3.631  10.457  -2.910  1.00  0.00     0.163 HD
ATOM     31  O   UNL     1       3.722  12.525  -4.090  1.00  0.00    -0.269 OA
BRANCH  29  32
ATOM     32  C   UNL     1       1.387  12.525  -4.288  1.00  0.00     0.039 A 
ATOM     33  C   UNL     1       1.357  13.294  -5.460  1.00  0.00     0.014 A 
ATOM     34  C   UNL     1       0.232  12.424  -3.511  1.00  0.00     0.014 A 
ATOM     35  C   UNL     1       0.169  13.904  -5.876  1.00  0.00     0.010 A 
ATOM     36  C   UNL     1      -0.972  12.966  -3.965  1.00  0.00     0.010 A 
ATOM     37  C   UNL     1      -1.015  13.722  -5.146  1.00  0.00    -0.014 A 
BRANCH  37  38
ATOM     38  C   UNL     1      -2.300  14.332  -5.580  1.00  0.00     0.031 A 
ATOM     39  C   UNL     1      -2.973  15.368  -4.720  1.00  0.00     0.074 A 
ATOM     40  C   UNL     1      -2.897  13.913  -6.712  1.00  0.00     0.049 A 
ATOM     41  N   UNL     1      -4.146  15.933  -4.866  1.00  0.00    -0.248 NA
ATOM     42  C   UNL     1      -2.241  15.808  -3.522  1.00  0.00     0.031 C 
ATOM     43  C   UNL     1      -2.367  12.900  -7.626  1.00  0.00     0.029 A 
ATOM     44  N   UNL     1      -4.091  14.283  -7.282  1.00  0.00    -0.354 N 
ATOM     45  C   UNL     1      -4.302  16.770  -3.768  1.00  0.00     0.074 A 
ATOM     46  C   UNL     1      -3.122  16.611  -2.945  1.00  0.00     0.031 C 
ATOM     47  C   UNL     1      -3.220  12.746  -8.652  1.00  0.00     0.029 A 
ATOM     48  C   UNL     1      -4.374  13.617  -8.449  1.00  0.00     0.049 A 
ATOM     49  H   UNL     1      -4.687  14.962  -6.890  1.00  0.00     0.167 HD
ATOM     50  C   UNL     1      -5.327  17.608  -3.478  1.00  0.00     0.037 A 
ATOM     51  C   UNL     1      -5.447  13.692  -9.259  1.00  0.00     0.037 A 
ATOM     52  C   UNL     1      -6.484  17.797  -4.311  1.00  0.00     0.049 A 
ATOM     53  C   UNL     1      -6.572  14.628  -8.916  1.00  0.00     0.074 A 
ATOM     54  C   UNL     1      -7.548  18.663  -4.128  1.00  0.00     0.029 A 
ATOM     55  N   UNL     1      -6.725  17.112  -5.492  1.00  0.00    -0.354 N 
ATOM     56  N   UNL     1      -6.689  15.439  -7.893  1.00  0.00    -0.248 NA
ATOM     57  C   UNL     1      -7.715  14.657  -9.841  1.00  0.00     0.031 C 
ATOM     58  C   UNL     1      -8.448  18.482  -5.184  1.00  0.00     0.029 A 
ATOM     59  C   UNL     1      -7.926  17.527  -6.042  1.00  0.00     0.049 A 
ATOM     60  H   UNL     1      -6.130  16.431  -5.882  1.00  0.00     0.167 HD
ATOM     61  C   UNL     1      -7.902  16.092  -8.063  1.00  0.00     0.074 A 
ATOM     62  C   UNL     1      -8.481  15.590  -9.292  1.00  0.00     0.031 C 
ATOM     63  C   UNL     1      -8.483  17.026  -7.272  1.00  0.00     0.037 A 
BRANCH  50  64
ATOM     64  C   UNL     1      -5.236  18.387  -2.198  1.00  0.00     0.057 A 
ATOM     65  C   UNL     1      -4.337  19.451  -2.045  1.00  0.00     0.134 A 
ATOM     66  C   UNL     1      -6.068  18.083  -1.114  1.00  0.00     0.134 A 
ATOM     67  F   UNL     1      -3.503  19.785  -3.042  1.00  0.00    -0.206 F 
ATOM     68  C   UNL     1      -4.249  20.165  -0.849  1.00  0.00     0.040 A 
ATOM     69  C   UNL     1      -6.006  18.806   0.079  1.00  0.00     0.040 A 
ATOM     70  F   UNL     1      -6.956  17.081  -1.197  1.00  0.00    -0.206 F 
ATOM     71  C   UNL     1      -5.089  19.846   0.216  1.00  0.00     0.006 A 
ENDBRANCH  50  64
BRANCH  51  72
ATOM     72  C   UNL     1      -5.498  12.872 -10.494  1.00  0.00     0.057 A 
ATOM     73  C   UNL     1      -5.344  13.464 -11.753  1.00  0.00     0.134 A 
ATOM     74  C   UNL     1      -5.698  11.488 -10.450  1.00  0.00     0.134 A 
ATOM     75  F   UNL     1      -5.168  14.789 -11.858  1.00  0.00    -0.206 F 
ATOM     76  C   UNL     1      -5.399  12.710 -12.926  1.00  0.00     0.040 A 
ATOM     77  C   UNL     1      -5.736  10.719 -11.614  1.00  0.00     0.040 A 
ATOM     78  F   UNL     1      -5.844  10.861  -9.272  1.00  0.00    -0.206 F 
ATOM     79  C   UNL     1      -5.591  11.332 -12.857  1.00  0.00     0.006 A 
ENDBRANCH  51  72
BRANCH  63  80
ATOM     80  C   UNL     1      -9.794  17.592  -7.728  1.00  0.00     0.057 A 
ATOM     81  C   UNL     1     -10.988  16.868  -7.616  1.00  0.00     0.134 A 
ATOM     82  C   UNL     1      -9.869  18.892  -8.243  1.00  0.00     0.134 A 
ATOM     83  F   UNL     1     -10.980  15.613  -7.143  1.00  0.00    -0.206 F 
ATOM     84  C   UNL     1     -12.209  17.413  -8.016  1.00  0.00     0.040 A 
ATOM     85  C   UNL     1     -11.086  19.454  -8.628  1.00  0.00     0.040 A 
ATOM     86  F   UNL     1      -8.761  19.638  -8.370  1.00  0.00    -0.206 F 
ATOM     87  C   UNL     1     -12.261  18.713  -8.518  1.00  0.00     0.006 A 
ENDBRANCH  63  80
ENDBRANCH  37  38
ENDBRANCH  29  32
ENDBRANCH  27  28
ENDBRANCH  26  27
ENDBRANCH   1  26
TORSDOF 14
