REMARK SMILES C=C(C)C(=O)OCC[C@@H](C(C)=O)C(=O)NCCCNC(=O)c1ccc(-c2c3nc(c(-c4c(F)cccc4F)c4ccc([nH]4)c(-c4c(F)cccc4F)c4nc(c(-c5c(F)cccc5F)c5ccc2[nH]5)C=C4)C=C3)cc1
REMARK SMILES IDX 13 1 14 2 15 3 9 5 8 6 7 7 6 8 4 9 5 10 2 11 1 12 3 13 10 14
REMARK SMILES IDX 11 15 12 16 16 17 17 18 18 19 19 20 20 21 21 23 22 24 23 25
REMARK SMILES IDX 75 26 24 27 74 28 25 29 26 30 27 31 68 32 28 33 73 34 67 35
REMARK SMILES IDX 69 36 29 37 72 38 66 39 65 40 30 42 56 43 39 44 55 45 40 46
REMARK SMILES IDX 43 47 54 48 70 49 41 50 42 51 53 53 71 54 44 55 31 56 32 57
REMARK SMILES IDX 37 58 33 59 34 60 36 61 38 62 35 63 57 64 58 65 63 66 59 67
REMARK SMILES IDX 60 68 62 69 64 70 61 71 45 72 46 73 51 74 47 75 48 76 50 77
REMARK SMILES IDX 52 78 49 79
REMARK H PARENT 15 4 19 22 69 41 43 52
REMARK Flexibility Score: inf
ROOT
ATOM      1  C   UNL     1       3.818  -2.121   4.160  1.00  0.00     0.230 C 
ATOM      2  O   UNL     1       3.779  -3.067   3.372  1.00  0.00    -0.274 OA
ATOM      3  N   UNL     1       4.524  -2.276   5.312  1.00  0.00    -0.355 N 
ATOM      4  H   UNL     1       4.965  -3.150   5.420  1.00  0.00     0.163 HD
ENDROOT
BRANCH   1   5
ATOM      5  C   UNL     1       3.083  -0.828   3.874  1.00  0.00     0.148 C 
BRANCH   5   6
ATOM      6  C   UNL     1       1.812  -0.791   4.748  1.00  0.00     0.063 C 
BRANCH   6   7
ATOM      7  C   UNL     1       0.800   0.297   4.399  1.00  0.00     0.234 C 
BRANCH   7   8
ATOM      8  O   UNL     1       0.157   0.022   3.149  1.00  0.00    -0.462 OA
BRANCH   8   9
ATOM      9  C   UNL     1       0.718   0.580   2.051  1.00  0.00     0.333 C 
ATOM     10  O   UNL     1       1.735   1.258   2.018  1.00  0.00    -0.247 OA
BRANCH   9  11
ATOM     11  C   UNL     1      -0.046   0.167   0.852  1.00  0.00     0.027 C 
ATOM     12  C   UNL     1       0.643  -0.022  -0.285  1.00  0.00     0.020 C 
ATOM     13  C   UNL     1      -1.527   0.016   0.973  1.00  0.00     0.051 C 
ENDBRANCH   9  11
ENDBRANCH   8   9
ENDBRANCH   7   8
ENDBRANCH   6   7
ENDBRANCH   5   6
BRANCH   5  14
ATOM     14  C   UNL     1       3.986   0.394   4.023  1.00  0.00     0.142 C 
ATOM     15  C   UNL     1       5.358   0.353   3.391  1.00  0.00     0.088 C 
ATOM     16  O   UNL     1       3.638   1.393   4.659  1.00  0.00    -0.299 OA
ENDBRANCH   5  14
ENDBRANCH   1   5
BRANCH   3  17
ATOM     17  C   UNL     1       4.725  -1.343   6.410  1.00  0.00     0.117 C 
BRANCH  17  18
ATOM     18  C   UNL     1       4.241  -1.914   7.726  1.00  0.00     0.042 C 
BRANCH  18  19
ATOM     19  C   UNL     1       5.045  -3.119   8.169  1.00  0.00     0.118 C 
BRANCH  19  20
ATOM     20  N   UNL     1       6.454  -2.803   8.360  1.00  0.00    -0.352 N 
ATOM     21  C   UNL     1       7.219  -2.890   9.494  1.00  0.00     0.251 C 
ATOM     22  H   UNL     1       6.925  -2.480   7.558  1.00  0.00     0.163 HD
ATOM     23  O   UNL     1       8.327  -2.366   9.532  1.00  0.00    -0.269 OA
BRANCH  21  24
ATOM     24  C   UNL     1       6.695  -3.614  10.666  1.00  0.00     0.039 A 
ATOM     25  C   UNL     1       6.928  -3.103  11.943  1.00  0.00     0.014 A 
ATOM     26  C   UNL     1       5.977  -4.802  10.500  1.00  0.00     0.014 A 
ATOM     27  C   UNL     1       6.408  -3.770  13.050  1.00  0.00     0.010 A 
ATOM     28  C   UNL     1       5.356  -5.392  11.589  1.00  0.00     0.010 A 
ATOM     29  C   UNL     1       5.600  -4.907  12.879  1.00  0.00    -0.014 A 
BRANCH  29  30
ATOM     30  C   UNL     1       5.061  -5.647  14.043  1.00  0.00     0.031 A 
ATOM     31  C   UNL     1       5.473  -7.078  14.272  1.00  0.00     0.074 A 
ATOM     32  C   UNL     1       4.187  -5.046  14.871  1.00  0.00     0.049 A 
ATOM     33  N   UNL     1       5.107  -7.903  15.219  1.00  0.00    -0.248 NA
ATOM     34  C   UNL     1       6.394  -7.672  13.287  1.00  0.00     0.031 C 
ATOM     35  C   UNL     1       3.673  -3.683  14.720  1.00  0.00     0.029 A 
ATOM     36  N   UNL     1       3.581  -5.505  16.011  1.00  0.00    -0.354 N 
ATOM     37  C   UNL     1       5.745  -9.104  14.938  1.00  0.00     0.074 A 
ATOM     38  C   UNL     1       6.452  -8.931  13.690  1.00  0.00     0.031 C 
ATOM     39  C   UNL     1       2.866  -3.401  15.755  1.00  0.00     0.029 A 
ATOM     40  C   UNL     1       2.777  -4.572  16.620  1.00  0.00     0.049 A 
ATOM     41  H   UNL     1       3.709  -6.416  16.361  1.00  0.00     0.167 HD
ATOM     42  C   UNL     1       5.777 -10.240  15.674  1.00  0.00     0.037 A 
ATOM     43  C   UNL     1       2.057  -4.657  17.753  1.00  0.00     0.037 A 
ATOM     44  C   UNL     1       5.090 -10.401  16.927  1.00  0.00     0.049 A 
ATOM     45  C   UNL     1       2.101  -5.934  18.548  1.00  0.00     0.074 A 
ATOM     46  C   UNL     1       5.076 -11.496  17.771  1.00  0.00     0.029 A 
ATOM     47  N   UNL     1       4.293  -9.430  17.516  1.00  0.00    -0.354 N 
ATOM     48  N   UNL     1       2.759  -7.042  18.303  1.00  0.00    -0.248 NA
ATOM     49  C   UNL     1       1.313  -5.964  19.786  1.00  0.00     0.031 C 
ATOM     50  C   UNL     1       4.237 -11.203  18.851  1.00  0.00     0.029 A 
ATOM     51  C   UNL     1       3.775  -9.904  18.709  1.00  0.00     0.049 A 
ATOM     52  H   UNL     1       4.123  -8.535  17.142  1.00  0.00     0.167 HD
ATOM     53  C   UNL     1       2.498  -7.884  19.377  1.00  0.00     0.074 A 
ATOM     54  C   UNL     1       1.636  -7.149  20.280  1.00  0.00     0.031 C 
ATOM     55  C   UNL     1       2.930  -9.150  19.600  1.00  0.00     0.037 A 
BRANCH  42  56
ATOM     56  C   UNL     1       6.594 -11.384  15.143  1.00  0.00     0.057 A 
ATOM     57  C   UNL     1       7.994 -11.321  15.072  1.00  0.00     0.134 A 
ATOM     58  C   UNL     1       5.981 -12.565  14.710  1.00  0.00     0.134 A 
ATOM     59  F   UNL     1       8.645 -10.212  15.453  1.00  0.00    -0.206 F 
ATOM     60  C   UNL     1       8.749 -12.379  14.562  1.00  0.00     0.040 A 
ATOM     61  C   UNL     1       6.728 -13.642  14.229  1.00  0.00     0.040 A 
ATOM     62  F   UNL     1       4.646 -12.696  14.751  1.00  0.00    -0.206 F 
ATOM     63  C   UNL     1       8.116 -13.547  14.146  1.00  0.00     0.006 A 
ENDBRANCH  42  56
BRANCH  43  64
ATOM     64  C   UNL     1       1.269  -3.493  18.233  1.00  0.00     0.057 A 
ATOM     65  C   UNL     1       1.623  -2.814  19.405  1.00  0.00     0.134 A 
ATOM     66  C   UNL     1       0.128  -3.050  17.553  1.00  0.00     0.134 A 
ATOM     67  F   UNL     1       2.698  -3.199  20.109  1.00  0.00    -0.206 F 
ATOM     68  C   UNL     1       0.853  -1.763  19.905  1.00  0.00     0.040 A 
ATOM     69  C   UNL     1      -0.635  -1.981  18.025  1.00  0.00     0.040 A 
ATOM     70  F   UNL     1      -0.259  -3.648  16.417  1.00  0.00    -0.206 F 
ATOM     71  C   UNL     1      -0.280  -1.343  19.212  1.00  0.00     0.006 A 
ENDBRANCH  43  64
BRANCH  55  72
ATOM     72  C   UNL     1       2.524  -9.790  20.896  1.00  0.00     0.057 A 
ATOM     73  C   UNL     1       1.200 -10.161  21.163  1.00  0.00     0.134 A 
ATOM     74  C   UNL     1       3.479 -10.043  21.890  1.00  0.00     0.134 A 
ATOM     75  F   UNL     1       0.234  -9.937  20.259  1.00  0.00    -0.206 F 
ATOM     76  C   UNL     1       0.832 -10.717  22.390  1.00  0.00     0.040 A 
ATOM     77  C   UNL     1       3.129 -10.631  23.105  1.00  0.00     0.040 A 
ATOM     78  F   UNL     1       4.768  -9.727  21.694  1.00  0.00    -0.206 F 
ATOM     79  C   UNL     1       1.800 -10.958  23.363  1.00  0.00     0.006 A 
ENDBRANCH  55  72
ENDBRANCH  29  30
ENDBRANCH  21  24
ENDBRANCH  19  20
ENDBRANCH  18  19
ENDBRANCH  17  18
ENDBRANCH   3  17
TORSDOF 16
