REMARK SMILES C[C@H]1[C@@H](C(=O)NCCCNC(=O)c2ccc(-c3c4nc(c(-c5c(F)cccc5F)c5ccc([nH]5)c(-c5c(F)cccc5F)c5nc(c(-c6c(F)cccc6F)c6ccc3[nH]6)C=C5)C=C4)cc2)CCN1C(=O)NCC(C1CC1)C1CC1
REMARK SMILES IDX 7 1 6 2 4 3 5 4 3 6 1 7 2 8 69 9 67 10 68 11 70 12 71 13
REMARK SMILES IDX 72 14 73 16 74 17 75 18 76 19 77 20 78 21 79 22 80 23 8 24
REMARK SMILES IDX 9 25 10 26 11 27 12 29 13 30 14 31 66 32 15 33 65 34 16 35
REMARK SMILES IDX 17 36 18 37 59 38 19 39 64 40 58 41 60 42 20 43 63 44 57 45
REMARK SMILES IDX 56 46 21 48 47 49 30 50 46 51 31 52 34 53 45 54 61 55 32 56
REMARK SMILES IDX 33 57 44 59 62 60 35 61 22 62 23 63 28 64 24 65 25 66 27 67
REMARK SMILES IDX 29 68 26 69 48 70 49 71 54 72 50 73 51 74 53 75 55 76 52 77
REMARK SMILES IDX 36 78 37 79 42 80 38 81 39 82 41 83 43 84 40 85
REMARK H PARENT 6 5 72 15 10 28 60 47 34 58
REMARK Flexibility Score: inf
ROOT
ATOM      1  C   UNL     1       2.751   2.011  -1.184  1.00  0.00     0.117 C 
ENDROOT
BRANCH   1   2
ATOM      2  N   UNL     1       1.503   2.122  -1.929  1.00  0.00    -0.356 N 
ATOM      3  C   UNL     1       0.235   1.691  -1.670  1.00  0.00     0.225 C 
ATOM      4  O   UNL     1      -0.604   1.891  -2.550  1.00  0.00    -0.275 OA
ATOM      5  H   UNL     1       1.593   2.601  -2.785  1.00  0.00     0.163 HD
BRANCH   3   6
ATOM      6  C   UNL     1      -0.140   1.079  -0.326  1.00  0.00     0.102 C 
ATOM      7  C   UNL     1       1.242  -1.056  -0.967  1.00  0.00     0.032 C 
ATOM      8  C   UNL     1       0.579  -0.206   0.116  1.00  0.00     0.096 C 
ATOM      9  N   UNL     1      -0.427  -1.024   0.772  1.00  0.00    -0.321 N 
ATOM     10  C   UNL     1      -1.641   0.759  -0.167  1.00  0.00     0.037 C 
ATOM     11  C   UNL     1      -1.716  -0.718   0.184  1.00  0.00     0.122 C 
BRANCH   9  12
ATOM     12  C   UNL     1      -0.290  -2.107   1.588  1.00  0.00     0.317 C 
ATOM     13  O   UNL     1      -1.265  -2.796   1.905  1.00  0.00    -0.249 OA
ATOM     14  N   UNL     1       0.898  -2.514   2.081  1.00  0.00    -0.338 N 
ATOM     15  H   UNL     1       0.799  -3.311   2.650  1.00  0.00     0.165 HD
BRANCH  14  16
ATOM     16  C   UNL     1       2.294  -2.086   1.997  1.00  0.00     0.121 C 
BRANCH  16  17
ATOM     17  C   UNL     1       2.978  -2.000   3.377  1.00  0.00     0.014 C 
BRANCH  17  18
ATOM     18  C   UNL     1       3.592  -3.308   3.850  1.00  0.00    -0.006 C 
ATOM     19  C   UNL     1       3.405  -4.659   3.199  1.00  0.00     0.004 C 
ATOM     20  C   UNL     1       4.720  -3.942   3.069  1.00  0.00     0.004 C 
ENDBRANCH  17  18
BRANCH  17  21
ATOM     21  C   UNL     1       4.027  -0.897   3.512  1.00  0.00    -0.006 C 
ATOM     22  C   UNL     1       4.852  -0.390   2.352  1.00  0.00     0.004 C 
ATOM     23  C   UNL     1       3.828   0.509   2.995  1.00  0.00     0.004 C 
ENDBRANCH  17  21
ENDBRANCH  16  17
ENDBRANCH  14  16
ENDBRANCH   9  12
ENDBRANCH   3   6
ENDBRANCH   1   2
BRANCH   1  24
ATOM     24  C   UNL     1       3.725   1.033  -1.853  1.00  0.00     0.042 C 
BRANCH  24  25
ATOM     25  C   UNL     1       4.314   1.519  -3.173  1.00  0.00     0.118 C 
BRANCH  25  26
ATOM     26  N   UNL     1       5.658   2.041  -3.013  1.00  0.00    -0.352 N 
ATOM     27  C   UNL     1       6.891   1.489  -3.248  1.00  0.00     0.251 C 
ATOM     28  H   UNL     1       5.691   2.965  -2.673  1.00  0.00     0.163 HD
ATOM     29  O   UNL     1       7.879   2.094  -2.814  1.00  0.00    -0.269 OA
BRANCH  27  30
ATOM     30  C   UNL     1       7.103   0.209  -3.977  1.00  0.00     0.039 A 
ATOM     31  C   UNL     1       8.237  -0.549  -3.650  1.00  0.00     0.014 A 
ATOM     32  C   UNL     1       6.303  -0.218  -5.039  1.00  0.00     0.014 A 
ATOM     33  C   UNL     1       8.551  -1.716  -4.358  1.00  0.00     0.010 A 
ATOM     34  C   UNL     1       6.563  -1.433  -5.686  1.00  0.00     0.010 A 
ATOM     35  C   UNL     1       7.707  -2.183  -5.376  1.00  0.00    -0.014 A 
BRANCH  35  36
ATOM     36  C   UNL     1       8.044  -3.411  -6.151  1.00  0.00     0.031 A 
ATOM     37  C   UNL     1       8.311  -3.335  -7.635  1.00  0.00     0.074 A 
ATOM     38  C   UNL     1       8.092  -4.609  -5.535  1.00  0.00     0.049 A 
ATOM     39  N   UNL     1       8.590  -4.298  -8.479  1.00  0.00    -0.248 NA
ATOM     40  C   UNL     1       8.231  -2.004  -8.256  1.00  0.00     0.031 C 
ATOM     41  C   UNL     1       7.813  -4.843  -4.117  1.00  0.00     0.029 A 
ATOM     42  N   UNL     1       8.391  -5.858  -6.024  1.00  0.00    -0.354 N 
ATOM     43  C   UNL     1       8.697  -3.694  -9.726  1.00  0.00     0.074 A 
ATOM     44  C   UNL     1       8.403  -2.290  -9.539  1.00  0.00     0.031 C 
ATOM     45  C   UNL     1       7.978  -6.148  -3.847  1.00  0.00     0.029 A 
ATOM     46  C   UNL     1       8.345  -6.849  -5.074  1.00  0.00     0.049 A 
ATOM     47  H   UNL     1       8.617  -6.026  -6.968  1.00  0.00     0.167 HD
ATOM     48  C   UNL     1       9.034  -4.247 -10.917  1.00  0.00     0.037 A 
ATOM     49  C   UNL     1       8.572  -8.172  -5.175  1.00  0.00     0.037 A 
ATOM     50  C   UNL     1       9.364  -5.635 -11.108  1.00  0.00     0.049 A 
ATOM     51  C   UNL     1       8.968  -8.760  -6.501  1.00  0.00     0.074 A 
ATOM     52  C   UNL     1       9.772  -6.274 -12.267  1.00  0.00     0.029 A 
ATOM     53  N   UNL     1       9.330  -6.599 -10.113  1.00  0.00    -0.354 N 
ATOM     54  N   UNL     1       9.118  -8.163  -7.658  1.00  0.00    -0.248 NA
ATOM     55  C   UNL     1       9.236 -10.206  -6.531  1.00  0.00     0.031 C 
ATOM     56  C   UNL     1       9.955  -7.631 -11.980  1.00  0.00     0.029 A 
ATOM     57  C   UNL     1       9.697  -7.829 -10.633  1.00  0.00     0.049 A 
ATOM     58  H   UNL     1       9.082  -6.433  -9.175  1.00  0.00     0.167 HD
ATOM     59  C   UNL     1       9.515  -9.153  -8.548  1.00  0.00     0.074 A 
ATOM     60  C   UNL     1       9.602 -10.385  -7.793  1.00  0.00     0.031 C 
ATOM     61  C   UNL     1       9.780  -9.049  -9.873  1.00  0.00     0.037 A 
BRANCH  48  62
ATOM     62  C   UNL     1       9.072  -3.338 -12.113  1.00  0.00     0.057 A 
ATOM     63  C   UNL     1      10.076  -2.374 -12.274  1.00  0.00     0.134 A 
ATOM     64  C   UNL     1       8.113  -3.446 -13.128  1.00  0.00     0.134 A 
ATOM     65  F   UNL     1      11.019  -2.212 -11.334  1.00  0.00    -0.206 F 
ATOM     66  C   UNL     1      10.108  -1.530 -13.386  1.00  0.00     0.040 A 
ATOM     67  C   UNL     1       8.149  -2.626 -14.257  1.00  0.00     0.040 A 
ATOM     68  F   UNL     1       7.129  -4.354 -13.041  1.00  0.00    -0.206 F 
ATOM     69  C   UNL     1       9.144  -1.659 -14.384  1.00  0.00     0.006 A 
ENDBRANCH  48  62
BRANCH  49  70
ATOM     70  C   UNL     1       8.456  -9.035  -3.973  1.00  0.00     0.057 A 
ATOM     71  C   UNL     1       9.591  -9.577  -3.360  1.00  0.00     0.134 A 
ATOM     72  C   UNL     1       7.211  -9.337  -3.409  1.00  0.00     0.134 A 
ATOM     73  F   UNL     1      10.810  -9.339  -3.868  1.00  0.00    -0.206 F 
ATOM     74  C   UNL     1       9.494 -10.401  -2.238  1.00  0.00     0.040 A 
ATOM     75  C   UNL     1       7.100 -10.141  -2.273  1.00  0.00     0.040 A 
ATOM     76  F   UNL     1       6.086  -8.842  -3.947  1.00  0.00    -0.206 F 
ATOM     77  C   UNL     1       8.244 -10.680  -1.688  1.00  0.00     0.006 A 
ENDBRANCH  49  70
BRANCH  61  78
ATOM     78  C   UNL     1      10.210 -10.298 -10.584  1.00  0.00     0.057 A 
ATOM     79  C   UNL     1       9.305 -11.326 -10.881  1.00  0.00     0.134 A 
ATOM     80  C   UNL     1      11.537 -10.464 -10.999  1.00  0.00     0.134 A 
ATOM     81  F   UNL     1       8.022 -11.233 -10.498  1.00  0.00    -0.206 F 
ATOM     82  C   UNL     1       9.711 -12.485 -11.543  1.00  0.00     0.040 A 
ATOM     83  C   UNL     1      11.950 -11.609 -11.683  1.00  0.00     0.040 A 
ATOM     84  F   UNL     1      12.452  -9.514 -10.753  1.00  0.00    -0.206 F 
ATOM     85  C   UNL     1      11.036 -12.626 -11.951  1.00  0.00     0.006 A 
ENDBRANCH  61  78
ENDBRANCH  35  36
ENDBRANCH  27  30
ENDBRANCH  25  26
ENDBRANCH  24  25
ENDBRANCH   1  24
TORSDOF 15
