REMARK SMILES C#CC[C@@H](C(=O)NCCCNC(=O)c1ccc(-c2c3nc(c(-c4c(F)cccc4F)c4ccc([nH]4)c(-c4c(F)cccc4F)c4nc(c(-c5c(F)cccc5F)c5ccc2[nH]5)C=C4)C=C3)cc1)[C@H]1CCS(=O)(=O)C1
REMARK SMILES IDX 9 1 8 2 7 3 5 4 6 5 4 7 3 8 2 9 1 10 68 11 69 12 74 13 70 14
REMARK SMILES IDX 71 15 72 16 73 17 10 18 11 19 12 20 13 22 14 23 15 24 67 25
REMARK SMILES IDX 16 26 66 27 17 28 18 29 19 30 60 31 20 32 65 33 59 34 61 35
REMARK SMILES IDX 21 36 64 37 58 38 57 39 22 41 48 42 31 43 47 44 32 45 35 46
REMARK SMILES IDX 46 47 62 48 33 49 34 50 45 52 63 53 36 54 23 55 24 56 29 57
REMARK SMILES IDX 25 58 26 59 28 60 30 61 27 62 49 63 50 64 55 65 51 66 52 67
REMARK SMILES IDX 54 68 56 69 53 70 37 71 38 72 43 73 39 74 40 75 42 76 44 77
REMARK SMILES IDX 41 78
REMARK H PARENT 7 6 11 21 61 40 35 51
REMARK Flexibility Score: inf
ROOT
ATOM      1  C   UNL     1      -5.136  -4.294   0.137  1.00  0.00     0.042 C 
ENDROOT
BRANCH   1   2
ATOM      2  C   UNL     1      -3.892  -3.466   0.506  1.00  0.00     0.117 C 
BRANCH   2   3
ATOM      3  N   UNL     1      -3.728  -2.346  -0.406  1.00  0.00    -0.356 N 
ATOM      4  C   UNL     1      -3.889  -1.004  -0.369  1.00  0.00     0.224 C 
ATOM      5  O   UNL     1      -3.583  -0.488  -1.454  1.00  0.00    -0.275 OA
ATOM      6  H   UNL     1      -3.416  -2.646  -1.290  1.00  0.00     0.163 HD
BRANCH   4   7
ATOM      7  C   UNL     1      -4.281  -0.100   0.856  1.00  0.00     0.094 C 
BRANCH   7   8
ATOM      8  C   UNL     1      -5.743  -0.145   1.396  1.00  0.00     0.103 C 
BRANCH   8   9
ATOM      9  C   UNL     1      -6.096  -1.567   1.801  1.00  0.00    -0.106 C 
ATOM     10  C   UNL     1      -6.399  -2.787   2.149  1.00  0.00     0.004 C 
ENDBRANCH   8   9
ENDBRANCH   7   8
BRANCH   7  11
ATOM     11  C   UNL     1      -3.878   1.385   0.502  1.00  0.00     0.018 C 
ATOM     12  C   UNL     1      -4.591   2.023  -0.722  1.00  0.00     0.021 C 
ATOM     13  C   UNL     1      -4.125   2.412   1.622  1.00  0.00     0.141 C 
ATOM     14  C   UNL     1      -4.077   3.456  -0.825  1.00  0.00     0.137 C 
ATOM     15  S   UNL     1      -3.915   4.017   0.855  1.00  0.00     0.150 S 
ATOM     16  O   UNL     1      -2.558   4.463   1.074  1.00  0.00    -0.229 OA
ATOM     17  O   UNL     1      -5.066   4.838   1.182  1.00  0.00    -0.229 OA
ENDBRANCH   7  11
ENDBRANCH   4   7
ENDBRANCH   2   3
ENDBRANCH   1   2
BRANCH   1  18
ATOM     18  C   UNL     1      -4.950  -5.381  -0.909  1.00  0.00     0.118 C 
BRANCH  18  19
ATOM     19  N   UNL     1      -4.516  -6.628  -0.293  1.00  0.00    -0.352 N 
ATOM     20  C   UNL     1      -5.212  -7.638   0.333  1.00  0.00     0.251 C 
ATOM     21  H   UNL     1      -3.543  -6.776  -0.331  1.00  0.00     0.163 HD
ATOM     22  O   UNL     1      -4.577  -8.387   1.077  1.00  0.00    -0.269 OA
BRANCH  20  23
ATOM     23  C   UNL     1      -6.677  -7.867   0.170  1.00  0.00     0.039 A 
ATOM     24  C   UNL     1      -7.365  -8.531   1.200  1.00  0.00     0.014 A 
ATOM     25  C   UNL     1      -7.374  -7.563  -0.998  1.00  0.00     0.014 A 
ATOM     26  C   UNL     1      -8.727  -8.845   1.073  1.00  0.00     0.010 A 
ATOM     27  C   UNL     1      -8.753  -7.794  -1.089  1.00  0.00     0.010 A 
ATOM     28  C   UNL     1      -9.448  -8.448  -0.061  1.00  0.00    -0.014 A 
BRANCH  28  29
ATOM     29  C   UNL     1     -10.914  -8.702  -0.200  1.00  0.00     0.031 A 
ATOM     30  C   UNL     1     -11.444  -9.521  -1.352  1.00  0.00     0.074 A 
ATOM     31  C   UNL     1     -11.781  -8.122   0.656  1.00  0.00     0.049 A 
ATOM     32  N   UNL     1     -12.684  -9.722  -1.726  1.00  0.00    -0.248 NA
ATOM     33  C   UNL     1     -10.450 -10.183  -2.213  1.00  0.00     0.031 C 
ATOM     34  C   UNL     1     -11.412  -7.283   1.797  1.00  0.00     0.029 A 
ATOM     35  N   UNL     1     -13.157  -8.126   0.684  1.00  0.00    -0.354 N 
ATOM     36  C   UNL     1     -12.617 -10.496  -2.879  1.00  0.00     0.074 A 
ATOM     37  C   UNL     1     -11.214 -10.709  -3.161  1.00  0.00     0.031 C 
ATOM     38  C   UNL     1     -12.526  -6.856   2.412  1.00  0.00     0.029 A 
ATOM     39  C   UNL     1     -13.691  -7.342   1.681  1.00  0.00     0.049 A 
ATOM     40  H   UNL     1     -13.707  -8.641   0.051  1.00  0.00     0.167 HD
ATOM     41  C   UNL     1     -13.631 -10.993  -3.628  1.00  0.00     0.037 A 
ATOM     42  C   UNL     1     -14.970  -7.018   1.957  1.00  0.00     0.037 A 
ATOM     43  C   UNL     1     -15.027 -10.823  -3.319  1.00  0.00     0.049 A 
ATOM     44  C   UNL     1     -16.074  -7.567   1.092  1.00  0.00     0.074 A 
ATOM     45  C   UNL     1     -16.122 -11.377  -3.961  1.00  0.00     0.029 A 
ATOM     46  N   UNL     1     -15.521 -10.036  -2.292  1.00  0.00    -0.354 N 
ATOM     47  N   UNL     1     -15.993  -8.370   0.060  1.00  0.00    -0.248 NA
ATOM     48  C   UNL     1     -17.447  -7.159   1.426  1.00  0.00     0.031 C 
ATOM     49  C   UNL     1     -17.280 -10.871  -3.364  1.00  0.00     0.029 A 
ATOM     50  C   UNL     1     -16.906 -10.050  -2.314  1.00  0.00     0.049 A 
ATOM     51  H   UNL     1     -14.970  -9.540  -1.644  1.00  0.00     0.167 HD
ATOM     52  C   UNL     1     -17.300  -8.581  -0.361  1.00  0.00     0.074 A 
ATOM     53  C   UNL     1     -18.157  -7.841   0.539  1.00  0.00     0.031 C 
ATOM     54  C   UNL     1     -17.749  -9.317  -1.406  1.00  0.00     0.037 A 
BRANCH  41  55
ATOM     55  C   UNL     1     -13.290 -11.771  -4.868  1.00  0.00     0.057 A 
ATOM     56  C   UNL     1     -12.751 -13.062  -4.812  1.00  0.00     0.134 A 
ATOM     57  C   UNL     1     -13.601 -11.256  -6.134  1.00  0.00     0.134 A 
ATOM     58  F   UNL     1     -12.427 -13.613  -3.633  1.00  0.00    -0.206 F 
ATOM     59  C   UNL     1     -12.524 -13.808  -5.970  1.00  0.00     0.040 A 
ATOM     60  C   UNL     1     -13.402 -12.002  -7.297  1.00  0.00     0.040 A 
ATOM     61  F   UNL     1     -14.130 -10.029  -6.260  1.00  0.00    -0.206 F 
ATOM     62  C   UNL     1     -12.860 -13.283  -7.216  1.00  0.00     0.006 A 
ENDBRANCH  41  55
BRANCH  42  63
ATOM     63  C   UNL     1     -15.290  -6.100   3.083  1.00  0.00     0.057 A 
ATOM     64  C   UNL     1     -16.007  -6.544   4.201  1.00  0.00     0.134 A 
ATOM     65  C   UNL     1     -14.931  -4.746   3.049  1.00  0.00     0.134 A 
ATOM     66  F   UNL     1     -16.400  -7.824   4.285  1.00  0.00    -0.206 F 
ATOM     67  C   UNL     1     -16.384  -5.673   5.225  1.00  0.00     0.040 A 
ATOM     68  C   UNL     1     -15.272  -3.870   4.081  1.00  0.00     0.040 A 
ATOM     69  F   UNL     1     -14.239  -4.254   2.010  1.00  0.00    -0.206 F 
ATOM     70  C   UNL     1     -16.013  -4.331   5.167  1.00  0.00     0.006 A 
ENDBRANCH  42  63
BRANCH  54  71
ATOM     71  C   UNL     1     -19.233  -9.382  -1.623  1.00  0.00     0.057 A 
ATOM     72  C   UNL     1     -19.953  -8.287  -2.117  1.00  0.00     0.134 A 
ATOM     73  C   UNL     1     -19.938 -10.571  -1.396  1.00  0.00     0.134 A 
ATOM     74  F   UNL     1     -19.339  -7.115  -2.342  1.00  0.00    -0.206 F 
ATOM     75  C   UNL     1     -21.324  -8.368  -2.364  1.00  0.00     0.040 A 
ATOM     76  C   UNL     1     -21.303 -10.673  -1.667  1.00  0.00     0.040 A 
ATOM     77  F   UNL     1     -19.306 -11.660  -0.932  1.00  0.00    -0.206 F 
ATOM     78  C   UNL     1     -22.000  -9.567  -2.149  1.00  0.00     0.006 A 
ENDBRANCH  54  71
ENDBRANCH  28  29
ENDBRANCH  20  23
ENDBRANCH  18  19
ENDBRANCH   1  18
TORSDOF 13
