REMARK SMILES Cc1ccc(-c2cc(OCC(=O)NCCCNC(=O)c3ccc(-c4c5nc(c(-c6c(F)cccc6F)c6ccc([nH]6)c(-c6c(F)cccc6F)c6nc(c(-c7c(F)cccc7F)c7ccc4[nH]7)C=C6)C=C5)cc3)nc(NCc3ccc4c(c3)OCO4)n2)cc1
REMARK SMILES IDX 11 1 12 2 13 3 10 5 9 6 8 7 6 8 7 9 87 10 75 11 74 12 5 13
REMARK SMILES IDX 1 14 2 15 3 16 89 17 4 18 88 19 76 20 77 22 78 23 79 24
REMARK SMILES IDX 83 25 80 26 82 27 81 28 84 29 86 30 85 31 14 32 15 33 16 34
REMARK SMILES IDX 17 35 18 36 19 38 20 39 21 40 73 41 22 42 72 43 23 44 24 45
REMARK SMILES IDX 25 46 66 47 26 48 71 49 65 50 67 51 27 52 70 53 64 54 63 55
REMARK SMILES IDX 28 57 54 58 37 59 53 60 38 61 41 62 52 63 68 64 39 65 40 66
REMARK SMILES IDX 51 68 69 69 42 70 29 71 30 72 35 73 31 74 32 75 34 76 36 77
REMARK SMILES IDX 33 78 55 79 56 80 61 81 57 82 58 83 60 84 62 85 59 86 43 87
REMARK SMILES IDX 44 88 49 89 45 90 46 91 48 92 50 93 47 94
REMARK H PARENT 13 4 76 21 17 37 67 56 41 67
REMARK Flexibility Score: inf
ROOT
ATOM      1  C   UNL     1      -4.674   3.003  -2.776  1.00  0.00     0.258 C 
ATOM      2  O   UNL     1      -3.450   3.147  -2.787  1.00  0.00    -0.271 OA
ATOM      3  N   UNL     1      -5.459   4.062  -2.417  1.00  0.00    -0.353 N 
ATOM      4  H   UNL     1      -4.979   4.879  -2.150  1.00  0.00     0.163 HD
ENDROOT
BRANCH   1   5
ATOM      5  C   UNL     1      -5.321   1.665  -3.152  1.00  0.00     0.331 C 
BRANCH   5   6
ATOM      6  O   UNL     1      -5.945   0.977  -2.081  1.00  0.00    -0.467 OA
BRANCH   6   7
ATOM      7  C   UNL     1      -5.147   0.522  -1.067  1.00  0.00     0.219 A 
ATOM      8  C   UNL     1      -3.160  -0.047   0.015  1.00  0.00     0.080 A 
ATOM      9  C   UNL     1      -3.784   0.402  -1.129  1.00  0.00     0.097 A 
ATOM     10  N   UNL     1      -3.839  -0.417   1.117  1.00  0.00    -0.213 NA
ATOM     11  C   UNL     1      -5.167  -0.273   1.086  1.00  0.00     0.226 A 
ATOM     12  N   UNL     1      -5.845   0.203   0.034  1.00  0.00    -0.177 NA
BRANCH   8  13
ATOM     13  C   UNL     1      -1.697  -0.071   0.094  1.00  0.00     0.000 A 
ATOM     14  C   UNL     1       2.630  -0.084   0.040  1.00  0.00     0.044 C 
ATOM     15  C   UNL     1       1.131  -0.072   0.084  1.00  0.00    -0.051 A 
ATOM     16  C   UNL     1       0.416  -1.275   0.163  1.00  0.00     0.004 A 
ATOM     17  C   UNL     1       0.426   1.132   0.024  1.00  0.00     0.004 A 
ATOM     18  C   UNL     1      -0.984  -1.274   0.177  1.00  0.00     0.010 A 
ATOM     19  C   UNL     1      -0.970   1.131   0.028  1.00  0.00     0.010 A 
ENDBRANCH   8  13
BRANCH  11  20
ATOM     20  N   UNL     1      -5.933  -0.584   2.179  1.00  0.00    -0.350 N 
ATOM     21  H   UNL     1      -6.798  -0.131   2.303  1.00  0.00     0.164 HD
BRANCH  20  22
ATOM     22  C   UNL     1      -5.502  -1.556   3.150  1.00  0.00     0.152 C 
BRANCH  22  23
ATOM     23  C   UNL     1      -5.839  -2.986   2.759  1.00  0.00    -0.025 A 
ATOM     24  C   UNL     1      -5.248  -4.044   3.494  1.00  0.00     0.009 A 
ATOM     25  C   UNL     1      -6.726  -3.301   1.713  1.00  0.00     0.056 A 
ATOM     26  C   UNL     1      -5.494  -5.384   3.171  1.00  0.00     0.051 A 
ATOM     27  C   UNL     1      -6.930  -4.629   1.402  1.00  0.00     0.166 A 
ATOM     28  C   UNL     1      -6.325  -5.642   2.105  1.00  0.00     0.165 A 
ATOM     29  O   UNL     1      -7.704  -5.093   0.384  1.00  0.00    -0.454 OA
ATOM     30  O   UNL     1      -6.638  -6.870   1.613  1.00  0.00    -0.454 OA
ATOM     31  C   UNL     1      -7.391  -6.500   0.438  1.00  0.00     0.468 C 
ENDBRANCH  22  23
ENDBRANCH  20  22
ENDBRANCH  11  20
ENDBRANCH   6   7
ENDBRANCH   5   6
ENDBRANCH   1   5
BRANCH   3  32
ATOM     32  C   UNL     1      -6.910   4.142  -2.377  1.00  0.00     0.117 C 
BRANCH  32  33
ATOM     33  C   UNL     1      -7.494   3.771  -1.019  1.00  0.00     0.042 C 
BRANCH  33  34
ATOM     34  C   UNL     1      -7.259   4.822   0.055  1.00  0.00     0.118 C 
BRANCH  34  35
ATOM     35  N   UNL     1      -8.221   5.920   0.057  1.00  0.00    -0.352 N 
ATOM     36  C   UNL     1      -8.265   7.070   0.825  1.00  0.00     0.251 C 
ATOM     37  H   UNL     1      -8.956   5.828  -0.592  1.00  0.00     0.163 HD
ATOM     38  O   UNL     1      -9.209   7.837   0.698  1.00  0.00    -0.269 OA
BRANCH  36  39
ATOM     39  C   UNL     1      -7.114   7.456   1.691  1.00  0.00     0.039 A 
ATOM     40  C   UNL     1      -6.792   8.819   1.791  1.00  0.00     0.014 A 
ATOM     41  C   UNL     1      -6.253   6.511   2.234  1.00  0.00     0.014 A 
ATOM     42  C   UNL     1      -5.508   9.199   2.180  1.00  0.00     0.010 A 
ATOM     43  C   UNL     1      -4.951   6.870   2.505  1.00  0.00     0.010 A 
ATOM     44  C   UNL     1      -4.559   8.208   2.411  1.00  0.00    -0.014 A 
BRANCH  44  45
ATOM     45  C   UNL     1      -3.120   8.434   2.429  1.00  0.00     0.031 A 
ATOM     46  C   UNL     1      -2.338   8.267   3.671  1.00  0.00     0.074 A 
ATOM     47  C   UNL     1      -2.480   8.590   1.249  1.00  0.00     0.049 A 
ATOM     48  N   UNL     1      -1.131   8.691   3.832  1.00  0.00    -0.248 NA
ATOM     49  C   UNL     1      -2.880   7.616   4.856  1.00  0.00     0.031 C 
ATOM     50  C   UNL     1      -1.053   8.433   0.986  1.00  0.00     0.029 A 
ATOM     51  N   UNL     1      -2.996   9.116   0.057  1.00  0.00    -0.354 N 
ATOM     52  C   UNL     1      -0.640   8.143   4.996  1.00  0.00     0.074 A 
ATOM     53  C   UNL     1      -1.790   7.534   5.625  1.00  0.00     0.031 C 
ATOM     54  C   UNL     1      -0.746   9.098  -0.138  1.00  0.00     0.029 A 
ATOM     55  C   UNL     1      -1.932   9.832  -0.540  1.00  0.00     0.049 A 
ATOM     56  H   UNL     1      -3.910   9.010  -0.292  1.00  0.00     0.167 HD
ATOM     57  C   UNL     1       0.706   8.169   5.226  1.00  0.00     0.037 A 
ATOM     58  C   UNL     1      -2.002  11.188  -0.682  1.00  0.00     0.037 A 
ATOM     59  C   UNL     1       1.411   8.899   4.170  1.00  0.00     0.049 A 
ATOM     60  C   UNL     1      -0.955  11.965   0.087  1.00  0.00     0.074 A 
ATOM     61  C   UNL     1       2.127   8.522   3.045  1.00  0.00     0.029 A 
ATOM     62  N   UNL     1       1.196  10.258   4.046  1.00  0.00    -0.354 N 
ATOM     63  N   UNL     1      -0.080  11.425   0.889  1.00  0.00    -0.248 NA
ATOM     64  C   UNL     1      -0.871  13.428   0.084  1.00  0.00     0.031 C 
ATOM     65  C   UNL     1       2.319   9.677   2.233  1.00  0.00     0.029 A 
ATOM     66  C   UNL     1       1.722  10.750   2.869  1.00  0.00     0.049 A 
ATOM     67  H   UNL     1       0.726  10.807   4.715  1.00  0.00     0.167 HD
ATOM     68  C   UNL     1       0.604  12.411   1.547  1.00  0.00     0.074 A 
ATOM     69  C   UNL     1       0.091  13.650   0.997  1.00  0.00     0.031 C 
ATOM     70  C   UNL     1       1.505  12.146   2.533  1.00  0.00     0.037 A 
BRANCH  57  71
ATOM     71  C   UNL     1       1.426   7.351   6.278  1.00  0.00     0.057 A 
ATOM     72  C   UNL     1       2.791   7.031   6.126  1.00  0.00     0.134 A 
ATOM     73  C   UNL     1       0.843   6.815   7.439  1.00  0.00     0.134 A 
ATOM     74  F   UNL     1       3.536   7.558   5.145  1.00  0.00    -0.206 F 
ATOM     75  C   UNL     1       3.474   6.154   6.980  1.00  0.00     0.040 A 
ATOM     76  C   UNL     1       1.496   5.895   8.273  1.00  0.00     0.040 A 
ATOM     77  F   UNL     1      -0.359   7.208   7.872  1.00  0.00    -0.206 F 
ATOM     78  C   UNL     1       2.815   5.548   8.036  1.00  0.00     0.006 A 
ENDBRANCH  57  71
BRANCH  58  79
ATOM     79  C   UNL     1      -3.386  11.659  -0.948  1.00  0.00     0.057 A 
ATOM     80  C   UNL     1      -4.002  11.284  -2.154  1.00  0.00     0.134 A 
ATOM     81  C   UNL     1      -4.218  12.096   0.087  1.00  0.00     0.134 A 
ATOM     82  F   UNL     1      -3.258  10.853  -3.186  1.00  0.00    -0.206 F 
ATOM     83  C   UNL     1      -5.391  11.229  -2.285  1.00  0.00     0.040 A 
ATOM     84  C   UNL     1      -5.611  12.056  -0.037  1.00  0.00     0.040 A 
ATOM     85  F   UNL     1      -3.703  12.447   1.275  1.00  0.00    -0.206 F 
ATOM     86  C   UNL     1      -6.200  11.583  -1.209  1.00  0.00     0.006 A 
ENDBRANCH  58  79
BRANCH  70  87
ATOM     87  C   UNL     1       2.260  13.210   3.264  1.00  0.00     0.057 A 
ATOM     88  C   UNL     1       2.985  14.202   2.592  1.00  0.00     0.134 A 
ATOM     89  C   UNL     1       2.398  13.182   4.664  1.00  0.00     0.134 A 
ATOM     90  F   UNL     1       2.944  14.296   1.254  1.00  0.00    -0.206 F 
ATOM     91  C   UNL     1       3.795  15.117   3.274  1.00  0.00     0.040 A 
ATOM     92  C   UNL     1       3.238  14.060   5.352  1.00  0.00     0.040 A 
ATOM     93  F   UNL     1       1.710  12.310   5.416  1.00  0.00    -0.206 F 
ATOM     94  C   UNL     1       3.938  15.036   4.656  1.00  0.00     0.006 A 
ENDBRANCH  70  87
ENDBRANCH  44  45
ENDBRANCH  36  39
ENDBRANCH  34  35
ENDBRANCH  33  34
ENDBRANCH  32  33
ENDBRANCH   3  32
TORSDOF 16
