REMARK SMILES CC(C)CN(C)c1cc2c(cc1Cl)C=C(C(=O)NCCCNC(=O)c1ccc(-c3c4nc(c(-c5c(F)cccc5F)c5ccc([nH]5)c(-c5c(F)cccc5F)c5nc(c(-c6c(F)cccc6F)c6ccc3[nH]6)C=C5)C=C4)cc1)[C@H](C(F)(F)F)O2
REMARK SMILES IDX 19 1 18 2 16 3 17 4 15 6 7 7 8 8 12 9 9 10 11 11 13 12 10 13
REMARK SMILES IDX 84 14 14 15 79 16 5 17 6 18 4 19 2 20 1 21 3 22 80 23 81 24
REMARK SMILES IDX 82 25 83 26 20 27 21 28 22 29 23 30 24 32 25 33 26 34 78 35
REMARK SMILES IDX 27 36 77 37 28 38 29 39 30 40 71 41 31 42 76 43 70 44 72 45
REMARK SMILES IDX 32 46 75 47 69 48 68 49 33 51 59 52 42 53 58 54 43 55 46 56
REMARK SMILES IDX 57 57 73 58 44 59 45 60 56 62 74 63 47 64 34 65 35 66 40 67
REMARK SMILES IDX 36 68 37 69 39 70 41 71 38 72 60 73 61 74 66 75 62 76 63 77
REMARK SMILES IDX 65 78 67 79 64 80 48 81 49 82 54 83 50 84 51 85 53 86 55 87
REMARK SMILES IDX 52 88
REMARK H PARENT 18 5 22 31 72 50 46 61
REMARK Flexibility Score: inf
ROOT
ATOM      1  C   UNL     1      -2.926   1.743   8.424  1.00  0.00     0.118 C 
ENDROOT
BRANCH   1   2
ATOM      2  N   UNL     1      -1.611   1.138   8.286  1.00  0.00    -0.352 N 
ATOM      3  C   UNL     1      -0.806   0.787   7.258  1.00  0.00     0.251 C 
ATOM      4  O   UNL     1       0.291   0.315   7.566  1.00  0.00    -0.270 OA
ATOM      5  H   UNL     1      -1.205   0.933   9.159  1.00  0.00     0.163 HD
BRANCH   3   6
ATOM      6  C   UNL     1      -1.155   0.971   5.825  1.00  0.00     0.067 C 
ATOM      7  C   UNL     1      -0.738   1.630   0.822  1.00  0.00     0.059 A 
ATOM      8  C   UNL     1      -1.797   1.368   1.709  1.00  0.00     0.074 A 
ATOM      9  C   UNL     1       0.532   1.868   1.392  1.00  0.00     0.065 A 
ATOM     10  C   UNL     1      -1.590   1.280   3.087  1.00  0.00     0.130 A 
ATOM     11  C   UNL     1       0.752   1.704   2.765  1.00  0.00     0.034 A 
ATOM     12  Cl  UNL     1       1.876   2.434   0.459  1.00  0.00    -0.082 Cl
ATOM     13  C   UNL     1      -0.311   1.402   3.614  1.00  0.00     0.019 A 
ATOM     14  O   UNL     1      -2.705   1.107   3.852  1.00  0.00    -0.475 OA
ATOM     15  C   UNL     1      -0.101   1.249   5.042  1.00  0.00     0.025 C 
ATOM     16  C   UNL     1      -2.535   0.770   5.257  1.00  0.00     0.314 C 
BRANCH   7  17
ATOM     17  N   UNL     1      -0.958   1.622  -0.566  1.00  0.00    -0.373 N 
ATOM     18  C   UNL     1      -2.034   2.496  -1.033  1.00  0.00     0.143 C 
BRANCH  17  19
ATOM     19  C   UNL     1      -0.850   0.307  -1.242  1.00  0.00     0.119 C 
BRANCH  19  20
ATOM     20  C   UNL     1       0.610  -0.140  -1.465  1.00  0.00     0.002 C 
ATOM     21  C   UNL     1       1.118  -1.048  -0.339  1.00  0.00     0.009 C 
ATOM     22  C   UNL     1       0.778  -0.873  -2.799  1.00  0.00     0.009 C 
ENDBRANCH  19  20
ENDBRANCH  17  19
ENDBRANCH   7  17
BRANCH  16  23
ATOM     23  C   UNL     1      -3.104  -0.641   5.464  1.00  0.00     0.429 C 
ATOM     24  F   UNL     1      -2.720  -1.501   4.495  1.00  0.00    -0.167 F 
ATOM     25  F   UNL     1      -2.746  -1.185   6.647  1.00  0.00    -0.167 F 
ATOM     26  F   UNL     1      -4.462  -0.597   5.454  1.00  0.00    -0.167 F 
ENDBRANCH  16  23
ENDBRANCH   3   6
ENDBRANCH   1   2
BRANCH   1  27
ATOM     27  C   UNL     1      -3.947   0.720   8.910  1.00  0.00     0.042 C 
BRANCH  27  28
ATOM     28  C   UNL     1      -3.742   0.351  10.376  1.00  0.00     0.118 C 
BRANCH  28  29
ATOM     29  N   UNL     1      -4.257   1.381  11.273  1.00  0.00    -0.352 N 
ATOM     30  C   UNL     1      -5.374   1.372  12.073  1.00  0.00     0.251 C 
ATOM     31  H   UNL     1      -3.723   2.208  11.310  1.00  0.00     0.163 HD
ATOM     32  O   UNL     1      -5.784   2.423  12.564  1.00  0.00    -0.269 OA
BRANCH  30  33
ATOM     33  C   UNL     1      -6.098   0.108  12.323  1.00  0.00     0.039 A 
ATOM     34  C   UNL     1      -5.394  -1.075  12.543  1.00  0.00     0.014 A 
ATOM     35  C   UNL     1      -7.496   0.097  12.331  1.00  0.00     0.014 A 
ATOM     36  C   UNL     1      -6.070  -2.288  12.551  1.00  0.00     0.010 A 
ATOM     37  C   UNL     1      -8.180  -1.115  12.468  1.00  0.00     0.010 A 
ATOM     38  C   UNL     1      -7.473  -2.326  12.525  1.00  0.00    -0.014 A 
BRANCH  38  39
ATOM     39  C   UNL     1      -8.163  -3.644  12.559  1.00  0.00     0.031 A 
ATOM     40  C   UNL     1      -9.061  -4.078  11.430  1.00  0.00     0.074 A 
ATOM     41  C   UNL     1      -7.928  -4.482  13.589  1.00  0.00     0.049 A 
ATOM     42  N   UNL     1      -9.746  -5.187  11.298  1.00  0.00    -0.248 NA
ATOM     43  C   UNL     1      -9.218  -3.144  10.304  1.00  0.00     0.031 C 
ATOM     44  C   UNL     1      -7.064  -4.190  14.737  1.00  0.00     0.029 A 
ATOM     45  N   UNL     1      -8.368  -5.759  13.826  1.00  0.00    -0.354 N 
ATOM     46  C   UNL     1     -10.426  -5.077  10.091  1.00  0.00     0.074 A 
ATOM     47  C   UNL     1     -10.102  -3.777   9.545  1.00  0.00     0.031 C 
ATOM     48  C   UNL     1      -6.991  -5.274  15.522  1.00  0.00     0.029 A 
ATOM     49  C   UNL     1      -7.867  -6.306  14.983  1.00  0.00     0.049 A 
ATOM     50  H   UNL     1      -8.985  -6.238  13.226  1.00  0.00     0.167 HD
ATOM     51  C   UNL     1     -11.234  -5.982   9.485  1.00  0.00     0.037 A 
ATOM     52  C   UNL     1      -8.109  -7.494  15.565  1.00  0.00     0.037 A 
ATOM     53  C   UNL     1     -11.545  -7.281  10.024  1.00  0.00     0.049 A 
ATOM     54  C   UNL     1      -9.072  -8.441  14.909  1.00  0.00     0.074 A 
ATOM     55  C   UNL     1     -12.344  -8.273   9.482  1.00  0.00     0.029 A 
ATOM     56  N   UNL     1     -11.072  -7.769  11.234  1.00  0.00    -0.354 N 
ATOM     57  N   UNL     1      -9.701  -8.324  13.765  1.00  0.00    -0.248 NA
ATOM     58  C   UNL     1      -9.368  -9.683  15.636  1.00  0.00     0.031 C 
ATOM     59  C   UNL     1     -12.398  -9.338  10.388  1.00  0.00     0.029 A 
ATOM     60  C   UNL     1     -11.585  -9.035  11.468  1.00  0.00     0.049 A 
ATOM     61  H   UNL     1     -10.461  -7.286  11.837  1.00  0.00     0.167 HD
ATOM     62  C   UNL     1     -10.452  -9.483  13.626  1.00  0.00     0.074 A 
ATOM     63  C   UNL     1     -10.174 -10.303  14.788  1.00  0.00     0.031 C 
ATOM     64  C   UNL     1     -11.302  -9.836  12.631  1.00  0.00     0.037 A 
BRANCH  51  65
ATOM     65  C   UNL     1     -11.858  -5.587   8.175  1.00  0.00     0.057 A 
ATOM     66  C   UNL     1     -13.238  -5.361   8.081  1.00  0.00     0.134 A 
ATOM     67  C   UNL     1     -11.104  -5.457   7.001  1.00  0.00     0.134 A 
ATOM     68  F   UNL     1     -14.023  -5.477   9.163  1.00  0.00    -0.206 F 
ATOM     69  C   UNL     1     -13.844  -5.021   6.870  1.00  0.00     0.040 A 
ATOM     70  C   UNL     1     -11.694  -5.088   5.789  1.00  0.00     0.040 A 
ATOM     71  F   UNL     1      -9.776  -5.647   7.021  1.00  0.00    -0.206 F 
ATOM     72  C   UNL     1     -13.070  -4.875   5.721  1.00  0.00     0.006 A 
ENDBRANCH  51  65
BRANCH  52  73
ATOM     73  C   UNL     1      -7.465  -7.844  16.858  1.00  0.00     0.057 A 
ATOM     74  C   UNL     1      -7.771  -7.152  18.036  1.00  0.00     0.134 A 
ATOM     75  C   UNL     1      -6.561  -8.908  16.952  1.00  0.00     0.134 A 
ATOM     76  F   UNL     1      -8.625  -6.118  18.014  1.00  0.00    -0.206 F 
ATOM     77  C   UNL     1      -7.200  -7.502  19.260  1.00  0.00     0.040 A 
ATOM     78  C   UNL     1      -6.009  -9.291  18.176  1.00  0.00     0.040 A 
ATOM     79  F   UNL     1      -6.242  -9.623  15.863  1.00  0.00    -0.206 F 
ATOM     80  C   UNL     1      -6.326  -8.585  19.334  1.00  0.00     0.006 A 
ENDBRANCH  52  73
BRANCH  64  81
ATOM     81  C   UNL     1     -11.962 -11.180  12.751  1.00  0.00     0.057 A 
ATOM     82  C   UNL     1     -11.609 -12.227  11.891  1.00  0.00     0.134 A 
ATOM     83  C   UNL     1     -12.943 -11.439  13.717  1.00  0.00     0.134 A 
ATOM     84  F   UNL     1     -10.682 -12.046  10.939  1.00  0.00    -0.206 F 
ATOM     85  C   UNL     1     -12.205 -13.485  11.991  1.00  0.00     0.040 A 
ATOM     86  C   UNL     1     -13.522 -12.702  13.848  1.00  0.00     0.040 A 
ATOM     87  F   UNL     1     -13.314 -10.483  14.584  1.00  0.00    -0.206 F 
ATOM     88  C   UNL     1     -13.156 -13.728  12.980  1.00  0.00     0.006 A 
ENDBRANCH  64  81
ENDBRANCH  38  39
ENDBRANCH  30  33
ENDBRANCH  28  29
ENDBRANCH  27  28
ENDBRANCH   1  27
TORSDOF 14
