REMARK SMILES C[C@H](CC(=O)NCCCNC(=O)c1ccc(-c2c3nc(c(-c4c(F)cccc4F)c4ccc([nH]4)c(-c4c(F)cccc4F)c4nc(c(-c5c(F)cccc5F)c5ccc2[nH]5)C=C4)C=C3)cc1)NC(=O)Cn1nc2ccccn2c1=O
REMARK SMILES IDX 7 1 6 2 4 3 5 4 3 6 2 7 1 8 67 9 68 10 69 12 70 13 71 14
REMARK SMILES IDX 72 15 79 16 73 17 78 18 80 19 74 20 77 21 75 22 76 23 8 24
REMARK SMILES IDX 9 25 10 26 11 27 12 29 13 30 14 31 66 32 15 33 65 34 16 35
REMARK SMILES IDX 17 36 18 37 59 38 19 39 64 40 58 41 60 42 20 43 63 44 57 45
REMARK SMILES IDX 56 46 21 48 47 49 30 50 46 51 31 52 34 53 45 54 61 55 32 56
REMARK SMILES IDX 33 57 44 59 62 60 35 61 22 62 23 63 28 64 24 65 25 66 27 67
REMARK SMILES IDX 29 68 26 69 48 70 49 71 54 72 50 73 51 74 53 75 55 76 52 77
REMARK SMILES IDX 36 78 37 79 42 80 38 81 39 82 41 83 43 84 40 85
REMARK H PARENT 6 5 67 11 10 28 60 47 34 58
REMARK Flexibility Score: inf
ROOT
ATOM      1  C   UNL     1      -0.549   0.225  -2.656  1.00  0.00     0.117 C 
ENDROOT
BRANCH   1   2
ATOM      2  N   UNL     1       0.896   0.259  -2.515  1.00  0.00    -0.356 N 
ATOM      3  C   UNL     1       1.675   0.277  -1.400  1.00  0.00     0.222 C 
ATOM      4  O   UNL     1       2.897   0.327  -1.546  1.00  0.00    -0.275 OA
ATOM      5  H   UNL     1       1.392   0.272  -3.365  1.00  0.00     0.163 HD
BRANCH   3   6
ATOM      6  C   UNL     1       1.058   0.244  -0.019  1.00  0.00     0.124 C 
BRANCH   6   7
ATOM      7  C   UNL     1       0.625   1.601   0.561  1.00  0.00     0.088 C 
ATOM      8  C   UNL     1       1.194   2.829  -0.149  1.00  0.00     0.031 C 
BRANCH   7   9
ATOM      9  N   UNL     1      -0.835   1.694   0.632  1.00  0.00    -0.352 N 
ATOM     10  C   UNL     1      -1.691   1.690   1.693  1.00  0.00     0.242 C 
ATOM     11  H   UNL     1      -1.277   1.775  -0.243  1.00  0.00     0.163 HD
ATOM     12  O   UNL     1      -2.881   1.903   1.432  1.00  0.00    -0.273 OA
BRANCH  10  13
ATOM     13  C   UNL     1      -1.225   1.643   3.149  1.00  0.00     0.249 C 
BRANCH  13  14
ATOM     14  N   UNL     1      -0.196   0.685   3.455  1.00  0.00    -0.203 N 
ATOM     15  N   UNL     1       0.795   0.940   4.387  1.00  0.00    -0.149 NA
ATOM     16  C   UNL     1      -0.168  -0.663   3.072  1.00  0.00     0.350 A 
ATOM     17  C   UNL     1       1.439  -0.183   4.444  1.00  0.00     0.161 A 
ATOM     18  N   UNL     1       0.966  -1.167   3.644  1.00  0.00    -0.250 N 
ATOM     19  O   UNL     1      -0.954  -1.242   2.328  1.00  0.00    -0.246 OA
ATOM     20  C   UNL     1       2.628  -0.504   5.239  1.00  0.00     0.050 A 
ATOM     21  C   UNL     1       1.602  -2.359   3.432  1.00  0.00     0.098 A 
ATOM     22  C   UNL     1       3.419  -1.475   4.754  1.00  0.00     0.005 A 
ATOM     23  C   UNL     1       2.831  -2.527   3.943  1.00  0.00     0.019 A 
ENDBRANCH  13  14
ENDBRANCH  10  13
ENDBRANCH   7   9
ENDBRANCH   6   7
ENDBRANCH   3   6
ENDBRANCH   1   2
BRANCH   1  24
ATOM     24  C   UNL     1      -1.134   1.583  -3.038  1.00  0.00     0.042 C 
BRANCH  24  25
ATOM     25  C   UNL     1      -0.567   2.186  -4.319  1.00  0.00     0.118 C 
BRANCH  25  26
ATOM     26  N   UNL     1      -0.949   1.437  -5.504  1.00  0.00    -0.352 N 
ATOM     27  C   UNL     1      -1.644   1.845  -6.615  1.00  0.00     0.251 C 
ATOM     28  H   UNL     1      -0.667   0.493  -5.510  1.00  0.00     0.163 HD
ATOM     29  O   UNL     1      -2.041   1.007  -7.421  1.00  0.00    -0.269 OA
BRANCH  27  30
ATOM     30  C   UNL     1      -1.930   3.279  -6.849  1.00  0.00     0.039 A 
ATOM     31  C   UNL     1      -3.189   3.640  -7.339  1.00  0.00     0.014 A 
ATOM     32  C   UNL     1      -0.958   4.261  -6.639  1.00  0.00     0.014 A 
ATOM     33  C   UNL     1      -3.488   4.985  -7.573  1.00  0.00     0.010 A 
ATOM     34  C   UNL     1      -1.280   5.607  -6.805  1.00  0.00     0.010 A 
ATOM     35  C   UNL     1      -2.545   5.984  -7.283  1.00  0.00    -0.014 A 
BRANCH  35  36
ATOM     36  C   UNL     1      -2.861   7.423  -7.487  1.00  0.00     0.031 A 
ATOM     37  C   UNL     1      -2.095   8.232  -8.498  1.00  0.00     0.074 A 
ATOM     38  C   UNL     1      -3.799   8.016  -6.724  1.00  0.00     0.049 A 
ATOM     39  N   UNL     1      -2.179   9.511  -8.771  1.00  0.00    -0.248 NA
ATOM     40  C   UNL     1      -1.086   7.515  -9.293  1.00  0.00     0.031 C 
ATOM     41  C   UNL     1      -4.587   7.354  -5.683  1.00  0.00     0.029 A 
ATOM     42  N   UNL     1      -4.243   9.316  -6.700  1.00  0.00    -0.354 N 
ATOM     43  C   UNL     1      -1.227   9.752  -9.754  1.00  0.00     0.074 A 
ATOM     44  C   UNL     1      -0.542   8.500  -9.993  1.00  0.00     0.031 C 
ATOM     45  C   UNL     1      -5.430   8.245  -5.136  1.00  0.00     0.029 A 
ATOM     46  C   UNL     1      -5.215   9.549  -5.758  1.00  0.00     0.049 A 
ATOM     47  H   UNL     1      -3.897  10.014  -7.301  1.00  0.00     0.167 HD
ATOM     48  C   UNL     1      -0.962  10.905 -10.413  1.00  0.00     0.037 A 
ATOM     49  C   UNL     1      -5.854  10.686  -5.424  1.00  0.00     0.037 A 
ATOM     50  C   UNL     1      -1.658  12.146 -10.189  1.00  0.00     0.049 A 
ATOM     51  C   UNL     1      -5.530  11.957  -6.159  1.00  0.00     0.074 A 
ATOM     52  C   UNL     1      -1.498  13.355 -10.845  1.00  0.00     0.029 A 
ATOM     53  N   UNL     1      -2.645  12.337  -9.234  1.00  0.00    -0.354 N 
ATOM     54  N   UNL     1      -4.671  12.156  -7.129  1.00  0.00    -0.248 NA
ATOM     55  C   UNL     1      -6.269  13.162  -5.756  1.00  0.00     0.031 C 
ATOM     56  C   UNL     1      -2.353  14.290 -10.254  1.00  0.00     0.029 A 
ATOM     57  C   UNL     1      -3.086  13.650  -9.268  1.00  0.00     0.049 A 
ATOM     58  H   UNL     1      -2.982  11.643  -8.623  1.00  0.00     0.167 HD
ATOM     59  C   UNL     1      -4.790  13.497  -7.474  1.00  0.00     0.074 A 
ATOM     60  C   UNL     1      -5.812  14.060  -6.617  1.00  0.00     0.031 C 
ATOM     61  C   UNL     1      -4.113  14.197  -8.417  1.00  0.00     0.037 A 
BRANCH  48  62
ATOM     62  C   UNL     1       0.132  10.880 -11.442  1.00  0.00     0.057 A 
ATOM     63  C   UNL     1      -0.009  10.194 -12.656  1.00  0.00     0.134 A 
ATOM     64  C   UNL     1       1.327  11.582 -11.235  1.00  0.00     0.134 A 
ATOM     65  F   UNL     1      -1.123   9.493 -12.915  1.00  0.00    -0.206 F 
ATOM     66  C   UNL     1       1.008  10.181 -13.612  1.00  0.00     0.040 A 
ATOM     67  C   UNL     1       2.340  11.602 -12.196  1.00  0.00     0.040 A 
ATOM     68  F   UNL     1       1.526  12.268 -10.099  1.00  0.00    -0.206 F 
ATOM     69  C   UNL     1       2.185  10.893 -13.386  1.00  0.00     0.006 A 
ENDBRANCH  48  62
BRANCH  49  70
ATOM     70  C   UNL     1      -6.881  10.674  -4.351  1.00  0.00     0.057 A 
ATOM     71  C   UNL     1      -8.236  10.864  -4.646  1.00  0.00     0.134 A 
ATOM     72  C   UNL     1      -6.535  10.488  -3.007  1.00  0.00     0.134 A 
ATOM     73  F   UNL     1      -8.629  11.068  -5.912  1.00  0.00    -0.206 F 
ATOM     74  C   UNL     1      -9.207  10.890  -3.643  1.00  0.00     0.040 A 
ATOM     75  C   UNL     1      -7.498  10.484  -1.997  1.00  0.00     0.040 A 
ATOM     76  F   UNL     1      -5.254  10.295  -2.659  1.00  0.00    -0.206 F 
ATOM     77  C   UNL     1      -8.838  10.695  -2.314  1.00  0.00     0.006 A 
ENDBRANCH  49  70
BRANCH  61  78
ATOM     78  C   UNL     1      -4.486  15.639  -8.604  1.00  0.00     0.057 A 
ATOM     79  C   UNL     1      -4.159  16.620  -7.660  1.00  0.00     0.134 A 
ATOM     80  C   UNL     1      -5.149  16.056  -9.766  1.00  0.00     0.134 A 
ATOM     81  F   UNL     1      -3.535  16.287  -6.520  1.00  0.00    -0.206 F 
ATOM     82  C   UNL     1      -4.499  17.961  -7.854  1.00  0.00     0.040 A 
ATOM     83  C   UNL     1      -5.469  17.397  -9.984  1.00  0.00     0.040 A 
ATOM     84  F   UNL     1      -5.484  15.169 -10.715  1.00  0.00    -0.206 F 
ATOM     85  C   UNL     1      -5.149  18.353  -9.023  1.00  0.00     0.006 A 
ENDBRANCH  61  78
ENDBRANCH  35  36
ENDBRANCH  27  30
ENDBRANCH  25  26
ENDBRANCH  24  25
ENDBRANCH   1  24
TORSDOF 14
