REMARK SMILES O=C(Cc1ccccc1Nc1c(Cl)cccc1C(F)(F)F)NCCCNC(=O)c1ccc(-c2c3nc(c(-c4c(F)cccc4F)c4ccc([nH]4)c(-c4c(F)cccc4F)c4nc(c(-c5c(F)cccc5F)c5ccc2[nH]5)C=C4)C=C3)cc1
REMARK SMILES IDX 23 1 22 2 1 3 2 4 3 6 4 7 5 8 9 9 6 10 8 11 7 12 10 13 11 15
REMARK SMILES IDX 12 16 17 17 13 18 14 19 16 20 15 21 18 22 19 23 20 24 21 25
REMARK SMILES IDX 24 26 25 27 26 28 27 29 28 31 29 32 30 33 82 34 31 35 81 36
REMARK SMILES IDX 32 37 33 38 34 39 75 40 35 41 80 42 74 43 76 44 36 45 79 46
REMARK SMILES IDX 73 47 72 48 37 50 63 51 46 52 62 53 47 54 50 55 61 56 77 57
REMARK SMILES IDX 48 58 49 59 60 61 78 62 51 63 38 64 39 65 44 66 40 67 41 68
REMARK SMILES IDX 43 69 45 70 42 71 64 72 65 73 70 74 66 75 67 76 69 77 71 78
REMARK SMILES IDX 68 79 52 80 53 81 58 82 54 83 55 84 57 85 59 86 56 87
REMARK H PARENT 22 5 10 14 26 30 76 49 50 60
REMARK Flexibility Score: inf
ROOT
ATOM      1  C   UNL     1       1.963   2.127   0.921  1.00  0.00     0.117 C 
ENDROOT
BRANCH   1   2
ATOM      2  N   UNL     1       2.775   0.958   0.638  1.00  0.00    -0.356 N 
ATOM      3  O   UNL     1       1.120  -0.163  -0.481  1.00  0.00    -0.275 OA
ATOM      4  C   UNL     1       2.279  -0.113  -0.081  1.00  0.00     0.224 C 
ATOM      5  H   UNL     1       3.703   0.927   0.967  1.00  0.00     0.163 HD
BRANCH   4   6
ATOM      6  C   UNL     1       3.296  -1.180  -0.411  1.00  0.00     0.137 C 
BRANCH   6   7
ATOM      7  C   UNL     1       4.140  -1.033  -1.672  1.00  0.00    -0.015 A 
ATOM      8  C   UNL     1       4.814  -2.213  -2.067  1.00  0.00     0.006 A 
ATOM      9  C   UNL     1       4.384   0.155  -2.401  1.00  0.00     0.042 A 
ATOM     10  C   UNL     1       5.733  -2.218  -3.113  1.00  0.00     0.000 A 
ATOM     11  C   UNL     1       5.369   0.140  -3.407  1.00  0.00     0.026 A 
ATOM     12  C   UNL     1       6.028  -1.034  -3.770  1.00  0.00     0.002 A 
BRANCH   9  13
ATOM     13  N   UNL     1       3.708   1.354  -2.108  1.00  0.00    -0.354 N 
ATOM     14  H   UNL     1       2.996   1.272  -1.433  1.00  0.00     0.167 HD
BRANCH  13  15
ATOM     15  C   UNL     1       3.887   2.656  -2.625  1.00  0.00     0.070 A 
ATOM     16  C   UNL     1       4.746   3.570  -1.981  1.00  0.00     0.065 A 
ATOM     17  C   UNL     1       3.095   3.107  -3.700  1.00  0.00     0.080 A 
ATOM     18  Cl  UNL     1       5.816   3.050  -0.723  1.00  0.00    -0.082 Cl
ATOM     19  C   UNL     1       4.748   4.922  -2.332  1.00  0.00     0.023 A 
ATOM     20  C   UNL     1       3.125   4.469  -4.055  1.00  0.00     0.015 A 
ATOM     21  C   UNL     1       3.923   5.374  -3.358  1.00  0.00     0.002 A 
BRANCH  17  22
ATOM     22  C   UNL     1       2.265   2.146  -4.516  1.00  0.00     0.418 C 
ATOM     23  F   UNL     1       1.325   2.774  -5.282  1.00  0.00    -0.166 F 
ATOM     24  F   UNL     1       3.019   1.423  -5.391  1.00  0.00    -0.166 F 
ATOM     25  F   UNL     1       1.571   1.246  -3.766  1.00  0.00    -0.166 F 
ENDBRANCH  17  22
ENDBRANCH  13  15
ENDBRANCH   9  13
ENDBRANCH   6   7
ENDBRANCH   4   6
ENDBRANCH   1   2
BRANCH   1  26
ATOM     26  C   UNL     1       2.223   2.738   2.292  1.00  0.00     0.042 C 
BRANCH  26  27
ATOM     27  C   UNL     1       3.628   3.288   2.513  1.00  0.00     0.118 C 
BRANCH  27  28
ATOM     28  N   UNL     1       3.987   4.380   1.623  1.00  0.00    -0.352 N 
ATOM     29  C   UNL     1       4.815   5.461   1.830  1.00  0.00     0.251 C 
ATOM     30  H   UNL     1       3.573   4.341   0.731  1.00  0.00     0.163 HD
ATOM     31  O   UNL     1       4.992   6.270   0.928  1.00  0.00    -0.269 OA
BRANCH  29  32
ATOM     32  C   UNL     1       5.438   5.692   3.156  1.00  0.00     0.039 A 
ATOM     33  C   UNL     1       5.433   6.997   3.660  1.00  0.00     0.014 A 
ATOM     34  C   UNL     1       5.992   4.658   3.914  1.00  0.00     0.014 A 
ATOM     35  C   UNL     1       5.877   7.244   4.960  1.00  0.00     0.010 A 
ATOM     36  C   UNL     1       6.369   4.891   5.236  1.00  0.00     0.010 A 
ATOM     37  C   UNL     1       6.290   6.181   5.778  1.00  0.00    -0.014 A 
BRANCH  37  38
ATOM     38  C   UNL     1       6.571   6.401   7.219  1.00  0.00     0.031 A 
ATOM     39  C   UNL     1       7.951   6.204   7.774  1.00  0.00     0.074 A 
ATOM     40  C   UNL     1       5.551   6.719   8.041  1.00  0.00     0.049 A 
ATOM     41  N   UNL     1       8.366   6.317   9.010  1.00  0.00    -0.248 NA
ATOM     42  C   UNL     1       8.998   5.804   6.821  1.00  0.00     0.031 C 
ATOM     43  C   UNL     1       4.153   6.878   7.631  1.00  0.00     0.029 A 
ATOM     44  N   UNL     1       5.529   6.960   9.391  1.00  0.00    -0.354 N 
ATOM     45  C   UNL     1       9.716   5.993   8.987  1.00  0.00     0.074 A 
ATOM     46  C   UNL     1      10.040   5.636   7.622  1.00  0.00     0.031 C 
ATOM     47  C   UNL     1       3.417   7.216   8.701  1.00  0.00     0.029 A 
ATOM     48  C   UNL     1       4.281   7.268   9.875  1.00  0.00     0.049 A 
ATOM     49  H   UNL     1       6.332   6.915   9.960  1.00  0.00     0.167 HD
ATOM     50  C   UNL     1      10.607   6.011  10.007  1.00  0.00     0.037 A 
ATOM     51  C   UNL     1       3.877   7.562  11.125  1.00  0.00     0.037 A 
ATOM     52  C   UNL     1      10.287   6.384  11.360  1.00  0.00     0.049 A 
ATOM     53  C   UNL     1       4.890   7.595  12.233  1.00  0.00     0.074 A 
ATOM     54  C   UNL     1      11.131   6.482  12.452  1.00  0.00     0.029 A 
ATOM     55  N   UNL     1       9.017   6.721  11.805  1.00  0.00    -0.354 N 
ATOM     56  N   UNL     1       6.177   7.352  12.183  1.00  0.00    -0.248 NA
ATOM     57  C   UNL     1       4.396   7.952  13.571  1.00  0.00     0.031 C 
ATOM     58  C   UNL     1      10.366   6.850  13.566  1.00  0.00     0.029 A 
ATOM     59  C   UNL     1       9.053   7.015  13.158  1.00  0.00     0.049 A 
ATOM     60  H   UNL     1       8.210   6.747  11.242  1.00  0.00     0.167 HD
ATOM     61  C   UNL     1       6.651   7.550  13.472  1.00  0.00     0.074 A 
ATOM     62  C   UNL     1       5.516   7.946  14.280  1.00  0.00     0.031 C 
ATOM     63  C   UNL     1       7.914   7.414  13.945  1.00  0.00     0.037 A 
BRANCH  50  64
ATOM     64  C   UNL     1      12.020   5.617   9.691  1.00  0.00     0.057 A 
ATOM     65  C   UNL     1      12.866   6.450   8.947  1.00  0.00     0.134 A 
ATOM     66  C   UNL     1      12.549   4.407  10.155  1.00  0.00     0.134 A 
ATOM     67  F   UNL     1      12.416   7.618   8.463  1.00  0.00    -0.206 F 
ATOM     68  C   UNL     1      14.180   6.081   8.652  1.00  0.00     0.040 A 
ATOM     69  C   UNL     1      13.869   4.037   9.887  1.00  0.00     0.040 A 
ATOM     70  F   UNL     1      11.795   3.566  10.878  1.00  0.00    -0.206 F 
ATOM     71  C   UNL     1      14.686   4.873   9.128  1.00  0.00     0.006 A 
ENDBRANCH  50  64
BRANCH  51  72
ATOM     72  C   UNL     1       2.453   7.883  11.388  1.00  0.00     0.057 A 
ATOM     73  C   UNL     1       2.053   9.192  11.678  1.00  0.00     0.134 A 
ATOM     74  C   UNL     1       1.462   6.896  11.356  1.00  0.00     0.134 A 
ATOM     75  F   UNL     1       2.961  10.177  11.739  1.00  0.00    -0.206 F 
ATOM     76  C   UNL     1       0.720   9.507  11.943  1.00  0.00     0.040 A 
ATOM     77  C   UNL     1       0.121   7.200  11.599  1.00  0.00     0.040 A 
ATOM     78  F   UNL     1       1.781   5.624  11.076  1.00  0.00    -0.206 F 
ATOM     79  C   UNL     1      -0.252   8.509  11.900  1.00  0.00     0.006 A 
ENDBRANCH  51  72
BRANCH  63  80
ATOM     80  C   UNL     1       8.134   7.726  15.394  1.00  0.00     0.057 A 
ATOM     81  C   UNL     1       7.712   6.858  16.408  1.00  0.00     0.134 A 
ATOM     82  C   UNL     1       8.800   8.897  15.777  1.00  0.00     0.134 A 
ATOM     83  F   UNL     1       7.055   5.728  16.105  1.00  0.00    -0.206 F 
ATOM     84  C   UNL     1       7.924   7.154  17.755  1.00  0.00     0.040 A 
ATOM     85  C   UNL     1       9.038   9.193  17.120  1.00  0.00     0.040 A 
ATOM     86  F   UNL     1       9.235   9.767  14.853  1.00  0.00    -0.206 F 
ATOM     87  C   UNL     1       8.595   8.323  18.113  1.00  0.00     0.006 A 
ENDBRANCH  63  80
ENDBRANCH  37  38
ENDBRANCH  29  32
ENDBRANCH  27  28
ENDBRANCH  26  27
ENDBRANCH   1  26
TORSDOF 14
