REMARK SMILES Cc1nn(C)c(=O)c(C(=O)N[C@H]2C=C[C@H](C(=O)NCCCNC(=O)c3ccc(-c4c5nc(c(-c6c(F)cccc6F)c6ccc([nH]6)c(-c6c(F)cccc6F)c6nc(c(-c7c(F)cccc7F)c7ccc4[nH]7)C=C6)C=C5)cc3)C2)c1C
REMARK SMILES IDX 20 1 19 2 18 3 16 4 17 5 15 7 12 8 13 9 79 10 14 11 11 12
REMARK SMILES IDX 9 13 10 14 8 16 1 17 2 18 3 19 80 20 4 21 81 22 5 23 6 24
REMARK SMILES IDX 7 25 21 26 22 27 23 28 24 30 25 31 26 32 78 33 27 34 77 35
REMARK SMILES IDX 28 36 29 37 30 38 71 39 31 40 76 41 70 42 72 43 32 44 75 45
REMARK SMILES IDX 69 46 68 47 33 49 59 50 42 51 58 52 43 53 46 54 57 55 73 56
REMARK SMILES IDX 44 57 45 58 56 60 74 61 47 62 34 63 35 64 40 65 36 66 37 67
REMARK SMILES IDX 39 68 41 69 38 70 60 71 61 72 66 73 62 74 63 75 65 76 67 77
REMARK SMILES IDX 64 78 48 79 49 80 54 81 50 82 51 83 53 84 55 85 52 86
REMARK H PARENT 18 6 11 15 22 29 72 48 46 59
REMARK Flexibility Score: inf
ROOT
ATOM      1  C   UNL     1       1.457   4.649  -2.291  1.00  0.00     0.042 C 
ENDROOT
BRANCH   1   2
ATOM      2  C   UNL     1       0.492   3.475  -2.256  1.00  0.00     0.117 C 
BRANCH   2   3
ATOM      3  N   UNL     1      -0.841   3.880  -1.853  1.00  0.00    -0.356 N 
ATOM      4  C   UNL     1      -2.027   3.947  -2.503  1.00  0.00     0.227 C 
ATOM      5  O   UNL     1      -2.956   4.457  -1.865  1.00  0.00    -0.274 OA
ATOM      6  H   UNL     1      -0.894   4.166  -0.912  1.00  0.00     0.163 HD
BRANCH   4   7
ATOM      7  C   UNL     1      -2.322   3.293  -3.861  1.00  0.00     0.103 C 
ATOM      8  C   UNL     1      -1.323   1.082  -4.061  1.00  0.00     0.106 C 
ATOM      9  C   UNL     1      -0.840   1.988  -5.149  1.00  0.00    -0.006 C 
ATOM     10  C   UNL     1      -2.614   1.807  -3.652  1.00  0.00     0.047 C 
ATOM     11  C   UNL     1      -1.316   3.234  -4.971  1.00  0.00    -0.016 C 
BRANCH   8  12
ATOM     12  N   UNL     1      -1.602  -0.252  -4.504  1.00  0.00    -0.346 N 
ATOM     13  C   UNL     1      -1.520  -1.448  -3.845  1.00  0.00     0.257 C 
ATOM     14  O   UNL     1      -2.267  -2.342  -4.248  1.00  0.00    -0.269 OA
ATOM     15  H   UNL     1      -1.903  -0.319  -5.439  1.00  0.00     0.164 HD
BRANCH  13  16
ATOM     16  C   UNL     1      -0.527  -1.737  -2.749  1.00  0.00     0.111 A 
ATOM     17  C   UNL     1       1.314  -0.564   0.315  1.00  0.00     0.069 C 
ATOM     18  C   UNL     1       0.692  -1.532  -0.669  1.00  0.00     0.062 A 
ATOM     19  N   UNL     1       1.123  -2.748  -0.641  1.00  0.00    -0.175 NA
ATOM     20  C   UNL     1      -0.369  -1.048  -1.600  1.00  0.00    -0.010 A 
ATOM     21  N   UNL     1       0.702  -3.568  -1.646  1.00  0.00    -0.232 N 
ATOM     22  C   UNL     1      -1.233   0.037  -1.049  1.00  0.00     0.047 C 
ATOM     23  C   UNL     1       1.051  -4.969  -1.495  1.00  0.00     0.178 C 
ATOM     24  C   UNL     1       0.154  -3.086  -2.833  1.00  0.00     0.279 A 
ATOM     25  O   UNL     1       0.158  -3.736  -3.876  1.00  0.00    -0.267 OA
ENDBRANCH  13  16
ENDBRANCH   8  12
ENDBRANCH   4   7
ENDBRANCH   2   3
ENDBRANCH   1   2
BRANCH   1  26
ATOM     26  C   UNL     1       1.717   5.262  -0.920  1.00  0.00     0.118 C 
BRANCH  26  27
ATOM     27  N   UNL     1       2.384   4.342  -0.007  1.00  0.00    -0.352 N 
ATOM     28  C   UNL     1       3.682   4.311   0.448  1.00  0.00     0.251 C 
ATOM     29  H   UNL     1       1.809   3.623   0.343  1.00  0.00     0.163 HD
ATOM     30  O   UNL     1       4.085   3.329   1.055  1.00  0.00    -0.269 OA
BRANCH  28  31
ATOM     31  C   UNL     1       4.594   5.446   0.184  1.00  0.00     0.039 A 
ATOM     32  C   UNL     1       5.918   5.183  -0.178  1.00  0.00     0.014 A 
ATOM     33  C   UNL     1       4.155   6.766   0.311  1.00  0.00     0.014 A 
ATOM     34  C   UNL     1       6.773   6.241  -0.496  1.00  0.00     0.010 A 
ATOM     35  C   UNL     1       4.975   7.811  -0.098  1.00  0.00     0.010 A 
ATOM     36  C   UNL     1       6.294   7.561  -0.502  1.00  0.00    -0.014 A 
BRANCH  36  37
ATOM     37  C   UNL     1       7.153   8.698  -0.916  1.00  0.00     0.031 A 
ATOM     38  C   UNL     1       7.484   9.788   0.065  1.00  0.00     0.074 A 
ATOM     39  C   UNL     1       7.573   8.787  -2.193  1.00  0.00     0.049 A 
ATOM     40  N   UNL     1       8.141  10.903  -0.129  1.00  0.00    -0.248 NA
ATOM     41  C   UNL     1       6.985   9.618   1.440  1.00  0.00     0.031 C 
ATOM     42  C   UNL     1       7.279   7.819  -3.251  1.00  0.00     0.029 A 
ATOM     43  N   UNL     1       8.331   9.744  -2.820  1.00  0.00    -0.354 N 
ATOM     44  C   UNL     1       8.121  11.569   1.089  1.00  0.00     0.074 A 
ATOM     45  C   UNL     1       7.339  10.764   2.001  1.00  0.00     0.031 C 
ATOM     46  C   UNL     1       7.876   8.214  -4.387  1.00  0.00     0.029 A 
ATOM     47  C   UNL     1       8.560   9.481  -4.149  1.00  0.00     0.049 A 
ATOM     48  H   UNL     1       8.678  10.543  -2.361  1.00  0.00     0.167 HD
ATOM     49  C   UNL     1       8.724  12.733   1.426  1.00  0.00     0.037 A 
ATOM     50  C   UNL     1       9.242  10.184  -5.073  1.00  0.00     0.037 A 
ATOM     51  C   UNL     1       9.531  13.514   0.527  1.00  0.00     0.049 A 
ATOM     52  C   UNL     1       9.899  11.476  -4.677  1.00  0.00     0.074 A 
ATOM     53  C   UNL     1      10.236  14.675   0.792  1.00  0.00     0.029 A 
ATOM     54  N   UNL     1       9.744  13.210  -0.809  1.00  0.00    -0.354 N 
ATOM     55  N   UNL     1       9.917  12.067  -3.507  1.00  0.00    -0.248 NA
ATOM     56  C   UNL     1      10.631  12.200  -5.727  1.00  0.00     0.031 C 
ATOM     57  C   UNL     1      10.844  15.095  -0.394  1.00  0.00     0.029 A 
ATOM     58  C   UNL     1      10.553  14.174  -1.387  1.00  0.00     0.049 A 
ATOM     59  H   UNL     1       9.375  12.427  -1.276  1.00  0.00     0.167 HD
ATOM     60  C   UNL     1      10.674  13.219  -3.674  1.00  0.00     0.074 A 
ATOM     61  C   UNL     1      11.110  13.237  -5.055  1.00  0.00     0.031 C 
ATOM     62  C   UNL     1      10.978  14.176  -2.764  1.00  0.00     0.037 A 
BRANCH  49  63
ATOM     63  C   UNL     1       8.550  13.224   2.833  1.00  0.00     0.057 A 
ATOM     64  C   UNL     1       9.172  12.588   3.915  1.00  0.00     0.134 A 
ATOM     65  C   UNL     1       7.792  14.369   3.105  1.00  0.00     0.134 A 
ATOM     66  F   UNL     1       9.901  11.478   3.723  1.00  0.00    -0.206 F 
ATOM     67  C   UNL     1       9.030  13.061   5.220  1.00  0.00     0.040 A 
ATOM     68  C   UNL     1       7.664  14.867   4.402  1.00  0.00     0.040 A 
ATOM     69  F   UNL     1       7.173  15.028   2.114  1.00  0.00    -0.206 F 
ATOM     70  C   UNL     1       8.281  14.210   5.465  1.00  0.00     0.006 A 
ENDBRANCH  49  63
BRANCH  50  71
ATOM     71  C   UNL     1       9.367   9.656  -6.455  1.00  0.00     0.057 A 
ATOM     72  C   UNL     1      10.584   9.144  -6.918  1.00  0.00     0.134 A 
ATOM     73  C   UNL     1       8.277   9.626  -7.332  1.00  0.00     0.134 A 
ATOM     74  F   UNL     1      11.668   9.161  -6.128  1.00  0.00    -0.206 F 
ATOM     75  C   UNL     1      10.716   8.626  -8.207  1.00  0.00     0.040 A 
ATOM     76  C   UNL     1       8.389   9.092  -8.617  1.00  0.00     0.040 A 
ATOM     77  F   UNL     1       7.082  10.095  -6.944  1.00  0.00    -0.206 F 
ATOM     78  C   UNL     1       9.613   8.593  -9.059  1.00  0.00     0.006 A 
ENDBRANCH  50  71
BRANCH  62  79
ATOM     79  C   UNL     1      11.832  15.321  -3.221  1.00  0.00     0.057 A 
ATOM     80  C   UNL     1      11.318  16.340  -4.032  1.00  0.00     0.134 A 
ATOM     81  C   UNL     1      13.156  15.444  -2.783  1.00  0.00     0.134 A 
ATOM     82  F   UNL     1      10.060  16.273  -4.493  1.00  0.00    -0.206 F 
ATOM     83  C   UNL     1      12.096  17.439  -4.398  1.00  0.00     0.040 A 
ATOM     84  C   UNL     1      13.935  16.551  -3.122  1.00  0.00     0.040 A 
ATOM     85  F   UNL     1      13.704  14.506  -1.995  1.00  0.00    -0.206 F 
ATOM     86  C   UNL     1      13.405  17.551  -3.934  1.00  0.00     0.006 A 
ENDBRANCH  62  79
ENDBRANCH  36  37
ENDBRANCH  28  31
ENDBRANCH  26  27
ENDBRANCH   1  26
TORSDOF 12
