REMARK SMILES Cc1cccc(NC(=O)[C@H]2C=C[C@@H]([NH3+])C2)c1C(=O)NCCCNC(=O)c1ccc(-c2c3nc(c(-c4c(F)cccc4F)c4ccc([nH]4)c(-c4c(F)cccc4F)c4nc(c(-c5c(F)cccc5F)c5ccc2[nH]5)C=C4)C=C3)cc1
REMARK SMILES IDX 20 1 19 2 17 3 18 4 16 6 1 7 2 8 3 9 4 10 6 11 5 12 7 13
REMARK SMILES IDX 8 14 9 16 10 17 11 18 15 19 12 20 13 21 14 22 21 26 22 27
REMARK SMILES IDX 23 28 24 29 25 31 26 32 27 33 79 34 28 35 78 36 29 37 30 38
REMARK SMILES IDX 31 39 72 40 32 41 77 42 71 43 73 44 33 45 76 46 70 47 69 48
REMARK SMILES IDX 34 50 60 51 43 52 59 53 44 54 47 55 58 56 74 57 45 58 46 59
REMARK SMILES IDX 57 61 75 62 48 63 35 64 36 65 41 66 37 67 38 68 40 69 42 70
REMARK SMILES IDX 39 71 61 72 62 73 67 74 63 75 64 76 66 77 68 78 65 79 49 80
REMARK SMILES IDX 50 81 55 82 51 83 52 84 54 85 56 86 53 87
REMARK H PARENT 19 5 7 15 14 23 14 24 14 25 23 30 73 49 47 60
REMARK Flexibility Score: inf
ROOT
ATOM      1  C   UNL     1       3.632   1.374   0.485  1.00  0.00     0.118 C 
ENDROOT
BRANCH   1   2
ATOM      2  N   UNL     1       2.403   2.078   0.157  1.00  0.00    -0.352 N 
ATOM      3  C   UNL     1       1.085   1.808  -0.102  1.00  0.00     0.253 C 
ATOM      4  O   UNL     1       0.451   2.854  -0.313  1.00  0.00    -0.269 OA
ATOM      5  H   UNL     1       2.570   3.047   0.103  1.00  0.00     0.163 HD
BRANCH   3   6
ATOM      6  C   UNL     1       0.316   0.492  -0.157  1.00  0.00     0.066 A 
ATOM      7  C   UNL     1       2.243  -1.255  -0.422  1.00  0.00     0.045 C 
ATOM      8  C   UNL     1       0.836  -0.832  -0.196  1.00  0.00    -0.036 A 
ATOM      9  C   UNL     1      -0.025  -1.949  -0.194  1.00  0.00     0.004 A 
ATOM     10  C   UNL     1      -1.355  -1.798  -0.475  1.00  0.00     0.002 A 
ATOM     11  C   UNL     1      -1.115   0.604  -0.285  1.00  0.00     0.054 A 
ATOM     12  C   UNL     1      -1.849  -0.521  -0.626  1.00  0.00     0.027 A 
BRANCH  11  13
ATOM     13  N   UNL     1      -1.813   1.819  -0.088  1.00  0.00    -0.325 N 
ATOM     14  C   UNL     1      -3.107   2.214   0.068  1.00  0.00     0.231 C 
ATOM     15  H   UNL     1      -1.197   2.587  -0.055  1.00  0.00     0.169 HD
ATOM     16  O   UNL     1      -3.256   3.443   0.209  1.00  0.00    -0.274 OA
BRANCH  14  17
ATOM     17  C   UNL     1      -4.409   1.375   0.035  1.00  0.00     0.107 C 
ATOM     18  C   UNL     1      -4.914   1.186  -1.367  1.00  0.00    -0.012 C 
ATOM     19  C   UNL     1      -4.588  -0.004   0.691  1.00  0.00     0.087 C 
ATOM     20  C   UNL     1      -5.449  -0.025  -1.552  1.00  0.00     0.033 C 
ATOM     21  C   UNL     1      -5.391  -0.868  -0.320  1.00  0.00     0.205 C 
BRANCH  21  22
ATOM     22  N   UNL     1      -4.794  -2.165  -0.611  1.00  0.00    -0.352 N 
ATOM     23  H   UNL     1      -3.863  -2.030  -1.005  1.00  0.00     0.345 HD
ATOM     24  H   UNL     1      -5.378  -2.666  -1.281  1.00  0.00     0.345 HD
ATOM     25  H   UNL     1      -4.723  -2.708   0.251  1.00  0.00     0.345 HD
ENDBRANCH  21  22
ENDBRANCH  14  17
ENDBRANCH  11  13
ENDBRANCH   3   6
ENDBRANCH   1   2
BRANCH   1  26
ATOM     26  C   UNL     1       4.320   0.829  -0.764  1.00  0.00     0.042 C 
BRANCH  26  27
ATOM     27  C   UNL     1       5.643   1.456  -1.145  1.00  0.00     0.118 C 
BRANCH  27  28
ATOM     28  N   UNL     1       6.782   0.555  -0.948  1.00  0.00    -0.352 N 
ATOM     29  C   UNL     1       8.091   0.728  -1.379  1.00  0.00     0.251 C 
ATOM     30  H   UNL     1       6.597  -0.274  -0.449  1.00  0.00     0.163 HD
ATOM     31  O   UNL     1       8.971  -0.057  -1.085  1.00  0.00    -0.269 OA
BRANCH  29  32
ATOM     32  C   UNL     1       8.390   1.987  -2.096  1.00  0.00     0.039 A 
ATOM     33  C   UNL     1       9.085   2.950  -1.363  1.00  0.00     0.014 A 
ATOM     34  C   UNL     1       7.594   2.334  -3.185  1.00  0.00     0.014 A 
ATOM     35  C   UNL     1       8.729   4.282  -1.518  1.00  0.00     0.010 A 
ATOM     36  C   UNL     1       7.177   3.650  -3.277  1.00  0.00     0.010 A 
ATOM     37  C   UNL     1       7.681   4.603  -2.383  1.00  0.00    -0.014 A 
BRANCH  37  38
ATOM     38  C   UNL     1       7.017   5.901  -2.338  1.00  0.00     0.031 A 
ATOM     39  C   UNL     1       7.347   6.908  -3.360  1.00  0.00     0.074 A 
ATOM     40  C   UNL     1       6.156   6.233  -1.349  1.00  0.00     0.049 A 
ATOM     41  N   UNL     1       7.374   8.178  -3.137  1.00  0.00    -0.248 NA
ATOM     42  C   UNL     1       7.725   6.543  -4.717  1.00  0.00     0.031 C 
ATOM     43  C   UNL     1       5.354   7.451  -1.255  1.00  0.00     0.029 A 
ATOM     44  N   UNL     1       6.012   5.627  -0.095  1.00  0.00    -0.354 N 
ATOM     45  C   UNL     1       7.508   8.807  -4.350  1.00  0.00     0.074 A 
ATOM     46  C   UNL     1       7.787   7.746  -5.293  1.00  0.00     0.031 C 
ATOM     47  C   UNL     1       5.069   7.681   0.035  1.00  0.00     0.029 A 
ATOM     48  C   UNL     1       5.746   6.671   0.824  1.00  0.00     0.049 A 
ATOM     49  H   UNL     1       6.082   4.666   0.108  1.00  0.00     0.167 HD
ATOM     50  C   UNL     1       7.246  10.141  -4.452  1.00  0.00     0.037 A 
ATOM     51  C   UNL     1       6.572   6.902   1.884  1.00  0.00     0.037 A 
ATOM     52  C   UNL     1       6.880  10.727  -3.162  1.00  0.00     0.049 A 
ATOM     53  C   UNL     1       7.279   8.239   1.844  1.00  0.00     0.074 A 
ATOM     54  C   UNL     1       5.678  11.060  -2.559  1.00  0.00     0.029 A 
ATOM     55  N   UNL     1       7.830  10.783  -2.157  1.00  0.00    -0.354 N 
ATOM     56  N   UNL     1       7.082   9.157   0.939  1.00  0.00    -0.248 NA
ATOM     57  C   UNL     1       8.355   8.594   2.771  1.00  0.00     0.031 C 
ATOM     58  C   UNL     1       5.923  11.328  -1.182  1.00  0.00     0.029 A 
ATOM     59  C   UNL     1       7.274  11.157  -0.947  1.00  0.00     0.049 A 
ATOM     60  H   UNL     1       8.785  10.581  -2.287  1.00  0.00     0.167 HD
ATOM     61  C   UNL     1       8.013  10.152   1.093  1.00  0.00     0.074 A 
ATOM     62  C   UNL     1       8.785   9.757   2.256  1.00  0.00     0.031 C 
ATOM     63  C   UNL     1       8.126  11.204   0.230  1.00  0.00     0.037 A 
BRANCH  50  64
ATOM     64  C   UNL     1       7.061  10.832  -5.781  1.00  0.00     0.057 A 
ATOM     65  C   UNL     1       6.157  11.899  -5.925  1.00  0.00     0.134 A 
ATOM     66  C   UNL     1       7.707  10.456  -6.971  1.00  0.00     0.134 A 
ATOM     67  F   UNL     1       5.561  12.466  -4.868  1.00  0.00    -0.206 F 
ATOM     68  C   UNL     1       5.812  12.441  -7.170  1.00  0.00     0.040 A 
ATOM     69  C   UNL     1       7.328  10.940  -8.231  1.00  0.00     0.040 A 
ATOM     70  F   UNL     1       8.769   9.638  -6.961  1.00  0.00    -0.206 F 
ATOM     71  C   UNL     1       6.359  11.926  -8.335  1.00  0.00     0.006 A 
ENDBRANCH  50  64
BRANCH  51  72
ATOM     72  C   UNL     1       7.129   5.640   2.436  1.00  0.00     0.057 A 
ATOM     73  C   UNL     1       6.231   4.716   3.000  1.00  0.00     0.134 A 
ATOM     74  C   UNL     1       8.378   5.161   2.039  1.00  0.00     0.134 A 
ATOM     75  F   UNL     1       5.021   5.119   3.419  1.00  0.00    -0.206 F 
ATOM     76  C   UNL     1       6.500   3.346   3.014  1.00  0.00     0.040 A 
ATOM     77  C   UNL     1       8.665   3.793   2.069  1.00  0.00     0.040 A 
ATOM     78  F   UNL     1       9.287   5.984   1.497  1.00  0.00    -0.206 F 
ATOM     79  C   UNL     1       7.705   2.878   2.502  1.00  0.00     0.006 A 
ENDBRANCH  51  72
BRANCH  63  80
ATOM     80  C   UNL     1       9.087  12.348   0.431  1.00  0.00     0.057 A 
ATOM     81  C   UNL     1       9.335  12.915   1.690  1.00  0.00     0.134 A 
ATOM     82  C   UNL     1       9.710  12.998  -0.653  1.00  0.00     0.134 A 
ATOM     83  F   UNL     1       8.718  12.460   2.790  1.00  0.00    -0.206 F 
ATOM     84  C   UNL     1      10.208  13.996   1.869  1.00  0.00     0.040 A 
ATOM     85  C   UNL     1      10.543  14.110  -0.493  1.00  0.00     0.040 A 
ATOM     86  F   UNL     1       9.555  12.577  -1.916  1.00  0.00    -0.206 F 
ATOM     87  C   UNL     1      10.812  14.601   0.774  1.00  0.00     0.006 A 
ENDBRANCH  63  80
ENDBRANCH  37  38
ENDBRANCH  29  32
ENDBRANCH  27  28
ENDBRANCH  26  27
ENDBRANCH   1  26
TORSDOF 13
