REMARK SMILES Cc1cc(C)n2ncc(C(=O)N(C)CCCC(=O)NCCCNC(=O)c3ccc(-c4c5nc(c(-c6c(F)cccc6F)c6ccc([nH]6)c(-c6c(F)cccc6F)c6nc(c(-c7c(F)cccc7F)c7ccc4[nH]7)C=C6)C=C5)cc3)c2n1
REMARK SMILES IDX 17 1 18 2 19 3 16 5 15 6 14 7 12 8 13 9 10 10 11 11 9 12
REMARK SMILES IDX 1 13 2 14 3 15 81 16 4 17 80 18 5 19 6 20 7 21 8 22 20 23
REMARK SMILES IDX 21 24 22 25 23 26 24 27 25 29 26 30 27 31 79 32 28 33 78 34
REMARK SMILES IDX 29 35 30 36 31 37 72 38 32 39 77 40 71 41 73 42 33 43 76 44
REMARK SMILES IDX 70 45 69 46 34 48 60 49 43 50 59 51 44 52 47 53 58 54 74 55
REMARK SMILES IDX 45 56 46 57 57 59 75 60 48 61 35 62 36 63 41 64 37 65 38 66
REMARK SMILES IDX 40 67 42 68 39 69 61 70 62 71 67 72 63 73 64 74 66 75 68 76
REMARK SMILES IDX 65 77 49 78 50 79 55 80 51 81 52 82 54 83 56 84 53 85
REMARK H PARENT 19 4 23 28 73 47 47 58
REMARK Flexibility Score: inf
ROOT
ATOM      1  C   UNL     1       3.419   5.663  -3.108  1.00  0.00     0.220 C 
ATOM      2  O   UNL     1       4.035   5.561  -4.173  1.00  0.00    -0.275 OA
ATOM      3  N   UNL     1       2.074   5.836  -3.195  1.00  0.00    -0.356 N 
ATOM      4  H   UNL     1       1.727   5.888  -4.115  1.00  0.00     0.163 HD
ENDROOT
BRANCH   1   5
ATOM      5  C   UNL     1       4.140   5.480  -1.784  1.00  0.00     0.102 C 
BRANCH   5   6
ATOM      6  C   UNL     1       4.387   6.651  -0.827  1.00  0.00     0.031 C 
BRANCH   6   7
ATOM      7  C   UNL     1       3.285   7.395  -0.064  1.00  0.00     0.120 C 
BRANCH   7   8
ATOM      8  N   UNL     1       2.320   6.801   0.885  1.00  0.00    -0.342 N 
ATOM      9  C   UNL     1       1.481   7.813   1.525  1.00  0.00     0.147 C 
BRANCH   8  10
ATOM     10  C   UNL     1       2.306   5.425   1.190  1.00  0.00     0.259 C 
ATOM     11  O   UNL     1       3.247   4.718   0.839  1.00  0.00    -0.269 OA
BRANCH  10  12
ATOM     12  C   UNL     1       1.192   4.786   1.903  1.00  0.00     0.104 A 
ATOM     13  C   UNL     1       1.072   0.252  -0.067  1.00  0.00     0.067 C 
ATOM     14  C   UNL     1       0.676   1.321   0.925  1.00  0.00     0.042 A 
ATOM     15  C   UNL     1      -0.169   0.882   2.079  1.00  0.00     0.047 A 
ATOM     16  N   UNL     1       1.090   2.541   0.726  1.00  0.00    -0.233 NA
ATOM     17  C   UNL     1      -0.557   1.844   2.932  1.00  0.00     0.043 A 
ATOM     18  C   UNL     1       0.749   3.480   1.669  1.00  0.00     0.168 A 
ATOM     19  C   UNL     1      -1.377   1.556   4.153  1.00  0.00     0.067 C 
ATOM     20  N   UNL     1      -0.128   3.162   2.717  1.00  0.00    -0.219 N 
ATOM     21  N   UNL     1      -0.416   4.254   3.463  1.00  0.00    -0.174 NA
ATOM     22  C   UNL     1       0.427   5.184   3.019  1.00  0.00     0.151 A 
ENDBRANCH  10  12
ENDBRANCH   8  10
ENDBRANCH   7   8
ENDBRANCH   6   7
ENDBRANCH   5   6
ENDBRANCH   1   5
BRANCH   3  23
ATOM     23  C   UNL     1       1.063   5.956  -2.162  1.00  0.00     0.117 C 
BRANCH  23  24
ATOM     24  C   UNL     1       0.579   7.405  -2.010  1.00  0.00     0.042 C 
BRANCH  24  25
ATOM     25  C   UNL     1      -0.548   7.767  -2.945  1.00  0.00     0.118 C 
BRANCH  25  26
ATOM     26  N   UNL     1      -1.868   7.284  -2.516  1.00  0.00    -0.352 N 
ATOM     27  C   UNL     1      -3.090   7.475  -3.168  1.00  0.00     0.251 C 
ATOM     28  H   UNL     1      -1.894   6.769  -1.677  1.00  0.00     0.163 HD
ATOM     29  O   UNL     1      -4.152   7.360  -2.600  1.00  0.00    -0.269 OA
BRANCH  27  30
ATOM     30  C   UNL     1      -3.019   7.817  -4.604  1.00  0.00     0.039 A 
ATOM     31  C   UNL     1      -3.757   8.835  -5.207  1.00  0.00     0.014 A 
ATOM     32  C   UNL     1      -2.012   7.170  -5.293  1.00  0.00     0.014 A 
ATOM     33  C   UNL     1      -3.373   9.245  -6.485  1.00  0.00     0.010 A 
ATOM     34  C   UNL     1      -1.413   7.851  -6.302  1.00  0.00     0.010 A 
ATOM     35  C   UNL     1      -2.165   8.758  -7.013  1.00  0.00    -0.014 A 
BRANCH  35  36
ATOM     36  C   UNL     1      -1.616   9.150  -8.301  1.00  0.00     0.031 A 
ATOM     37  C   UNL     1      -1.581  10.607  -8.550  1.00  0.00     0.074 A 
ATOM     38  C   UNL     1      -1.034   8.265  -9.147  1.00  0.00     0.049 A 
ATOM     39  N   UNL     1      -2.373  11.279  -9.313  1.00  0.00    -0.248 NA
ATOM     40  C   UNL     1      -0.675  11.439  -7.748  1.00  0.00     0.031 C 
ATOM     41  C   UNL     1      -0.701   6.842  -8.958  1.00  0.00     0.029 A 
ATOM     42  N   UNL     1      -0.565   8.501 -10.399  1.00  0.00    -0.354 N 
ATOM     43  C   UNL     1      -1.953  12.602  -9.246  1.00  0.00     0.074 A 
ATOM     44  C   UNL     1      -1.024  12.666  -8.147  1.00  0.00     0.031 C 
ATOM     45  C   UNL     1       0.100   6.413  -9.958  1.00  0.00     0.029 A 
ATOM     46  C   UNL     1       0.160   7.455 -10.959  1.00  0.00     0.049 A 
ATOM     47  H   UNL     1      -0.726   9.348 -10.874  1.00  0.00     0.167 HD
ATOM     48  C   UNL     1      -2.267  13.480 -10.239  1.00  0.00     0.037 A 
ATOM     49  C   UNL     1       0.743   7.447 -12.182  1.00  0.00     0.037 A 
ATOM     50  C   UNL     1      -3.290  12.929 -11.098  1.00  0.00     0.049 A 
ATOM     51  C   UNL     1       0.057   8.490 -12.985  1.00  0.00     0.074 A 
ATOM     52  C   UNL     1      -4.611  12.568 -10.923  1.00  0.00     0.029 A 
ATOM     53  N   UNL     1      -2.878  12.297 -12.248  1.00  0.00    -0.354 N 
ATOM     54  N   UNL     1      -1.192   8.409 -13.354  1.00  0.00    -0.248 NA
ATOM     55  C   UNL     1       0.614   9.833 -12.946  1.00  0.00     0.031 C 
ATOM     56  C   UNL     1      -4.770  11.374 -11.687  1.00  0.00     0.029 A 
ATOM     57  C   UNL     1      -3.565  11.113 -12.343  1.00  0.00     0.049 A 
ATOM     58  H   UNL     1      -2.210  12.634 -12.888  1.00  0.00     0.167 HD
ATOM     59  C   UNL     1      -1.697   9.691 -13.187  1.00  0.00     0.074 A 
ATOM     60  C   UNL     1      -0.519  10.540 -13.001  1.00  0.00     0.031 C 
ATOM     61  C   UNL     1      -3.021   9.905 -12.925  1.00  0.00     0.037 A 
BRANCH  48  62
ATOM     62  C   UNL     1      -1.440  14.670 -10.656  1.00  0.00     0.057 A 
ATOM     63  C   UNL     1      -1.945  15.538 -11.644  1.00  0.00     0.134 A 
ATOM     64  C   UNL     1      -0.078  14.848 -10.348  1.00  0.00     0.134 A 
ATOM     65  F   UNL     1      -3.231  15.479 -12.024  1.00  0.00    -0.206 F 
ATOM     66  C   UNL     1      -1.135  16.444 -12.336  1.00  0.00     0.040 A 
ATOM     67  C   UNL     1       0.730  15.785 -11.000  1.00  0.00     0.040 A 
ATOM     68  F   UNL     1       0.571  14.070  -9.475  1.00  0.00    -0.206 F 
ATOM     69  C   UNL     1       0.212  16.562 -12.024  1.00  0.00     0.006 A 
ENDBRANCH  48  62
BRANCH  49  70
ATOM     70  C   UNL     1       2.054   6.880 -12.566  1.00  0.00     0.057 A 
ATOM     71  C   UNL     1       2.409   6.736 -13.915  1.00  0.00     0.134 A 
ATOM     72  C   UNL     1       3.101   6.759 -11.635  1.00  0.00     0.134 A 
ATOM     73  F   UNL     1       1.484   6.865 -14.877  1.00  0.00    -0.206 F 
ATOM     74  C   UNL     1       3.735   6.531 -14.319  1.00  0.00     0.040 A 
ATOM     75  C   UNL     1       4.429   6.552 -12.025  1.00  0.00     0.040 A 
ATOM     76  F   UNL     1       2.884   6.934 -10.323  1.00  0.00    -0.206 F 
ATOM     77  C   UNL     1       4.753   6.457 -13.373  1.00  0.00     0.006 A 
ENDBRANCH  49  70
BRANCH  61  78
ATOM     78  C   UNL     1      -3.961   8.729 -13.032  1.00  0.00     0.057 A 
ATOM     79  C   UNL     1      -3.923   7.609 -12.186  1.00  0.00     0.134 A 
ATOM     80  C   UNL     1      -5.052   8.818 -13.902  1.00  0.00     0.134 A 
ATOM     81  F   UNL     1      -2.970   7.473 -11.259  1.00  0.00    -0.206 F 
ATOM     82  C   UNL     1      -4.908   6.615 -12.223  1.00  0.00     0.040 A 
ATOM     83  C   UNL     1      -6.059   7.849 -13.928  1.00  0.00     0.040 A 
ATOM     84  F   UNL     1      -5.189   9.884 -14.705  1.00  0.00    -0.206 F 
ATOM     85  C   UNL     1      -5.987   6.739 -13.091  1.00  0.00     0.006 A 
ENDBRANCH  61  78
ENDBRANCH  35  36
ENDBRANCH  27  30
ENDBRANCH  25  26
ENDBRANCH  24  25
ENDBRANCH  23  24
ENDBRANCH   3  23
TORSDOF 15
