REMARK SMILES Cc1ccccc1[C@@H](Cc1c(Cl)cccc1Cl)C(=O)NCCCNC(=O)c1ccc(-c2c3nc(c(-c4c(F)cccc4F)c4ccc([nH]4)c(-c4c(F)cccc4F)c4nc(c(-c5c(F)cccc5F)c5ccc2[nH]5)C=C4)C=C3)cc1
REMARK SMILES IDX 22 1 21 2 20 3 18 4 19 5 8 7 7 8 1 9 2 10 3 11 4 12 6 13
REMARK SMILES IDX 5 14 9 15 10 16 11 17 16 18 12 19 13 20 15 21 17 22 14 23
REMARK SMILES IDX 23 24 24 25 25 26 26 28 27 29 28 30 80 31 29 32 79 33 30 34
REMARK SMILES IDX 31 35 32 36 73 37 33 38 78 39 72 40 74 41 34 42 77 43 71 44
REMARK SMILES IDX 70 45 35 47 61 48 44 49 60 50 45 51 48 52 59 53 75 54 46 55
REMARK SMILES IDX 47 56 58 58 76 59 49 60 36 61 37 62 42 63 38 64 39 65 41 66
REMARK SMILES IDX 43 67 40 68 62 69 63 70 68 71 64 72 65 73 67 74 69 75 66 76
REMARK SMILES IDX 50 77 51 78 56 79 52 80 53 81 55 82 57 83 54 84
REMARK H PARENT 20 6 24 27 74 46 48 57
REMARK Flexibility Score: inf
ROOT
ATOM      1  C   UNL     1      -2.868   2.993   0.342  1.00  0.00     0.042 C 
ENDROOT
BRANCH   1   2
ATOM      2  C   UNL     1      -1.702   3.973   0.278  1.00  0.00     0.117 C 
BRANCH   2   3
ATOM      3  N   UNL     1      -0.706   3.675   1.289  1.00  0.00    -0.355 N 
ATOM      4  C   UNL     1       0.408   2.896   1.271  1.00  0.00     0.227 C 
ATOM      5  O   UNL     1       0.887   2.637   2.384  1.00  0.00    -0.274 OA
ATOM      6  H   UNL     1      -0.867   4.120   2.152  1.00  0.00     0.163 HD
BRANCH   4   7
ATOM      7  C   UNL     1       1.080   2.327  -0.000  1.00  0.00     0.113 C 
BRANCH   7   8
ATOM      8  C   UNL     1       0.569   0.911  -0.328  1.00  0.00    -0.032 A 
ATOM      9  C   UNL     1       2.763  -0.292   0.321  1.00  0.00     0.044 C 
ATOM     10  C   UNL     1       1.302  -0.264  -0.046  1.00  0.00    -0.047 A 
ATOM     11  C   UNL     1       0.654  -1.516  -0.104  1.00  0.00     0.004 A 
ATOM     12  C   UNL     1      -0.675  -1.628  -0.501  1.00  0.00     0.000 A 
ATOM     13  C   UNL     1      -0.726   0.751  -0.852  1.00  0.00     0.005 A 
ATOM     14  C   UNL     1      -1.355  -0.494  -0.911  1.00  0.00     0.000 A 
ENDBRANCH   7   8
BRANCH   7  15
ATOM     15  C   UNL     1       1.248   3.253  -1.231  1.00  0.00     0.057 C 
BRANCH  15  16
ATOM     16  C   UNL     1       1.415   4.762  -1.054  1.00  0.00    -0.010 A 
ATOM     17  C   UNL     1       0.752   5.656  -1.932  1.00  0.00     0.045 A 
ATOM     18  C   UNL     1       2.243   5.352  -0.077  1.00  0.00     0.045 A 
ATOM     19  Cl  UNL     1      -0.170   5.116  -3.299  1.00  0.00    -0.084 Cl
ATOM     20  C   UNL     1       0.817   7.046  -1.761  1.00  0.00     0.021 A 
ATOM     21  C   UNL     1       2.277   6.743   0.110  1.00  0.00     0.021 A 
ATOM     22  Cl  UNL     1       3.349   4.454   0.900  1.00  0.00    -0.084 Cl
ATOM     23  C   UNL     1       1.554   7.590  -0.719  1.00  0.00     0.003 A 
ENDBRANCH  15  16
ENDBRANCH   7  15
ENDBRANCH   4   7
ENDBRANCH   2   3
ENDBRANCH   1   2
BRANCH   1  24
ATOM     24  C   UNL     1      -3.943   3.369   1.344  1.00  0.00     0.118 C 
BRANCH  24  25
ATOM     25  N   UNL     1      -5.199   3.781   0.720  1.00  0.00    -0.352 N 
ATOM     26  C   UNL     1      -6.405   4.094   1.327  1.00  0.00     0.251 C 
ATOM     27  H   UNL     1      -5.186   3.844  -0.263  1.00  0.00     0.163 HD
ATOM     28  O   UNL     1      -7.353   4.489   0.670  1.00  0.00    -0.269 OA
BRANCH  26  29
ATOM     29  C   UNL     1      -6.462   4.086   2.807  1.00  0.00     0.039 A 
ATOM     30  C   UNL     1      -6.786   5.290   3.436  1.00  0.00     0.014 A 
ATOM     31  C   UNL     1      -5.895   3.036   3.522  1.00  0.00     0.014 A 
ATOM     32  C   UNL     1      -6.276   5.541   4.703  1.00  0.00     0.010 A 
ATOM     33  C   UNL     1      -5.289   3.325   4.728  1.00  0.00     0.010 A 
ATOM     34  C   UNL     1      -5.414   4.606   5.278  1.00  0.00    -0.014 A 
BRANCH  34  35
ATOM     35  C   UNL     1      -4.505   4.955   6.365  1.00  0.00     0.031 A 
ATOM     36  C   UNL     1      -4.733   4.437   7.727  1.00  0.00     0.074 A 
ATOM     37  C   UNL     1      -3.436   5.748   6.121  1.00  0.00     0.049 A 
ATOM     38  N   UNL     1      -4.338   5.026   8.806  1.00  0.00    -0.248 NA
ATOM     39  C   UNL     1      -5.499   3.227   7.982  1.00  0.00     0.031 C 
ATOM     40  C   UNL     1      -2.312   6.011   7.014  1.00  0.00     0.029 A 
ATOM     41  N   UNL     1      -3.270   6.662   5.069  1.00  0.00    -0.354 N 
ATOM     42  C   UNL     1      -4.536   4.159   9.857  1.00  0.00     0.074 A 
ATOM     43  C   UNL     1      -5.343   3.098   9.302  1.00  0.00     0.031 C 
ATOM     44  C   UNL     1      -1.740   7.172   6.659  1.00  0.00     0.029 A 
ATOM     45  C   UNL     1      -2.559   7.755   5.610  1.00  0.00     0.049 A 
ATOM     46  H   UNL     1      -3.585   6.561   4.142  1.00  0.00     0.167 HD
ATOM     47  C   UNL     1      -3.874   4.375  11.033  1.00  0.00     0.037 A 
ATOM     48  C   UNL     1      -3.078   9.015   5.633  1.00  0.00     0.037 A 
ATOM     49  C   UNL     1      -3.133   5.638  10.993  1.00  0.00     0.049 A 
ATOM     50  C   UNL     1      -3.186   9.614   7.014  1.00  0.00     0.074 A 
ATOM     51  C   UNL     1      -1.798   5.934  10.768  1.00  0.00     0.029 A 
ATOM     52  N   UNL     1      -3.820   6.846  10.922  1.00  0.00    -0.354 N 
ATOM     53  N   UNL     1      -3.144   8.914   8.112  1.00  0.00    -0.248 NA
ATOM     54  C   UNL     1      -3.393  11.037   7.268  1.00  0.00     0.031 C 
ATOM     55  C   UNL     1      -1.688   7.324  10.521  1.00  0.00     0.029 A 
ATOM     56  C   UNL     1      -2.954   7.877  10.608  1.00  0.00     0.049 A 
ATOM     57  H   UNL     1      -4.787   6.951  11.073  1.00  0.00     0.167 HD
ATOM     58  C   UNL     1      -3.356   9.736   9.188  1.00  0.00     0.074 A 
ATOM     59  C   UNL     1      -3.476  11.061   8.610  1.00  0.00     0.031 C 
ATOM     60  C   UNL     1      -3.434   9.243  10.460  1.00  0.00     0.037 A 
BRANCH  47  61
ATOM     61  C   UNL     1      -3.628   3.309  12.090  1.00  0.00     0.057 A 
ATOM     62  C   UNL     1      -2.519   3.398  12.958  1.00  0.00     0.134 A 
ATOM     63  C   UNL     1      -4.383   2.136  12.264  1.00  0.00     0.134 A 
ATOM     64  F   UNL     1      -1.770   4.505  13.037  1.00  0.00    -0.206 F 
ATOM     65  C   UNL     1      -2.116   2.354  13.804  1.00  0.00     0.040 A 
ATOM     66  C   UNL     1      -3.969   1.064  13.070  1.00  0.00     0.040 A 
ATOM     67  F   UNL     1      -5.596   1.989  11.725  1.00  0.00    -0.206 F 
ATOM     68  C   UNL     1      -2.817   1.161  13.831  1.00  0.00     0.006 A 
ENDBRANCH  47  61
BRANCH  48  69
ATOM     69  C   UNL     1      -4.010   9.298   4.513  1.00  0.00     0.057 A 
ATOM     70  C   UNL     1      -3.503   9.332   3.203  1.00  0.00     0.134 A 
ATOM     71  C   UNL     1      -5.394   9.177   4.659  1.00  0.00     0.134 A 
ATOM     72  F   UNL     1      -2.182   9.447   2.993  1.00  0.00    -0.206 F 
ATOM     73  C   UNL     1      -4.324   9.146   2.089  1.00  0.00     0.040 A 
ATOM     74  C   UNL     1      -6.228   8.997   3.550  1.00  0.00     0.040 A 
ATOM     75  F   UNL     1      -5.948   9.113   5.878  1.00  0.00    -0.206 F 
ATOM     76  C   UNL     1      -5.690   8.944   2.264  1.00  0.00     0.006 A 
ENDBRANCH  48  69
BRANCH  60  77
ATOM     77  C   UNL     1      -3.879  10.002  11.688  1.00  0.00     0.057 A 
ATOM     78  C   UNL     1      -4.771  11.084  11.673  1.00  0.00     0.134 A 
ATOM     79  C   UNL     1      -3.514   9.548  12.977  1.00  0.00     0.134 A 
ATOM     80  F   UNL     1      -5.290  11.551  10.530  1.00  0.00    -0.206 F 
ATOM     81  C   UNL     1      -5.222  11.704  12.848  1.00  0.00     0.040 A 
ATOM     82  C   UNL     1      -3.999  10.126  14.155  1.00  0.00     0.040 A 
ATOM     83  F   UNL     1      -2.686   8.507  13.150  1.00  0.00    -0.206 F 
ATOM     84  C   UNL     1      -4.846  11.219  14.094  1.00  0.00     0.006 A 
ENDBRANCH  60  77
ENDBRANCH  34  35
ENDBRANCH  26  29
ENDBRANCH  24  25
ENDBRANCH   1  24
TORSDOF 13
