REMARK SMILES Cc1ccc(C(=O)/C(C#N)=C/c2ccccc2OCC(=O)NCCCNC(=O)c2ccc(-c3c4nc(c(-c5c(F)cccc5F)c5ccc([nH]5)c(-c5c(F)cccc5F)c5nc(c(-c6c(F)cccc6F)c6ccc3[nH]6)C=C5)C=C4)cc2)cc1F
REMARK SMILES IDX 20 1 21 2 22 3 19 5 18 6 17 7 12 8 13 9 14 10 16 11 15 12
REMARK SMILES IDX 11 13 8 14 6 15 7 16 5 17 1 18 2 19 3 20 84 21 4 22 83 23
REMARK SMILES IDX 85 24 9 25 10 26 23 27 24 28 25 29 26 30 27 31 28 33 29 34
REMARK SMILES IDX 30 35 82 36 31 37 81 38 32 39 33 40 34 41 75 42 35 43 80 44
REMARK SMILES IDX 74 45 76 46 36 47 79 48 73 49 72 50 37 52 63 53 46 54 62 55
REMARK SMILES IDX 47 56 50 57 61 58 77 59 48 60 49 61 60 63 78 64 51 65 38 66
REMARK SMILES IDX 39 67 44 68 40 69 41 70 43 71 45 72 42 73 64 74 65 75 70 76
REMARK SMILES IDX 66 77 67 78 69 79 71 80 68 81 52 82 53 83 58 84 54 85 55 86
REMARK SMILES IDX 57 87 59 88 56 89
REMARK H PARENT 22 4 26 32 76 51 50 62
REMARK Flexibility Score: inf
ROOT
ATOM      1  C   UNL     1      -3.527   1.995  -2.036  1.00  0.00     0.257 C 
ATOM      2  O   UNL     1      -2.468   1.490  -1.651  1.00  0.00    -0.271 OA
ATOM      3  N   UNL     1      -3.512   3.302  -1.742  1.00  0.00    -0.353 N 
ATOM      4  H   UNL     1      -2.642   3.599  -1.391  1.00  0.00     0.163 HD
ENDROOT
BRANCH   1   5
ATOM      5  C   UNL     1      -4.629   1.069  -2.738  1.00  0.00     0.329 C 
BRANCH   5   6
ATOM      6  O   UNL     1      -6.016   0.937  -2.450  1.00  0.00    -0.483 OA
BRANCH   6   7
ATOM      7  C   UNL     1      -6.809   0.037  -1.764  1.00  0.00     0.127 A 
ATOM      8  C   UNL     1      -6.602  -1.157  -1.004  1.00  0.00     0.018 A 
ATOM      9  C   UNL     1      -7.663  -1.692  -0.218  1.00  0.00     0.012 A 
ATOM     10  C   UNL     1      -8.915  -1.096  -0.173  1.00  0.00     0.001 A 
ATOM     11  C   UNL     1      -8.118   0.558  -1.740  1.00  0.00     0.047 A 
ATOM     12  C   UNL     1      -9.147   0.021  -0.954  1.00  0.00     0.004 A 
BRANCH   8  13
ATOM     13  C   UNL     1      -5.348  -1.871  -0.668  1.00  0.00     0.035 C 
ATOM     14  C   UNL     1      -4.415  -1.258   0.091  1.00  0.00     0.101 C 
BRANCH  14  15
ATOM     15  C   UNL     1      -3.067  -2.004   0.079  1.00  0.00     0.203 C 
ATOM     16  O   UNL     1      -3.059  -3.227   0.247  1.00  0.00    -0.288 OA
BRANCH  15  17
ATOM     17  C   UNL     1      -1.712  -1.378  -0.138  1.00  0.00     0.026 A 
ATOM     18  C   UNL     1       1.883   1.026  -0.120  1.00  0.00     0.047 C 
ATOM     19  C   UNL     1       0.771   0.024  -0.258  1.00  0.00    -0.015 A 
ATOM     20  C   UNL     1      -0.128   0.073  -1.318  1.00  0.00     0.007 A 
ATOM     21  C   UNL     1       0.536  -0.951   0.706  1.00  0.00     0.126 A 
ATOM     22  C   UNL     1      -1.327  -0.689  -1.286  1.00  0.00     0.013 A 
ATOM     23  C   UNL     1      -0.684  -1.643   0.773  1.00  0.00     0.051 A 
ATOM     24  F   UNL     1       1.479  -1.214   1.621  1.00  0.00    -0.207 F 
ENDBRANCH  15  17
ENDBRANCH  14  15
BRANCH  14  25
ATOM     25  C   UNL     1      -4.639   0.245   0.060  1.00  0.00     0.103 C 
ATOM     26  N   UNL     1      -4.825   1.492   0.034  1.00  0.00    -0.192 NA
ENDBRANCH  14  25
ENDBRANCH   8  13
ENDBRANCH   6   7
ENDBRANCH   5   6
ENDBRANCH   1   5
BRANCH   3  27
ATOM     27  C   UNL     1      -4.463   4.366  -1.817  1.00  0.00     0.117 C 
BRANCH  27  28
ATOM     28  C   UNL     1      -5.537   4.317  -0.746  1.00  0.00     0.042 C 
BRANCH  28  29
ATOM     29  C   UNL     1      -5.056   4.268   0.699  1.00  0.00     0.118 C 
BRANCH  29  30
ATOM     30  N   UNL     1      -4.109   5.311   1.021  1.00  0.00    -0.352 N 
ATOM     31  C   UNL     1      -4.232   6.291   1.965  1.00  0.00     0.251 C 
ATOM     32  H   UNL     1      -3.275   5.317   0.497  1.00  0.00     0.163 HD
ATOM     33  O   UNL     1      -3.540   7.293   1.921  1.00  0.00    -0.269 OA
BRANCH  31  34
ATOM     34  C   UNL     1      -5.128   6.055   3.110  1.00  0.00     0.039 A 
ATOM     35  C   UNL     1      -5.665   7.156   3.788  1.00  0.00     0.014 A 
ATOM     36  C   UNL     1      -5.255   4.755   3.614  1.00  0.00     0.014 A 
ATOM     37  C   UNL     1      -6.233   6.963   5.037  1.00  0.00     0.010 A 
ATOM     38  C   UNL     1      -5.919   4.549   4.783  1.00  0.00     0.010 A 
ATOM     39  C   UNL     1      -6.291   5.662   5.531  1.00  0.00    -0.014 A 
BRANCH  39  40
ATOM     40  C   UNL     1      -6.660   5.318   6.881  1.00  0.00     0.031 A 
ATOM     41  C   UNL     1      -8.068   5.377   7.246  1.00  0.00     0.074 A 
ATOM     42  C   UNL     1      -5.676   4.782   7.632  1.00  0.00     0.049 A 
ATOM     43  N   UNL     1      -8.489   5.604   8.434  1.00  0.00    -0.248 NA
ATOM     44  C   UNL     1      -9.136   5.243   6.259  1.00  0.00     0.031 C 
ATOM     45  C   UNL     1      -5.739   3.999   8.851  1.00  0.00     0.029 A 
ATOM     46  N   UNL     1      -4.305   4.970   7.425  1.00  0.00    -0.354 N 
ATOM     47  C   UNL     1      -9.819   5.250   8.437  1.00  0.00     0.074 A 
ATOM     48  C   UNL     1     -10.215   5.237   7.049  1.00  0.00     0.031 C 
ATOM     49  C   UNL     1      -4.524   4.017   9.435  1.00  0.00     0.029 A 
ATOM     50  C   UNL     1      -3.691   4.947   8.687  1.00  0.00     0.049 A 
ATOM     51  H   UNL     1      -3.856   5.095   6.558  1.00  0.00     0.167 HD
ATOM     52  C   UNL     1     -10.355   4.777   9.597  1.00  0.00     0.037 A 
ATOM     53  C   UNL     1      -3.163   6.119   9.163  1.00  0.00     0.037 A 
ATOM     54  C   UNL     1      -9.312   4.688  10.623  1.00  0.00     0.049 A 
ATOM     55  C   UNL     1      -3.956   6.685  10.324  1.00  0.00     0.074 A 
ATOM     56  C   UNL     1      -8.509   3.655  11.079  1.00  0.00     0.029 A 
ATOM     57  N   UNL     1      -8.717   5.849  11.063  1.00  0.00    -0.354 N 
ATOM     58  N   UNL     1      -5.118   6.228  10.704  1.00  0.00    -0.248 NA
ATOM     59  C   UNL     1      -3.536   7.841  11.111  1.00  0.00     0.031 C 
ATOM     60  C   UNL     1      -7.425   4.229  11.809  1.00  0.00     0.029 A 
ATOM     61  C   UNL     1      -7.578   5.605  11.796  1.00  0.00     0.049 A 
ATOM     62  H   UNL     1      -9.066   6.750  10.874  1.00  0.00     0.167 HD
ATOM     63  C   UNL     1      -5.611   6.992  11.723  1.00  0.00     0.074 A 
ATOM     64  C   UNL     1      -4.590   8.005  11.931  1.00  0.00     0.031 C 
ATOM     65  C   UNL     1      -6.827   6.746  12.295  1.00  0.00     0.037 A 
BRANCH  52  66
ATOM     66  C   UNL     1     -11.707   4.132   9.756  1.00  0.00     0.057 A 
ATOM     67  C   UNL     1     -11.966   3.308  10.871  1.00  0.00     0.134 A 
ATOM     68  C   UNL     1     -12.801   4.285   8.886  1.00  0.00     0.134 A 
ATOM     69  F   UNL     1     -11.063   3.131  11.844  1.00  0.00    -0.206 F 
ATOM     70  C   UNL     1     -13.175   2.632  11.061  1.00  0.00     0.040 A 
ATOM     71  C   UNL     1     -14.007   3.586   9.044  1.00  0.00     0.040 A 
ATOM     72  F   UNL     1     -12.787   5.163   7.876  1.00  0.00    -0.206 F 
ATOM     73  C   UNL     1     -14.196   2.750  10.134  1.00  0.00     0.006 A 
ENDBRANCH  52  66
BRANCH  53  74
ATOM     74  C   UNL     1      -2.562   6.928   8.049  1.00  0.00     0.057 A 
ATOM     75  C   UNL     1      -1.524   6.333   7.301  1.00  0.00     0.134 A 
ATOM     76  C   UNL     1      -3.296   7.939   7.417  1.00  0.00     0.134 A 
ATOM     77  F   UNL     1      -0.763   5.373   7.852  1.00  0.00    -0.206 F 
ATOM     78  C   UNL     1      -1.367   6.577   5.934  1.00  0.00     0.040 A 
ATOM     79  C   UNL     1      -3.124   8.212   6.055  1.00  0.00     0.040 A 
ATOM     80  F   UNL     1      -4.282   8.575   8.065  1.00  0.00    -0.206 F 
ATOM     81  C   UNL     1      -2.203   7.487   5.298  1.00  0.00     0.006 A 
ENDBRANCH  53  74
BRANCH  65  82
ATOM     82  C   UNL     1      -7.431   7.600  13.375  1.00  0.00     0.057 A 
ATOM     83  C   UNL     1      -6.690   8.066  14.465  1.00  0.00     0.134 A 
ATOM     84  C   UNL     1      -8.810   7.905  13.408  1.00  0.00     0.134 A 
ATOM     85  F   UNL     1      -5.394   7.750  14.607  1.00  0.00    -0.206 F 
ATOM     86  C   UNL     1      -7.260   8.859  15.468  1.00  0.00     0.040 A 
ATOM     87  C   UNL     1      -9.403   8.636  14.435  1.00  0.00     0.040 A 
ATOM     88  F   UNL     1      -9.652   7.538  12.432  1.00  0.00    -0.206 F 
ATOM     89  C   UNL     1      -8.621   9.143  15.457  1.00  0.00     0.006 A 
ENDBRANCH  65  82
ENDBRANCH  39  40
ENDBRANCH  31  34
ENDBRANCH  29  30
ENDBRANCH  28  29
ENDBRANCH  27  28
ENDBRANCH   3  27
TORSDOF 16
