REMARK SMILES C=C(C)COc1ccc2nc(C)n(-c3cccc(C(=O)NCCCNC(=O)c4ccc(-c5c6nc(c(-c7c(F)cccc7F)c7ccc([nH]7)c(-c7c(F)cccc7F)c7nc(c(-c8c(F)cccc8F)c8ccc5[nH]8)C=C7)C=C6)cc4)c3)c(=O)c2c1
REMARK SMILES IDX 22 1 21 2 19 3 20 4 18 6 14 7 15 8 82 9 16 10 17 11 13 12
REMARK SMILES IDX 6 13 7 14 86 15 8 16 85 17 9 18 83 19 10 20 84 21 11 22
REMARK SMILES IDX 12 23 5 24 4 25 2 26 1 27 3 28 23 29 24 30 25 31 26 32 27 34
REMARK SMILES IDX 28 35 29 36 81 37 30 38 80 39 31 40 32 41 33 42 74 43 34 44
REMARK SMILES IDX 79 45 73 46 75 47 35 48 78 49 72 50 71 51 36 53 62 54 45 55
REMARK SMILES IDX 61 56 46 57 49 58 60 59 76 60 47 61 48 62 59 64 77 65 50 66
REMARK SMILES IDX 37 67 38 68 43 69 39 70 40 71 42 72 44 73 41 74 63 75 64 76
REMARK SMILES IDX 69 77 65 78 66 79 68 80 70 81 67 82 51 83 52 84 57 85 53 86
REMARK SMILES IDX 54 87 56 88 58 89 55 90
REMARK H PARENT 21 5 25 33 75 52 49 63
REMARK Flexibility Score: inf
ROOT
ATOM      1  C   UNL     1      -0.658   9.276   4.348  1.00  0.00     0.118 C 
ENDROOT
BRANCH   1   2
ATOM      2  N   UNL     1      -0.165  10.241   5.325  1.00  0.00    -0.352 N 
ATOM      3  C   UNL     1       0.606  10.151   6.462  1.00  0.00     0.251 C 
ATOM      4  O   UNL     1       0.825  11.194   7.080  1.00  0.00    -0.269 OA
ATOM      5  H   UNL     1      -0.446  11.164   5.127  1.00  0.00     0.163 HD
BRANCH   3   6
ATOM      6  C   UNL     1       1.117   8.869   7.017  1.00  0.00     0.041 A 
ATOM      7  C   UNL     1       1.477   6.476   6.837  1.00  0.00     0.051 A 
ATOM      8  C   UNL     1       1.750   6.419   8.208  1.00  0.00     0.027 A 
ATOM      9  C   UNL     1       1.323   7.732   6.241  1.00  0.00     0.040 A 
ATOM     10  C   UNL     1       1.724   7.580   8.982  1.00  0.00     0.003 A 
ATOM     11  C   UNL     1       1.358   8.792   8.396  1.00  0.00     0.014 A 
BRANCH   7  12
ATOM     12  N   UNL     1       1.175   5.298   6.069  1.00  0.00    -0.264 N 
ATOM     13  C   UNL     1       1.348   2.657   1.986  1.00  0.00     0.120 A 
ATOM     14  C   UNL     1       0.512   1.729   2.605  1.00  0.00     0.049 A 
ATOM     15  C   UNL     1       1.765   3.791   2.681  1.00  0.00     0.062 A 
ATOM     16  C   UNL     1       0.045   1.960   3.896  1.00  0.00     0.033 A 
ATOM     17  C   UNL     1       1.302   4.004   3.987  1.00  0.00     0.070 A 
ATOM     18  C   UNL     1       0.437   3.100   4.592  1.00  0.00     0.078 A 
ATOM     19  C   UNL     1       1.707   5.186   4.771  1.00  0.00     0.266 A 
ATOM     20  N   UNL     1      -0.090   3.305   5.862  1.00  0.00    -0.234 NA
ATOM     21  O   UNL     1       2.475   5.988   4.241  1.00  0.00    -0.268 OA
ATOM     22  C   UNL     1       0.252   4.363   6.525  1.00  0.00     0.113 A 
ATOM     23  C   UNL     1      -0.501   4.559   7.828  1.00  0.00     0.088 C 
BRANCH  13  24
ATOM     24  O   UNL     1       1.857   2.439   0.733  1.00  0.00    -0.489 OA
BRANCH  24  25
ATOM     25  C   UNL     1       0.848   2.453  -0.293  1.00  0.00     0.260 C 
BRANCH  25  26
ATOM     26  C   UNL     1       0.221   1.092  -0.520  1.00  0.00    -0.043 C 
ATOM     27  C   UNL     1       0.934  -0.048  -0.526  1.00  0.00     0.011 C 
ATOM     28  C   UNL     1      -1.273   1.086  -0.682  1.00  0.00     0.042 C 
ENDBRANCH  25  26
ENDBRANCH  24  25
ENDBRANCH  13  24
ENDBRANCH   7  12
ENDBRANCH   3   6
ENDBRANCH   1   2
BRANCH   1  29
ATOM     29  C   UNL     1      -2.168   9.287   4.170  1.00  0.00     0.042 C 
BRANCH  29  30
ATOM     30  C   UNL     1      -2.737  10.601   3.665  1.00  0.00     0.118 C 
BRANCH  30  31
ATOM     31  N   UNL     1      -2.363  10.905   2.289  1.00  0.00    -0.352 N 
ATOM     32  C   UNL     1      -3.042  10.767   1.097  1.00  0.00     0.251 C 
ATOM     33  H   UNL     1      -1.457  11.278   2.193  1.00  0.00     0.163 HD
ATOM     34  O   UNL     1      -2.451  10.963   0.044  1.00  0.00    -0.269 OA
BRANCH  32  35
ATOM     35  C   UNL     1      -4.461  10.337   1.068  1.00  0.00     0.039 A 
ATOM     36  C   UNL     1      -5.378  10.789   2.011  1.00  0.00     0.014 A 
ATOM     37  C   UNL     1      -4.887   9.464   0.061  1.00  0.00     0.014 A 
ATOM     38  C   UNL     1      -6.631  10.193   2.101  1.00  0.00     0.010 A 
ATOM     39  C   UNL     1      -6.194   8.960   0.075  1.00  0.00     0.010 A 
ATOM     40  C   UNL     1      -7.056   9.266   1.138  1.00  0.00    -0.014 A 
BRANCH  40  41
ATOM     41  C   UNL     1      -8.393   8.626   1.284  1.00  0.00     0.031 A 
ATOM     42  C   UNL     1      -8.520   7.132   1.445  1.00  0.00     0.074 A 
ATOM     43  C   UNL     1      -9.495   9.399   1.346  1.00  0.00     0.049 A 
ATOM     44  N   UNL     1      -9.600   6.407   1.607  1.00  0.00    -0.248 NA
ATOM     45  C   UNL     1      -7.276   6.346   1.414  1.00  0.00     0.031 C 
ATOM     46  C   UNL     1      -9.512  10.858   1.210  1.00  0.00     0.029 A 
ATOM     47  N   UNL     1     -10.809   9.074   1.570  1.00  0.00    -0.354 N 
ATOM     48  C   UNL     1      -9.169   5.087   1.667  1.00  0.00     0.074 A 
ATOM     49  C   UNL     1      -7.733   5.105   1.498  1.00  0.00     0.031 C 
ATOM     50  C   UNL     1     -10.758  11.306   1.418  1.00  0.00     0.029 A 
ATOM     51  C   UNL     1     -11.642  10.165   1.628  1.00  0.00     0.049 A 
ATOM     52  H   UNL     1     -11.124   8.148   1.680  1.00  0.00     0.167 HD
ATOM     53  C   UNL     1      -9.900   3.962   1.859  1.00  0.00     0.037 A 
ATOM     54  C   UNL     1     -12.972  10.242   1.812  1.00  0.00     0.037 A 
ATOM     55  C   UNL     1     -11.326   3.943   2.061  1.00  0.00     0.049 A 
ATOM     56  C   UNL     1     -13.761   8.979   1.990  1.00  0.00     0.074 A 
ATOM     57  C   UNL     1     -12.151   2.856   2.294  1.00  0.00     0.029 A 
ATOM     58  N   UNL     1     -12.139   5.066   2.057  1.00  0.00    -0.354 N 
ATOM     59  N   UNL     1     -13.336   7.740   2.050  1.00  0.00    -0.248 NA
ATOM     60  C   UNL     1     -15.218   9.124   2.113  1.00  0.00     0.031 C 
ATOM     61  C   UNL     1     -13.469   3.317   2.391  1.00  0.00     0.029 A 
ATOM     62  C   UNL     1     -13.459   4.696   2.261  1.00  0.00     0.049 A 
ATOM     63  H   UNL     1     -11.825   5.990   1.928  1.00  0.00     0.167 HD
ATOM     64  C   UNL     1     -14.470   6.959   2.225  1.00  0.00     0.074 A 
ATOM     65  C   UNL     1     -15.598   7.867   2.290  1.00  0.00     0.031 C 
ATOM     66  C   UNL     1     -14.570   5.611   2.315  1.00  0.00     0.037 A 
BRANCH  53  67
ATOM     67  C   UNL     1      -9.170   2.649   1.840  1.00  0.00     0.057 A 
ATOM     68  C   UNL     1      -9.332   1.760   0.769  1.00  0.00     0.134 A 
ATOM     69  C   UNL     1      -8.332   2.250   2.888  1.00  0.00     0.134 A 
ATOM     70  F   UNL     1     -10.126   2.077  -0.265  1.00  0.00    -0.206 F 
ATOM     71  C   UNL     1      -8.688   0.522   0.743  1.00  0.00     0.040 A 
ATOM     72  C   UNL     1      -7.662   1.024   2.862  1.00  0.00     0.040 A 
ATOM     73  F   UNL     1      -8.121   3.060   3.937  1.00  0.00    -0.206 F 
ATOM     74  C   UNL     1      -7.845   0.153   1.789  1.00  0.00     0.006 A 
ENDBRANCH  53  67
BRANCH  54  75
ATOM     75  C   UNL     1     -13.646  11.565   1.811  1.00  0.00     0.057 A 
ATOM     76  C   UNL     1     -13.744  12.331   0.643  1.00  0.00     0.134 A 
ATOM     77  C   UNL     1     -14.214  12.090   2.977  1.00  0.00     0.134 A 
ATOM     78  F   UNL     1     -13.216  11.884  -0.506  1.00  0.00    -0.206 F 
ATOM     79  C   UNL     1     -14.371  13.577   0.636  1.00  0.00     0.040 A 
ATOM     80  C   UNL     1     -14.868  13.322   2.979  1.00  0.00     0.040 A 
ATOM     81  F   UNL     1     -14.170  11.393   4.123  1.00  0.00    -0.206 F 
ATOM     82  C   UNL     1     -14.943  14.072   1.806  1.00  0.00     0.006 A 
ENDBRANCH  54  75
BRANCH  66  83
ATOM     83  C   UNL     1     -15.946   5.047   2.510  1.00  0.00     0.057 A 
ATOM     84  C   UNL     1     -16.332   4.513   3.745  1.00  0.00     0.134 A 
ATOM     85  C   UNL     1     -16.887   5.029   1.472  1.00  0.00     0.134 A 
ATOM     86  F   UNL     1     -15.476   4.496   4.778  1.00  0.00    -0.206 F 
ATOM     87  C   UNL     1     -17.608   3.984   3.943  1.00  0.00     0.040 A 
ATOM     88  C   UNL     1     -18.174   4.525   1.665  1.00  0.00     0.040 A 
ATOM     89  F   UNL     1     -16.583   5.542   0.270  1.00  0.00    -0.206 F 
ATOM     90  C   UNL     1     -18.535   3.996   2.903  1.00  0.00     0.006 A 
ENDBRANCH  66  83
ENDBRANCH  40  41
ENDBRANCH  32  35
ENDBRANCH  30  31
ENDBRANCH  29  30
ENDBRANCH   1  29
TORSDOF 14
