REMARK SMILES CCCCCCNC(=O)Oc1cccc(-c2ccc([C@@H](C)C(=O)NCCCNC(=O)c3ccc(-c4c5nc(c(-c6c(F)cccc6F)c6ccc([nH]6)c(-c6c(F)cccc6F)c6nc(c(-c7c(F)cccc7F)c7ccc4[nH]7)C=C6)C=C5)cc3)cc2)c1
REMARK SMILES IDX 16 1 17 2 18 3 19 4 85 5 86 6 15 7 11 8 12 9 87 10 13 11
REMARK SMILES IDX 14 12 10 13 8 14 7 15 9 17 6 18 5 19 4 20 3 21 2 22 1 23
REMARK SMILES IDX 20 24 21 25 22 26 23 27 24 28 25 30 26 31 27 32 28 33 29 34
REMARK SMILES IDX 30 36 31 37 32 38 84 39 33 40 83 41 34 42 35 43 36 44 77 45
REMARK SMILES IDX 37 46 82 47 76 48 78 49 38 50 81 51 75 52 74 53 39 55 65 56
REMARK SMILES IDX 48 57 64 58 49 59 52 60 63 61 79 62 50 63 51 64 62 66 80 67
REMARK SMILES IDX 53 68 40 69 41 70 46 71 42 72 43 73 45 74 47 75 44 76 66 77
REMARK SMILES IDX 67 78 72 79 68 80 69 81 71 82 73 83 70 84 54 85 55 86 60 87
REMARK SMILES IDX 56 88 57 89 59 90 61 91 58 92
REMARK H PARENT 7 16 24 29 28 35 78 54 52 65
REMARK Flexibility Score: inf
ROOT
ATOM      1  C   UNL     1      -5.110   9.617  -2.240  1.00  0.00    -0.018 A 
ATOM      2  C   UNL     1      -5.578  10.939  -2.192  1.00  0.00     0.009 A 
ATOM      3  C   UNL     1      -5.429  11.811  -3.279  1.00  0.00     0.005 A 
ATOM      4  C   UNL     1      -4.751  11.412  -4.433  1.00  0.00    -0.036 A 
ATOM      5  C   UNL     1      -4.316  10.081  -4.506  1.00  0.00     0.005 A 
ATOM      6  C   UNL     1      -4.511   9.198  -3.438  1.00  0.00     0.009 A 
ENDROOT
BRANCH   1   7
ATOM      7  C   UNL     1      -5.212   8.717  -1.069  1.00  0.00    -0.015 A 
ATOM      8  C   UNL     1      -4.287   6.953   0.335  1.00  0.00     0.133 A 
ATOM      9  C   UNL     1      -5.388   7.003   1.183  1.00  0.00     0.047 A 
ATOM     10  C   UNL     1      -4.195   7.790  -0.779  1.00  0.00     0.056 A 
ATOM     11  C   UNL     1      -6.402   7.918   0.921  1.00  0.00     0.004 A 
ATOM     12  C   UNL     1      -6.316   8.759  -0.196  1.00  0.00     0.009 A 
BRANCH   8  13
ATOM     13  O   UNL     1      -3.344   5.940   0.568  1.00  0.00    -0.410 OA
BRANCH  13  14
ATOM     14  C   UNL     1      -2.002   6.290   0.625  1.00  0.00     0.412 C 
ATOM     15  N   UNL     1      -1.173   5.207   0.723  1.00  0.00    -0.321 N 
ATOM     16  H   UNL     1      -0.209   5.394   0.797  1.00  0.00     0.167 HD
ATOM     17  O   UNL     1      -1.551   7.428   0.600  1.00  0.00    -0.224 OA
BRANCH  15  18
ATOM     18  C   UNL     1      -1.564   3.811   0.730  1.00  0.00     0.119 C 
BRANCH  18  19
ATOM     19  C   UNL     1      -0.960   3.043  -0.446  1.00  0.00     0.021 C 
BRANCH  19  20
ATOM     20  C   UNL     1       0.570   2.941  -0.431  1.00  0.00     0.002 C 
BRANCH  20  21
ATOM     21  C   UNL     1       1.176   2.286   0.816  1.00  0.00    -0.000 C 
BRANCH  21  22
ATOM     22  C   UNL     1       0.693   0.865   1.113  1.00  0.00    -0.003 C 
ATOM     23  C   UNL     1       1.054  -0.134   0.024  1.00  0.00     0.004 C 
ENDBRANCH  21  22
ENDBRANCH  20  21
ENDBRANCH  19  20
ENDBRANCH  18  19
ENDBRANCH  15  18
ENDBRANCH  13  14
ENDBRANCH   8  13
ENDBRANCH   1   7
BRANCH   4  24
ATOM     24  C   UNL     1      -4.419  12.360  -5.574  1.00  0.00     0.105 C 
ATOM     25  C   UNL     1      -5.548  13.281  -6.031  1.00  0.00     0.023 C 
BRANCH  24  26
ATOM     26  C   UNL     1      -3.054  13.047  -5.407  1.00  0.00     0.227 C 
ATOM     27  O   UNL     1      -2.080  12.652  -6.061  1.00  0.00    -0.274 OA
ATOM     28  N   UNL     1      -2.826  14.093  -4.567  1.00  0.00    -0.356 N 
ATOM     29  H   UNL     1      -1.909  14.450  -4.610  1.00  0.00     0.163 HD
BRANCH  28  30
ATOM     30  C   UNL     1      -3.683  14.778  -3.622  1.00  0.00     0.117 C 
BRANCH  30  31
ATOM     31  C   UNL     1      -3.458  14.315  -2.184  1.00  0.00     0.042 C 
BRANCH  31  32
ATOM     32  C   UNL     1      -2.251  14.950  -1.505  1.00  0.00     0.118 C 
BRANCH  32  33
ATOM     33  N   UNL     1      -2.433  16.376  -1.278  1.00  0.00    -0.352 N 
ATOM     34  C   UNL     1      -2.446  17.114  -0.122  1.00  0.00     0.251 C 
ATOM     35  H   UNL     1      -2.570  16.903  -2.098  1.00  0.00     0.163 HD
ATOM     36  O   UNL     1      -2.830  18.281  -0.175  1.00  0.00    -0.269 OA
BRANCH  34  37
ATOM     37  C   UNL     1      -2.016  16.549   1.179  1.00  0.00     0.039 A 
ATOM     38  C   UNL     1      -2.633  17.025   2.342  1.00  0.00     0.014 A 
ATOM     39  C   UNL     1      -0.968  15.632   1.287  1.00  0.00     0.014 A 
ATOM     40  C   UNL     1      -2.223  16.563   3.595  1.00  0.00     0.010 A 
ATOM     41  C   UNL     1      -0.617  15.106   2.531  1.00  0.00     0.010 A 
ATOM     42  C   UNL     1      -1.224  15.583   3.701  1.00  0.00    -0.014 A 
BRANCH  42  43
ATOM     43  C   UNL     1      -0.794  15.078   5.030  1.00  0.00     0.031 A 
ATOM     44  C   UNL     1       0.607  15.322   5.524  1.00  0.00     0.074 A 
ATOM     45  C   UNL     1      -1.660  14.376   5.786  1.00  0.00     0.049 A 
ATOM     46  N   UNL     1       1.159  14.963   6.657  1.00  0.00    -0.248 NA
ATOM     47  C   UNL     1       1.516  16.041   4.618  1.00  0.00     0.031 C 
ATOM     48  C   UNL     1      -3.027  14.023   5.398  1.00  0.00     0.029 A 
ATOM     49  N   UNL     1      -1.520  13.834   7.039  1.00  0.00    -0.354 N 
ATOM     50  C   UNL     1       2.477  15.400   6.591  1.00  0.00     0.074 A 
ATOM     51  C   UNL     1       2.658  16.002   5.288  1.00  0.00     0.031 C 
ATOM     52  C   UNL     1      -3.611  13.353   6.404  1.00  0.00     0.029 A 
ATOM     53  C   UNL     1      -2.653  13.204   7.495  1.00  0.00     0.049 A 
ATOM     54  H   UNL     1      -0.688  13.891   7.561  1.00  0.00     0.167 HD
ATOM     55  C   UNL     1       3.443  15.329   7.539  1.00  0.00     0.037 A 
ATOM     56  C   UNL     1      -2.893  12.582   8.664  1.00  0.00     0.037 A 
ATOM     57  C   UNL     1       3.255  14.753   8.845  1.00  0.00     0.049 A 
ATOM     58  C   UNL     1      -1.813  12.537   9.708  1.00  0.00     0.074 A 
ATOM     59  C   UNL     1       4.152  14.686   9.897  1.00  0.00     0.029 A 
ATOM     60  N   UNL     1       2.086  14.145   9.277  1.00  0.00    -0.354 N 
ATOM     61  N   UNL     1      -0.595  13.019   9.660  1.00  0.00    -0.248 NA
ATOM     62  C   UNL     1      -2.147  11.871  10.975  1.00  0.00     0.031 C 
ATOM     63  C   UNL     1       3.538  14.004  10.953  1.00  0.00     0.029 A 
ATOM     64  C   UNL     1       2.244  13.686  10.575  1.00  0.00     0.049 A 
ATOM     65  H   UNL     1       1.265  14.052   8.741  1.00  0.00     0.167 HD
ATOM     66  C   UNL     1      -0.026  12.738  10.894  1.00  0.00     0.074 A 
ATOM     67  C   UNL     1      -1.039  12.061  11.677  1.00  0.00     0.031 C 
ATOM     68  C   UNL     1       1.224  13.015  11.340  1.00  0.00     0.037 A 
BRANCH  55  69
ATOM     69  C   UNL     1       4.791  15.896   7.197  1.00  0.00     0.057 A 
ATOM     70  C   UNL     1       5.001  17.276   7.067  1.00  0.00     0.134 A 
ATOM     71  C   UNL     1       5.900  15.057   7.025  1.00  0.00     0.134 A 
ATOM     72  F   UNL     1       3.979  18.134   7.208  1.00  0.00    -0.206 F 
ATOM     73  C   UNL     1       6.256  17.798   6.752  1.00  0.00     0.040 A 
ATOM     74  C   UNL     1       7.166  15.570   6.736  1.00  0.00     0.040 A 
ATOM     75  F   UNL     1       5.773  13.727   7.142  1.00  0.00    -0.206 F 
ATOM     76  C   UNL     1       7.345  16.944   6.591  1.00  0.00     0.006 A 
ENDBRANCH  55  69
BRANCH  56  77
ATOM     77  C   UNL     1      -4.227  11.986   8.925  1.00  0.00     0.057 A 
ATOM     78  C   UNL     1      -5.105  12.560   9.852  1.00  0.00     0.134 A 
ATOM     79  C   UNL     1      -4.656  10.831   8.260  1.00  0.00     0.134 A 
ATOM     80  F   UNL     1      -4.743  13.657  10.534  1.00  0.00    -0.206 F 
ATOM     81  C   UNL     1      -6.354  11.999  10.122  1.00  0.00     0.040 A 
ATOM     82  C   UNL     1      -5.912  10.273   8.501  1.00  0.00     0.040 A 
ATOM     83  F   UNL     1      -3.864  10.237   7.355  1.00  0.00    -0.206 F 
ATOM     84  C   UNL     1      -6.763  10.854   9.441  1.00  0.00     0.006 A 
ENDBRANCH  56  77
BRANCH  68  85
ATOM     85  C   UNL     1       1.551  12.610  12.747  1.00  0.00     0.057 A 
ATOM     86  C   UNL     1       1.731  11.268  13.107  1.00  0.00     0.134 A 
ATOM     87  C   UNL     1       1.704  13.576  13.750  1.00  0.00     0.134 A 
ATOM     88  F   UNL     1       1.585  10.294  12.197  1.00  0.00    -0.206 F 
ATOM     89  C   UNL     1       2.024  10.900  14.421  1.00  0.00     0.040 A 
ATOM     90  C   UNL     1       2.022  13.221  15.061  1.00  0.00     0.040 A 
ATOM     91  F   UNL     1       1.553  14.879  13.470  1.00  0.00    -0.206 F 
ATOM     92  C   UNL     1       2.175  11.879  15.402  1.00  0.00     0.006 A 
ENDBRANCH  68  85
ENDBRANCH  42  43
ENDBRANCH  34  37
ENDBRANCH  32  33
ENDBRANCH  31  32
ENDBRANCH  30  31
ENDBRANCH  28  30
ENDBRANCH  24  26
ENDBRANCH   4  24
TORSDOF 19
