REMARK SMILES CC1CC[NH+](CC(=O)N[C@H](Cc2cccc(F)c2)C(=O)NCCCNC(=O)c2ccc(-c3c4nc(c(-c5c(F)cccc5F)c5ccc([nH]5)c(-c5c(F)cccc5F)c5nc(c(-c6c(F)cccc6F)c6ccc3[nH]6)C=C5)C=C4)cc2)CC1
REMARK SMILES IDX 22 1 21 2 19 3 20 4 10 6 9 7 7 8 8 9 6 11 5 12 1 13 2 14
REMARK SMILES IDX 3 15 83 16 4 17 82 18 11 20 12 21 13 22 18 23 14 24 16 25
REMARK SMILES IDX 15 26 17 27 23 28 24 29 25 30 26 31 27 33 28 34 29 35 81 36
REMARK SMILES IDX 30 37 80 38 31 39 32 40 33 41 74 42 34 43 79 44 73 45 75 46
REMARK SMILES IDX 35 47 78 48 72 49 71 50 36 52 62 53 45 54 61 55 46 56 49 57
REMARK SMILES IDX 60 58 76 59 47 60 48 61 59 63 77 64 50 65 37 66 38 67 43 68
REMARK SMILES IDX 39 69 40 70 42 71 44 72 41 73 63 74 64 75 69 76 65 77 66 78
REMARK SMILES IDX 68 79 70 80 67 81 51 82 52 83 57 84 53 85 54 86 56 87 58 88
REMARK SMILES IDX 55 89
REMARK H PARENT 21 5 9 10 5 19 25 32 75 51 49 62
REMARK Flexibility Score: inf
ROOT
ATOM      1  C   UNL     1      -3.398  -3.083  -1.896  1.00  0.00     0.117 C 
ENDROOT
BRANCH   1   2
ATOM      2  N   UNL     1      -2.075  -3.655  -2.107  1.00  0.00    -0.354 N 
ATOM      3  C   UNL     1      -0.880  -3.002  -2.253  1.00  0.00     0.242 C 
ATOM      4  O   UNL     1      -0.006  -3.530  -2.942  1.00  0.00    -0.273 OA
ATOM      5  H   UNL     1      -2.034  -4.638  -2.151  1.00  0.00     0.163 HD
BRANCH   3   6
ATOM      6  C   UNL     1      -0.684  -1.617  -1.610  1.00  0.00     0.175 C 
BRANCH   6   7
ATOM      7  N   UNL     1      -1.258  -1.752  -0.254  1.00  0.00    -0.339 N 
ATOM      8  C   UNL     1      -1.109  -1.117   0.932  1.00  0.00     0.275 C 
ATOM      9  O   UNL     1      -1.670  -1.647   1.897  1.00  0.00    -0.268 OA
ATOM     10  H   UNL     1      -1.910  -2.488  -0.201  1.00  0.00     0.164 HD
BRANCH   8  11
ATOM     11  C   UNL     1      -0.375   0.201   1.065  1.00  0.00     0.363 C 
BRANCH  11  12
ATOM     12  N   UNL     1       1.068   0.188   1.341  1.00  0.00    -0.327 N 
ATOM     13  C   UNL     1       1.399  -3.837   2.495  1.00  0.00     0.008 C 
ATOM     14  C   UNL     1       1.998  -2.446   2.267  1.00  0.00    -0.003 C 
ATOM     15  C   UNL     1       1.311  -1.436   3.201  1.00  0.00     0.065 C 
ATOM     16  C   UNL     1       1.917  -2.097   0.774  1.00  0.00     0.065 C 
ATOM     17  C   UNL     1       1.426   0.008   2.739  1.00  0.00     0.262 C 
ATOM     18  C   UNL     1       1.938  -0.599   0.485  1.00  0.00     0.262 C 
ATOM     19  H   UNL     1       1.270   1.151   1.072  1.00  0.00     0.348 HD
ENDBRANCH  11  12
ENDBRANCH   8  11
ENDBRANCH   6   7
BRANCH   6  20
ATOM     20  C   UNL     1      -1.240  -0.502  -2.523  1.00  0.00     0.070 C 
BRANCH  20  21
ATOM     21  C   UNL     1      -0.441   0.785  -2.443  1.00  0.00    -0.043 A 
ATOM     22  C   UNL     1       0.896   0.825  -2.872  1.00  0.00     0.004 A 
ATOM     23  C   UNL     1      -0.983   1.920  -1.825  1.00  0.00     0.043 A 
ATOM     24  C   UNL     1       1.712   1.916  -2.554  1.00  0.00     0.003 A 
ATOM     25  C   UNL     1      -0.154   2.987  -1.488  1.00  0.00     0.123 A 
ATOM     26  C   UNL     1       1.193   2.983  -1.825  1.00  0.00     0.039 A 
ATOM     27  F   UNL     1      -0.649   3.994  -0.756  1.00  0.00    -0.207 F 
ENDBRANCH  20  21
ENDBRANCH   6  20
ENDBRANCH   3   6
ENDBRANCH   1   2
BRANCH   1  28
ATOM     28  C   UNL     1      -4.031  -2.720  -3.229  1.00  0.00     0.042 C 
BRANCH  28  29
ATOM     29  C   UNL     1      -4.218  -3.937  -4.120  1.00  0.00     0.118 C 
BRANCH  29  30
ATOM     30  N   UNL     1      -5.171  -4.879  -3.546  1.00  0.00    -0.352 N 
ATOM     31  C   UNL     1      -6.486  -5.081  -3.883  1.00  0.00     0.251 C 
ATOM     32  H   UNL     1      -4.826  -5.446  -2.819  1.00  0.00     0.163 HD
ATOM     33  O   UNL     1      -7.241  -5.682  -3.124  1.00  0.00    -0.269 OA
BRANCH  31  34
ATOM     34  C   UNL     1      -6.979  -4.547  -5.164  1.00  0.00     0.039 A 
ATOM     35  C   UNL     1      -8.183  -3.842  -5.201  1.00  0.00     0.014 A 
ATOM     36  C   UNL     1      -6.210  -4.706  -6.319  1.00  0.00     0.014 A 
ATOM     37  C   UNL     1      -8.570  -3.219  -6.388  1.00  0.00     0.010 A 
ATOM     38  C   UNL     1      -6.543  -4.000  -7.464  1.00  0.00     0.010 A 
ATOM     39  C   UNL     1      -7.726  -3.250  -7.510  1.00  0.00    -0.014 A 
BRANCH  39  40
ATOM     40  C   UNL     1      -8.041  -2.499  -8.748  1.00  0.00     0.031 A 
ATOM     41  C   UNL     1      -8.216  -3.241 -10.043  1.00  0.00     0.074 A 
ATOM     42  C   UNL     1      -8.071  -1.153  -8.721  1.00  0.00     0.049 A 
ATOM     43  N   UNL     1      -8.353  -2.765 -11.252  1.00  0.00    -0.248 NA
ATOM     44  C   UNL     1      -8.205  -4.713  -9.974  1.00  0.00     0.031 C 
ATOM     45  C   UNL     1      -7.876  -0.325  -7.528  1.00  0.00     0.029 A 
ATOM     46  N   UNL     1      -8.260  -0.240  -9.728  1.00  0.00    -0.354 N 
ATOM     47  C   UNL     1      -8.434  -3.874 -12.084  1.00  0.00     0.074 A 
ATOM     48  C   UNL     1      -8.274  -5.046 -11.254  1.00  0.00     0.031 C 
ATOM     49  C   UNL     1      -7.978   0.969  -7.869  1.00  0.00     0.029 A 
ATOM     50  C   UNL     1      -8.189   1.067  -9.309  1.00  0.00     0.049 A 
ATOM     51  H   UNL     1      -8.430  -0.498 -10.663  1.00  0.00     0.167 HD
ATOM     52  C   UNL     1      -8.652  -3.907 -13.418  1.00  0.00     0.037 A 
ATOM     53  C   UNL     1      -8.266   2.215 -10.010  1.00  0.00     0.037 A 
ATOM     54  C   UNL     1      -8.841  -2.736 -14.230  1.00  0.00     0.049 A 
ATOM     55  C   UNL     1      -8.473   2.150 -11.498  1.00  0.00     0.074 A 
ATOM     56  C   UNL     1      -9.124  -2.668 -15.582  1.00  0.00     0.029 A 
ATOM     57  N   UNL     1      -8.768  -1.431 -13.766  1.00  0.00    -0.354 N 
ATOM     58  N   UNL     1      -8.602   1.094 -12.265  1.00  0.00    -0.248 NA
ATOM     59  C   UNL     1      -8.539   3.428 -12.221  1.00  0.00     0.031 C 
ATOM     60  C   UNL     1      -9.168  -1.322 -15.948  1.00  0.00     0.029 A 
ATOM     61  C   UNL     1      -8.972  -0.551 -14.813  1.00  0.00     0.049 A 
ATOM     62  H   UNL     1      -8.598  -1.171 -12.832  1.00  0.00     0.167 HD
ATOM     63  C   UNL     1      -8.789   1.578 -13.552  1.00  0.00     0.074 A 
ATOM     64  C   UNL     1      -8.767   3.023 -13.464  1.00  0.00     0.031 C 
ATOM     65  C   UNL     1      -8.962   0.886 -14.704  1.00  0.00     0.037 A 
BRANCH  52  66
ATOM     66  C   UNL     1      -8.723  -5.245 -14.091  1.00  0.00     0.057 A 
ATOM     67  C   UNL     1      -7.741  -5.638 -15.009  1.00  0.00     0.134 A 
ATOM     68  C   UNL     1      -9.816  -6.102 -13.905  1.00  0.00     0.134 A 
ATOM     69  F   UNL     1      -6.671  -4.861 -15.236  1.00  0.00    -0.206 F 
ATOM     70  C   UNL     1      -7.856  -6.823 -15.737  1.00  0.00     0.040 A 
ATOM     71  C   UNL     1      -9.928  -7.303 -14.607  1.00  0.00     0.040 A 
ATOM     72  F   UNL     1     -10.784  -5.790 -13.030  1.00  0.00    -0.206 F 
ATOM     73  C   UNL     1      -8.953  -7.658 -15.537  1.00  0.00     0.006 A 
ENDBRANCH  52  66
BRANCH  53  74
ATOM     74  C   UNL     1      -8.158   3.518  -9.306  1.00  0.00     0.057 A 
ATOM     75  C   UNL     1      -6.960   3.936  -8.713  1.00  0.00     0.134 A 
ATOM     76  C   UNL     1      -9.264   4.368  -9.188  1.00  0.00     0.134 A 
ATOM     77  F   UNL     1      -5.865   3.164  -8.781  1.00  0.00    -0.206 F 
ATOM     78  C   UNL     1      -6.869   5.141  -8.013  1.00  0.00     0.040 A 
ATOM     79  C   UNL     1      -9.181   5.589  -8.515  1.00  0.00     0.040 A 
ATOM     80  F   UNL     1     -10.435   4.033  -9.748  1.00  0.00    -0.206 F 
ATOM     81  C   UNL     1      -7.982   5.974  -7.917  1.00  0.00     0.006 A 
ENDBRANCH  53  74
BRANCH  65  82
ATOM     82  C   UNL     1      -9.165   1.663 -15.970  1.00  0.00     0.057 A 
ATOM     83  C   UNL     1     -10.406   1.649 -16.620  1.00  0.00     0.134 A 
ATOM     84  C   UNL     1      -8.102   2.310 -16.610  1.00  0.00     0.134 A 
ATOM     85  F   UNL     1     -11.460   1.033 -16.064  1.00  0.00    -0.206 F 
ATOM     86  C   UNL     1     -10.574   2.226 -17.879  1.00  0.00     0.040 A 
ATOM     87  C   UNL     1      -8.265   2.913 -17.858  1.00  0.00     0.040 A 
ATOM     88  F   UNL     1      -6.892   2.364 -16.034  1.00  0.00    -0.206 F 
ATOM     89  C   UNL     1      -9.500   2.858 -18.502  1.00  0.00     0.006 A 
ENDBRANCH  65  82
ENDBRANCH  39  40
ENDBRANCH  31  34
ENDBRANCH  29  30
ENDBRANCH  28  29
ENDBRANCH   1  28
TORSDOF 15
