REMARK SMILES C[C@@H]1CC[C@H](C)[N@H+]1Cc1cc2c(cc1Cl)C=C(C(=O)NCCCNC(=O)c1ccc(-c3c4nc(c(-c5c(F)cccc5F)c5ccc([nH]5)c(-c5c(F)cccc5F)c5nc(c(-c6c(F)cccc6F)c6ccc3[nH]6)C=C5)C=C4)cc1)[C@@H](C(F)(F)F)O2
REMARK SMILES IDX 22 1 21 2 20 3 18 4 19 5 17 7 9 8 10 9 14 10 11 11 13 12
REMARK SMILES IDX 15 13 12 14 86 15 16 16 81 17 8 18 7 19 6 20 5 21 4 22 3 23
REMARK SMILES IDX 2 24 1 26 82 27 83 28 84 29 85 30 23 31 24 32 25 33 26 35
REMARK SMILES IDX 27 36 28 37 80 38 29 39 79 40 30 41 31 42 32 43 73 44 33 45
REMARK SMILES IDX 78 46 72 47 74 48 34 49 77 50 71 51 70 52 35 54 61 55 44 56
REMARK SMILES IDX 60 57 45 58 48 59 59 60 75 61 46 62 47 63 58 65 76 66 49 67
REMARK SMILES IDX 36 68 37 69 42 70 38 71 39 72 41 73 43 74 40 75 62 76 63 77
REMARK SMILES IDX 68 78 64 79 65 80 67 81 69 82 66 83 50 84 51 85 56 86 52 87
REMARK SMILES IDX 53 88 55 89 57 90 54 91
REMARK H PARENT 20 6 7 25 24 34 74 53 48 64
REMARK Flexibility Score: inf
ROOT
ATOM      1  C   UNL     1      -7.790  -2.501   4.835  1.00  0.00     0.042 C 
ENDROOT
BRANCH   1   2
ATOM      2  C   UNL     1      -8.000  -0.998   4.749  1.00  0.00     0.118 C 
BRANCH   2   3
ATOM      3  N   UNL     1      -7.261  -0.299   5.787  1.00  0.00    -0.352 N 
ATOM      4  C   UNL     1      -6.154   0.472   5.864  1.00  0.00     0.251 C 
ATOM      5  O   UNL     1      -5.852   0.844   7.002  1.00  0.00    -0.270 OA
ATOM      6  H   UNL     1      -7.678  -0.421   6.671  1.00  0.00     0.163 HD
BRANCH   4   7
ATOM      7  C   UNL     1      -5.319   0.883   4.705  1.00  0.00     0.067 C 
ATOM      8  C   UNL     1      -1.756   2.902   1.764  1.00  0.00     0.029 A 
ATOM      9  C   UNL     1      -2.580   1.764   1.678  1.00  0.00     0.058 A 
ATOM     10  C   UNL     1      -1.931   3.755   2.869  1.00  0.00     0.050 A 
ATOM     11  C   UNL     1      -3.461   1.445   2.705  1.00  0.00     0.128 A 
ATOM     12  C   UNL     1      -2.759   3.386   3.936  1.00  0.00     0.033 A 
ATOM     13  Cl  UNL     1      -1.226   5.331   2.959  1.00  0.00    -0.084 Cl
ATOM     14  C   UNL     1      -3.507   2.216   3.865  1.00  0.00     0.019 A 
ATOM     15  O   UNL     1      -4.257   0.345   2.537  1.00  0.00    -0.475 OA
ATOM     16  C   UNL     1      -4.343   1.771   4.972  1.00  0.00     0.025 C 
ATOM     17  C   UNL     1      -5.503   0.403   3.293  1.00  0.00     0.314 C 
BRANCH   8  18
ATOM     18  C   UNL     1      -0.711   3.111   0.682  1.00  0.00     0.301 C 
BRANCH  18  19
ATOM     19  N   UNL     1       0.612   2.506   0.918  1.00  0.00    -0.327 N 
ATOM     20  C   UNL     1       0.916   0.301  -0.171  1.00  0.00     0.075 C 
ATOM     21  C   UNL     1       0.644   1.048   1.127  1.00  0.00     0.181 C 
ATOM     22  C   UNL     1       1.744   0.810   2.159  1.00  0.00     0.071 C 
ATOM     23  C   UNL     1       1.710   2.077   2.986  1.00  0.00     0.071 C 
ATOM     24  C   UNL     1       1.421   3.159   1.955  1.00  0.00     0.181 C 
ATOM     25  H   UNL     1       1.040   2.682   0.010  1.00  0.00     0.348 HD
ATOM     26  C   UNL     1       2.695   3.708   1.313  1.00  0.00     0.075 C 
ENDBRANCH  18  19
ENDBRANCH   8  18
BRANCH  17  27
ATOM     27  C   UNL     1      -6.562   1.231   2.530  1.00  0.00     0.429 C 
ATOM     28  F   UNL     1      -6.994   0.555   1.437  1.00  0.00    -0.167 F 
ATOM     29  F   UNL     1      -7.659   1.483   3.286  1.00  0.00    -0.167 F 
ATOM     30  F   UNL     1      -6.101   2.430   2.110  1.00  0.00    -0.167 F 
ENDBRANCH  17  27
ENDBRANCH   4   7
ENDBRANCH   2   3
ENDBRANCH   1   2
BRANCH   1  31
ATOM     31  C   UNL     1      -8.552  -3.121   5.997  1.00  0.00     0.118 C 
BRANCH  31  32
ATOM     32  N   UNL     1      -9.998  -3.050   5.803  1.00  0.00    -0.352 N 
ATOM     33  C   UNL     1     -10.908  -4.042   5.517  1.00  0.00     0.251 C 
ATOM     34  H   UNL     1     -10.384  -2.148   5.890  1.00  0.00     0.163 HD
ATOM     35  O   UNL     1     -12.036  -3.752   5.145  1.00  0.00    -0.269 OA
BRANCH  33  36
ATOM     36  C   UNL     1     -10.507  -5.458   5.645  1.00  0.00     0.039 A 
ATOM     37  C   UNL     1      -9.720  -5.867   6.721  1.00  0.00     0.014 A 
ATOM     38  C   UNL     1     -10.913  -6.382   4.679  1.00  0.00     0.014 A 
ATOM     39  C   UNL     1      -9.166  -7.137   6.719  1.00  0.00     0.010 A 
ATOM     40  C   UNL     1     -10.448  -7.699   4.746  1.00  0.00     0.010 A 
ATOM     41  C   UNL     1      -9.525  -8.071   5.735  1.00  0.00    -0.014 A 
BRANCH  41  42
ATOM     42  C   UNL     1      -8.910  -9.422   5.770  1.00  0.00     0.031 A 
ATOM     43  C   UNL     1      -8.041  -9.902   4.639  1.00  0.00     0.074 A 
ATOM     44  C   UNL     1      -9.077 -10.187   6.867  1.00  0.00     0.049 A 
ATOM     45  N   UNL     1      -7.413 -11.044   4.509  1.00  0.00    -0.248 NA
ATOM     46  C   UNL     1      -7.856  -8.987   3.502  1.00  0.00     0.031 C 
ATOM     47  C   UNL     1      -9.883  -9.822   8.036  1.00  0.00     0.029 A 
ATOM     48  N   UNL     1      -8.554 -11.410   7.197  1.00  0.00    -0.354 N 
ATOM     49  C   UNL     1      -6.784 -10.994   3.271  1.00  0.00     0.074 A 
ATOM     50  C   UNL     1      -7.125  -9.721   2.675  1.00  0.00     0.031 C 
ATOM     51  C   UNL     1      -9.747 -10.765   8.978  1.00  0.00     0.029 A 
ATOM     52  C   UNL     1      -8.911 -11.837   8.453  1.00  0.00     0.049 A 
ATOM     53  H   UNL     1      -7.978 -11.931   6.593  1.00  0.00     0.167 HD
ATOM     54  C   UNL     1      -5.986 -11.922   2.689  1.00  0.00     0.037 A 
ATOM     55  C   UNL     1      -8.616 -12.977   9.103  1.00  0.00     0.037 A 
ATOM     56  C   UNL     1      -5.628 -13.178   3.297  1.00  0.00     0.049 A 
ATOM     57  C   UNL     1      -7.766 -14.004   8.415  1.00  0.00     0.074 A 
ATOM     58  C   UNL     1      -4.817 -14.181   2.796  1.00  0.00     0.029 A 
ATOM     59  N   UNL     1      -6.059 -13.600   4.546  1.00  0.00    -0.354 N 
ATOM     60  N   UNL     1      -7.184 -13.944   7.242  1.00  0.00    -0.248 NA
ATOM     61  C   UNL     1      -7.544 -15.264   9.136  1.00  0.00     0.031 C 
ATOM     62  C   UNL     1      -4.787 -15.226   3.726  1.00  0.00     0.029 A 
ATOM     63  C   UNL     1      -5.545 -14.856   4.825  1.00  0.00     0.049 A 
ATOM     64  H   UNL     1      -6.644 -13.083   5.146  1.00  0.00     0.167 HD
ATOM     65  C   UNL     1      -6.518 -15.152   7.088  1.00  0.00     0.074 A 
ATOM     66  C   UNL     1      -6.747 -15.912   8.300  1.00  0.00     0.031 C 
ATOM     67  C   UNL     1      -5.786 -15.595   6.037  1.00  0.00     0.037 A 
BRANCH  54  68
ATOM     68  C   UNL     1      -5.463 -11.621   1.314  1.00  0.00     0.057 A 
ATOM     69  C   UNL     1      -5.945 -12.321   0.200  1.00  0.00     0.134 A 
ATOM     70  C   UNL     1      -4.466 -10.662   1.091  1.00  0.00     0.134 A 
ATOM     71  F   UNL     1      -6.896 -13.256   0.342  1.00  0.00    -0.206 F 
ATOM     72  C   UNL     1      -5.454 -12.078  -1.085  1.00  0.00     0.040 A 
ATOM     73  C   UNL     1      -3.984 -10.394  -0.192  1.00  0.00     0.040 A 
ATOM     74  F   UNL     1      -3.973  -9.945   2.112  1.00  0.00    -0.206 F 
ATOM     75  C   UNL     1      -4.474 -11.108  -1.284  1.00  0.00     0.006 A 
ENDBRANCH  54  68
BRANCH  55  76
ATOM     76  C   UNL     1      -9.148 -13.216  10.467  1.00  0.00     0.057 A 
ATOM     77  C   UNL     1     -10.516 -13.411  10.691  1.00  0.00     0.134 A 
ATOM     78  C   UNL     1      -8.299 -13.264  11.578  1.00  0.00     0.134 A 
ATOM     79  F   UNL     1     -11.383 -13.371   9.668  1.00  0.00    -0.206 F 
ATOM     80  C   UNL     1     -11.023 -13.635  11.971  1.00  0.00     0.040 A 
ATOM     81  C   UNL     1      -8.788 -13.516  12.860  1.00  0.00     0.040 A 
ATOM     82  F   UNL     1      -6.976 -13.102  11.424  1.00  0.00    -0.206 F 
ATOM     83  C   UNL     1     -10.156 -13.697  13.060  1.00  0.00     0.006 A 
ENDBRANCH  55  76
BRANCH  67  84
ATOM     84  C   UNL     1      -5.164 -16.951   6.174  1.00  0.00     0.057 A 
ATOM     85  C   UNL     1      -3.784 -17.086   6.370  1.00  0.00     0.134 A 
ATOM     86  C   UNL     1      -5.929 -18.123   6.106  1.00  0.00     0.134 A 
ATOM     87  F   UNL     1      -2.997 -16.003   6.440  1.00  0.00    -0.206 F 
ATOM     88  C   UNL     1      -3.187 -18.340   6.496  1.00  0.00     0.040 A 
ATOM     89  C   UNL     1      -5.345 -19.382   6.255  1.00  0.00     0.040 A 
ATOM     90  F   UNL     1      -7.258 -18.058   5.937  1.00  0.00    -0.206 F 
ATOM     91  C   UNL     1      -3.969 -19.492   6.447  1.00  0.00     0.006 A 
ENDBRANCH  67  84
ENDBRANCH  41  42
ENDBRANCH  33  36
ENDBRANCH  31  32
ENDBRANCH   1  31
TORSDOF 13
