REMARK SMILES CSc1ccc(/C=C2\C(C)=C(CC(=O)NCCCNC(=O)c3ccc(-c4c5nc(c(-c6c(F)cccc6F)c6ccc([nH]6)c(-c6c(F)cccc6F)c6nc(c(-c7c(F)cccc7F)c7ccc4[nH]7)C=C6)C=C5)cc3)c3cc(F)ccc32)cc1
REMARK SMILES IDX 16 1 15 2 13 3 14 4 12 6 11 7 7 8 8 9 9 10 82 11 10 12 76 13
REMARK SMILES IDX 81 14 77 15 80 16 78 17 79 18 6 19 3 20 4 21 84 22 5 23
REMARK SMILES IDX 83 24 2 25 1 26 17 27 18 28 19 29 20 30 21 32 22 33 23 34
REMARK SMILES IDX 75 35 24 36 74 37 25 38 26 39 27 40 68 41 28 42 73 43 67 44
REMARK SMILES IDX 69 45 29 46 72 47 66 48 65 49 30 51 56 52 39 53 55 54 40 55
REMARK SMILES IDX 43 56 54 57 70 58 41 59 42 60 53 62 71 63 44 64 31 65 32 66
REMARK SMILES IDX 37 67 33 68 34 69 36 70 38 71 35 72 57 73 58 74 63 75 59 76
REMARK SMILES IDX 60 77 62 78 64 79 61 80 45 81 46 82 51 83 47 84 48 85 50 86
REMARK SMILES IDX 52 87 49 88
REMARK H PARENT 15 5 19 31 69 50 43 61
REMARK Flexibility Score: inf
ROOT
ATOM      1  C   UNL     1      -1.556  -7.598   5.478  1.00  0.00     0.117 C 
ENDROOT
BRANCH   1   2
ATOM      2  N   UNL     1      -1.316  -8.945   4.995  1.00  0.00    -0.356 N 
ATOM      3  C   UNL     1      -0.381  -9.365   4.093  1.00  0.00     0.224 C 
ATOM      4  O   UNL     1      -0.390 -10.541   3.728  1.00  0.00    -0.275 OA
ATOM      5  H   UNL     1      -1.901  -9.645   5.364  1.00  0.00     0.163 HD
BRANCH   3   6
ATOM      6  C   UNL     1       0.618  -8.368   3.553  1.00  0.00     0.136 C 
BRANCH   6   7
ATOM      7  C   UNL     1      -0.018  -7.629   2.393  1.00  0.00    -0.027 C 
ATOM      8  C   UNL     1       2.057  -4.912   2.302  1.00  0.00     0.017 C 
ATOM      9  C   UNL     1       1.284  -5.909   1.836  1.00  0.00    -0.014 C 
ATOM     10  C   UNL     1      -0.066  -6.269   2.322  1.00  0.00    -0.039 C 
ATOM     11  C   UNL     1       1.540  -6.926   0.781  1.00  0.00    -0.010 A 
ATOM     12  C   UNL     1      -1.111  -5.605   1.393  1.00  0.00     0.045 C 
ATOM     13  C   UNL     1       0.631  -7.961   1.105  1.00  0.00    -0.011 A 
ATOM     14  C   UNL     1       1.909  -6.725  -0.539  1.00  0.00     0.012 A 
ATOM     15  C   UNL     1       0.070  -8.804   0.161  1.00  0.00     0.048 A 
ATOM     16  C   UNL     1       1.316  -7.548  -1.514  1.00  0.00     0.040 A 
ATOM     17  C   UNL     1       0.405  -8.559  -1.160  1.00  0.00     0.123 A 
ATOM     18  F   UNL     1      -0.256  -9.213  -2.125  1.00  0.00    -0.207 F 
BRANCH   8  19
ATOM     19  C   UNL     1       1.638  -3.724   3.110  1.00  0.00    -0.025 A 
ATOM     20  C   UNL     1       1.021  -1.007   3.102  1.00  0.00     0.007 A 
ATOM     21  C   UNL     1      -0.004  -1.939   3.062  1.00  0.00     0.015 A 
ATOM     22  C   UNL     1       2.305  -1.421   3.453  1.00  0.00     0.015 A 
ATOM     23  C   UNL     1       0.307  -3.292   3.139  1.00  0.00     0.009 A 
ATOM     24  C   UNL     1       2.617  -2.786   3.454  1.00  0.00     0.009 A 
BRANCH  20  25
ATOM     25  S   UNL     1       0.737   0.616   2.428  1.00  0.00    -0.130 SA
ATOM     26  C   UNL     1       0.973   0.167   0.672  1.00  0.00     0.091 C 
ENDBRANCH  20  25
ENDBRANCH   8  19
ENDBRANCH   6   7
ENDBRANCH   3   6
ENDBRANCH   1   2
BRANCH   1  27
ATOM     27  C   UNL     1      -2.586  -6.858   4.633  1.00  0.00     0.042 C 
BRANCH  27  28
ATOM     28  C   UNL     1      -3.951  -7.521   4.601  1.00  0.00     0.118 C 
BRANCH  28  29
ATOM     29  N   UNL     1      -4.531  -7.612   5.929  1.00  0.00    -0.352 N 
ATOM     30  C   UNL     1      -5.501  -6.840   6.515  1.00  0.00     0.251 C 
ATOM     31  H   UNL     1      -4.174  -8.335   6.493  1.00  0.00     0.163 HD
ATOM     32  O   UNL     1      -5.624  -6.838   7.732  1.00  0.00    -0.269 OA
BRANCH  30  33
ATOM     33  C   UNL     1      -6.391  -6.010   5.677  1.00  0.00     0.039 A 
ATOM     34  C   UNL     1      -6.755  -4.739   6.129  1.00  0.00     0.014 A 
ATOM     35  C   UNL     1      -6.898  -6.496   4.468  1.00  0.00     0.014 A 
ATOM     36  C   UNL     1      -7.576  -3.934   5.338  1.00  0.00     0.010 A 
ATOM     37  C   UNL     1      -7.643  -5.663   3.643  1.00  0.00     0.010 A 
ATOM     38  C   UNL     1      -7.993  -4.375   4.072  1.00  0.00    -0.014 A 
BRANCH  38  39
ATOM     39  C   UNL     1      -8.781  -3.500   3.171  1.00  0.00     0.031 A 
ATOM     40  C   UNL     1     -10.174  -3.891   2.763  1.00  0.00     0.074 A 
ATOM     41  C   UNL     1      -8.208  -2.393   2.663  1.00  0.00     0.049 A 
ATOM     42  N   UNL     1     -10.983  -3.301   1.921  1.00  0.00    -0.248 NA
ATOM     43  C   UNL     1     -10.720  -5.121   3.360  1.00  0.00     0.031 C 
ATOM     44  C   UNL     1      -6.847  -1.936   2.953  1.00  0.00     0.029 A 
ATOM     45  N   UNL     1      -8.692  -1.457   1.785  1.00  0.00    -0.354 N 
ATOM     46  C   UNL     1     -12.125  -4.091   1.879  1.00  0.00     0.074 A 
ATOM     47  C   UNL     1     -11.885  -5.229   2.738  1.00  0.00     0.031 C 
ATOM     48  C   UNL     1      -6.613  -0.797   2.283  1.00  0.00     0.029 A 
ATOM     49  C   UNL     1      -7.786  -0.469   1.481  1.00  0.00     0.049 A 
ATOM     50  H   UNL     1      -9.601  -1.489   1.409  1.00  0.00     0.167 HD
ATOM     51  C   UNL     1     -13.276  -3.873   1.201  1.00  0.00     0.037 A 
ATOM     52  C   UNL     1      -7.886   0.574   0.637  1.00  0.00     0.037 A 
ATOM     53  C   UNL     1     -13.512  -2.728   0.360  1.00  0.00     0.049 A 
ATOM     54  C   UNL     1      -9.163   0.775  -0.130  1.00  0.00     0.074 A 
ATOM     55  C   UNL     1     -14.668  -2.380  -0.316  1.00  0.00     0.029 A 
ATOM     56  N   UNL     1     -12.570  -1.752   0.074  1.00  0.00    -0.354 N 
ATOM     57  N   UNL     1     -10.264   0.063  -0.101  1.00  0.00    -0.248 NA
ATOM     58  C   UNL     1      -9.212   1.921  -1.048  1.00  0.00     0.031 C 
ATOM     59  C   UNL     1     -14.408  -1.222  -1.055  1.00  0.00     0.029 A 
ATOM     60  C   UNL     1     -13.107  -0.820  -0.799  1.00  0.00     0.049 A 
ATOM     61  H   UNL     1     -11.656  -1.725   0.437  1.00  0.00     0.167 HD
ATOM     62  C   UNL     1     -11.141   0.683  -0.980  1.00  0.00     0.074 A 
ATOM     63  C   UNL     1     -10.452   1.841  -1.511  1.00  0.00     0.031 C 
ATOM     64  C   UNL     1     -12.403   0.324  -1.321  1.00  0.00     0.037 A 
BRANCH  51  65
ATOM     65  C   UNL     1     -14.369  -4.893   1.340  1.00  0.00     0.057 A 
ATOM     66  C   UNL     1     -15.082  -5.055   2.535  1.00  0.00     0.134 A 
ATOM     67  C   UNL     1     -14.742  -5.694   0.253  1.00  0.00     0.134 A 
ATOM     68  F   UNL     1     -14.770  -4.327   3.618  1.00  0.00    -0.206 F 
ATOM     69  C   UNL     1     -16.109  -5.994   2.652  1.00  0.00     0.040 A 
ATOM     70  C   UNL     1     -15.786  -6.617   0.349  1.00  0.00     0.040 A 
ATOM     71  F   UNL     1     -14.106  -5.587  -0.923  1.00  0.00    -0.206 F 
ATOM     72  C   UNL     1     -16.469  -6.772   1.554  1.00  0.00     0.006 A 
ENDBRANCH  51  65
BRANCH  52  73
ATOM     73  C   UNL     1      -6.745   1.511   0.477  1.00  0.00     0.057 A 
ATOM     74  C   UNL     1      -6.822   2.828   0.943  1.00  0.00     0.134 A 
ATOM     75  C   UNL     1      -5.552   1.115  -0.143  1.00  0.00     0.134 A 
ATOM     76  F   UNL     1      -7.943   3.271   1.530  1.00  0.00    -0.206 F 
ATOM     77  C   UNL     1      -5.763   3.723   0.785  1.00  0.00     0.040 A 
ATOM     78  C   UNL     1      -4.476   1.992  -0.284  1.00  0.00     0.040 A 
ATOM     79  F   UNL     1      -5.410  -0.137  -0.604  1.00  0.00    -0.206 F 
ATOM     80  C   UNL     1      -4.582   3.303   0.174  1.00  0.00     0.006 A 
ENDBRANCH  52  73
BRANCH  64  81
ATOM     81  C   UNL     1     -13.123   1.199  -2.305  1.00  0.00     0.057 A 
ATOM     82  C   UNL     1     -12.782   1.213  -3.663  1.00  0.00     0.134 A 
ATOM     83  C   UNL     1     -14.199   1.998  -1.899  1.00  0.00     0.134 A 
ATOM     84  F   UNL     1     -11.751   0.481  -4.113  1.00  0.00    -0.206 F 
ATOM     85  C   UNL     1     -13.476   2.003  -4.580  1.00  0.00     0.040 A 
ATOM     86  C   UNL     1     -14.918   2.771  -2.811  1.00  0.00     0.040 A 
ATOM     87  F   UNL     1     -14.582   2.024  -0.613  1.00  0.00    -0.206 F 
ATOM     88  C   UNL     1     -14.554   2.778  -4.156  1.00  0.00     0.006 A 
ENDBRANCH  64  81
ENDBRANCH  38  39
ENDBRANCH  30  33
ENDBRANCH  28  29
ENDBRANCH  27  28
ENDBRANCH   1  27
TORSDOF 13
