REMARK SMILES Cc1ccc(C(=O)N2C[C@@H](C(=O)NCCCNC(=O)c3ccc(-c4c5nc(c(-c6c(F)cccc6F)c6ccc([nH]6)c(-c6c(F)cccc6F)c6nc(c(-c7c(F)cccc7F)c7ccc4[nH]7)C=C6)C=C5)cc3)C[C@H](C(=O)N3CCOCC3)C2)cc1F
REMARK SMILES IDX 15 1 14 2 13 3 11 4 12 5 10 7 8 8 9 9 84 10 75 11 74 12 6 13
REMARK SMILES IDX 7 14 5 15 1 16 2 17 3 18 86 19 4 20 85 21 87 22 76 23 77 24
REMARK SMILES IDX 78 25 79 26 83 27 80 28 82 29 81 30 16 31 17 32 18 33 19 35
REMARK SMILES IDX 20 36 21 37 73 38 22 39 72 40 23 41 24 42 25 43 66 44 26 45
REMARK SMILES IDX 71 46 65 47 67 48 27 49 70 50 64 51 63 52 28 54 54 55 37 56
REMARK SMILES IDX 53 57 38 58 41 59 52 60 68 61 39 62 40 63 51 65 69 66 42 67
REMARK SMILES IDX 29 68 30 69 35 70 31 71 32 72 34 73 36 74 33 75 55 76 56 77
REMARK SMILES IDX 61 78 57 79 58 80 60 81 62 82 59 83 43 84 44 85 49 86 45 87
REMARK SMILES IDX 46 88 48 89 50 90 47 91
REMARK H PARENT 13 6 17 34 67 53 41 64
REMARK Flexibility Score: inf
ROOT
ATOM      1  C   UNL     1      -8.291   1.447   0.773  1.00  0.00     0.042 C 
ENDROOT
BRANCH   1   2
ATOM      2  C   UNL     1      -7.262   0.682   1.579  1.00  0.00     0.117 C 
BRANCH   2   3
ATOM      3  N   UNL     1      -7.828  -0.512   2.184  1.00  0.00    -0.356 N 
ATOM      4  C   UNL     1      -7.603  -1.808   1.853  1.00  0.00     0.224 C 
ATOM      5  O   UNL     1      -8.280  -2.691   2.377  1.00  0.00    -0.275 OA
ATOM      6  H   UNL     1      -8.455  -0.361   2.928  1.00  0.00     0.163 HD
BRANCH   4   7
ATOM      7  C   UNL     1      -6.521  -2.131   0.852  1.00  0.00     0.099 C 
ATOM      8  N   UNL     1      -4.159  -1.375   0.360  1.00  0.00    -0.337 N 
ATOM      9  C   UNL     1      -5.178  -1.622   1.365  1.00  0.00     0.133 C 
ATOM     10  C   UNL     1      -4.568  -0.842  -0.940  1.00  0.00     0.133 C 
ATOM     11  C   UNL     1      -5.777  -1.565  -1.554  1.00  0.00     0.099 C 
ATOM     12  C   UNL     1      -6.926  -1.760  -0.578  1.00  0.00     0.030 C 
BRANCH   8  13
ATOM     13  C   UNL     1      -2.853  -1.417   0.845  1.00  0.00     0.254 C 
ATOM     14  O   UNL     1      -2.548  -2.062   1.848  1.00  0.00    -0.269 OA
BRANCH  13  15
ATOM     15  C   UNL     1      -1.776  -0.604   0.251  1.00  0.00     0.042 A 
ATOM     16  C   UNL     1       1.731   1.827  -0.214  1.00  0.00     0.047 C 
ATOM     17  C   UNL     1       0.487   0.993  -0.152  1.00  0.00    -0.015 A 
ATOM     18  C   UNL     1      -0.784   1.579  -0.088  1.00  0.00     0.007 A 
ATOM     19  C   UNL     1       0.597  -0.399  -0.070  1.00  0.00     0.126 A 
ATOM     20  C   UNL     1      -1.916   0.783   0.122  1.00  0.00     0.014 A 
ATOM     21  C   UNL     1      -0.518  -1.199   0.134  1.00  0.00     0.053 A 
ATOM     22  F   UNL     1       1.806  -0.976  -0.116  1.00  0.00    -0.207 F 
ENDBRANCH  13  15
ENDBRANCH   8  13
BRANCH  11  23
ATOM     23  C   UNL     1      -5.303  -2.749  -2.401  1.00  0.00     0.227 C 
ATOM     24  O   UNL     1      -5.075  -2.547  -3.600  1.00  0.00    -0.275 OA
ATOM     25  N   UNL     1      -4.879  -3.905  -1.800  1.00  0.00    -0.338 N 
ATOM     26  C   UNL     1      -5.608  -4.771  -0.875  1.00  0.00     0.148 C 
ATOM     27  C   UNL     1      -3.612  -4.492  -2.222  1.00  0.00     0.148 C 
ATOM     28  C   UNL     1      -4.725  -5.096   0.340  1.00  0.00     0.181 C 
ATOM     29  C   UNL     1      -2.776  -4.786  -0.971  1.00  0.00     0.181 C 
ATOM     30  O   UNL     1      -3.479  -5.677  -0.084  1.00  0.00    -0.378 OA
ENDBRANCH  11  23
ENDBRANCH   4   7
ENDBRANCH   2   3
ENDBRANCH   1   2
BRANCH   1  31
ATOM     31  C   UNL     1      -9.303   2.043   1.701  1.00  0.00     0.118 C 
BRANCH  31  32
ATOM     32  N   UNL     1      -8.693   3.009   2.624  1.00  0.00    -0.352 N 
ATOM     33  C   UNL     1      -9.325   4.045   3.274  1.00  0.00     0.251 C 
ATOM     34  H   UNL     1      -7.730   2.905   2.796  1.00  0.00     0.163 HD
ATOM     35  O   UNL     1      -8.721   4.930   3.846  1.00  0.00    -0.269 OA
BRANCH  33  36
ATOM     36  C   UNL     1     -10.783   3.962   3.310  1.00  0.00     0.039 A 
ATOM     37  C   UNL     1     -11.618   5.059   3.106  1.00  0.00     0.014 A 
ATOM     38  C   UNL     1     -11.279   2.682   3.526  1.00  0.00     0.014 A 
ATOM     39  C   UNL     1     -12.986   4.837   3.158  1.00  0.00     0.010 A 
ATOM     40  C   UNL     1     -12.562   2.426   3.209  1.00  0.00     0.010 A 
ATOM     41  C   UNL     1     -13.425   3.511   3.229  1.00  0.00    -0.014 A 
BRANCH  41  42
ATOM     42  C   UNL     1     -14.779   3.076   3.469  1.00  0.00     0.031 A 
ATOM     43  C   UNL     1     -15.761   3.313   2.425  1.00  0.00     0.074 A 
ATOM     44  C   UNL     1     -14.931   2.314   4.578  1.00  0.00     0.049 A 
ATOM     45  N   UNL     1     -16.997   3.567   2.636  1.00  0.00    -0.248 NA
ATOM     46  C   UNL     1     -15.391   3.350   1.012  1.00  0.00     0.031 C 
ATOM     47  C   UNL     1     -16.003   1.445   5.017  1.00  0.00     0.029 A 
ATOM     48  N   UNL     1     -14.020   2.265   5.646  1.00  0.00    -0.354 N 
ATOM     49  C   UNL     1     -17.633   3.361   1.433  1.00  0.00     0.074 A 
ATOM     50  C   UNL     1     -16.593   3.449   0.436  1.00  0.00     0.031 C 
ATOM     51  C   UNL     1     -15.862   1.229   6.343  1.00  0.00     0.029 A 
ATOM     52  C   UNL     1     -14.742   2.036   6.815  1.00  0.00     0.049 A 
ATOM     53  H   UNL     1     -13.044   2.373   5.579  1.00  0.00     0.167 HD
ATOM     54  C   UNL     1     -18.908   2.877   1.458  1.00  0.00     0.037 A 
ATOM     55  C   UNL     1     -14.793   3.066   7.712  1.00  0.00     0.037 A 
ATOM     56  C   UNL     1     -19.300   2.624   2.853  1.00  0.00     0.049 A 
ATOM     57  C   UNL     1     -16.164   3.691   7.690  1.00  0.00     0.074 A 
ATOM     58  C   UNL     1     -19.293   1.463   3.612  1.00  0.00     0.029 A 
ATOM     59  N   UNL     1     -19.350   3.679   3.761  1.00  0.00    -0.354 N 
ATOM     60  N   UNL     1     -16.970   3.647   6.662  1.00  0.00    -0.248 NA
ATOM     61  C   UNL     1     -16.772   4.311   8.860  1.00  0.00     0.031 C 
ATOM     62  C   UNL     1     -19.259   1.834   4.984  1.00  0.00     0.029 A 
ATOM     63  C   UNL     1     -19.243   3.217   5.062  1.00  0.00     0.049 A 
ATOM     64  H   UNL     1     -19.448   4.627   3.511  1.00  0.00     0.167 HD
ATOM     65  C   UNL     1     -18.192   4.140   7.023  1.00  0.00     0.074 A 
ATOM     66  C   UNL     1     -18.013   4.555   8.405  1.00  0.00     0.031 C 
ATOM     67  C   UNL     1     -19.270   4.149   6.183  1.00  0.00     0.037 A 
BRANCH  54  68
ATOM     68  C   UNL     1     -19.648   2.304   0.267  1.00  0.00     0.057 A 
ATOM     69  C   UNL     1     -20.717   1.404   0.455  1.00  0.00     0.134 A 
ATOM     70  C   UNL     1     -19.375   2.594  -1.083  1.00  0.00     0.134 A 
ATOM     71  F   UNL     1     -21.164   1.085   1.676  1.00  0.00    -0.206 F 
ATOM     72  C   UNL     1     -21.401   0.791  -0.604  1.00  0.00     0.040 A 
ATOM     73  C   UNL     1     -20.023   1.956  -2.153  1.00  0.00     0.040 A 
ATOM     74  F   UNL     1     -18.516   3.554  -1.442  1.00  0.00    -0.206 F 
ATOM     75  C   UNL     1     -21.041   1.048  -1.916  1.00  0.00     0.006 A 
ENDBRANCH  54  68
BRANCH  55  76
ATOM     76  C   UNL     1     -13.467   3.772   7.806  1.00  0.00     0.057 A 
ATOM     77  C   UNL     1     -12.379   3.009   8.283  1.00  0.00     0.134 A 
ATOM     78  C   UNL     1     -13.148   4.883   7.015  1.00  0.00     0.134 A 
ATOM     79  F   UNL     1     -12.602   1.946   9.072  1.00  0.00    -0.206 F 
ATOM     80  C   UNL     1     -11.067   3.217   7.840  1.00  0.00     0.040 A 
ATOM     81  C   UNL     1     -11.829   5.119   6.592  1.00  0.00     0.040 A 
ATOM     82  F   UNL     1     -14.111   5.678   6.529  1.00  0.00    -0.206 F 
ATOM     83  C   UNL     1     -10.797   4.250   6.953  1.00  0.00     0.006 A 
ENDBRANCH  55  76
BRANCH  67  84
ATOM     84  C   UNL     1     -20.507   4.985   6.386  1.00  0.00     0.057 A 
ATOM     85  C   UNL     1     -20.527   6.179   7.120  1.00  0.00     0.134 A 
ATOM     86  C   UNL     1     -21.697   4.694   5.681  1.00  0.00     0.134 A 
ATOM     87  F   UNL     1     -19.433   6.651   7.733  1.00  0.00    -0.206 F 
ATOM     88  C   UNL     1     -21.665   6.985   7.206  1.00  0.00     0.040 A 
ATOM     89  C   UNL     1     -22.810   5.534   5.694  1.00  0.00     0.040 A 
ATOM     90  F   UNL     1     -21.823   3.599   4.916  1.00  0.00    -0.206 F 
ATOM     91  C   UNL     1     -22.806   6.674   6.478  1.00  0.00     0.006 A 
ENDBRANCH  67  84
ENDBRANCH  41  42
ENDBRANCH  33  36
ENDBRANCH  31  32
ENDBRANCH   1  31
TORSDOF 13
