REMARK SMILES Cc1ccc(-c2cc(C(=O)NCCCNC(=O)c3ccc(-c4c5nc(c(-c6c(F)cccc6F)c6ccc([nH]6)c(-c6c(F)cccc6F)c6nc(c(-c7c(F)cccc7F)c7ccc4[nH]7)C=C6)C=C5)cc3)c3cc(C)ccc3n2)c(C)c1
REMARK SMILES IDX 13 1 12 2 11 3 9 4 10 5 8 7 6 8 7 9 79 10 78 11 72 12 77 13
REMARK SMILES IDX 73 14 76 15 74 16 75 17 5 18 1 19 2 20 3 21 82 22 4 23 80 24
REMARK SMILES IDX 81 25 14 26 15 27 16 28 17 30 18 31 19 32 71 33 20 34 70 35
REMARK SMILES IDX 21 36 22 37 23 38 64 39 24 40 69 41 63 42 65 43 25 44 68 45
REMARK SMILES IDX 62 46 61 47 26 49 52 50 35 51 51 52 36 53 39 54 50 55 66 56
REMARK SMILES IDX 37 57 38 58 49 60 67 61 40 62 27 63 28 64 33 65 29 66 30 67
REMARK SMILES IDX 32 68 34 69 31 70 53 71 54 72 59 73 55 74 56 75 58 76 60 77
REMARK SMILES IDX 57 78 41 79 42 80 47 81 43 82 44 83 46 84 48 85 45 86
REMARK H PARENT 11 6 15 29 65 48 39 59
REMARK Flexibility Score: inf
ROOT
ATOM      1  C   UNL     1      -6.251  -7.010   0.718  1.00  0.00     0.042 C 
ENDROOT
BRANCH   1   2
ATOM      2  C   UNL     1      -6.080  -5.505   0.793  1.00  0.00     0.118 C 
BRANCH   2   3
ATOM      3  N   UNL     1      -5.362  -4.995   1.952  1.00  0.00    -0.352 N 
ATOM      4  C   UNL     1      -4.629  -3.838   2.122  1.00  0.00     0.252 C 
ATOM      5  O   UNL     1      -4.187  -3.599   3.246  1.00  0.00    -0.269 OA
ATOM      6  H   UNL     1      -5.408  -5.572   2.748  1.00  0.00     0.163 HD
BRANCH   4   7
ATOM      7  C   UNL     1      -4.258  -2.932   0.997  1.00  0.00     0.051 A 
ATOM      8  C   UNL     1      -2.481  -1.741  -0.073  1.00  0.00     0.072 A 
ATOM      9  C   UNL     1      -2.935  -2.475   1.008  1.00  0.00     0.043 A 
ATOM     10  N   UNL     1      -3.226  -1.571  -1.189  1.00  0.00    -0.248 NA
ATOM     11  C   UNL     1      -4.501  -1.986  -1.190  1.00  0.00     0.072 A 
ATOM     12  C   UNL     1      -5.111  -2.559  -0.064  1.00  0.00     0.013 A 
ATOM     13  C   UNL     1      -5.245  -1.859  -2.355  1.00  0.00     0.029 A 
ATOM     14  C   UNL     1      -6.511  -2.741  -0.083  1.00  0.00     0.014 A 
ATOM     15  C   UNL     1      -6.582  -2.259  -2.424  1.00  0.00     0.005 A 
ATOM     16  C   UNL     1      -7.237  -2.684  -1.274  1.00  0.00    -0.050 A 
ATOM     17  C   UNL     1      -8.634  -3.227  -1.324  1.00  0.00     0.044 C 
BRANCH   8  18
ATOM     18  C   UNL     1      -1.199  -1.023  -0.049  1.00  0.00     0.003 A 
ATOM     19  C   UNL     1       2.605   1.058   0.010  1.00  0.00     0.044 C 
ATOM     20  C   UNL     1       1.298   0.323  -0.004  1.00  0.00    -0.051 A 
ATOM     21  C   UNL     1       1.246  -1.072  -0.038  1.00  0.00     0.004 A 
ATOM     22  C   UNL     1       0.100   1.043   0.011  1.00  0.00     0.007 A 
ATOM     23  C   UNL     1       0.014  -1.735  -0.061  1.00  0.00     0.011 A 
ATOM     24  C   UNL     1      -1.146   0.391   0.003  1.00  0.00    -0.041 A 
ATOM     25  C   UNL     1      -2.383   1.253   0.009  1.00  0.00     0.045 C 
ENDBRANCH   8  18
ENDBRANCH   4   7
ENDBRANCH   2   3
ENDBRANCH   1   2
BRANCH   1  26
ATOM     26  C   UNL     1      -6.988  -7.628   1.897  1.00  0.00     0.118 C 
BRANCH  26  27
ATOM     27  N   UNL     1      -8.346  -7.129   2.101  1.00  0.00    -0.352 N 
ATOM     28  C   UNL     1      -9.591  -7.620   1.782  1.00  0.00     0.251 C 
ATOM     29  H   UNL     1      -8.377  -6.261   2.563  1.00  0.00     0.163 HD
ATOM     30  O   UNL     1     -10.577  -6.920   2.012  1.00  0.00    -0.269 OA
BRANCH  28  31
ATOM     31  C   UNL     1      -9.778  -8.932   1.120  1.00  0.00     0.039 A 
ATOM     32  C   UNL     1     -10.821  -9.083   0.196  1.00  0.00     0.014 A 
ATOM     33  C   UNL     1      -8.963 -10.024   1.398  1.00  0.00     0.014 A 
ATOM     34  C   UNL     1     -10.961 -10.277  -0.520  1.00  0.00     0.010 A 
ATOM     35  C   UNL     1      -9.012 -11.156   0.594  1.00  0.00     0.010 A 
ATOM     36  C   UNL     1     -10.013 -11.301  -0.376  1.00  0.00    -0.014 A 
BRANCH  36  37
ATOM     37  C   UNL     1     -10.037 -12.532  -1.212  1.00  0.00     0.031 A 
ATOM     38  C   UNL     1     -10.085 -13.889  -0.558  1.00  0.00     0.074 A 
ATOM     39  C   UNL     1      -9.902 -12.438  -2.550  1.00  0.00     0.049 A 
ATOM     40  N   UNL     1      -9.944 -15.075  -1.097  1.00  0.00    -0.248 NA
ATOM     41  C   UNL     1     -10.265 -13.914   0.902  1.00  0.00     0.031 C 
ATOM     42  C   UNL     1      -9.777 -11.191  -3.306  1.00  0.00     0.029 A 
ATOM     43  N   UNL     1      -9.824 -13.415  -3.511  1.00  0.00    -0.354 N 
ATOM     44  C   UNL     1      -9.983 -15.976  -0.040  1.00  0.00     0.074 A 
ATOM     45  C   UNL     1     -10.094 -15.198   1.175  1.00  0.00     0.031 C 
ATOM     46  C   UNL     1      -9.664 -11.476  -4.613  1.00  0.00     0.029 A 
ATOM     47  C   UNL     1      -9.662 -12.924  -4.784  1.00  0.00     0.049 A 
ATOM     48  H   UNL     1      -9.880 -14.377  -3.308  1.00  0.00     0.167 HD
ATOM     49  C   UNL     1      -9.961 -17.330  -0.075  1.00  0.00     0.037 A 
ATOM     50  C   UNL     1      -9.513 -13.567  -5.958  1.00  0.00     0.037 A 
ATOM     51  C   UNL     1      -9.901 -18.104  -1.286  1.00  0.00     0.049 A 
ATOM     52  C   UNL     1      -9.522 -15.069  -5.979  1.00  0.00     0.074 A 
ATOM     53  C   UNL     1      -9.947 -19.479  -1.435  1.00  0.00     0.029 A 
ATOM     54  N   UNL     1      -9.790 -17.566  -2.559  1.00  0.00    -0.354 N 
ATOM     55  N   UNL     1      -9.619 -15.908  -4.976  1.00  0.00    -0.248 NA
ATOM     56  C   UNL     1      -9.405 -15.714  -7.294  1.00  0.00     0.031 C 
ATOM     57  C   UNL     1      -9.829 -19.774  -2.798  1.00  0.00     0.029 A 
ATOM     58  C   UNL     1      -9.752 -18.582  -3.500  1.00  0.00     0.049 A 
ATOM     59  H   UNL     1      -9.744 -16.605  -2.765  1.00  0.00     0.167 HD
ATOM     60  C   UNL     1      -9.596 -17.178  -5.538  1.00  0.00     0.074 A 
ATOM     61  C   UNL     1      -9.492 -16.997  -6.972  1.00  0.00     0.031 C 
ATOM     62  C   UNL     1      -9.652 -18.384  -4.923  1.00  0.00     0.037 A 
BRANCH  49  63
ATOM     63  C   UNL     1     -10.020 -18.054   1.241  1.00  0.00     0.057 A 
ATOM     64  C   UNL     1     -11.173 -18.046   2.037  1.00  0.00     0.134 A 
ATOM     65  C   UNL     1      -8.915 -18.771   1.715  1.00  0.00     0.134 A 
ATOM     66  F   UNL     1     -12.263 -17.367   1.648  1.00  0.00    -0.206 F 
ATOM     67  C   UNL     1     -11.213 -18.692   3.274  1.00  0.00     0.040 A 
ATOM     68  C   UNL     1      -8.952 -19.447   2.937  1.00  0.00     0.040 A 
ATOM     69  F   UNL     1      -7.780 -18.827   1.002  1.00  0.00    -0.206 F 
ATOM     70  C   UNL     1     -10.101 -19.399   3.725  1.00  0.00     0.006 A 
ENDBRANCH  49  63
BRANCH  50  71
ATOM     71  C   UNL     1      -9.370 -12.789  -7.214  1.00  0.00     0.057 A 
ATOM     72  C   UNL     1     -10.409 -12.739  -8.151  1.00  0.00     0.134 A 
ATOM     73  C   UNL     1      -8.204 -12.071  -7.504  1.00  0.00     0.134 A 
ATOM     74  F   UNL     1     -11.544 -13.421  -7.937  1.00  0.00    -0.206 F 
ATOM     75  C   UNL     1     -10.288 -12.017  -9.339  1.00  0.00     0.040 A 
ATOM     76  C   UNL     1      -8.079 -11.324  -8.677  1.00  0.00     0.040 A 
ATOM     77  F   UNL     1      -7.178 -12.070  -6.641  1.00  0.00    -0.206 F 
ATOM     78  C   UNL     1      -9.122 -11.301  -9.601  1.00  0.00     0.006 A 
ENDBRANCH  50  71
BRANCH  62  79
ATOM     79  C   UNL     1      -9.629 -19.601  -5.800  1.00  0.00     0.057 A 
ATOM     80  C   UNL     1      -8.460 -20.023  -6.445  1.00  0.00     0.134 A 
ATOM     81  C   UNL     1     -10.781 -20.380  -5.967  1.00  0.00     0.134 A 
ATOM     82  F   UNL     1      -7.328 -19.312  -6.334  1.00  0.00    -0.206 F 
ATOM     83  C   UNL     1      -8.443 -21.168  -7.243  1.00  0.00     0.040 A 
ATOM     84  C   UNL     1     -10.769 -21.540  -6.743  1.00  0.00     0.040 A 
ATOM     85  F   UNL     1     -11.931 -20.034  -5.370  1.00  0.00    -0.206 F 
ATOM     86  C   UNL     1      -9.598 -21.933  -7.387  1.00  0.00     0.006 A 
ENDBRANCH  62  79
ENDBRANCH  36  37
ENDBRANCH  28  31
ENDBRANCH  26  27
ENDBRANCH   1  26
TORSDOF 11
