REMARK SMILES CN(CC(=O)NCCCNC(=O)c1ccc(-c2c3nc(c(-c4c(F)cccc4F)c4ccc([nH]4)c(-c4c(F)cccc4F)c4nc(c(-c5c(F)cccc5F)c5ccc2[nH]5)C=C4)C=C3)cc1)c1nc2cc(N)ccc2[nH]1
REMARK SMILES IDX 7 1 6 2 4 3 5 4 3 6 2 7 1 8 67 9 68 10 76 11 69 12 75 13
REMARK SMILES IDX 70 15 74 16 71 17 73 18 72 19 8 22 9 23 10 24 11 25 12 27
REMARK SMILES IDX 13 28 14 29 66 30 15 31 65 32 16 33 17 34 18 35 59 36 19 37
REMARK SMILES IDX 64 38 58 39 60 40 20 41 63 42 57 43 56 44 21 46 47 47 30 48
REMARK SMILES IDX 46 49 31 50 34 51 45 52 61 53 32 54 33 55 44 57 62 58 35 59
REMARK SMILES IDX 22 60 23 61 28 62 24 63 25 64 27 65 29 66 26 67 48 68 49 69
REMARK SMILES IDX 54 70 50 71 51 72 53 73 55 74 52 75 36 76 37 77 42 78 38 79
REMARK SMILES IDX 39 80 41 81 43 82 40 83
REMARK H PARENT 6 5 76 14 72 20 72 21 10 26 60 45 34 56
REMARK Flexibility Score: inf
ROOT
ATOM      1  C   UNL     1      -2.077  -0.077   0.178  1.00  0.00     0.117 C 
ENDROOT
BRANCH   1   2
ATOM      2  N   UNL     1      -2.419   0.692  -0.997  1.00  0.00    -0.354 N 
ATOM      3  C   UNL     1      -1.617   1.035  -2.053  1.00  0.00     0.239 C 
ATOM      4  O   UNL     1      -2.160   1.516  -3.052  1.00  0.00    -0.273 OA
ATOM      5  H   UNL     1      -3.349   1.011  -1.044  1.00  0.00     0.163 HD
BRANCH   3   6
ATOM      6  C   UNL     1      -0.120   0.694  -2.023  1.00  0.00     0.219 C 
BRANCH   6   7
ATOM      7  N   UNL     1       0.642   1.347  -0.938  1.00  0.00    -0.336 N 
ATOM      8  C   UNL     1       1.568   0.545  -0.166  1.00  0.00     0.147 C 
BRANCH   7   9
ATOM      9  C   UNL     1       0.665   2.704  -0.931  1.00  0.00     0.204 A 
ATOM     10  N   UNL     1      -0.244   3.509  -1.427  1.00  0.00    -0.213 NA
ATOM     11  N   UNL     1       1.717   3.430  -0.425  1.00  0.00    -0.324 N 
ATOM     12  C   UNL     1       0.246   4.779  -1.285  1.00  0.00     0.093 A 
ATOM     13  C   UNL     1       1.494   4.760  -0.679  1.00  0.00     0.067 A 
ATOM     14  H   UNL     1       2.500   3.058   0.042  1.00  0.00     0.170 HD
ATOM     15  C   UNL     1      -0.319   6.004  -1.667  1.00  0.00     0.056 A 
ATOM     16  C   UNL     1       2.243   5.913  -0.446  1.00  0.00     0.030 A 
ATOM     17  C   UNL     1       0.412   7.184  -1.478  1.00  0.00     0.034 A 
ATOM     18  C   UNL     1       1.665   7.125  -0.855  1.00  0.00     0.028 A 
BRANCH  17  19
ATOM     19  N   UNL     1      -0.155   8.410  -1.800  1.00  0.00    -0.399 N 
ATOM     20  H   UNL     1      -1.036   8.445  -2.237  1.00  0.00     0.156 HD
ATOM     21  H   UNL     1       0.324   9.244  -1.589  1.00  0.00     0.156 HD
ENDBRANCH  17  19
ENDBRANCH   7   9
ENDBRANCH   6   7
ENDBRANCH   3   6
ENDBRANCH   1   2
BRANCH   1  22
ATOM     22  C   UNL     1      -1.917   0.769   1.436  1.00  0.00     0.042 C 
BRANCH  22  23
ATOM     23  C   UNL     1      -3.176   1.514   1.872  1.00  0.00     0.118 C 
BRANCH  23  24
ATOM     24  N   UNL     1      -4.296   0.625   2.144  1.00  0.00    -0.352 N 
ATOM     25  C   UNL     1      -5.048   0.424   3.272  1.00  0.00     0.251 C 
ATOM     26  H   UNL     1      -4.562   0.066   1.378  1.00  0.00     0.163 HD
ATOM     27  O   UNL     1      -5.840  -0.517   3.294  1.00  0.00    -0.269 OA
BRANCH  25  28
ATOM     28  C   UNL     1      -4.927   1.295   4.465  1.00  0.00     0.039 A 
ATOM     29  C   UNL     1      -5.093   0.712   5.727  1.00  0.00     0.014 A 
ATOM     30  C   UNL     1      -4.738   2.676   4.367  1.00  0.00     0.014 A 
ATOM     31  C   UNL     1      -5.027   1.498   6.881  1.00  0.00     0.010 A 
ATOM     32  C   UNL     1      -4.599   3.449   5.521  1.00  0.00     0.010 A 
ATOM     33  C   UNL     1      -4.754   2.871   6.790  1.00  0.00    -0.014 A 
BRANCH  33  34
ATOM     34  C   UNL     1      -4.649   3.710   8.012  1.00  0.00     0.031 A 
ATOM     35  C   UNL     1      -5.654   4.798   8.280  1.00  0.00     0.074 A 
ATOM     36  C   UNL     1      -3.627   3.516   8.868  1.00  0.00     0.049 A 
ATOM     37  N   UNL     1      -5.707   5.648   9.276  1.00  0.00    -0.248 NA
ATOM     38  C   UNL     1      -6.728   4.968   7.290  1.00  0.00     0.031 C 
ATOM     39  C   UNL     1      -2.564   2.523   8.706  1.00  0.00     0.029 A 
ATOM     40  N   UNL     1      -3.314   4.149  10.045  1.00  0.00    -0.354 N 
ATOM     41  C   UNL     1      -6.807   6.458   9.024  1.00  0.00     0.074 A 
ATOM     42  C   UNL     1      -7.365   6.030   7.760  1.00  0.00     0.031 C 
ATOM     43  C   UNL     1      -1.731   2.596   9.756  1.00  0.00     0.029 A 
ATOM     44  C   UNL     1      -2.181   3.659  10.649  1.00  0.00     0.049 A 
ATOM     45  H   UNL     1      -3.850   4.884  10.421  1.00  0.00     0.167 HD
ATOM     46  C   UNL     1      -7.321   7.453   9.787  1.00  0.00     0.037 A 
ATOM     47  C   UNL     1      -1.573   4.026  11.793  1.00  0.00     0.037 A 
ATOM     48  C   UNL     1      -6.784   7.862  11.059  1.00  0.00     0.049 A 
ATOM     49  C   UNL     1      -2.162   5.133  12.620  1.00  0.00     0.074 A 
ATOM     50  C   UNL     1      -7.269   8.821  11.932  1.00  0.00     0.029 A 
ATOM     51  N   UNL     1      -5.641   7.335  11.639  1.00  0.00    -0.354 N 
ATOM     52  N   UNL     1      -3.239   5.847  12.400  1.00  0.00    -0.248 NA
ATOM     53  C   UNL     1      -1.454   5.481  13.861  1.00  0.00     0.031 C 
ATOM     54  C   UNL     1      -6.399   8.899  13.024  1.00  0.00     0.029 A 
ATOM     55  C   UNL     1      -5.394   7.962  12.850  1.00  0.00     0.049 A 
ATOM     56  H   UNL     1      -5.086   6.622  11.248  1.00  0.00     0.167 HD
ATOM     57  C   UNL     1      -3.350   6.710  13.482  1.00  0.00     0.074 A 
ATOM     58  C   UNL     1      -2.241   6.420  14.366  1.00  0.00     0.031 C 
ATOM     59  C   UNL     1      -4.288   7.660  13.721  1.00  0.00     0.037 A 
BRANCH  46  60
ATOM     60  C   UNL     1      -8.535   8.165   9.267  1.00  0.00     0.057 A 
ATOM     61  C   UNL     1      -9.793   7.548   9.235  1.00  0.00     0.134 A 
ATOM     62  C   UNL     1      -8.455   9.492   8.826  1.00  0.00     0.134 A 
ATOM     63  F   UNL     1      -9.936   6.275   9.634  1.00  0.00    -0.206 F 
ATOM     64  C   UNL     1     -10.922   8.217   8.759  1.00  0.00     0.040 A 
ATOM     65  C   UNL     1      -9.582  10.179   8.371  1.00  0.00     0.040 A 
ATOM     66  F   UNL     1      -7.283  10.144   8.837  1.00  0.00    -0.206 F 
ATOM     67  C   UNL     1     -10.819   9.539   8.331  1.00  0.00     0.006 A 
ENDBRANCH  46  60
BRANCH  47  68
ATOM     68  C   UNL     1      -0.347   3.320  12.240  1.00  0.00     0.057 A 
ATOM     69  C   UNL     1      -0.374   2.462  13.346  1.00  0.00     0.134 A 
ATOM     70  C   UNL     1       0.878   3.491  11.585  1.00  0.00     0.134 A 
ATOM     71  F   UNL     1      -1.514   2.275  14.026  1.00  0.00    -0.206 F 
ATOM     72  C   UNL     1       0.776   1.813  13.796  1.00  0.00     0.040 A 
ATOM     73  C   UNL     1       2.031   2.831  12.010  1.00  0.00     0.040 A 
ATOM     74  F   UNL     1       0.967   4.295  10.515  1.00  0.00    -0.206 F 
ATOM     75  C   UNL     1       1.984   1.994  13.124  1.00  0.00     0.006 A 
ENDBRANCH  47  68
BRANCH  59  76
ATOM     76  C   UNL     1      -4.167   8.433  15.000  1.00  0.00     0.057 A 
ATOM     77  C   UNL     1      -3.183   9.413  15.178  1.00  0.00     0.134 A 
ATOM     78  C   UNL     1      -5.064   8.215  16.053  1.00  0.00     0.134 A 
ATOM     79  F   UNL     1      -2.285   9.659  14.212  1.00  0.00    -0.206 F 
ATOM     80  C   UNL     1      -3.081  10.135  16.369  1.00  0.00     0.040 A 
ATOM     81  C   UNL     1      -4.987   8.947  17.239  1.00  0.00     0.040 A 
ATOM     82  F   UNL     1      -6.034   7.295  15.943  1.00  0.00    -0.206 F 
ATOM     83  C   UNL     1      -3.989   9.906  17.401  1.00  0.00     0.006 A 
ENDBRANCH  59  76
ENDBRANCH  33  34
ENDBRANCH  25  28
ENDBRANCH  23  24
ENDBRANCH  22  23
ENDBRANCH   1  22
TORSDOF 13
