REMARK SMILES Cn1ccc(-c2n[nH]c(=O)n2-c2ccc(C(=O)NCCCNC(=O)c3ccc(-c4c5nc(c(-c6c(F)cccc6F)c6ccc([nH]6)c(-c6c(F)cccc6F)c6nc(c(-c7c(F)cccc7F)c7ccc4[nH]7)C=C6)C=C5)cc3)cc2)n1
REMARK SMILES IDX 20 1 19 2 18 3 16 4 17 5 15 7 12 8 13 9 80 10 14 11 79 12
REMARK SMILES IDX 11 13 6 14 7 15 8 16 9 17 10 19 5 20 1 21 2 22 3 23 81 24
REMARK SMILES IDX 4 25 21 26 22 27 23 28 24 30 25 31 26 32 78 33 27 34 77 35
REMARK SMILES IDX 28 36 29 37 30 38 71 39 31 40 76 41 70 42 72 43 32 44 75 45
REMARK SMILES IDX 69 46 68 47 33 49 59 50 42 51 58 52 43 53 46 54 57 55 73 56
REMARK SMILES IDX 44 57 45 58 56 60 74 61 47 62 34 63 35 64 40 65 36 66 37 67
REMARK SMILES IDX 39 68 41 69 38 70 60 71 61 72 66 73 62 74 63 75 65 76 67 77
REMARK SMILES IDX 64 78 48 79 49 80 54 81 50 82 51 83 53 84 55 85 52 86
REMARK H PARENT 18 6 8 18 22 29 72 48 46 59
REMARK Flexibility Score: inf
ROOT
ATOM      1  C   UNL     1       0.987   0.309   6.967  1.00  0.00     0.042 C 
ENDROOT
BRANCH   1   2
ATOM      2  C   UNL     1      -0.209   0.969   6.265  1.00  0.00     0.118 C 
BRANCH   2   3
ATOM      3  N   UNL     1      -0.217   2.413   6.456  1.00  0.00    -0.352 N 
ATOM      4  C   UNL     1       0.264   3.451   5.693  1.00  0.00     0.251 C 
ATOM      5  O   UNL     1       0.053   4.596   6.093  1.00  0.00    -0.269 OA
ATOM      6  H   UNL     1      -0.649   2.701   7.292  1.00  0.00     0.163 HD
BRANCH   4   7
ATOM      7  C   UNL     1       0.973   3.251   4.396  1.00  0.00     0.039 A 
ATOM      8  C   UNL     1       2.116   2.932   1.843  1.00  0.00     0.052 A 
ATOM      9  C   UNL     1       1.577   4.164   2.213  1.00  0.00     0.028 A 
ATOM     10  C   UNL     1       2.165   1.898   2.778  1.00  0.00     0.028 A 
ATOM     11  C   UNL     1       0.979   4.311   3.473  1.00  0.00     0.016 A 
ATOM     12  C   UNL     1       1.645   2.079   4.055  1.00  0.00     0.016 A 
BRANCH   8  13
ATOM     13  N   UNL     1       2.682   2.725   0.580  1.00  0.00    -0.242 N 
ATOM     14  C   UNL     1       2.563   1.629  -0.224  1.00  0.00     0.189 A 
ATOM     15  N   UNL     1       3.487   1.517  -1.140  1.00  0.00    -0.150 NA
ATOM     16  N   UNL     1       4.260   2.634  -0.953  1.00  0.00    -0.226 N 
ATOM     17  C   UNL     1       3.783   3.397   0.111  1.00  0.00     0.348 A 
ATOM     18  H   UNL     1       5.047   2.865  -1.498  1.00  0.00     0.195 HD
ATOM     19  O   UNL     1       4.333   4.399   0.558  1.00  0.00    -0.246 OA
BRANCH  14  20
ATOM     20  C   UNL     1       1.466   0.680  -0.121  1.00  0.00     0.130 A 
ATOM     21  C   UNL     1      -1.972   0.019   0.008  1.00  0.00     0.173 C 
ATOM     22  N   UNL     1      -0.529  -0.051   0.001  1.00  0.00    -0.275 N 
ATOM     23  C   UNL     1       0.235  -1.173  -0.105  1.00  0.00     0.109 A 
ATOM     24  N   UNL     1       0.193   1.082   0.060  1.00  0.00    -0.170 NA
ATOM     25  C   UNL     1       1.532  -0.734  -0.224  1.00  0.00     0.054 A 
ENDBRANCH  14  20
ENDBRANCH   8  13
ENDBRANCH   4   7
ENDBRANCH   2   3
ENDBRANCH   1   2
BRANCH   1  26
ATOM     26  C   UNL     1       0.705   0.038   8.433  1.00  0.00     0.118 C 
BRANCH  26  27
ATOM     27  N   UNL     1      -0.270  -1.042   8.613  1.00  0.00    -0.352 N 
ATOM     28  C   UNL     1      -0.810  -1.529   9.786  1.00  0.00     0.251 C 
ATOM     29  H   UNL     1      -0.580  -1.478   7.787  1.00  0.00     0.163 HD
ATOM     30  O   UNL     1      -1.332  -2.636   9.825  1.00  0.00    -0.269 OA
BRANCH  28  31
ATOM     31  C   UNL     1      -0.755  -0.688  10.991  1.00  0.00     0.039 A 
ATOM     32  C   UNL     1      -0.489  -1.227  12.254  1.00  0.00     0.014 A 
ATOM     33  C   UNL     1      -0.941   0.679  10.823  1.00  0.00     0.014 A 
ATOM     34  C   UNL     1      -0.336  -0.360  13.333  1.00  0.00     0.010 A 
ATOM     35  C   UNL     1      -0.594   1.532  11.830  1.00  0.00     0.010 A 
ATOM     36  C   UNL     1      -0.372   1.022  13.104  1.00  0.00    -0.014 A 
BRANCH  36  37
ATOM     37  C   UNL     1      -0.038   1.985  14.148  1.00  0.00     0.031 A 
ATOM     38  C   UNL     1       1.326   1.798  14.718  1.00  0.00     0.074 A 
ATOM     39  C   UNL     1      -0.791   3.094  14.336  1.00  0.00     0.049 A 
ATOM     40  N   UNL     1       1.643   1.537  15.942  1.00  0.00    -0.248 NA
ATOM     41  C   UNL     1       2.470   1.735  13.787  1.00  0.00     0.031 C 
ATOM     42  C   UNL     1      -1.991   3.502  13.591  1.00  0.00     0.029 A 
ATOM     43  N   UNL     1      -0.567   4.175  15.134  1.00  0.00    -0.354 N 
ATOM     44  C   UNL     1       3.037   1.524  15.976  1.00  0.00     0.074 A 
ATOM     45  C   UNL     1       3.473   1.427  14.610  1.00  0.00     0.031 C 
ATOM     46  C   UNL     1      -2.226   4.818  13.784  1.00  0.00     0.029 A 
ATOM     47  C   UNL     1      -1.306   5.309  14.789  1.00  0.00     0.049 A 
ATOM     48  H   UNL     1       0.063   4.158  15.891  1.00  0.00     0.167 HD
ATOM     49  C   UNL     1       3.708   1.898  17.101  1.00  0.00     0.037 A 
ATOM     50  C   UNL     1      -1.126   6.567  15.268  1.00  0.00     0.037 A 
ATOM     51  C   UNL     1       2.837   1.866  18.251  1.00  0.00     0.049 A 
ATOM     52  C   UNL     1      -0.345   6.442  16.524  1.00  0.00     0.074 A 
ATOM     53  C   UNL     1       2.074   0.894  18.867  1.00  0.00     0.029 A 
ATOM     54  N   UNL     1       2.350   3.067  18.705  1.00  0.00    -0.354 N 
ATOM     55  N   UNL     1      -0.803   5.877  17.607  1.00  0.00    -0.248 NA
ATOM     56  C   UNL     1       1.103   6.507  16.414  1.00  0.00     0.031 C 
ATOM     57  C   UNL     1       0.875   1.561  19.259  1.00  0.00     0.029 A 
ATOM     58  C   UNL     1       1.010   2.914  18.944  1.00  0.00     0.049 A 
ATOM     59  H   UNL     1       2.871   3.892  18.835  1.00  0.00     0.167 HD
ATOM     60  C   UNL     1       0.260   5.123  18.082  1.00  0.00     0.074 A 
ATOM     61  C   UNL     1       1.429   5.608  17.347  1.00  0.00     0.031 C 
ATOM     62  C   UNL     1       0.045   3.978  18.794  1.00  0.00     0.037 A 
BRANCH  49  63
ATOM     63  C   UNL     1       4.995   2.694  17.095  1.00  0.00     0.057 A 
ATOM     64  C   UNL     1       5.639   2.950  18.320  1.00  0.00     0.134 A 
ATOM     65  C   UNL     1       5.455   3.470  16.010  1.00  0.00     0.134 A 
ATOM     66  F   UNL     1       5.289   2.287  19.433  1.00  0.00    -0.206 F 
ATOM     67  C   UNL     1       6.597   3.960  18.471  1.00  0.00     0.040 A 
ATOM     68  C   UNL     1       6.449   4.444  16.139  1.00  0.00     0.040 A 
ATOM     69  F   UNL     1       4.909   3.409  14.791  1.00  0.00    -0.206 F 
ATOM     70  C   UNL     1       6.998   4.718  17.380  1.00  0.00     0.006 A 
ENDBRANCH  49  63
BRANCH  50  71
ATOM     71  C   UNL     1      -1.255   7.862  14.551  1.00  0.00     0.057 A 
ATOM     72  C   UNL     1      -1.218   9.079  15.252  1.00  0.00     0.134 A 
ATOM     73  C   UNL     1      -1.118   7.958  13.155  1.00  0.00     0.134 A 
ATOM     74  F   UNL     1      -1.305   9.095  16.590  1.00  0.00    -0.206 F 
ATOM     75  C   UNL     1      -1.013  10.309  14.609  1.00  0.00     0.040 A 
ATOM     76  C   UNL     1      -0.921   9.180  12.500  1.00  0.00     0.040 A 
ATOM     77  F   UNL     1      -1.077   6.862  12.384  1.00  0.00    -0.206 F 
ATOM     78  C   UNL     1      -0.849  10.360  13.229  1.00  0.00     0.006 A 
ENDBRANCH  50  71
BRANCH  62  79
ATOM     79  C   UNL     1      -1.355   3.695  19.271  1.00  0.00     0.057 A 
ATOM     80  C   UNL     1      -2.457   3.471  18.430  1.00  0.00     0.134 A 
ATOM     81  C   UNL     1      -1.560   3.491  20.640  1.00  0.00     0.134 A 
ATOM     82  F   UNL     1      -2.341   3.544  17.099  1.00  0.00    -0.206 F 
ATOM     83  C   UNL     1      -3.710   3.103  18.932  1.00  0.00     0.040 A 
ATOM     84  C   UNL     1      -2.796   3.091  21.151  1.00  0.00     0.040 A 
ATOM     85  F   UNL     1      -0.542   3.633  21.502  1.00  0.00    -0.206 F 
ATOM     86  C   UNL     1      -3.880   2.905  20.298  1.00  0.00     0.006 A 
ENDBRANCH  62  79
ENDBRANCH  36  37
ENDBRANCH  28  31
ENDBRANCH  26  27
ENDBRANCH   1  26
TORSDOF 12
