REMARK SMILES NS(=O)(=O)c1ccc(-n2nc(C(=O)NCCCNC(=O)c3ccc(-c4c5nc(c(-c6c(F)cccc6F)c6ccc([nH]6)c(-c6c(F)cccc6F)c6nc(c(-c7c(F)cccc7F)c7ccc4[nH]7)C=C6)C=C5)cc3)cc2-c2cc3ccccc3s2)cc1
REMARK SMILES IDX 15 1 14 2 12 3 13 4 11 6 9 7 10 8 76 9 75 10 8 11 5 12 6 13
REMARK SMILES IDX 87 14 7 15 86 16 2 17 3 18 4 19 1 20 77 23 78 24 85 25 79 26
REMARK SMILES IDX 84 27 80 28 83 29 81 30 82 31 16 32 17 33 18 34 19 35 20 37
REMARK SMILES IDX 21 38 22 39 74 40 23 41 73 42 24 43 25 44 26 45 67 46 27 47
REMARK SMILES IDX 72 48 66 49 68 50 28 51 71 52 65 53 64 54 29 56 55 57 38 58
REMARK SMILES IDX 54 59 39 60 42 61 53 62 69 63 40 64 41 65 52 67 70 68 43 69
REMARK SMILES IDX 30 70 31 71 36 72 32 73 33 74 35 75 37 76 34 77 56 78 57 79
REMARK SMILES IDX 62 80 58 81 59 82 61 83 63 84 60 85 44 86 45 87 50 88 46 89
REMARK SMILES IDX 47 90 49 91 51 92 48 93
REMARK H PARENT 14 5 1 21 1 22 18 36 68 55 42 66
REMARK Flexibility Score: inf
ROOT
ATOM      1  C   UNL     1       2.258  -9.022   6.878  1.00  0.00     0.118 C 
ENDROOT
BRANCH   1   2
ATOM      2  N   UNL     1       1.715  -8.055   7.828  1.00  0.00    -0.351 N 
ATOM      3  C   UNL     1       1.495  -6.689   7.723  1.00  0.00     0.271 C 
ATOM      4  O   UNL     1       0.895  -6.151   8.655  1.00  0.00    -0.267 OA
ATOM      5  H   UNL     1       1.460  -8.441   8.696  1.00  0.00     0.163 HD
BRANCH   3   6
ATOM      6  C   UNL     1       1.919  -5.958   6.513  1.00  0.00     0.151 A 
ATOM      7  N   UNL     1       1.698  -4.694   4.784  1.00  0.00    -0.231 N 
ATOM      8  N   UNL     1       1.323  -4.825   6.090  1.00  0.00    -0.162 NA
ATOM      9  C   UNL     1       2.550  -5.711   4.417  1.00  0.00     0.085 A 
ATOM     10  C   UNL     1       2.937  -6.295   5.607  1.00  0.00     0.066 A 
BRANCH   7  11
ATOM     11  C   UNL     1       1.309  -3.552   4.043  1.00  0.00     0.065 A 
ATOM     12  C   UNL     1       0.705  -1.228   2.638  1.00  0.00     0.082 A 
ATOM     13  C   UNL     1       0.632  -2.468   1.994  1.00  0.00     0.024 A 
ATOM     14  C   UNL     1       1.065  -1.141   3.984  1.00  0.00     0.024 A 
ATOM     15  C   UNL     1       0.960  -3.633   2.692  1.00  0.00     0.030 A 
ATOM     16  C   UNL     1       1.335  -2.309   4.696  1.00  0.00     0.030 A 
BRANCH  12  17
ATOM     17  S   UNL     1       0.375   0.255   1.735  1.00  0.00     0.238 S 
ATOM     18  O   UNL     1       1.103   1.349   2.344  1.00  0.00    -0.207 OA
ATOM     19  O   UNL     1      -1.034   0.316   1.445  1.00  0.00    -0.207 OA
BRANCH  17  20
ATOM     20  N   UNL     1       1.150  -0.010   0.266  1.00  0.00    -0.225 NA
ATOM     21  H   UNL     1       1.019   0.801  -0.339  1.00  0.00     0.137 HD
ATOM     22  H   UNL     1       0.755  -0.836  -0.183  1.00  0.00     0.137 HD
ENDBRANCH  17  20
ENDBRANCH  12  17
ENDBRANCH   7  11
BRANCH   9  23
ATOM     23  C   UNL     1       2.913  -6.253   3.138  1.00  0.00     0.054 A 
ATOM     24  C   UNL     1       4.202  -6.618   2.770  1.00  0.00     0.031 A 
ATOM     25  S   UNL     1       1.851  -7.449   2.462  1.00  0.00    -0.134 S 
ATOM     26  C   UNL     1       4.294  -8.061   2.929  1.00  0.00    -0.007 A 
ATOM     27  C   UNL     1       3.024  -8.652   2.885  1.00  0.00     0.035 A 
ATOM     28  C   UNL     1       5.399  -8.885   3.244  1.00  0.00     0.009 A 
ATOM     29  C   UNL     1       2.814 -10.008   3.186  1.00  0.00     0.019 A 
ATOM     30  C   UNL     1       5.192 -10.224   3.596  1.00  0.00     0.001 A 
ATOM     31  C   UNL     1       3.913 -10.773   3.581  1.00  0.00     0.001 A 
ENDBRANCH   9  23
ENDBRANCH   3   6
ENDBRANCH   1   2
BRANCH   1  32
ATOM     32  C   UNL     1       3.757  -9.271   7.096  1.00  0.00     0.042 C 
BRANCH  32  33
ATOM     33  C   UNL     1       4.030 -10.429   8.040  1.00  0.00     0.118 C 
BRANCH  33  34
ATOM     34  N   UNL     1       3.716 -11.737   7.452  1.00  0.00    -0.352 N 
ATOM     35  C   UNL     1       3.799 -12.984   8.046  1.00  0.00     0.251 C 
ATOM     36  H   UNL     1       3.406 -11.725   6.518  1.00  0.00     0.163 HD
ATOM     37  O   UNL     1       3.842 -14.004   7.369  1.00  0.00    -0.269 OA
BRANCH  35  38
ATOM     38  C   UNL     1       3.840 -13.059   9.516  1.00  0.00     0.039 A 
ATOM     39  C   UNL     1       4.721 -13.910  10.191  1.00  0.00     0.014 A 
ATOM     40  C   UNL     1       3.019 -12.184  10.216  1.00  0.00     0.014 A 
ATOM     41  C   UNL     1       4.848 -13.788  11.574  1.00  0.00     0.010 A 
ATOM     42  C   UNL     1       3.278 -11.938  11.536  1.00  0.00     0.010 A 
ATOM     43  C   UNL     1       4.146 -12.772  12.238  1.00  0.00    -0.014 A 
BRANCH  43  44
ATOM     44  C   UNL     1       4.407 -12.446  13.640  1.00  0.00     0.031 A 
ATOM     45  C   UNL     1       5.828 -12.091  13.936  1.00  0.00     0.074 A 
ATOM     46  C   UNL     1       3.393 -12.178  14.496  1.00  0.00     0.049 A 
ATOM     47  N   UNL     1       6.636 -12.642  14.782  1.00  0.00    -0.248 NA
ATOM     48  C   UNL     1       6.476 -11.071  13.088  1.00  0.00     0.031 C 
ATOM     49  C   UNL     1       1.952 -12.161  14.198  1.00  0.00     0.029 A 
ATOM     50  N   UNL     1       3.426 -11.706  15.772  1.00  0.00    -0.354 N 
ATOM     51  C   UNL     1       7.815 -11.895  14.732  1.00  0.00     0.074 A 
ATOM     52  C   UNL     1       7.730 -11.100  13.539  1.00  0.00     0.031 C 
ATOM     53  C   UNL     1       1.298 -11.460  15.146  1.00  0.00     0.029 A 
ATOM     54  C   UNL     1       2.232 -11.135  16.206  1.00  0.00     0.049 A 
ATOM     55  H   UNL     1       4.228 -11.764  16.341  1.00  0.00     0.167 HD
ATOM     56  C   UNL     1       8.624 -11.787  15.825  1.00  0.00     0.037 A 
ATOM     57  C   UNL     1       2.032 -10.411  17.336  1.00  0.00     0.037 A 
ATOM     58  C   UNL     1       8.342 -12.845  16.767  1.00  0.00     0.049 A 
ATOM     59  C   UNL     1       3.188 -10.662  18.229  1.00  0.00     0.074 A 
ATOM     60  C   UNL     1       8.343 -14.226  16.716  1.00  0.00     0.029 A 
ATOM     61  N   UNL     1       7.624 -12.518  17.891  1.00  0.00    -0.354 N 
ATOM     62  N   UNL     1       3.428 -11.805  18.806  1.00  0.00    -0.248 NA
ATOM     63  C   UNL     1       4.328  -9.767  18.113  1.00  0.00     0.031 C 
ATOM     64  C   UNL     1       7.227 -14.624  17.512  1.00  0.00     0.029 A 
ATOM     65  C   UNL     1       6.662 -13.475  18.066  1.00  0.00     0.049 A 
ATOM     66  H   UNL     1       7.775 -11.735  18.469  1.00  0.00     0.167 HD
ATOM     67  C   UNL     1       4.803 -11.960  18.715  1.00  0.00     0.074 A 
ATOM     68  C   UNL     1       5.312 -10.634  18.367  1.00  0.00     0.031 C 
ATOM     69  C   UNL     1       5.363 -13.203  18.634  1.00  0.00     0.037 A 
BRANCH  56  70
ATOM     70  C   UNL     1       9.334 -10.508  16.248  1.00  0.00     0.057 A 
ATOM     71  C   UNL     1      10.079 -10.518  17.446  1.00  0.00     0.134 A 
ATOM     72  C   UNL     1       9.075  -9.220  15.735  1.00  0.00     0.134 A 
ATOM     73  F   UNL     1      10.430 -11.672  18.033  1.00  0.00    -0.206 F 
ATOM     74  C   UNL     1      10.406  -9.349  18.147  1.00  0.00     0.040 A 
ATOM     75  C   UNL     1       9.439  -8.045  16.404  1.00  0.00     0.040 A 
ATOM     76  F   UNL     1       8.388  -9.005  14.611  1.00  0.00    -0.206 F 
ATOM     77  C   UNL     1      10.066  -8.106  17.635  1.00  0.00     0.006 A 
ENDBRANCH  56  70
BRANCH  57  78
ATOM     78  C   UNL     1       1.071  -9.314  17.593  1.00  0.00     0.057 A 
ATOM     79  C   UNL     1       0.770  -8.908  18.901  1.00  0.00     0.134 A 
ATOM     80  C   UNL     1       0.637  -8.455  16.567  1.00  0.00     0.134 A 
ATOM     81  F   UNL     1       1.173  -9.641  19.950  1.00  0.00    -0.206 F 
ATOM     82  C   UNL     1       0.104  -7.706  19.177  1.00  0.00     0.040 A 
ATOM     83  C   UNL     1      -0.035  -7.255  16.828  1.00  0.00     0.040 A 
ATOM     84  F   UNL     1       0.931  -8.707  15.284  1.00  0.00    -0.206 F 
ATOM     85  C   UNL     1      -0.290  -6.869  18.138  1.00  0.00     0.006 A 
ENDBRANCH  57  78
BRANCH  69  86
ATOM     86  C   UNL     1       4.494 -14.392  18.936  1.00  0.00     0.057 A 
ATOM     87  C   UNL     1       3.355 -14.755  18.201  1.00  0.00     0.134 A 
ATOM     88  C   UNL     1       4.916 -15.287  19.925  1.00  0.00     0.134 A 
ATOM     89  F   UNL     1       2.928 -14.017  17.169  1.00  0.00    -0.206 F 
ATOM     90  C   UNL     1       2.645 -15.929  18.471  1.00  0.00     0.040 A 
ATOM     91  C   UNL     1       4.239 -16.481  20.179  1.00  0.00     0.040 A 
ATOM     92  F   UNL     1       6.030 -15.036  20.632  1.00  0.00    -0.206 F 
ATOM     93  C   UNL     1       3.092 -16.800  19.459  1.00  0.00     0.006 A 
ENDBRANCH  69  86
ENDBRANCH  43  44
ENDBRANCH  35  38
ENDBRANCH  33  34
ENDBRANCH  32  33
ENDBRANCH   1  32
TORSDOF 14
