REMARK SMILES CC(C)(C[NH2+]Cc1ccc2c(c1)OCO2)C(=O)NCCCNC(=O)c1ccc(-c2c3nc(c(-c4c(F)cccc4F)c4ccc([nH]4)c(-c4c(F)cccc4F)c4nc(c(-c5c(F)cccc5F)c5ccc2[nH]5)C=C4)C=C3)cc1
REMARK SMILES IDX 19 1 18 2 16 3 17 4 2 6 1 7 3 8 4 9 5 10 6 13 7 14 8 15
REMARK SMILES IDX 12 16 9 17 11 18 10 19 13 20 15 21 14 22 20 23 21 24 22 25
REMARK SMILES IDX 23 26 24 28 25 29 26 30 78 31 27 32 77 33 28 34 29 35 30 36
REMARK SMILES IDX 71 37 31 38 76 39 70 40 72 41 32 42 75 43 69 44 68 45 33 47
REMARK SMILES IDX 59 48 42 49 58 50 43 51 46 52 57 53 73 54 44 55 45 56 56 58
REMARK SMILES IDX 74 59 47 60 34 61 35 62 40 63 36 64 37 65 39 66 41 67 38 68
REMARK SMILES IDX 60 69 61 70 66 71 62 72 63 73 65 74 67 75 64 76 48 77 49 78
REMARK SMILES IDX 54 79 50 80 51 81 53 82 55 83 52 84
REMARK H PARENT 18 5 5 11 5 12 22 27 72 46 46 57
REMARK Flexibility Score: inf
ROOT
ATOM      1  C   UNL     1      -0.070   4.065   1.899  1.00  0.00     0.117 C 
ENDROOT
BRANCH   1   2
ATOM      2  N   UNL     1       0.757   2.958   2.342  1.00  0.00    -0.355 N 
ATOM      3  C   UNL     1       1.055   1.746   1.803  1.00  0.00     0.231 C 
ATOM      4  O   UNL     1       1.820   1.044   2.477  1.00  0.00    -0.274 OA
ATOM      5  H   UNL     1       1.191   3.118   3.211  1.00  0.00     0.163 HD
BRANCH   3   6
ATOM      6  C   UNL     1       0.544   1.279   0.427  1.00  0.00     0.092 C 
ATOM      7  C   UNL     1       1.111  -0.136   0.142  1.00  0.00     0.027 C 
ATOM      8  C   UNL     1       1.113   2.191  -0.680  1.00  0.00     0.027 C 
BRANCH   6   9
ATOM      9  C   UNL     1      -1.002   1.232   0.346  1.00  0.00     0.277 C 
BRANCH   9  10
ATOM     10  N   UNL     1      -1.633   0.318   1.309  1.00  0.00    -0.342 N 
ATOM     11  H   UNL     1      -1.312   0.563   2.245  1.00  0.00     0.346 HD
ATOM     12  H   UNL     1      -1.365  -0.630   1.044  1.00  0.00     0.346 HD
BRANCH  10  13
ATOM     13  C   UNL     1      -3.099   0.371   1.292  1.00  0.00     0.297 C 
BRANCH  13  14
ATOM     14  C   UNL     1      -3.697   0.059  -0.060  1.00  0.00     0.010 A 
ATOM     15  C   UNL     1      -4.178   1.112  -0.875  1.00  0.00     0.013 A 
ATOM     16  C   UNL     1      -3.700  -1.257  -0.552  1.00  0.00     0.060 A 
ATOM     17  C   UNL     1      -4.633   0.868  -2.173  1.00  0.00     0.051 A 
ATOM     18  C   UNL     1      -4.153  -1.465  -1.837  1.00  0.00     0.166 A 
ATOM     19  C   UNL     1      -4.600  -0.432  -2.627  1.00  0.00     0.165 A 
ATOM     20  O   UNL     1      -4.195  -2.663  -2.479  1.00  0.00    -0.454 OA
ATOM     21  O   UNL     1      -4.976  -0.848  -3.865  1.00  0.00    -0.454 OA
ATOM     22  C   UNL     1      -4.707  -2.262  -3.767  1.00  0.00     0.468 C 
ENDBRANCH  13  14
ENDBRANCH  10  13
ENDBRANCH   9  10
ENDBRANCH   6   9
ENDBRANCH   3   6
ENDBRANCH   1   2
BRANCH   1  23
ATOM     23  C   UNL     1      -1.348   4.203   2.717  1.00  0.00     0.042 C 
BRANCH  23  24
ATOM     24  C   UNL     1      -1.115   4.554   4.183  1.00  0.00     0.118 C 
BRANCH  24  25
ATOM     25  N   UNL     1      -0.467   5.848   4.356  1.00  0.00    -0.352 N 
ATOM     26  C   UNL     1      -0.915   7.000   4.949  1.00  0.00     0.251 C 
ATOM     27  H   UNL     1       0.443   5.904   3.985  1.00  0.00     0.163 HD
ATOM     28  O   UNL     1      -0.271   8.041   4.810  1.00  0.00    -0.269 OA
BRANCH  26  29
ATOM     29  C   UNL     1      -2.166   7.017   5.736  1.00  0.00     0.039 A 
ATOM     30  C   UNL     1      -3.016   8.123   5.628  1.00  0.00     0.014 A 
ATOM     31  C   UNL     1      -2.489   5.976   6.610  1.00  0.00     0.014 A 
ATOM     32  C   UNL     1      -4.218   8.151   6.339  1.00  0.00     0.010 A 
ATOM     33  C   UNL     1      -3.723   5.967   7.255  1.00  0.00     0.010 A 
ATOM     34  C   UNL     1      -4.598   7.056   7.130  1.00  0.00    -0.014 A 
BRANCH  34  35
ATOM     35  C   UNL     1      -5.904   7.029   7.837  1.00  0.00     0.031 A 
ATOM     36  C   UNL     1      -5.951   6.977   9.340  1.00  0.00     0.074 A 
ATOM     37  C   UNL     1      -7.046   6.975   7.125  1.00  0.00     0.049 A 
ATOM     38  N   UNL     1      -6.986   6.856  10.132  1.00  0.00    -0.248 NA
ATOM     39  C   UNL     1      -4.660   7.042  10.045  1.00  0.00     0.031 C 
ATOM     40  C   UNL     1      -7.134   6.971   5.663  1.00  0.00     0.029 A 
ATOM     41  N   UNL     1      -8.353   6.900   7.536  1.00  0.00    -0.354 N 
ATOM     42  C   UNL     1      -6.472   6.809  11.421  1.00  0.00     0.074 A 
ATOM     43  C   UNL     1      -5.031   6.866  11.304  1.00  0.00     0.031 C 
ATOM     44  C   UNL     1      -8.425   6.917   5.301  1.00  0.00     0.029 A 
ATOM     45  C   UNL     1      -9.254   6.845   6.500  1.00  0.00     0.049 A 
ATOM     46  H   UNL     1      -8.620   6.887   8.483  1.00  0.00     0.167 HD
ATOM     47  C   UNL     1      -7.140   6.745  12.598  1.00  0.00     0.037 A 
ATOM     48  C   UNL     1     -10.596   6.739   6.515  1.00  0.00     0.037 A 
ATOM     49  C   UNL     1      -8.575   6.721  12.714  1.00  0.00     0.049 A 
ATOM     50  C   UNL     1     -11.314   6.677   7.833  1.00  0.00     0.074 A 
ATOM     51  C   UNL     1      -9.347   6.722  13.862  1.00  0.00     0.029 A 
ATOM     52  N   UNL     1      -9.453   6.693  11.641  1.00  0.00    -0.354 N 
ATOM     53  N   UNL     1     -10.818   6.695   9.046  1.00  0.00    -0.248 NA
ATOM     54  C   UNL     1     -12.780   6.583   7.784  1.00  0.00     0.031 C 
ATOM     55  C   UNL     1     -10.693   6.657  13.484  1.00  0.00     0.029 A 
ATOM     56  C   UNL     1     -10.759   6.659  12.100  1.00  0.00     0.049 A 
ATOM     57  H   UNL     1      -9.187   6.697  10.693  1.00  0.00     0.167 HD
ATOM     58  C   UNL     1     -11.909   6.643   9.904  1.00  0.00     0.074 A 
ATOM     59  C   UNL     1     -13.094   6.604   9.072  1.00  0.00     0.031 C 
ATOM     60  C   UNL     1     -11.927   6.628  11.259  1.00  0.00     0.037 A 
BRANCH  47  61
ATOM     61  C   UNL     1      -6.323   6.704  13.856  1.00  0.00     0.057 A 
ATOM     62  C   UNL     1      -5.614   7.823  14.313  1.00  0.00     0.134 A 
ATOM     63  C   UNL     1      -6.269   5.542  14.636  1.00  0.00     0.134 A 
ATOM     64  F   UNL     1      -5.615   8.963  13.605  1.00  0.00    -0.206 F 
ATOM     65  C   UNL     1      -4.859   7.780  15.486  1.00  0.00     0.040 A 
ATOM     66  C   UNL     1      -5.539   5.495  15.825  1.00  0.00     0.040 A 
ATOM     67  F   UNL     1      -6.929   4.437  14.260  1.00  0.00    -0.206 F 
ATOM     68  C   UNL     1      -4.826   6.615  16.249  1.00  0.00     0.006 A 
ENDBRANCH  47  61
BRANCH  48  69
ATOM     69  C   UNL     1     -11.351   6.711   5.238  1.00  0.00     0.057 A 
ATOM     70  C   UNL     1     -12.137   7.800   4.843  1.00  0.00     0.134 A 
ATOM     71  C   UNL     1     -11.311   5.601   4.387  1.00  0.00     0.134 A 
ATOM     72  F   UNL     1     -12.229   8.885   5.626  1.00  0.00    -0.206 F 
ATOM     73  C   UNL     1     -12.871   7.780   3.656  1.00  0.00     0.040 A 
ATOM     74  C   UNL     1     -12.021   5.576   3.185  1.00  0.00     0.040 A 
ATOM     75  F   UNL     1     -10.570   4.529   4.705  1.00  0.00    -0.206 F 
ATOM     76  C   UNL     1     -12.810   6.666   2.821  1.00  0.00     0.006 A 
ENDBRANCH  48  69
BRANCH  60  77
ATOM     77  C   UNL     1     -13.271   6.603  11.925  1.00  0.00     0.057 A 
ATOM     78  C   UNL     1     -14.065   5.450  11.942  1.00  0.00     0.134 A 
ATOM     79  C   UNL     1     -13.757   7.736  12.591  1.00  0.00     0.134 A 
ATOM     80  F   UNL     1     -13.662   4.337  11.311  1.00  0.00    -0.206 F 
ATOM     81  C   UNL     1     -15.306   5.431  12.580  1.00  0.00     0.040 A 
ATOM     82  C   UNL     1     -14.984   7.721  13.253  1.00  0.00     0.040 A 
ATOM     83  F   UNL     1     -13.040   8.870  12.618  1.00  0.00    -0.206 F 
ATOM     84  C   UNL     1     -15.765   6.567  13.244  1.00  0.00     0.006 A 
ENDBRANCH  60  77
ENDBRANCH  34  35
ENDBRANCH  26  29
ENDBRANCH  24  25
ENDBRANCH  23  24
ENDBRANCH   1  23
TORSDOF 14
