REMARK SMILES COc1ccc(-c2[nH]nc3nc(-c4ccc(C(F)(F)F)cc4)cc(C(=O)NCCCNC(=O)c4ccc(-c5c6nc(c(-c7c(F)cccc7F)c7ccc([nH]7)c(-c7c(F)cccc7F)c7nc(c(-c8c(F)cccc8F)c8ccc5[nH]8)C=C7)C=C6)cc4)c23)cc1
REMARK SMILES IDX 29 1 28 2 27 3 25 4 26 5 24 7 7 8 8 9 88 10 9 11 10 13 11 14
REMARK SMILES IDX 23 15 12 16 6 17 3 18 4 19 90 20 5 21 89 22 2 23 1 24 13 25
REMARK SMILES IDX 14 26 22 27 15 28 21 29 16 30 17 31 18 32 19 33 20 34 30 35
REMARK SMILES IDX 31 36 32 37 33 39 34 40 35 41 87 42 36 43 86 44 37 45 38 46
REMARK SMILES IDX 39 47 80 48 40 49 85 50 79 51 81 52 41 53 84 54 78 55 77 56
REMARK SMILES IDX 42 58 68 59 51 60 67 61 52 62 55 63 66 64 82 65 53 66 54 67
REMARK SMILES IDX 65 69 83 70 56 71 43 72 44 73 49 74 45 75 46 76 48 77 50 78
REMARK SMILES IDX 47 79 69 80 70 81 75 82 71 83 72 84 74 85 76 86 73 87 57 88
REMARK SMILES IDX 58 89 63 90 59 91 60 92 62 93 64 94 61 95
REMARK H PARENT 27 6 8 12 31 38 81 57 55 68
REMARK Flexibility Score: inf
ROOT
ATOM      1  C   UNL     1       7.018  -4.649  -5.956  1.00  0.00     0.042 C 
ENDROOT
BRANCH   1   2
ATOM      2  C   UNL     1       5.557  -5.115  -6.002  1.00  0.00     0.118 C 
BRANCH   2   3
ATOM      3  N   UNL     1       4.679  -4.269  -5.210  1.00  0.00    -0.352 N 
ATOM      4  C   UNL     1       3.861  -3.195  -5.470  1.00  0.00     0.252 C 
ATOM      5  O   UNL     1       3.118  -2.904  -4.540  1.00  0.00    -0.269 OA
ATOM      6  H   UNL     1       4.667  -4.527  -4.260  1.00  0.00     0.163 HD
BRANCH   4   7
ATOM      7  C   UNL     1       3.815  -2.461  -6.759  1.00  0.00     0.055 A 
ATOM      8  C   UNL     1       1.931  -0.768  -6.458  1.00  0.00     0.075 A 
ATOM      9  N   UNL     1       1.337   0.055  -7.388  1.00  0.00    -0.275 N 
ATOM     10  C   UNL     1       2.899  -1.467  -7.168  1.00  0.00     0.059 A 
ATOM     11  N   UNL     1       1.849  -0.016  -8.623  1.00  0.00    -0.154 NA
ATOM     12  H   UNL     1       0.590   0.654  -7.161  1.00  0.00     0.190 HD
ATOM     13  C   UNL     1       2.813  -0.926  -8.511  1.00  0.00     0.182 A 
ATOM     14  N   UNL     1       3.623  -1.324  -9.526  1.00  0.00    -0.226 NA
ATOM     15  C   UNL     1       4.696  -2.725  -7.813  1.00  0.00     0.043 A 
ATOM     16  C   UNL     1       4.545  -2.229  -9.129  1.00  0.00     0.074 A 
BRANCH   8  17
ATOM     17  C   UNL     1       1.506  -0.697  -5.065  1.00  0.00     0.001 A 
ATOM     18  C   UNL     1       0.732  -0.690  -2.359  1.00  0.00     0.118 A 
ATOM     19  C   UNL     1      -0.158  -1.108  -3.351  1.00  0.00     0.047 A 
ATOM     20  C   UNL     1       2.003  -0.248  -2.724  1.00  0.00     0.047 A 
ATOM     21  C   UNL     1       0.220  -1.105  -4.697  1.00  0.00     0.014 A 
ATOM     22  C   UNL     1       2.381  -0.233  -4.073  1.00  0.00     0.014 A 
BRANCH  18  23
ATOM     23  O   UNL     1       0.263  -0.806  -1.080  1.00  0.00    -0.497 OA
ATOM     24  C   UNL     1       0.920  -0.022  -0.094  1.00  0.00     0.278 C 
ENDBRANCH  18  23
ENDBRANCH   8  17
BRANCH  16  25
ATOM     25  C   UNL     1       5.417  -2.806 -10.165  1.00  0.00     0.000 A 
ATOM     26  C   UNL     1       6.364  -2.035 -10.849  1.00  0.00     0.011 A 
ATOM     27  C   UNL     1       5.391  -4.195 -10.403  1.00  0.00     0.011 A 
ATOM     28  C   UNL     1       7.292  -2.644 -11.703  1.00  0.00     0.014 A 
ATOM     29  C   UNL     1       6.314  -4.804 -11.254  1.00  0.00     0.014 A 
ATOM     30  C   UNL     1       7.286  -4.035 -11.902  1.00  0.00     0.056 A 
BRANCH  30  31
ATOM     31  C   UNL     1       8.320  -4.684 -12.791  1.00  0.00     0.416 C 
ATOM     32  F   UNL     1       8.264  -4.237 -14.075  1.00  0.00    -0.166 F 
ATOM     33  F   UNL     1       9.591  -4.445 -12.364  1.00  0.00    -0.166 F 
ATOM     34  F   UNL     1       8.203  -6.040 -12.860  1.00  0.00    -0.166 F 
ENDBRANCH  30  31
ENDBRANCH  16  25
ENDBRANCH   4   7
ENDBRANCH   2   3
ENDBRANCH   1   2
BRANCH   1  35
ATOM     35  C   UNL     1       7.718  -5.104  -4.684  1.00  0.00     0.118 C 
BRANCH  35  36
ATOM     36  N   UNL     1       7.849  -6.559  -4.633  1.00  0.00    -0.352 N 
ATOM     37  C   UNL     1       8.331  -7.365  -3.624  1.00  0.00     0.251 C 
ATOM     38  H   UNL     1       7.549  -7.035  -5.441  1.00  0.00     0.163 HD
ATOM     39  O   UNL     1       8.662  -8.514  -3.860  1.00  0.00    -0.269 OA
BRANCH  37  40
ATOM     40  C   UNL     1       8.452  -6.823  -2.259  1.00  0.00     0.039 A 
ATOM     41  C   UNL     1       9.551  -7.162  -1.465  1.00  0.00     0.014 A 
ATOM     42  C   UNL     1       7.460  -5.972  -1.776  1.00  0.00     0.014 A 
ATOM     43  C   UNL     1       9.685  -6.571  -0.213  1.00  0.00     0.010 A 
ATOM     44  C   UNL     1       7.657  -5.290  -0.601  1.00  0.00     0.010 A 
ATOM     45  C   UNL     1       8.745  -5.614   0.201  1.00  0.00    -0.014 A 
BRANCH  45  46
ATOM     46  C   UNL     1       8.996  -4.803   1.389  1.00  0.00     0.031 A 
ATOM     47  C   UNL     1      10.283  -4.055   1.320  1.00  0.00     0.074 A 
ATOM     48  C   UNL     1       8.054  -4.556   2.326  1.00  0.00     0.049 A 
ATOM     49  N   UNL     1      11.337  -4.224   2.047  1.00  0.00    -0.248 NA
ATOM     50  C   UNL     1      10.490  -3.136   0.185  1.00  0.00     0.031 C 
ATOM     51  C   UNL     1       6.648  -4.976   2.316  1.00  0.00     0.029 A 
ATOM     52  N   UNL     1       8.120  -3.780   3.444  1.00  0.00    -0.354 N 
ATOM     53  C   UNL     1      12.251  -3.261   1.619  1.00  0.00     0.074 A 
ATOM     54  C   UNL     1      11.771  -2.800   0.347  1.00  0.00     0.031 C 
ATOM     55  C   UNL     1       5.953  -4.269   3.233  1.00  0.00     0.029 A 
ATOM     56  C   UNL     1       6.883  -3.468   4.007  1.00  0.00     0.049 A 
ATOM     57  H   UNL     1       8.972  -3.465   3.824  1.00  0.00     0.167 HD
ATOM     58  C   UNL     1      13.141  -2.719   2.497  1.00  0.00     0.037 A 
ATOM     59  C   UNL     1       6.644  -2.595   5.019  1.00  0.00     0.037 A 
ATOM     60  C   UNL     1      13.254  -3.559   3.669  1.00  0.00     0.049 A 
ATOM     61  C   UNL     1       7.935  -2.362   5.706  1.00  0.00     0.074 A 
ATOM     62  C   UNL     1      13.626  -4.866   3.914  1.00  0.00     0.029 A 
ATOM     63  N   UNL     1      12.571  -3.146   4.785  1.00  0.00    -0.354 N 
ATOM     64  N   UNL     1       8.553  -3.261   6.418  1.00  0.00    -0.248 NA
ATOM     65  C   UNL     1       8.755  -1.255   5.246  1.00  0.00     0.031 C 
ATOM     66  C   UNL     1      12.771  -5.306   4.970  1.00  0.00     0.029 A 
ATOM     67  C   UNL     1      11.979  -4.228   5.370  1.00  0.00     0.049 A 
ATOM     68  H   UNL     1      12.515  -2.218   5.111  1.00  0.00     0.167 HD
ATOM     69  C   UNL     1       9.892  -3.085   6.111  1.00  0.00     0.074 A 
ATOM     70  C   UNL     1       9.965  -1.767   5.483  1.00  0.00     0.031 C 
ATOM     71  C   UNL     1      10.749  -4.149   6.124  1.00  0.00     0.037 A 
BRANCH  58  72
ATOM     72  C   UNL     1      13.511  -1.240   2.543  1.00  0.00     0.057 A 
ATOM     73  C   UNL     1      14.341  -0.792   3.593  1.00  0.00     0.134 A 
ATOM     74  C   UNL     1      12.861  -0.206   1.837  1.00  0.00     0.134 A 
ATOM     75  F   UNL     1      15.051  -1.660   4.329  1.00  0.00    -0.206 F 
ATOM     76  C   UNL     1      14.394   0.547   4.000  1.00  0.00     0.040 A 
ATOM     77  C   UNL     1      12.943   1.140   2.209  1.00  0.00     0.040 A 
ATOM     78  F   UNL     1      12.048  -0.424   0.800  1.00  0.00    -0.206 F 
ATOM     79  C   UNL     1      13.674   1.517   3.321  1.00  0.00     0.006 A 
ENDBRANCH  58  72
BRANCH  59  80
ATOM     80  C   UNL     1       5.460  -1.748   5.303  1.00  0.00     0.057 A 
ATOM     81  C   UNL     1       5.301  -1.125   6.552  1.00  0.00     0.134 A 
ATOM     82  C   UNL     1       4.617  -1.288   4.277  1.00  0.00     0.134 A 
ATOM     83  F   UNL     1       6.080  -1.467   7.588  1.00  0.00    -0.206 F 
ATOM     84  C   UNL     1       4.392  -0.078   6.758  1.00  0.00     0.040 A 
ATOM     85  C   UNL     1       3.699  -0.249   4.472  1.00  0.00     0.040 A 
ATOM     86  F   UNL     1       4.723  -1.765   3.029  1.00  0.00    -0.206 F 
ATOM     87  C   UNL     1       3.597   0.373   5.710  1.00  0.00     0.006 A 
ENDBRANCH  59  80
BRANCH  71  88
ATOM     88  C   UNL     1      10.288  -5.412   6.799  1.00  0.00     0.057 A 
ATOM     89  C   UNL     1       9.202  -6.195   6.379  1.00  0.00     0.134 A 
ATOM     90  C   UNL     1      11.071  -5.925   7.839  1.00  0.00     0.134 A 
ATOM     91  F   UNL     1       8.446  -5.835   5.334  1.00  0.00    -0.206 F 
ATOM     92  C   UNL     1       8.891  -7.412   6.993  1.00  0.00     0.040 A 
ATOM     93  C   UNL     1      10.794  -7.155   8.435  1.00  0.00     0.040 A 
ATOM     94  F   UNL     1      12.154  -5.253   8.262  1.00  0.00    -0.206 F 
ATOM     95  C   UNL     1       9.694  -7.900   8.020  1.00  0.00     0.006 A 
ENDBRANCH  71  88
ENDBRANCH  45  46
ENDBRANCH  37  40
ENDBRANCH  35  36
ENDBRANCH   1  35
TORSDOF 14
