REMARK SMILES [H]/N=c1\ccc2c(C)c(CC(=O)NCCCNC(=O)c3ccc(-c4c5nc(c(-c6c(F)cccc6F)c6ccc([nH]6)c(-c6c(F)cccc6F)c6nc(c(-c7c(F)cccc7F)c7ccc4[nH]7)C=C6)C=C5)cc3)c(O)oc-2c1
REMARK SMILES IDX 15 1 14 2 13 3 11 4 12 5 10 7 9 8 8 9 7 10 6 11 5 12 77 13
REMARK SMILES IDX 74 14 4 15 78 16 76 17 3 18 2 19 1 20 75 21 16 23 17 24
REMARK SMILES IDX 18 25 19 27 20 28 21 29 73 30 22 31 72 32 23 33 24 34 25 35
REMARK SMILES IDX 66 36 26 37 71 38 65 39 67 40 27 41 70 42 64 43 63 44 28 46
REMARK SMILES IDX 54 47 37 48 53 49 38 50 41 51 52 52 68 53 39 54 40 55 51 57
REMARK SMILES IDX 69 58 42 59 29 60 30 61 35 62 31 63 32 64 34 65 36 66 33 67
REMARK SMILES IDX 55 68 56 69 61 70 57 71 58 72 60 73 62 74 59 75 43 76 44 77
REMARK SMILES IDX 49 78 45 79 46 80 48 81 50 82 47 83
REMARK H PARENT 13 6 75 22 17 26 67 45 41 56
REMARK Flexibility Score: inf
ROOT
ATOM      1  C   UNL     1       3.052  -1.383  -4.052  1.00  0.00     0.042 C 
ENDROOT
BRANCH   1   2
ATOM      2  C   UNL     1       2.592  -2.724  -3.490  1.00  0.00     0.117 C 
BRANCH   2   3
ATOM      3  N   UNL     1       2.747  -2.796  -2.050  1.00  0.00    -0.356 N 
ATOM      4  C   UNL     1       1.816  -2.638  -1.068  1.00  0.00     0.224 C 
ATOM      5  O   UNL     1       2.191  -2.719   0.104  1.00  0.00    -0.275 OA
ATOM      6  H   UNL     1       3.660  -2.988  -1.735  1.00  0.00     0.163 HD
BRANCH   4   7
ATOM      7  C   UNL     1       0.344  -2.423  -1.413  1.00  0.00     0.143 C 
BRANCH   7   8
ATOM      8  C   UNL     1       0.016  -1.065  -2.010  1.00  0.00     0.046 A 
ATOM      9  C   UNL     1       0.755   0.047   0.183  1.00  0.00     0.046 C 
ATOM     10  C   UNL     1       0.339   0.176  -1.266  1.00  0.00    -0.029 A 
ATOM     11  C   UNL     1       0.230   1.376  -1.896  1.00  0.00     0.021 A 
ATOM     12  C   UNL     1       0.640   2.636  -1.273  1.00  0.00     0.014 A 
ATOM     13  C   UNL     1      -0.309   1.432  -3.257  1.00  0.00     0.140 A 
ATOM     14  C   UNL     1      -0.540  -0.955  -3.239  1.00  0.00     0.286 A 
ATOM     15  C   UNL     1       0.526   3.808  -1.915  1.00  0.00     0.028 A 
ATOM     16  C   UNL     1      -0.444   2.592  -3.912  1.00  0.00     0.075 A 
ATOM     17  O   UNL     1      -0.727   0.262  -3.861  1.00  0.00    -0.425 OA
ATOM     18  C   UNL     1      -0.034   3.868  -3.288  1.00  0.00     0.058 A 
ATOM     19  N   UNL     1      -0.171   4.972  -3.944  1.00  0.00    -0.301 NA
ATOM     20  H   UNL     1       0.099   5.825  -3.534  1.00  0.00     0.188 HD
BRANCH  14  21
ATOM     21  O   UNL     1      -0.924  -2.050  -3.982  1.00  0.00    -0.480 OA
ATOM     22  H   UNL     1      -1.306  -1.931  -4.830  1.00  0.00     0.297 HD
ENDBRANCH  14  21
ENDBRANCH   7   8
ENDBRANCH   4   7
ENDBRANCH   2   3
ENDBRANCH   1   2
BRANCH   1  23
ATOM     23  C   UNL     1       4.543  -1.112  -3.874  1.00  0.00     0.118 C 
BRANCH  23  24
ATOM     24  N   UNL     1       5.388  -2.031  -4.627  1.00  0.00    -0.352 N 
ATOM     25  C   UNL     1       6.372  -1.771  -5.551  1.00  0.00     0.251 C 
ATOM     26  H   UNL     1       5.230  -2.985  -4.445  1.00  0.00     0.163 HD
ATOM     27  O   UNL     1       6.875  -2.696  -6.184  1.00  0.00    -0.269 OA
BRANCH  25  28
ATOM     28  C   UNL     1       6.803  -0.381  -5.812  1.00  0.00     0.039 A 
ATOM     29  C   UNL     1       7.036   0.508  -4.761  1.00  0.00     0.014 A 
ATOM     30  C   UNL     1       6.963   0.041  -7.136  1.00  0.00     0.014 A 
ATOM     31  C   UNL     1       7.253   1.855  -5.034  1.00  0.00     0.010 A 
ATOM     32  C   UNL     1       7.261   1.379  -7.406  1.00  0.00     0.010 A 
ATOM     33  C   UNL     1       7.350   2.309  -6.359  1.00  0.00    -0.014 A 
BRANCH  33  34
ATOM     34  C   UNL     1       7.494   3.764  -6.629  1.00  0.00     0.031 A 
ATOM     35  C   UNL     1       6.395   4.520  -7.328  1.00  0.00     0.074 A 
ATOM     36  C   UNL     1       8.588   4.419  -6.197  1.00  0.00     0.049 A 
ATOM     37  N   UNL     1       6.342   5.787  -7.657  1.00  0.00    -0.248 NA
ATOM     38  C   UNL     1       5.199   3.753  -7.710  1.00  0.00     0.031 C 
ATOM     39  C   UNL     1       9.715   3.808  -5.490  1.00  0.00     0.029 A 
ATOM     40  N   UNL     1       8.922   5.747  -6.271  1.00  0.00    -0.354 N 
ATOM     41  C   UNL     1       5.122   5.963  -8.299  1.00  0.00     0.074 A 
ATOM     42  C   UNL     1       4.478   4.668  -8.341  1.00  0.00     0.031 C 
ATOM     43  C   UNL     1      10.596   4.764  -5.159  1.00  0.00     0.029 A 
ATOM     44  C   UNL     1      10.125   6.044  -5.678  1.00  0.00     0.049 A 
ATOM     45  H   UNL     1       8.354   6.423  -6.707  1.00  0.00     0.167 HD
ATOM     46  C   UNL     1       4.579   7.101  -8.796  1.00  0.00     0.037 A 
ATOM     47  C   UNL     1      10.783   7.214  -5.579  1.00  0.00     0.037 A 
ATOM     48  C   UNL     1       5.204   8.396  -8.733  1.00  0.00     0.049 A 
ATOM     49  C   UNL     1      10.181   8.450  -6.183  1.00  0.00     0.074 A 
ATOM     50  C   UNL     1       4.724   9.611  -9.192  1.00  0.00     0.029 A 
ATOM     51  N   UNL     1       6.447   8.644  -8.170  1.00  0.00    -0.354 N 
ATOM     52  N   UNL     1       9.028   8.600  -6.787  1.00  0.00    -0.248 NA
ATOM     53  C   UNL     1      10.982   9.680  -6.099  1.00  0.00     0.031 C 
ATOM     54  C   UNL     1       5.693  10.589  -8.937  1.00  0.00     0.029 A 
ATOM     55  C   UNL     1       6.758   9.989  -8.285  1.00  0.00     0.049 A 
ATOM     56  H   UNL     1       7.023   7.965  -7.751  1.00  0.00     0.167 HD
ATOM     57  C   UNL     1       8.956   9.940  -7.142  1.00  0.00     0.074 A 
ATOM     58  C   UNL     1      10.174  10.565  -6.666  1.00  0.00     0.031 C 
ATOM     59  C   UNL     1       7.973  10.595  -7.806  1.00  0.00     0.037 A 
BRANCH  46  60
ATOM     60  C   UNL     1       3.239   6.989  -9.464  1.00  0.00     0.057 A 
ATOM     61  C   UNL     1       3.120   7.115 -10.854  1.00  0.00     0.134 A 
ATOM     62  C   UNL     1       2.064   6.779  -8.730  1.00  0.00     0.134 A 
ATOM     63  F   UNL     1       4.205   7.325 -11.614  1.00  0.00    -0.206 F 
ATOM     64  C   UNL     1       1.881   7.032 -11.491  1.00  0.00     0.040 A 
ATOM     65  C   UNL     1       0.822   6.669  -9.358  1.00  0.00     0.040 A 
ATOM     66  F   UNL     1       2.114   6.641  -7.397  1.00  0.00    -0.206 F 
ATOM     67  C   UNL     1       0.728   6.801 -10.743  1.00  0.00     0.006 A 
ENDBRANCH  46  60
BRANCH  47  68
ATOM     68  C   UNL     1      12.096   7.271  -4.891  1.00  0.00     0.057 A 
ATOM     69  C   UNL     1      13.236   6.681  -5.448  1.00  0.00     0.134 A 
ATOM     70  C   UNL     1      12.243   7.936  -3.668  1.00  0.00     0.134 A 
ATOM     71  F   UNL     1      13.159   6.028  -6.617  1.00  0.00    -0.206 F 
ATOM     72  C   UNL     1      14.475   6.741  -4.809  1.00  0.00     0.040 A 
ATOM     73  C   UNL     1      13.481   8.025  -3.031  1.00  0.00     0.040 A 
ATOM     74  F   UNL     1      11.190   8.539  -3.097  1.00  0.00    -0.206 F 
ATOM     75  C   UNL     1      14.601   7.422  -3.600  1.00  0.00     0.006 A 
ENDBRANCH  47  68
BRANCH  59  76
ATOM     76  C   UNL     1       8.170  12.064  -8.031  1.00  0.00     0.057 A 
ATOM     77  C   UNL     1       7.429  13.003  -7.304  1.00  0.00     0.134 A 
ATOM     78  C   UNL     1       9.085  12.549  -8.973  1.00  0.00     0.134 A 
ATOM     79  F   UNL     1       6.532  12.604  -6.389  1.00  0.00    -0.206 F 
ATOM     80  C   UNL     1       7.593  14.374  -7.505  1.00  0.00     0.040 A 
ATOM     81  C   UNL     1       9.276  13.918  -9.166  1.00  0.00     0.040 A 
ATOM     82  F   UNL     1       9.838  11.699  -9.690  1.00  0.00    -0.206 F 
ATOM     83  C   UNL     1       8.524  14.835  -8.433  1.00  0.00     0.006 A 
ENDBRANCH  59  76
ENDBRANCH  33  34
ENDBRANCH  25  28
ENDBRANCH  23  24
ENDBRANCH   1  23
TORSDOF 12
