REMARK SMILES Cc1cccc(-c2cc(C[C@]3(C(=O)NCCCNC(=O)c4ccc(-c5c6nc(c(-c7c(F)cccc7F)c7ccc([nH]7)c(-c7c(F)cccc7F)c7nc(c(-c8c(F)cccc8F)c8ccc5[nH]8)C=C7)C=C6)cc4)CCCN(C(=O)C(C)C)C3)on2)c1
REMARK SMILES IDX 15 1 14 2 12 3 13 4 11 6 75 7 84 8 76 9 78 10 77 11 10 12
REMARK SMILES IDX 9 13 7 14 8 15 86 16 85 17 6 18 1 19 2 20 3 21 87 22 4 23
REMARK SMILES IDX 5 24 79 25 80 26 81 27 82 28 83 29 16 30 17 31 18 32 19 33
REMARK SMILES IDX 20 35 21 36 22 37 74 38 23 39 73 40 24 41 25 42 26 43 67 44
REMARK SMILES IDX 27 45 72 46 66 47 68 48 28 49 71 50 65 51 64 52 29 54 55 55
REMARK SMILES IDX 38 56 54 57 39 58 42 59 53 60 69 61 40 62 41 63 52 65 70 66
REMARK SMILES IDX 43 67 30 68 31 69 36 70 32 71 33 72 35 73 37 74 34 75 56 76
REMARK SMILES IDX 57 77 62 78 58 79 59 80 61 81 63 82 60 83 44 84 45 85 50 86
REMARK SMILES IDX 46 87 47 88 49 89 51 90 48 91
REMARK H PARENT 14 5 18 34 68 53 42 64
REMARK Flexibility Score: inf
ROOT
ATOM      1  C   UNL     1      -6.798   6.475  -3.055  1.00  0.00     0.117 C 
ENDROOT
BRANCH   1   2
ATOM      2  N   UNL     1      -5.576   7.258  -2.879  1.00  0.00    -0.355 N 
ATOM      3  C   UNL     1      -4.341   6.996  -2.353  1.00  0.00     0.228 C 
ATOM      4  O   UNL     1      -3.515   7.907  -2.479  1.00  0.00    -0.274 OA
ATOM      5  H   UNL     1      -5.661   8.180  -3.214  1.00  0.00     0.163 HD
BRANCH   3   6
ATOM      6  C   UNL     1      -3.979   5.695  -1.582  1.00  0.00     0.074 C 
ATOM      7  C   UNL     1      -4.808   5.705  -0.264  1.00  0.00     0.021 C 
ATOM      8  C   UNL     1      -4.178   4.478  -2.521  1.00  0.00     0.136 C 
ATOM      9  C   UNL     1      -5.349   4.362   0.211  1.00  0.00     0.023 C 
ATOM     10  N   UNL     1      -4.697   3.282  -1.849  1.00  0.00    -0.341 N 
ATOM     11  C   UNL     1      -5.814   3.513  -0.952  1.00  0.00     0.119 C 
BRANCH   6  12
ATOM     12  C   UNL     1      -2.450   5.787  -1.218  1.00  0.00     0.097 C 
BRANCH  12  13
ATOM     13  C   UNL     1      -1.860   4.570  -0.585  1.00  0.00     0.138 A 
ATOM     14  C   UNL     1      -0.890   2.690   0.076  1.00  0.00     0.114 A 
ATOM     15  C   UNL     1      -1.132   3.504  -1.060  1.00  0.00     0.077 A 
ATOM     16  N   UNL     1      -1.426   3.246   1.173  1.00  0.00    -0.080 NA
ATOM     17  O   UNL     1      -2.009   4.432   0.760  1.00  0.00    -0.361 OA
BRANCH  14  18
ATOM     18  C   UNL     1      -0.206   1.405   0.114  1.00  0.00     0.004 A 
ATOM     19  C   UNL     1       3.322  -0.023  -0.123  1.00  0.00     0.044 C 
ATOM     20  C   UNL     1       1.830   0.079  -0.010  1.00  0.00    -0.050 A 
ATOM     21  C   UNL     1       1.069  -1.092   0.110  1.00  0.00     0.003 A 
ATOM     22  C   UNL     1       1.184   1.326  -0.022  1.00  0.00     0.014 A 
ATOM     23  C   UNL     1      -0.312  -1.020   0.249  1.00  0.00     0.001 A 
ATOM     24  C   UNL     1      -0.940   0.224   0.265  1.00  0.00     0.010 A 
ENDBRANCH  14  18
ENDBRANCH  12  13
ENDBRANCH   6  12
BRANCH  10  25
ATOM     25  C   UNL     1      -4.103   2.062  -2.121  1.00  0.00     0.225 C 
ATOM     26  O   UNL     1      -3.268   1.959  -3.029  1.00  0.00    -0.275 OA
BRANCH  25  27
ATOM     27  C   UNL     1      -4.478   0.794  -1.346  1.00  0.00     0.072 C 
ATOM     28  C   UNL     1      -4.521   0.911   0.175  1.00  0.00     0.018 C 
ATOM     29  C   UNL     1      -5.724   0.133  -1.917  1.00  0.00     0.018 C 
ENDBRANCH  25  27
ENDBRANCH  10  25
ENDBRANCH   3   6
ENDBRANCH   1   2
BRANCH   1  30
ATOM     30  C   UNL     1      -7.851   6.723  -1.983  1.00  0.00     0.042 C 
BRANCH  30  31
ATOM     31  C   UNL     1      -8.899   7.741  -2.392  1.00  0.00     0.118 C 
BRANCH  31  32
ATOM     32  N   UNL     1     -10.044   7.186  -3.109  1.00  0.00    -0.352 N 
ATOM     33  C   UNL     1     -11.156   7.845  -3.622  1.00  0.00     0.251 C 
ATOM     34  H   UNL     1     -10.026   6.212  -3.248  1.00  0.00     0.163 HD
ATOM     35  O   UNL     1     -12.020   7.228  -4.215  1.00  0.00    -0.269 OA
BRANCH  33  36
ATOM     36  C   UNL     1     -11.194   9.329  -3.566  1.00  0.00     0.039 A 
ATOM     37  C   UNL     1     -11.441  10.017  -4.758  1.00  0.00     0.014 A 
ATOM     38  C   UNL     1     -10.703  10.002  -2.456  1.00  0.00     0.014 A 
ATOM     39  C   UNL     1     -10.913  11.294  -4.921  1.00  0.00     0.010 A 
ATOM     40  C   UNL     1     -10.050  11.197  -2.661  1.00  0.00     0.010 A 
ATOM     41  C   UNL     1     -10.099  11.812  -3.916  1.00  0.00    -0.014 A 
BRANCH  41  42
ATOM     42  C   UNL     1      -9.179  12.923  -4.123  1.00  0.00     0.031 A 
ATOM     43  C   UNL     1      -9.417  14.216  -3.451  1.00  0.00     0.074 A 
ATOM     44  C   UNL     1      -8.050  12.730  -4.843  1.00  0.00     0.049 A 
ATOM     45  N   UNL     1      -8.928  15.341  -3.847  1.00  0.00    -0.248 NA
ATOM     46  C   UNL     1     -10.272  14.347  -2.278  1.00  0.00     0.031 C 
ATOM     47  C   UNL     1      -6.884  13.607  -4.912  1.00  0.00     0.029 A 
ATOM     48  N   UNL     1      -7.817  11.764  -5.834  1.00  0.00    -0.354 N 
ATOM     49  C   UNL     1      -9.156  16.272  -2.859  1.00  0.00     0.074 A 
ATOM     50  C   UNL     1     -10.046  15.616  -1.930  1.00  0.00     0.031 C 
ATOM     51  C   UNL     1      -6.210  13.343  -6.043  1.00  0.00     0.029 A 
ATOM     52  C   UNL     1      -7.000  12.390  -6.801  1.00  0.00     0.049 A 
ATOM     53  H   UNL     1      -8.155  10.840  -5.852  1.00  0.00     0.167 HD
ATOM     54  C   UNL     1      -8.457  17.444  -2.875  1.00  0.00     0.037 A 
ATOM     55  C   UNL     1      -7.426  12.579  -8.083  1.00  0.00     0.037 A 
ATOM     56  C   UNL     1      -7.617  17.535  -4.069  1.00  0.00     0.049 A 
ATOM     57  C   UNL     1      -7.468  14.028  -8.505  1.00  0.00     0.074 A 
ATOM     58  C   UNL     1      -6.273  17.279  -4.290  1.00  0.00     0.029 A 
ATOM     59  N   UNL     1      -8.211  17.627  -5.323  1.00  0.00    -0.354 N 
ATOM     60  N   UNL     1      -7.490  15.028  -7.667  1.00  0.00    -0.248 NA
ATOM     61  C   UNL     1      -7.510  14.467  -9.897  1.00  0.00     0.031 C 
ATOM     62  C   UNL     1      -6.068  17.172  -5.686  1.00  0.00     0.029 A 
ATOM     63  C   UNL     1      -7.283  17.378  -6.316  1.00  0.00     0.049 A 
ATOM     64  H   UNL     1      -9.159  17.840  -5.481  1.00  0.00     0.167 HD
ATOM     65  C   UNL     1      -7.575  16.207  -8.362  1.00  0.00     0.074 A 
ATOM     66  C   UNL     1      -7.562  15.803  -9.755  1.00  0.00     0.031 C 
ATOM     67  C   UNL     1      -7.660  17.412  -7.723  1.00  0.00     0.037 A 
BRANCH  54  68
ATOM     68  C   UNL     1      -8.303  18.351  -1.671  1.00  0.00     0.057 A 
ATOM     69  C   UNL     1      -7.137  19.123  -1.491  1.00  0.00     0.134 A 
ATOM     70  C   UNL     1      -9.231  18.466  -0.622  1.00  0.00     0.134 A 
ATOM     71  F   UNL     1      -6.205  19.230  -2.447  1.00  0.00    -0.206 F 
ATOM     72  C   UNL     1      -6.861  19.832  -0.314  1.00  0.00     0.040 A 
ATOM     73  C   UNL     1      -8.947  19.125   0.584  1.00  0.00     0.040 A 
ATOM     74  F   UNL     1     -10.482  18.003  -0.738  1.00  0.00    -0.206 F 
ATOM     75  C   UNL     1      -7.748  19.799   0.749  1.00  0.00     0.006 A 
ENDBRANCH  54  68
BRANCH  55  76
ATOM     76  C   UNL     1      -8.354  11.520  -8.554  1.00  0.00     0.057 A 
ATOM     77  C   UNL     1      -7.857  10.213  -8.704  1.00  0.00     0.134 A 
ATOM     78  C   UNL     1      -9.741  11.668  -8.470  1.00  0.00     0.134 A 
ATOM     79  F   UNL     1      -6.534  10.002  -8.792  1.00  0.00    -0.206 F 
ATOM     80  C   UNL     1      -8.692   9.094  -8.651  1.00  0.00     0.040 A 
ATOM     81  C   UNL     1     -10.588  10.553  -8.426  1.00  0.00     0.040 A 
ATOM     82  F   UNL     1     -10.289  12.880  -8.301  1.00  0.00    -0.206 F 
ATOM     83  C   UNL     1     -10.061   9.263  -8.474  1.00  0.00     0.006 A 
ENDBRANCH  55  76
BRANCH  67  84
ATOM     84  C   UNL     1      -8.005  18.744  -8.352  1.00  0.00     0.057 A 
ATOM     85  C   UNL     1      -8.761  18.897  -9.523  1.00  0.00     0.134 A 
ATOM     86  C   UNL     1      -7.697  19.953  -7.684  1.00  0.00     0.134 A 
ATOM     87  F   UNL     1      -9.227  17.842 -10.203  1.00  0.00    -0.206 F 
ATOM     88  C   UNL     1      -9.130  20.154 -10.024  1.00  0.00     0.040 A 
ATOM     89  C   UNL     1      -8.108  21.207  -8.144  1.00  0.00     0.040 A 
ATOM     90  F   UNL     1      -7.003  19.971  -6.536  1.00  0.00    -0.206 F 
ATOM     91  C   UNL     1      -8.816  21.314  -9.329  1.00  0.00     0.006 A 
ENDBRANCH  67  84
ENDBRANCH  41  42
ENDBRANCH  33  36
ENDBRANCH  31  32
ENDBRANCH  30  31
ENDBRANCH   1  30
TORSDOF 15
