REMARK SMILES Cc1nn(Cc2ccc(Cl)cc2Cl)c(C)c1NC(=O)c1c(C(=O)NCCCNC(=O)c2ccc(-c3c4nc(c(-c5c(F)cccc5F)c5ccc([nH]5)c(-c5c(F)cccc5F)c5nc(c(-c6c(F)cccc6F)c6ccc3[nH]6)C=C5)C=C4)cc2)cnn1C
REMARK SMILES IDX 25 1 24 2 22 3 23 4 21 6 20 7 87 8 85 9 86 10 88 11 18 12
REMARK SMILES IDX 17 13 19 15 16 16 1 17 2 18 3 19 4 20 14 21 15 22 5 23 6 24
REMARK SMILES IDX 7 25 12 26 8 27 11 28 13 29 9 30 10 31 26 32 27 33 28 34
REMARK SMILES IDX 29 35 30 37 31 38 32 39 84 40 33 41 83 42 34 43 35 44 36 45
REMARK SMILES IDX 77 46 37 47 82 48 76 49 78 50 38 51 81 52 75 53 74 54 39 56
REMARK SMILES IDX 65 57 48 58 64 59 49 60 52 61 63 62 79 63 50 64 51 65 62 67
REMARK SMILES IDX 80 68 53 69 40 70 41 71 46 72 42 73 43 74 45 75 47 76 44 77
REMARK SMILES IDX 66 78 67 79 72 80 68 81 69 82 71 83 73 84 70 85 54 86 55 87
REMARK SMILES IDX 60 88 56 89 57 90 59 91 61 92 58 93
REMARK H PARENT 24 5 17 14 28 36 78 55 52 66
REMARK Flexibility Score: inf
ROOT
ATOM      1  C   UNL     1       1.401  -0.870   7.467  1.00  0.00     0.118 C 
ENDROOT
BRANCH   1   2
ATOM      2  N   UNL     1       1.687  -0.373   6.124  1.00  0.00    -0.352 N 
ATOM      3  C   UNL     1       1.226   0.700   5.385  1.00  0.00     0.255 C 
ATOM      4  O   UNL     1       1.883   0.991   4.387  1.00  0.00    -0.269 OA
ATOM      5  H   UNL     1       2.349  -0.920   5.642  1.00  0.00     0.163 HD
BRANCH   3   6
ATOM      6  C   UNL     1       0.006   1.419   5.729  1.00  0.00     0.090 A 
ATOM      7  C   UNL     1      -0.809   2.142   4.842  1.00  0.00     0.138 A 
ATOM      8  N   UNL     1      -1.850   2.621   5.606  1.00  0.00    -0.262 N 
ATOM      9  C   UNL     1      -0.593   1.663   6.985  1.00  0.00     0.149 A 
ATOM     10  N   UNL     1      -1.746   2.320   6.909  1.00  0.00    -0.180 NA
ATOM     11  C   UNL     1      -3.055   3.292   5.172  1.00  0.00     0.174 C 
BRANCH   7  12
ATOM     12  C   UNL     1      -0.668   2.490   3.444  1.00  0.00     0.274 C 
ATOM     13  N   UNL     1      -0.406   1.572   2.457  1.00  0.00    -0.317 N 
ATOM     14  H   UNL     1      -0.176   1.976   1.589  1.00  0.00     0.170 HD
ATOM     15  O   UNL     1      -0.767   3.664   3.078  1.00  0.00    -0.267 OA
BRANCH  13  16
ATOM     16  C   UNL     1      -0.402   0.195   2.449  1.00  0.00     0.085 A 
ATOM     17  C   UNL     1       1.027  -0.220   0.283  1.00  0.00     0.071 C 
ATOM     18  C   UNL     1       0.279  -0.624   1.501  1.00  0.00     0.083 A 
ATOM     19  N   UNL     1       0.240  -1.915   1.851  1.00  0.00    -0.175 NA
ATOM     20  N   UNL     1      -0.482  -1.914   2.988  1.00  0.00    -0.263 N 
ATOM     21  C   UNL     1      -1.083  -0.703   3.244  1.00  0.00     0.060 A 
ATOM     22  C   UNL     1      -2.229  -0.567   4.172  1.00  0.00     0.069 C 
BRANCH  20  23
ATOM     23  C   UNL     1      -0.356  -3.040   3.909  1.00  0.00     0.181 C 
BRANCH  23  24
ATOM     24  C   UNL     1      -1.381  -4.116   3.676  1.00  0.00    -0.008 A 
ATOM     25  C   UNL     1      -1.240  -4.938   2.542  1.00  0.00     0.009 A 
ATOM     26  C   UNL     1      -2.461  -4.354   4.544  1.00  0.00     0.047 A 
ATOM     27  C   UNL     1      -2.163  -5.949   2.273  1.00  0.00     0.021 A 
ATOM     28  C   UNL     1      -3.398  -5.349   4.260  1.00  0.00     0.041 A 
ATOM     29  Cl  UNL     1      -2.679  -3.481   6.019  1.00  0.00    -0.084 Cl
ATOM     30  C   UNL     1      -3.244  -6.141   3.126  1.00  0.00     0.042 A 
ATOM     31  Cl  UNL     1      -4.394  -7.372   2.785  1.00  0.00    -0.084 Cl
ENDBRANCH  23  24
ENDBRANCH  20  23
ENDBRANCH  13  16
ENDBRANCH   7  12
ENDBRANCH   3   6
ENDBRANCH   1   2
BRANCH   1  32
ATOM     32  C   UNL     1       0.985  -2.339   7.570  1.00  0.00     0.042 C 
BRANCH  32  33
ATOM     33  C   UNL     1       2.036  -3.329   7.105  1.00  0.00     0.118 C 
BRANCH  33  34
ATOM     34  N   UNL     1       3.193  -3.409   7.994  1.00  0.00    -0.352 N 
ATOM     35  C   UNL     1       4.290  -4.246   7.887  1.00  0.00     0.251 C 
ATOM     36  H   UNL     1       3.192  -2.794   8.762  1.00  0.00     0.163 HD
ATOM     37  O   UNL     1       5.020  -4.449   8.847  1.00  0.00    -0.269 OA
BRANCH  35  38
ATOM     38  C   UNL     1       4.551  -4.910   6.596  1.00  0.00     0.039 A 
ATOM     39  C   UNL     1       4.952  -6.247   6.540  1.00  0.00     0.014 A 
ATOM     40  C   UNL     1       4.354  -4.183   5.428  1.00  0.00     0.014 A 
ATOM     41  C   UNL     1       5.079  -6.864   5.296  1.00  0.00     0.010 A 
ATOM     42  C   UNL     1       4.313  -4.835   4.219  1.00  0.00     0.010 A 
ATOM     43  C   UNL     1       4.742  -6.156   4.132  1.00  0.00    -0.014 A 
BRANCH  43  44
ATOM     44  C   UNL     1       4.813  -6.799   2.821  1.00  0.00     0.031 A 
ATOM     45  C   UNL     1       4.110  -8.105   2.663  1.00  0.00     0.074 A 
ATOM     46  C   UNL     1       5.303  -6.181   1.724  1.00  0.00     0.049 A 
ATOM     47  N   UNL     1       4.623  -9.250   2.346  1.00  0.00    -0.248 NA
ATOM     48  C   UNL     1       2.665  -8.154   2.929  1.00  0.00     0.031 C 
ATOM     49  C   UNL     1       5.753  -4.793   1.565  1.00  0.00     0.029 A 
ATOM     50  N   UNL     1       5.380  -6.665   0.455  1.00  0.00    -0.354 N 
ATOM     51  C   UNL     1       3.557 -10.139   2.216  1.00  0.00     0.074 A 
ATOM     52  C   UNL     1       2.390  -9.439   2.692  1.00  0.00     0.031 C 
ATOM     53  C   UNL     1       5.803  -4.484   0.253  1.00  0.00     0.029 A 
ATOM     54  C   UNL     1       5.576  -5.694  -0.512  1.00  0.00     0.049 A 
ATOM     55  H   UNL     1       5.303  -7.623   0.243  1.00  0.00     0.167 HD
ATOM     56  C   UNL     1       3.680 -11.330   1.565  1.00  0.00     0.037 A 
ATOM     57  C   UNL     1       5.523  -5.865  -1.853  1.00  0.00     0.037 A 
ATOM     58  C   UNL     1       5.058 -11.706   1.386  1.00  0.00     0.049 A 
ATOM     59  C   UNL     1       5.733  -7.308  -2.125  1.00  0.00     0.074 A 
ATOM     60  C   UNL     1       6.123 -11.912   2.243  1.00  0.00     0.029 A 
ATOM     61  N   UNL     1       5.620 -11.578   0.139  1.00  0.00    -0.354 N 
ATOM     62  N   UNL     1       6.860  -7.933  -1.917  1.00  0.00    -0.248 NA
ATOM     63  C   UNL     1       4.557  -8.160  -2.214  1.00  0.00     0.031 C 
ATOM     64  C   UNL     1       7.247 -11.353   1.565  1.00  0.00     0.029 A 
ATOM     65  C   UNL     1       6.799 -10.900   0.323  1.00  0.00     0.049 A 
ATOM     66  H   UNL     1       5.252 -11.907  -0.713  1.00  0.00     0.167 HD
ATOM     67  C   UNL     1       6.491  -9.178  -1.430  1.00  0.00     0.074 A 
ATOM     68  C   UNL     1       5.066  -9.296  -1.732  1.00  0.00     0.031 C 
ATOM     69  C   UNL     1       7.293  -9.884  -0.577  1.00  0.00     0.037 A 
BRANCH  56  70
ATOM     70  C   UNL     1       2.563 -12.024   0.831  1.00  0.00     0.057 A 
ATOM     71  C   UNL     1       2.710 -13.363   0.426  1.00  0.00     0.134 A 
ATOM     72  C   UNL     1       1.463 -11.344   0.272  1.00  0.00     0.134 A 
ATOM     73  F   UNL     1       3.739 -14.105   0.863  1.00  0.00    -0.206 F 
ATOM     74  C   UNL     1       1.850 -13.966  -0.501  1.00  0.00     0.040 A 
ATOM     75  C   UNL     1       0.569 -11.951  -0.614  1.00  0.00     0.040 A 
ATOM     76  F   UNL     1       1.258 -10.037   0.479  1.00  0.00    -0.206 F 
ATOM     77  C   UNL     1       0.775 -13.259  -1.025  1.00  0.00     0.006 A 
ENDBRANCH  56  70
BRANCH  57  78
ATOM     78  C   UNL     1       5.050  -4.899  -2.866  1.00  0.00     0.057 A 
ATOM     79  C   UNL     1       5.336  -5.072  -4.225  1.00  0.00     0.134 A 
ATOM     80  C   UNL     1       4.097  -3.909  -2.557  1.00  0.00     0.134 A 
ATOM     81  F   UNL     1       6.197  -6.020  -4.623  1.00  0.00    -0.206 F 
ATOM     82  C   UNL     1       4.703  -4.317  -5.221  1.00  0.00     0.040 A 
ATOM     83  C   UNL     1       3.466  -3.140  -3.539  1.00  0.00     0.040 A 
ATOM     84  F   UNL     1       3.684  -3.709  -1.297  1.00  0.00    -0.206 F 
ATOM     85  C   UNL     1       3.759  -3.352  -4.879  1.00  0.00     0.006 A 
ENDBRANCH  57  78
BRANCH  69  86
ATOM     86  C   UNL     1       8.699  -9.399  -0.336  1.00  0.00     0.057 A 
ATOM     87  C   UNL     1       9.011  -8.149   0.219  1.00  0.00     0.134 A 
ATOM     88  C   UNL     1       9.763 -10.294  -0.498  1.00  0.00     0.134 A 
ATOM     89  F   UNL     1       8.055  -7.263   0.518  1.00  0.00    -0.206 F 
ATOM     90  C   UNL     1      10.321  -7.791   0.555  1.00  0.00     0.040 A 
ATOM     91  C   UNL     1      11.072  -9.962  -0.136  1.00  0.00     0.040 A 
ATOM     92  F   UNL     1       9.540 -11.534  -0.964  1.00  0.00    -0.206 F 
ATOM     93  C   UNL     1      11.356  -8.703   0.385  1.00  0.00     0.006 A 
ENDBRANCH  69  86
ENDBRANCH  43  44
ENDBRANCH  35  38
ENDBRANCH  33  34
ENDBRANCH  32  33
ENDBRANCH   1  32
TORSDOF 14
