REMARK SMILES CC[C@]1(C(=O)NCCCNC(=O)c2ccc(-c3c4nc(c(-c5c(F)cccc5F)c5ccc([nH]5)c(-c5c(F)cccc5F)c5nc(c(-c6c(F)cccc6F)c6ccc3[nH]6)C=C5)C=C4)cc2)CCC[N@@H+]([C@@H]2CCC[C@H](S(C)(=O)=O)C2)C1
REMARK SMILES IDX 8 1 7 2 6 3 4 4 5 5 3 7 67 8 81 9 68 10 70 11 69 12 2 14
REMARK SMILES IDX 1 15 71 16 72 17 80 18 73 19 75 20 74 21 76 22 77 23 78 24
REMARK SMILES IDX 79 25 9 26 10 27 11 28 12 30 13 31 14 32 66 33 15 34 65 35
REMARK SMILES IDX 16 36 17 37 18 38 59 39 19 40 64 41 58 42 60 43 20 44 63 45
REMARK SMILES IDX 57 46 56 47 21 49 47 50 30 51 46 52 31 53 34 54 45 55 61 56
REMARK SMILES IDX 32 57 33 58 44 60 62 61 35 62 22 63 23 64 28 65 24 66 25 67
REMARK SMILES IDX 27 68 29 69 26 70 48 71 49 72 54 73 50 74 51 75 53 76 55 77
REMARK SMILES IDX 52 78 36 79 37 80 42 81 38 82 39 83 41 84 43 85 40 86
REMARK H PARENT 6 6 70 13 10 29 60 48 34 59
REMARK Flexibility Score: inf
ROOT
ATOM      1  C   UNL     1       3.464   4.668  -2.650  1.00  0.00     0.042 C 
ENDROOT
BRANCH   1   2
ATOM      2  C   UNL     1       2.023   4.400  -2.256  1.00  0.00     0.117 C 
BRANCH   2   3
ATOM      3  N   UNL     1       1.630   3.017  -2.487  1.00  0.00    -0.355 N 
ATOM      4  C   UNL     1       1.091   2.066  -1.671  1.00  0.00     0.231 C 
ATOM      5  O   UNL     1       0.747   1.024  -2.232  1.00  0.00    -0.274 OA
ATOM      6  H   UNL     1       1.783   2.709  -3.410  1.00  0.00     0.163 HD
BRANCH   4   7
ATOM      7  C   UNL     1       0.886   2.305  -0.158  1.00  0.00     0.098 C 
ATOM      8  C   UNL     1       2.240   2.620   0.525  1.00  0.00     0.028 C 
ATOM      9  C   UNL     1      -0.143   3.478  -0.046  1.00  0.00     0.279 C 
ATOM     10  C   UNL     1       2.066   3.357   1.845  1.00  0.00     0.063 C 
ATOM     11  N   UNL     1      -0.133   4.288   1.184  1.00  0.00    -0.332 N 
ATOM     12  C   UNL     1       1.216   4.606   1.662  1.00  0.00     0.262 C 
ATOM     13  H   UNL     1      -0.526   3.714   1.930  1.00  0.00     0.348 HD
BRANCH   7  14
ATOM     14  C   UNL     1       0.247   1.052   0.533  1.00  0.00     0.019 C 
ATOM     15  C   UNL     1       0.974  -0.284   0.368  1.00  0.00     0.005 C 
ENDBRANCH   7  14
BRANCH  11  16
ATOM     16  C   UNL     1      -1.021   5.476   1.046  1.00  0.00     0.185 C 
ATOM     17  C   UNL     1      -0.480   6.596   0.126  1.00  0.00     0.065 C 
ATOM     18  C   UNL     1      -1.390   6.034   2.430  1.00  0.00     0.084 C 
ATOM     19  C   UNL     1      -1.442   7.776   0.045  1.00  0.00     0.007 C 
ATOM     20  C   UNL     1      -2.300   7.270   2.365  1.00  0.00     0.114 C 
ATOM     21  C   UNL     1      -1.734   8.340   1.429  1.00  0.00     0.020 C 
BRANCH  20  22
ATOM     22  S   UNL     1      -2.525   7.905   4.042  1.00  0.00     0.150 S 
ATOM     23  C   UNL     1      -3.601   9.306   3.863  1.00  0.00     0.158 C 
ATOM     24  O   UNL     1      -3.261   6.905   4.795  1.00  0.00    -0.229 OA
ATOM     25  O   UNL     1      -1.249   8.399   4.521  1.00  0.00    -0.229 OA
ENDBRANCH  20  22
ENDBRANCH  11  16
ENDBRANCH   4   7
ENDBRANCH   2   3
ENDBRANCH   1   2
BRANCH   1  26
ATOM     26  C   UNL     1       3.731   4.458  -4.131  1.00  0.00     0.118 C 
BRANCH  26  27
ATOM     27  N   UNL     1       2.973   5.375  -4.974  1.00  0.00    -0.352 N 
ATOM     28  C   UNL     1       3.418   6.346  -5.837  1.00  0.00     0.251 C 
ATOM     29  H   UNL     1       1.995   5.285  -4.915  1.00  0.00     0.163 HD
ATOM     30  O   UNL     1       2.627   7.153  -6.314  1.00  0.00    -0.269 OA
BRANCH  28  31
ATOM     31  C   UNL     1       4.855   6.431  -6.168  1.00  0.00     0.039 A 
ATOM     32  C   UNL     1       5.469   7.684  -6.212  1.00  0.00     0.014 A 
ATOM     33  C   UNL     1       5.599   5.275  -6.416  1.00  0.00     0.014 A 
ATOM     34  C   UNL     1       6.846   7.769  -6.426  1.00  0.00     0.010 A 
ATOM     35  C   UNL     1       6.982   5.354  -6.522  1.00  0.00     0.010 A 
ATOM     36  C   UNL     1       7.621   6.602  -6.536  1.00  0.00    -0.014 A 
BRANCH  36  37
ATOM     37  C   UNL     1       9.098   6.663  -6.672  1.00  0.00     0.031 A 
ATOM     38  C   UNL     1       9.765   6.093  -7.895  1.00  0.00     0.074 A 
ATOM     39  C   UNL     1       9.841   7.166  -5.667  1.00  0.00     0.049 A 
ATOM     40  N   UNL     1      11.040   5.985  -8.166  1.00  0.00    -0.248 NA
ATOM     41  C   UNL     1       8.884   5.544  -8.940  1.00  0.00     0.031 C 
ATOM     42  C   UNL     1       9.317   7.703  -4.409  1.00  0.00     0.029 A 
ATOM     43  N   UNL     1      11.201   7.302  -5.541  1.00  0.00    -0.354 N 
ATOM     44  C   UNL     1      11.113   5.342  -9.396  1.00  0.00     0.074 A 
ATOM     45  C   UNL     1       9.758   5.033  -9.794  1.00  0.00     0.031 C 
ATOM     46  C   UNL     1      10.339   8.139  -3.655  1.00  0.00     0.029 A 
ATOM     47  C   UNL     1      11.592   7.871  -4.352  1.00  0.00     0.049 A 
ATOM     48  H   UNL     1      11.837   7.019  -6.237  1.00  0.00     0.167 HD
ATOM     49  C   UNL     1      12.209   5.057 -10.137  1.00  0.00     0.037 A 
ATOM     50  C   UNL     1      12.823   8.137  -3.876  1.00  0.00     0.037 A 
ATOM     51  C   UNL     1      13.553   5.396  -9.753  1.00  0.00     0.049 A 
ATOM     52  C   UNL     1      14.023   7.796  -4.718  1.00  0.00     0.074 A 
ATOM     53  C   UNL     1      14.723   5.216 -10.469  1.00  0.00     0.029 A 
ATOM     54  N   UNL     1      13.906   5.982  -8.547  1.00  0.00    -0.354 N 
ATOM     55  N   UNL     1      14.070   7.262  -5.914  1.00  0.00    -0.248 NA
ATOM     56  C   UNL     1      15.341   8.098  -4.143  1.00  0.00     0.031 C 
ATOM     57  C   UNL     1      15.791   5.640  -9.673  1.00  0.00     0.029 A 
ATOM     58  C   UNL     1      15.280   6.142  -8.486  1.00  0.00     0.049 A 
ATOM     59  H   UNL     1      13.274   6.245  -7.840  1.00  0.00     0.167 HD
ATOM     60  C   UNL     1      15.417   7.201  -6.250  1.00  0.00     0.074 A 
ATOM     61  C   UNL     1      16.151   7.764  -5.137  1.00  0.00     0.031 C 
ATOM     62  C   UNL     1      15.995   6.721  -7.378  1.00  0.00     0.037 A 
BRANCH  49  63
ATOM     63  C   UNL     1      12.004   4.345 -11.443  1.00  0.00     0.057 A 
ATOM     64  C   UNL     1      11.406   4.972 -12.545  1.00  0.00     0.134 A 
ATOM     65  C   UNL     1      12.464   3.033 -11.619  1.00  0.00     0.134 A 
ATOM     66  F   UNL     1      10.932   6.223 -12.441  1.00  0.00    -0.206 F 
ATOM     67  C   UNL     1      11.255   4.314 -13.767  1.00  0.00     0.040 A 
ATOM     68  C   UNL     1      12.346   2.376 -12.844  1.00  0.00     0.040 A 
ATOM     69  F   UNL     1      13.051   2.375 -10.608  1.00  0.00    -0.206 F 
ATOM     70  C   UNL     1      11.736   3.015 -13.921  1.00  0.00     0.006 A 
ENDBRANCH  49  63
BRANCH  50  71
ATOM     71  C   UNL     1      12.995   8.773  -2.543  1.00  0.00     0.057 A 
ATOM     72  C   UNL     1      13.514  10.068  -2.424  1.00  0.00     0.134 A 
ATOM     73  C   UNL     1      12.685   8.093  -1.359  1.00  0.00     0.134 A 
ATOM     74  F   UNL     1      13.848  10.765  -3.520  1.00  0.00    -0.206 F 
ATOM     75  C   UNL     1      13.751  10.651  -1.178  1.00  0.00     0.040 A 
ATOM     76  C   UNL     1      12.888   8.676  -0.106  1.00  0.00     0.040 A 
ATOM     77  F   UNL     1      12.175   6.853  -1.402  1.00  0.00    -0.206 F 
ATOM     78  C   UNL     1      13.434   9.954  -0.014  1.00  0.00     0.006 A 
ENDBRANCH  50  71
BRANCH  62  79
ATOM     79  C   UNL     1      17.488   6.831  -7.489  1.00  0.00     0.057 A 
ATOM     80  C   UNL     1      18.351   6.047  -6.714  1.00  0.00     0.134 A 
ATOM     81  C   UNL     1      18.068   7.707  -8.416  1.00  0.00     0.134 A 
ATOM     82  F   UNL     1      17.861   5.196  -5.799  1.00  0.00    -0.206 F 
ATOM     83  C   UNL     1      19.738   6.150  -6.837  1.00  0.00     0.040 A 
ATOM     84  C   UNL     1      19.451   7.796  -8.571  1.00  0.00     0.040 A 
ATOM     85  F   UNL     1      17.298   8.479  -9.198  1.00  0.00    -0.206 F 
ATOM     86  C   UNL     1      20.291   7.021  -7.774  1.00  0.00     0.006 A 
ENDBRANCH  62  79
ENDBRANCH  36  37
ENDBRANCH  28  31
ENDBRANCH  26  27
ENDBRANCH   1  26
TORSDOF 13
