REMARK SMILES CCc1ccc(C(=O)NCCCNC(=O)c2ccc(-c3c4nc(c(-c5c(F)cccc5F)c5ccc([nH]5)c(-c5c(F)cccc5F)c5nc(c(-c6c(F)cccc6F)c6ccc3[nH]6)C=C5)C=C4)cc2)cc1S(=O)(=O)Nc1ccc(F)c(F)c1F
REMARK SMILES IDX 10 1 9 2 7 3 8 4 6 6 3 7 4 8 71 9 5 10 70 11 2 12 1 13 72 14
REMARK SMILES IDX 73 15 74 16 75 17 76 19 77 20 83 21 78 22 81 23 84 24 79 25
REMARK SMILES IDX 82 26 80 27 11 28 12 29 13 30 14 31 15 33 16 34 17 35 69 36
REMARK SMILES IDX 18 37 68 38 19 39 20 40 21 41 62 42 22 43 67 44 61 45 63 46
REMARK SMILES IDX 23 47 66 48 60 49 59 50 24 52 50 53 33 54 49 55 34 56 37 57
REMARK SMILES IDX 48 58 64 59 35 60 36 61 47 63 65 64 38 65 25 66 26 67 31 68
REMARK SMILES IDX 27 69 28 70 30 71 32 72 29 73 51 74 52 75 57 76 53 77 54 78
REMARK SMILES IDX 56 79 58 80 55 81 39 82 40 83 45 84 41 85 42 86 44 87 46 88
REMARK SMILES IDX 43 89
REMARK H PARENT 9 5 75 18 13 32 63 51 37 62
REMARK Flexibility Score: inf
ROOT
ATOM      1  C   UNL     1       0.729   5.956  -4.582  1.00  0.00     0.118 C 
ENDROOT
BRANCH   1   2
ATOM      2  N   UNL     1       1.849   5.247  -5.177  1.00  0.00    -0.352 N 
ATOM      3  C   UNL     1       2.564   4.153  -4.766  1.00  0.00     0.251 C 
ATOM      4  O   UNL     1       3.548   3.812  -5.418  1.00  0.00    -0.269 OA
ATOM      5  H   UNL     1       2.151   5.622  -6.036  1.00  0.00     0.163 HD
BRANCH   3   6
ATOM      6  C   UNL     1       2.083   3.291  -3.663  1.00  0.00     0.041 A 
ATOM      7  C   UNL     1       0.693   1.534  -1.932  1.00  0.00    -0.028 A 
ATOM      8  C   UNL     1       1.398   1.067  -3.066  1.00  0.00     0.006 A 
ATOM      9  C   UNL     1       0.844   2.896  -1.588  1.00  0.00     0.091 A 
ATOM     10  C   UNL     1       2.080   1.927  -3.918  1.00  0.00     0.014 A 
ATOM     11  C   UNL     1       1.562   3.756  -2.457  1.00  0.00     0.036 A 
BRANCH   7  12
ATOM     12  C   UNL     1      -0.296   0.550  -1.349  1.00  0.00     0.033 C 
ATOM     13  C   UNL     1       0.230  -0.873  -1.156  1.00  0.00     0.009 C 
ENDBRANCH   7  12
BRANCH   9  14
ATOM     14  S   UNL     1       0.139   3.797  -0.203  1.00  0.00     0.262 S 
ATOM     15  O   UNL     1       1.192   4.557   0.418  1.00  0.00    -0.201 OA
ATOM     16  O   UNL     1      -1.011   4.492  -0.770  1.00  0.00    -0.201 OA
BRANCH  14  17
ATOM     17  N   UNL     1      -0.526   2.787   0.933  1.00  0.00    -0.277 N 
ATOM     18  H   UNL     1      -1.486   2.910   1.115  1.00  0.00     0.180 HD
BRANCH  17  19
ATOM     19  C   UNL     1       0.128   1.763   1.675  1.00  0.00     0.088 A 
ATOM     20  C   UNL     1      -0.736   0.845   2.300  1.00  0.00     0.033 A 
ATOM     21  C   UNL     1       1.503   1.505   1.673  1.00  0.00     0.185 A 
ATOM     22  C   UNL     1      -0.245  -0.356   2.813  1.00  0.00     0.045 A 
ATOM     23  C   UNL     1       1.992   0.319   2.211  1.00  0.00     0.196 A 
ATOM     24  F   UNL     1       2.368   2.341   1.087  1.00  0.00    -0.201 F 
ATOM     25  C   UNL     1       1.117  -0.617   2.749  1.00  0.00     0.162 A 
ATOM     26  F   UNL     1       3.303   0.048   2.148  1.00  0.00    -0.200 F 
ATOM     27  F   UNL     1       1.575  -1.799   3.180  1.00  0.00    -0.204 F 
ENDBRANCH  17  19
ENDBRANCH  14  17
ENDBRANCH   9  14
ENDBRANCH   3   6
ENDBRANCH   1   2
BRANCH   1  28
ATOM     28  C   UNL     1       1.230   7.214  -3.876  1.00  0.00     0.042 C 
BRANCH  28  29
ATOM     29  C   UNL     1       1.786   8.251  -4.848  1.00  0.00     0.118 C 
BRANCH  29  30
ATOM     30  N   UNL     1       0.738   8.864  -5.651  1.00  0.00    -0.352 N 
ATOM     31  C   UNL     1       0.478  10.194  -5.862  1.00  0.00     0.251 C 
ATOM     32  H   UNL     1       0.130   8.236  -6.105  1.00  0.00     0.163 HD
ATOM     33  O   UNL     1      -0.570  10.537  -6.399  1.00  0.00    -0.269 OA
BRANCH  31  34
ATOM     34  C   UNL     1       1.459  11.213  -5.437  1.00  0.00     0.039 A 
ATOM     35  C   UNL     1       0.996  12.368  -4.801  1.00  0.00     0.014 A 
ATOM     36  C   UNL     1       2.823  11.049  -5.695  1.00  0.00     0.014 A 
ATOM     37  C   UNL     1       1.907  13.344  -4.391  1.00  0.00     0.010 A 
ATOM     38  C   UNL     1       3.735  11.990  -5.228  1.00  0.00     0.010 A 
ATOM     39  C   UNL     1       3.284  13.154  -4.586  1.00  0.00    -0.014 A 
BRANCH  39  40
ATOM     40  C   UNL     1       4.268  14.178  -4.157  1.00  0.00     0.031 A 
ATOM     41  C   UNL     1       5.088  14.906  -5.187  1.00  0.00     0.074 A 
ATOM     42  C   UNL     1       4.463  14.409  -2.845  1.00  0.00     0.049 A 
ATOM     43  N   UNL     1       6.051  15.775  -5.014  1.00  0.00    -0.248 NA
ATOM     44  C   UNL     1       4.805  14.596  -6.598  1.00  0.00     0.031 C 
ATOM     45  C   UNL     1       3.760  13.735  -1.752  1.00  0.00     0.029 A 
ATOM     46  N   UNL     1       5.322  15.268  -2.209  1.00  0.00    -0.354 N 
ATOM     47  C   UNL     1       6.501  16.097  -6.288  1.00  0.00     0.074 A 
ATOM     48  C   UNL     1       5.739  15.298  -7.222  1.00  0.00     0.031 C 
ATOM     49  C   UNL     1       4.204  14.219  -0.581  1.00  0.00     0.029 A 
ATOM     50  C   UNL     1       5.245  15.209  -0.838  1.00  0.00     0.049 A 
ATOM     51  H   UNL     1       5.936  15.870  -2.688  1.00  0.00     0.167 HD
ATOM     52  C   UNL     1       7.449  16.994  -6.648  1.00  0.00     0.037 A 
ATOM     53  C   UNL     1       5.942  15.874   0.102  1.00  0.00     0.037 A 
ATOM     54  C   UNL     1       8.180  17.813  -5.718  1.00  0.00     0.049 A 
ATOM     55  C   UNL     1       6.981  16.873  -0.325  1.00  0.00     0.074 A 
ATOM     56  C   UNL     1       9.120  18.793  -5.984  1.00  0.00     0.029 A 
ATOM     57  N   UNL     1       8.049  17.747  -4.339  1.00  0.00    -0.354 N 
ATOM     58  N   UNL     1       7.354  17.212  -1.535  1.00  0.00    -0.248 NA
ATOM     59  C   UNL     1       7.690  17.590   0.745  1.00  0.00     0.031 C 
ATOM     60  C   UNL     1       9.583  19.297  -4.765  1.00  0.00     0.029 A 
ATOM     61  C   UNL     1       8.900  18.661  -3.740  1.00  0.00     0.049 A 
ATOM     62  H   UNL     1       7.441  17.141  -3.857  1.00  0.00     0.167 HD
ATOM     63  C   UNL     1       8.315  18.201  -1.374  1.00  0.00     0.074 A 
ATOM     64  C   UNL     1       8.460  18.416   0.051  1.00  0.00     0.031 C 
ATOM     65  C   UNL     1       9.016  18.872  -2.321  1.00  0.00     0.037 A 
BRANCH  52  66
ATOM     66  C   UNL     1       7.744  17.143  -8.112  1.00  0.00     0.057 A 
ATOM     67  C   UNL     1       6.836  17.750  -8.990  1.00  0.00     0.134 A 
ATOM     68  C   UNL     1       8.966  16.711  -8.644  1.00  0.00     0.134 A 
ATOM     69  F   UNL     1       5.643  18.175  -8.548  1.00  0.00    -0.206 F 
ATOM     70  C   UNL     1       7.123  17.900 -10.348  1.00  0.00     0.040 A 
ATOM     71  C   UNL     1       9.274  16.879  -9.995  1.00  0.00     0.040 A 
ATOM     72  F   UNL     1       9.883  16.127  -7.858  1.00  0.00    -0.206 F 
ATOM     73  C   UNL     1       8.349  17.470 -10.852  1.00  0.00     0.006 A 
ENDBRANCH  52  66
BRANCH  53  74
ATOM     74  C   UNL     1       5.666  15.636   1.541  1.00  0.00     0.057 A 
ATOM     75  C   UNL     1       5.047  16.614   2.328  1.00  0.00     0.134 A 
ATOM     76  C   UNL     1       6.026  14.437   2.167  1.00  0.00     0.134 A 
ATOM     77  F   UNL     1       4.695  17.791   1.788  1.00  0.00    -0.206 F 
ATOM     78  C   UNL     1       4.815  16.419   3.690  1.00  0.00     0.040 A 
ATOM     79  C   UNL     1       5.777  14.218   3.523  1.00  0.00     0.040 A 
ATOM     80  F   UNL     1       6.616  13.457   1.467  1.00  0.00    -0.206 F 
ATOM     81  C   UNL     1       5.178  15.215   4.290  1.00  0.00     0.006 A 
ENDBRANCH  53  74
BRANCH  65  82
ATOM     82  C   UNL     1       9.966  19.932  -1.848  1.00  0.00     0.057 A 
ATOM     83  C   UNL     1      11.181  19.614  -1.229  1.00  0.00     0.134 A 
ATOM     84  C   UNL     1       9.677  21.287  -2.054  1.00  0.00     0.134 A 
ATOM     85  F   UNL     1      11.509  18.335  -0.992  1.00  0.00    -0.206 F 
ATOM     86  C   UNL     1      12.066  20.609  -0.810  1.00  0.00     0.040 A 
ATOM     87  C   UNL     1      10.565  22.289  -1.663  1.00  0.00     0.040 A 
ATOM     88  F   UNL     1       8.534  21.657  -2.650  1.00  0.00    -0.206 F 
ATOM     89  C   UNL     1      11.761  21.951  -1.034  1.00  0.00     0.006 A 
ENDBRANCH  65  82
ENDBRANCH  39  40
ENDBRANCH  31  34
ENDBRANCH  29  30
ENDBRANCH  28  29
ENDBRANCH   1  28
TORSDOF 14
