REMARK SMILES C=C[C@@H](C)Oc1cnc2ccccc2c1C(=O)NCCCNC(=O)c1ccc(-c2c3nc(c(-c4c(F)cccc4F)c4ccc([nH]4)c(-c4c(F)cccc4F)c4nc(c(-c5c(F)cccc5F)c5ccc2[nH]5)C=C4)C=C3)cc1
REMARK SMILES IDX 19 1 18 2 16 3 17 4 15 6 6 7 7 8 8 9 14 10 9 11 13 12 10 13
REMARK SMILES IDX 12 14 11 15 5 16 3 17 4 18 2 19 1 20 20 21 21 22 22 23 23 24
REMARK SMILES IDX 24 26 25 27 26 28 78 29 27 30 77 31 28 32 29 33 30 34 71 35
REMARK SMILES IDX 31 36 76 37 70 38 72 39 32 40 75 41 69 42 68 43 33 45 59 46
REMARK SMILES IDX 42 47 58 48 43 49 46 50 57 51 73 52 44 53 45 54 56 56 74 57
REMARK SMILES IDX 47 58 34 59 35 60 40 61 36 62 37 63 39 64 41 65 38 66 60 67
REMARK SMILES IDX 61 68 66 69 62 70 63 71 65 72 67 73 64 74 48 75 49 76 54 77
REMARK SMILES IDX 50 78 51 79 53 80 55 81 52 82
REMARK H PARENT 18 5 22 25 72 44 46 55
REMARK Flexibility Score: inf
ROOT
ATOM      1  C   UNL     1      -4.799   2.841   5.452  1.00  0.00     0.118 C 
ENDROOT
BRANCH   1   2
ATOM      2  N   UNL     1      -4.339   2.815   4.070  1.00  0.00    -0.352 N 
ATOM      3  C   UNL     1      -3.135   2.772   3.405  1.00  0.00     0.255 C 
ATOM      4  O   UNL     1      -3.249   3.002   2.196  1.00  0.00    -0.269 OA
ATOM      5  H   UNL     1      -5.096   2.832   3.441  1.00  0.00     0.163 HD
BRANCH   3   6
ATOM      6  C   UNL     1      -1.779   2.409   3.969  1.00  0.00     0.092 A 
ATOM      7  C   UNL     1      -0.914   1.688   3.110  1.00  0.00     0.151 A 
ATOM      8  C   UNL     1       0.337   1.342   3.589  1.00  0.00     0.159 A 
ATOM      9  N   UNL     1       0.747   1.519   4.856  1.00  0.00    -0.252 NA
ATOM     10  C   UNL     1      -1.281   2.765   5.266  1.00  0.00     0.017 A 
ATOM     11  C   UNL     1      -0.043   2.212   5.670  1.00  0.00     0.071 A 
ATOM     12  C   UNL     1      -1.854   3.680   6.174  1.00  0.00     0.011 A 
ATOM     13  C   UNL     1       0.441   2.420   6.954  1.00  0.00     0.029 A 
ATOM     14  C   UNL     1      -1.376   3.873   7.473  1.00  0.00     0.001 A 
ATOM     15  C   UNL     1      -0.233   3.213   7.876  1.00  0.00     0.002 A 
BRANCH   7  16
ATOM     16  O   UNL     1      -1.229   1.467   1.797  1.00  0.00    -0.484 OA
BRANCH  16  17
ATOM     17  C   UNL     1      -1.133   0.147   1.232  1.00  0.00     0.192 C 
ATOM     18  C   UNL     1      -1.827  -0.927   2.069  1.00  0.00     0.057 C 
BRANCH  17  19
ATOM     19  C   UNL     1       0.280  -0.236   0.855  1.00  0.00     0.009 C 
ATOM     20  C   UNL     1       0.847   0.003  -0.335  1.00  0.00     0.008 C 
ENDBRANCH  17  19
ENDBRANCH  16  17
ENDBRANCH   7  16
ENDBRANCH   3   6
ENDBRANCH   1   2
BRANCH   1  21
ATOM     21  C   UNL     1      -5.095   4.291   5.873  1.00  0.00     0.042 C 
BRANCH  21  22
ATOM     22  C   UNL     1      -6.508   4.777   5.579  1.00  0.00     0.118 C 
BRANCH  22  23
ATOM     23  N   UNL     1      -7.444   4.401   6.627  1.00  0.00    -0.352 N 
ATOM     24  C   UNL     1      -8.078   5.169   7.573  1.00  0.00     0.251 C 
ATOM     25  H   UNL     1      -7.657   3.441   6.665  1.00  0.00     0.163 HD
ATOM     26  O   UNL     1      -8.639   4.606   8.517  1.00  0.00    -0.269 OA
BRANCH  24  27
ATOM     27  C   UNL     1      -8.097   6.652   7.501  1.00  0.00     0.039 A 
ATOM     28  C   UNL     1      -8.058   7.386   8.693  1.00  0.00     0.014 A 
ATOM     29  C   UNL     1      -8.220   7.330   6.287  1.00  0.00     0.014 A 
ATOM     30  C   UNL     1      -8.085   8.786   8.662  1.00  0.00     0.010 A 
ATOM     31  C   UNL     1      -8.157   8.723   6.250  1.00  0.00     0.010 A 
ATOM     32  C   UNL     1      -8.102   9.469   7.436  1.00  0.00    -0.014 A 
BRANCH  32  33
ATOM     33  C   UNL     1      -8.089  10.956   7.369  1.00  0.00     0.031 A 
ATOM     34  C   UNL     1      -9.243  11.695   6.742  1.00  0.00     0.074 A 
ATOM     35  C   UNL     1      -7.013  11.640   7.803  1.00  0.00     0.049 A 
ATOM     36  N   UNL     1      -9.371  12.974   6.489  1.00  0.00    -0.248 NA
ATOM     37  C   UNL     1     -10.392  10.883   6.311  1.00  0.00     0.031 C 
ATOM     38  C   UNL     1      -5.812  11.045   8.392  1.00  0.00     0.029 A 
ATOM     39  N   UNL     1      -6.747  12.987   7.802  1.00  0.00    -0.354 N 
ATOM     40  C   UNL     1     -10.597  13.114   5.849  1.00  0.00     0.074 A 
ATOM     41  C   UNL     1     -11.152  11.786   5.707  1.00  0.00     0.031 C 
ATOM     42  C   UNL     1      -4.947  12.021   8.711  1.00  0.00     0.029 A 
ATOM     43  C   UNL     1      -5.513  13.307   8.315  1.00  0.00     0.049 A 
ATOM     44  H   UNL     1      -7.381  13.661   7.466  1.00  0.00     0.167 HD
ATOM     45  C   UNL     1     -11.215  14.246   5.437  1.00  0.00     0.037 A 
ATOM     46  C   UNL     1      -4.901  14.500   8.441  1.00  0.00     0.037 A 
ATOM     47  C   UNL     1     -10.679  15.571   5.613  1.00  0.00     0.049 A 
ATOM     48  C   UNL     1      -5.610  15.743   7.983  1.00  0.00     0.074 A 
ATOM     49  C   UNL     1     -11.257  16.786   5.288  1.00  0.00     0.029 A 
ATOM     50  N   UNL     1      -9.438  15.852   6.164  1.00  0.00    -0.354 N 
ATOM     51  N   UNL     1      -6.794  15.864   7.433  1.00  0.00    -0.248 NA
ATOM     52  C   UNL     1      -4.901  17.018   8.168  1.00  0.00     0.031 C 
ATOM     53  C   UNL     1     -10.349  17.801   5.608  1.00  0.00     0.029 A 
ATOM     54  C   UNL     1      -9.225  17.221   6.174  1.00  0.00     0.049 A 
ATOM     55  H   UNL     1      -8.803  15.179   6.499  1.00  0.00     0.167 HD
ATOM     56  C   UNL     1      -6.983  17.226   7.233  1.00  0.00     0.074 A 
ATOM     57  C   UNL     1      -5.798  17.891   7.732  1.00  0.00     0.031 C 
ATOM     58  C   UNL     1      -8.044  17.867   6.684  1.00  0.00     0.037 A 
BRANCH  45  59
ATOM     59  C   UNL     1     -12.548  14.101   4.760  1.00  0.00     0.057 A 
ATOM     60  C   UNL     1     -13.696  13.707   5.461  1.00  0.00     0.134 A 
ATOM     61  C   UNL     1     -12.694  14.389   3.396  1.00  0.00     0.134 A 
ATOM     62  F   UNL     1     -13.625  13.407   6.767  1.00  0.00    -0.206 F 
ATOM     63  C   UNL     1     -14.932  13.575   4.825  1.00  0.00     0.040 A 
ATOM     64  C   UNL     1     -13.931  14.287   2.756  1.00  0.00     0.040 A 
ATOM     65  F   UNL     1     -11.639  14.779   2.665  1.00  0.00    -0.206 F 
ATOM     66  C   UNL     1     -15.053  13.871   3.470  1.00  0.00     0.006 A 
ENDBRANCH  45  59
BRANCH  46  67
ATOM     67  C   UNL     1      -3.548  14.580   9.050  1.00  0.00     0.057 A 
ATOM     68  C   UNL     1      -3.360  15.146  10.316  1.00  0.00     0.134 A 
ATOM     69  C   UNL     1      -2.414  14.100   8.384  1.00  0.00     0.134 A 
ATOM     70  F   UNL     1      -4.405  15.641  10.995  1.00  0.00    -0.206 F 
ATOM     71  C   UNL     1      -2.093  15.248  10.892  1.00  0.00     0.040 A 
ATOM     72  C   UNL     1      -1.144  14.173   8.958  1.00  0.00     0.040 A 
ATOM     73  F   UNL     1      -2.527  13.539   7.171  1.00  0.00    -0.206 F 
ATOM     74  C   UNL     1      -0.980  14.755  10.213  1.00  0.00     0.006 A 
ENDBRANCH  46  67
BRANCH  58  75
ATOM     75  C   UNL     1      -7.987  19.366   6.632  1.00  0.00     0.057 A 
ATOM     76  C   UNL     1      -7.154  20.044   5.734  1.00  0.00     0.134 A 
ATOM     77  C   UNL     1      -8.808  20.138   7.464  1.00  0.00     0.134 A 
ATOM     78  F   UNL     1      -6.335  19.362   4.919  1.00  0.00    -0.206 F 
ATOM     79  C   UNL     1      -7.123  21.438   5.680  1.00  0.00     0.040 A 
ATOM     80  C   UNL     1      -8.805  21.531   7.402  1.00  0.00     0.040 A 
ATOM     81  F   UNL     1      -9.635  19.549   8.341  1.00  0.00    -0.206 F 
ATOM     82  C   UNL     1      -7.956  22.186   6.511  1.00  0.00     0.006 A 
ENDBRANCH  58  75
ENDBRANCH  32  33
ENDBRANCH  24  27
ENDBRANCH  22  23
ENDBRANCH  21  22
ENDBRANCH   1  21
TORSDOF 13
