REMARK SMILES Cc1c(C)c2c(c(C)c1O)CC[C@@](C)(C(=O)NCCCNC(=O)c1ccc(-c3c4nc(c(-c5c(F)cccc5F)c5ccc([nH]5)c(-c5c(F)cccc5F)c5nc(c(-c6c(F)cccc6F)c6ccc3[nH]6)C=C5)C=C4)cc1)O2
REMARK SMILES IDX 19 1 18 2 17 3 15 4 16 5 13 7 1 8 2 9 3 10 9 11 4 12 5 13
REMARK SMILES IDX 7 14 6 15 78 16 8 17 11 18 12 19 14 20 10 21 20 23 21 24
REMARK SMILES IDX 22 25 23 27 24 28 25 29 77 30 26 31 76 32 27 33 28 34 29 35
REMARK SMILES IDX 70 36 30 37 75 38 69 39 71 40 31 41 74 42 68 43 67 44 32 46
REMARK SMILES IDX 58 47 41 48 57 49 42 50 45 51 56 52 72 53 43 54 44 55 55 57
REMARK SMILES IDX 73 58 46 59 33 60 34 61 39 62 35 63 36 64 38 65 40 66 37 67
REMARK SMILES IDX 59 68 60 69 65 70 61 71 62 72 64 73 66 74 63 75 47 76 48 77
REMARK SMILES IDX 53 78 49 79 50 80 52 81 54 82 51 83
REMARK H PARENT 17 6 10 22 21 26 71 45 45 56
REMARK Flexibility Score: inf
ROOT
ATOM      1  C   UNL     1      -4.186   8.185  -2.567  1.00  0.00     0.042 C 
ENDROOT
BRANCH   1   2
ATOM      2  C   UNL     1      -4.645   6.970  -1.766  1.00  0.00     0.118 C 
BRANCH   2   3
ATOM      3  N   UNL     1      -4.665   5.753  -2.561  1.00  0.00    -0.353 N 
ATOM      4  C   UNL     1      -3.892   4.623  -2.533  1.00  0.00     0.263 C 
ATOM      5  O   UNL     1      -4.182   3.756  -3.364  1.00  0.00    -0.270 OA
ATOM      6  H   UNL     1      -5.368   5.738  -3.251  1.00  0.00     0.163 HD
BRANCH   4   7
ATOM      7  C   UNL     1      -2.733   4.444  -1.510  1.00  0.00     0.184 C 
ATOM      8  C   UNL     1       1.004  -0.211  -0.018  1.00  0.00     0.049 C 
ATOM      9  C   UNL     1       0.597   1.225  -0.231  1.00  0.00    -0.002 A 
ATOM     10  C   UNL     1      -0.587   1.550  -0.938  1.00  0.00    -0.002 A 
ATOM     11  C   UNL     1       1.368   2.269   0.318  1.00  0.00     0.122 A 
ATOM     12  C   UNL     1      -1.473   0.463  -1.497  1.00  0.00     0.049 C 
ATOM     13  C   UNL     1      -0.936   2.904  -1.110  1.00  0.00     0.127 A 
ATOM     14  C   UNL     1       1.036   3.619   0.130  1.00  0.00    -0.002 A 
ATOM     15  C   UNL     1      -0.120   3.936  -0.612  1.00  0.00     0.001 A 
ATOM     16  O   UNL     1      -2.116   3.162  -1.773  1.00  0.00    -0.477 OA
ATOM     17  C   UNL     1       1.887   4.718   0.715  1.00  0.00     0.049 C 
ATOM     18  C   UNL     1      -0.512   5.374  -0.812  1.00  0.00     0.044 C 
ATOM     19  C   UNL     1      -1.674   5.515  -1.771  1.00  0.00     0.063 C 
ATOM     20  C   UNL     1      -3.338   4.368  -0.095  1.00  0.00     0.067 C 
BRANCH  11  21
ATOM     21  O   UNL     1       2.481   2.007   1.074  1.00  0.00    -0.507 OA
ATOM     22  H   UNL     1       2.744   1.121   1.228  1.00  0.00     0.293 HD
ENDBRANCH  11  21
ENDBRANCH   4   7
ENDBRANCH   2   3
ENDBRANCH   1   2
BRANCH   1  23
ATOM     23  C   UNL     1      -5.193   8.650  -3.610  1.00  0.00     0.118 C 
BRANCH  23  24
ATOM     24  N   UNL     1      -6.417   9.153  -3.002  1.00  0.00    -0.352 N 
ATOM     25  C   UNL     1      -6.895  10.432  -2.876  1.00  0.00     0.251 C 
ATOM     26  H   UNL     1      -6.999   8.459  -2.617  1.00  0.00     0.163 HD
ATOM     27  O   UNL     1      -7.830  10.646  -2.105  1.00  0.00    -0.269 OA
BRANCH  25  28
ATOM     28  C   UNL     1      -6.316  11.555  -3.647  1.00  0.00     0.039 A 
ATOM     29  C   UNL     1      -6.248  12.818  -3.048  1.00  0.00     0.014 A 
ATOM     30  C   UNL     1      -5.930  11.402  -4.981  1.00  0.00     0.014 A 
ATOM     31  C   UNL     1      -5.763  13.912  -3.769  1.00  0.00     0.010 A 
ATOM     32  C   UNL     1      -5.378  12.474  -5.677  1.00  0.00     0.010 A 
ATOM     33  C   UNL     1      -5.310  13.744  -5.086  1.00  0.00    -0.014 A 
BRANCH  33  34
ATOM     34  C   UNL     1      -4.830  14.889  -5.898  1.00  0.00     0.031 A 
ATOM     35  C   UNL     1      -5.612  15.317  -7.109  1.00  0.00     0.074 A 
ATOM     36  C   UNL     1      -3.674  15.505  -5.589  1.00  0.00     0.049 A 
ATOM     37  N   UNL     1      -5.293  16.178  -8.041  1.00  0.00    -0.248 NA
ATOM     38  C   UNL     1      -6.919  14.669  -7.309  1.00  0.00     0.031 C 
ATOM     39  C   UNL     1      -2.822  15.187  -4.443  1.00  0.00     0.029 A 
ATOM     40  N   UNL     1      -3.012  16.524  -6.226  1.00  0.00    -0.354 N 
ATOM     41  C   UNL     1      -6.345  16.158  -8.948  1.00  0.00     0.074 A 
ATOM     42  C   UNL     1      -7.294  15.173  -8.476  1.00  0.00     0.031 C 
ATOM     43  C   UNL     1      -1.757  16.006  -4.449  1.00  0.00     0.029 A 
ATOM     44  C   UNL     1      -1.830  16.874  -5.620  1.00  0.00     0.049 A 
ATOM     45  H   UNL     1      -3.351  16.962  -7.039  1.00  0.00     0.167 HD
ATOM     46  C   UNL     1      -6.514  16.904 -10.065  1.00  0.00     0.037 A 
ATOM     47  C   UNL     1      -0.904  17.782  -5.980  1.00  0.00     0.037 A 
ATOM     48  C   UNL     1      -5.587  17.906 -10.518  1.00  0.00     0.049 A 
ATOM     49  C   UNL     1      -1.103  18.583  -7.235  1.00  0.00     0.074 A 
ATOM     50  C   UNL     1      -5.679  18.730 -11.626  1.00  0.00     0.029 A 
ATOM     51  N   UNL     1      -4.400  18.226  -9.878  1.00  0.00    -0.354 N 
ATOM     52  N   UNL     1      -2.095  18.546  -8.091  1.00  0.00    -0.248 NA
ATOM     53  C   UNL     1      -0.048  19.547  -7.579  1.00  0.00     0.031 C 
ATOM     54  C   UNL     1      -4.535  19.534 -11.669  1.00  0.00     0.029 A 
ATOM     55  C   UNL     1      -3.747  19.232 -10.570  1.00  0.00     0.049 A 
ATOM     56  H   UNL     1      -4.070  17.802  -9.053  1.00  0.00     0.167 HD
ATOM     57  C   UNL     1      -1.792  19.487  -9.066  1.00  0.00     0.074 A 
ATOM     58  C   UNL     1      -0.532  20.093  -8.686  1.00  0.00     0.031 C 
ATOM     59  C   UNL     1      -2.490  19.817 -10.179  1.00  0.00     0.037 A 
BRANCH  46  60
ATOM     60  C   UNL     1      -7.756  16.664 -10.871  1.00  0.00     0.057 A 
ATOM     61  C   UNL     1      -9.014  17.092 -10.428  1.00  0.00     0.134 A 
ATOM     62  C   UNL     1      -7.691  16.020 -12.113  1.00  0.00     0.134 A 
ATOM     63  F   UNL     1      -9.144  17.699  -9.239  1.00  0.00    -0.206 F 
ATOM     64  C   UNL     1     -10.167  16.871 -11.182  1.00  0.00     0.040 A 
ATOM     65  C   UNL     1      -8.834  15.814 -12.887  1.00  0.00     0.040 A 
ATOM     66  F   UNL     1      -6.517  15.587 -12.595  1.00  0.00    -0.206 F 
ATOM     67  C   UNL     1     -10.077  16.235 -12.419  1.00  0.00     0.006 A 
ENDBRANCH  46  60
BRANCH  47  68
ATOM     68  C   UNL     1       0.295  17.990  -5.132  1.00  0.00     0.057 A 
ATOM     69  C   UNL     1       0.429  19.147  -4.356  1.00  0.00     0.134 A 
ATOM     70  C   UNL     1       1.326  17.047  -5.073  1.00  0.00     0.134 A 
ATOM     71  F   UNL     1      -0.519  20.095  -4.389  1.00  0.00    -0.206 F 
ATOM     72  C   UNL     1       1.552  19.363  -3.556  1.00  0.00     0.040 A 
ATOM     73  C   UNL     1       2.446  17.241  -4.263  1.00  0.00     0.040 A 
ATOM     74  F   UNL     1       1.253  15.917  -5.792  1.00  0.00    -0.206 F 
ATOM     75  C   UNL     1       2.562  18.405  -3.504  1.00  0.00     0.006 A 
ENDBRANCH  47  68
BRANCH  59  76
ATOM     76  C   UNL     1      -1.912  20.886 -11.056  1.00  0.00     0.057 A 
ATOM     77  C   UNL     1      -0.814  20.636 -11.889  1.00  0.00     0.134 A 
ATOM     78  C   UNL     1      -2.479  22.165 -11.094  1.00  0.00     0.134 A 
ATOM     79  F   UNL     1      -0.219  19.434 -11.887  1.00  0.00    -0.206 F 
ATOM     80  C   UNL     1      -0.288  21.629 -12.716  1.00  0.00     0.040 A 
ATOM     81  C   UNL     1      -1.976  23.160 -11.933  1.00  0.00     0.040 A 
ATOM     82  F   UNL     1      -3.537  22.465 -10.326  1.00  0.00    -0.206 F 
ATOM     83  C   UNL     1      -0.873  22.894 -12.744  1.00  0.00     0.006 A 
ENDBRANCH  59  76
ENDBRANCH  33  34
ENDBRANCH  25  28
ENDBRANCH  23  24
ENDBRANCH   1  23
TORSDOF 11
