REMARK SMILES C#Cc1cccc(NS(=O)(=O)c2cc(C)c(C(=O)NCCCNC(=O)c3ccc(-c4c5nc(c(-c6c(F)cccc6F)c6ccc([nH]6)c(-c6c(F)cccc6F)c6nc(c(-c7c(F)cccc7F)c7ccc4[nH]7)C=C6)C=C5)cc3)s2)c1
REMARK SMILES IDX 20 1 19 2 17 3 18 4 16 6 12 7 13 8 80 9 14 10 15 11 9 12
REMARK SMILES IDX 10 13 11 14 8 15 7 17 3 18 4 19 81 20 5 21 6 22 2 23 1 24
REMARK SMILES IDX 21 25 22 26 23 27 24 28 25 30 26 31 27 32 79 33 28 34 78 35
REMARK SMILES IDX 29 36 30 37 31 38 72 39 32 40 77 41 71 42 73 43 33 44 76 45
REMARK SMILES IDX 70 46 69 47 34 49 60 50 43 51 59 52 44 53 47 54 58 55 74 56
REMARK SMILES IDX 45 57 46 58 57 60 75 61 48 62 35 63 36 64 41 65 37 66 38 67
REMARK SMILES IDX 40 68 42 69 39 70 61 71 62 72 67 73 63 74 64 75 66 76 68 77
REMARK SMILES IDX 65 78 49 79 50 80 55 81 51 82 52 83 54 84 56 85 53 86
REMARK H PARENT 19 5 8 16 23 29 73 48 47 59
REMARK Flexibility Score: inf
ROOT
ATOM      1  C   UNL     1       6.127   4.538  -0.179  1.00  0.00     0.118 C 
ENDROOT
BRANCH   1   2
ATOM      2  N   UNL     1       7.028   3.564   0.368  1.00  0.00    -0.351 N 
ATOM      3  C   UNL     1       6.947   2.208   0.536  1.00  0.00     0.261 C 
ATOM      4  O   UNL     1       7.957   1.744   1.082  1.00  0.00    -0.268 OA
ATOM      5  H   UNL     1       7.876   3.950   0.687  1.00  0.00     0.163 HD
BRANCH   3   6
ATOM      6  C   UNL     1       5.827   1.370   0.081  1.00  0.00     0.096 A 
ATOM      7  C   UNL     1       4.566  -0.768  -0.284  1.00  0.00     0.141 A 
ATOM      8  C   UNL     1       4.038   0.297  -0.971  1.00  0.00     0.038 A 
ATOM      9  S   UNL     1       6.103  -0.351   0.306  1.00  0.00    -0.116 S 
ATOM     10  C   UNL     1       4.524   1.530  -0.406  1.00  0.00    -0.026 A 
ATOM     11  C   UNL     1       3.574   2.677  -0.341  1.00  0.00     0.046 C 
BRANCH   7  12
ATOM     12  S   UNL     1       3.955  -2.398   0.055  1.00  0.00     0.271 S 
ATOM     13  O   UNL     1       4.546  -2.803   1.312  1.00  0.00    -0.200 OA
ATOM     14  O   UNL     1       4.201  -3.136  -1.166  1.00  0.00    -0.200 OA
BRANCH  12  15
ATOM     15  N   UNL     1       2.274  -2.453   0.278  1.00  0.00    -0.279 N 
ATOM     16  H   UNL     1       1.862  -3.342   0.364  1.00  0.00     0.180 HD
BRANCH  15  17
ATOM     17  C   UNL     1       1.403  -1.321   0.352  1.00  0.00     0.050 A 
ATOM     18  C   UNL     1      -0.812  -0.394  -0.049  1.00  0.00     0.026 A 
ATOM     19  C   UNL     1      -0.382   0.848   0.410  1.00  0.00     0.017 A 
ATOM     20  C   UNL     1       0.083  -1.471  -0.103  1.00  0.00     0.044 A 
ATOM     21  C   UNL     1       0.880   0.965   0.975  1.00  0.00     0.003 A 
ATOM     22  C   UNL     1       1.742  -0.136   1.005  1.00  0.00     0.027 A 
BRANCH  18  23
ATOM     23  C   UNL     1      -2.208  -0.544  -0.332  1.00  0.00    -0.070 C 
ATOM     24  C   UNL     1      -3.404  -0.564  -0.412  1.00  0.00     0.010 C 
ENDBRANCH  18  23
ENDBRANCH  15  17
ENDBRANCH  12  15
ENDBRANCH   7  12
ENDBRANCH   3   6
ENDBRANCH   1   2
BRANCH   1  25
ATOM     25  C   UNL     1       5.190   5.074   0.904  1.00  0.00     0.042 C 
BRANCH  25  26
ATOM     26  C   UNL     1       5.567   6.479   1.335  1.00  0.00     0.118 C 
BRANCH  26  27
ATOM     27  N   UNL     1       5.331   7.421   0.250  1.00  0.00    -0.352 N 
ATOM     28  C   UNL     1       4.750   8.658   0.263  1.00  0.00     0.251 C 
ATOM     29  H   UNL     1       5.639   7.118  -0.634  1.00  0.00     0.163 HD
ATOM     30  O   UNL     1       4.451   9.186  -0.805  1.00  0.00    -0.269 OA
BRANCH  28  31
ATOM     31  C   UNL     1       4.463   9.347   1.537  1.00  0.00     0.039 A 
ATOM     32  C   UNL     1       3.350  10.190   1.591  1.00  0.00     0.014 A 
ATOM     33  C   UNL     1       5.288   9.208   2.656  1.00  0.00     0.014 A 
ATOM     34  C   UNL     1       3.058  10.871   2.769  1.00  0.00     0.010 A 
ATOM     35  C   UNL     1       4.933   9.800   3.862  1.00  0.00     0.010 A 
ATOM     36  C   UNL     1       3.830  10.660   3.923  1.00  0.00    -0.014 A 
BRANCH  36  37
ATOM     37  C   UNL     1       3.489  11.351   5.188  1.00  0.00     0.031 A 
ATOM     38  C   UNL     1       4.455  12.317   5.815  1.00  0.00     0.074 A 
ATOM     39  C   UNL     1       2.301  11.096   5.769  1.00  0.00     0.049 A 
ATOM     40  N   UNL     1       4.306  13.048   6.891  1.00  0.00    -0.248 NA
ATOM     41  C   UNL     1       5.769  12.466   5.169  1.00  0.00     0.031 C 
ATOM     42  C   UNL     1       1.310  10.135   5.279  1.00  0.00     0.029 A 
ATOM     43  N   UNL     1       1.719  11.633   6.887  1.00  0.00    -0.354 N 
ATOM     44  C   UNL     1       5.502  13.739   7.047  1.00  0.00     0.074 A 
ATOM     45  C   UNL     1       6.392  13.286   6.002  1.00  0.00     0.031 C 
ATOM     46  C   UNL     1       0.222  10.190   6.060  1.00  0.00     0.029 A 
ATOM     47  C   UNL     1       0.456  11.152   7.130  1.00  0.00     0.049 A 
ATOM     48  H   UNL     1       2.163  12.299   7.460  1.00  0.00     0.167 HD
ATOM     49  C   UNL     1       5.818  14.686   7.961  1.00  0.00     0.037 A 
ATOM     50  C   UNL     1      -0.416  11.456   8.108  1.00  0.00     0.037 A 
ATOM     51  C   UNL     1       4.923  15.130   8.998  1.00  0.00     0.049 A 
ATOM     52  C   UNL     1      -0.031  12.498   9.121  1.00  0.00     0.074 A 
ATOM     53  C   UNL     1       5.127  16.112   9.951  1.00  0.00     0.029 A 
ATOM     54  N   UNL     1       3.656  14.610   9.224  1.00  0.00    -0.354 N 
ATOM     55  N   UNL     1       1.075  13.198   9.214  1.00  0.00    -0.248 NA
ATOM     56  C   UNL     1      -1.024  12.801  10.158  1.00  0.00     0.031 C 
ATOM     57  C   UNL     1       4.012  16.138  10.796  1.00  0.00     0.029 A 
ATOM     58  C   UNL     1       3.078  15.231  10.320  1.00  0.00     0.049 A 
ATOM     59  H   UNL     1       3.231  13.904   8.686  1.00  0.00     0.167 HD
ATOM     60  C   UNL     1       0.896  14.048  10.297  1.00  0.00     0.074 A 
ATOM     61  C   UNL     1      -0.434  13.792  10.809  1.00  0.00     0.031 C 
ATOM     62  C   UNL     1       1.754  14.960  10.822  1.00  0.00     0.037 A 
BRANCH  49  63
ATOM     63  C   UNL     1       7.190  15.297   7.882  1.00  0.00     0.057 A 
ATOM     64  C   UNL     1       7.584  16.108   6.808  1.00  0.00     0.134 A 
ATOM     65  C   UNL     1       8.123  15.095   8.908  1.00  0.00     0.134 A 
ATOM     66  F   UNL     1       6.747  16.335   5.783  1.00  0.00    -0.206 F 
ATOM     67  C   UNL     1       8.861  16.669   6.742  1.00  0.00     0.040 A 
ATOM     68  C   UNL     1       9.390  15.678   8.870  1.00  0.00     0.040 A 
ATOM     69  F   UNL     1       7.815  14.334   9.969  1.00  0.00    -0.206 F 
ATOM     70  C   UNL     1       9.766  16.461   7.781  1.00  0.00     0.006 A 
ENDBRANCH  49  63
BRANCH  50  71
ATOM     71  C   UNL     1      -1.740  10.786   8.163  1.00  0.00     0.057 A 
ATOM     72  C   UNL     1      -2.926  11.501   7.956  1.00  0.00     0.134 A 
ATOM     73  C   UNL     1      -1.854   9.418   8.440  1.00  0.00     0.134 A 
ATOM     74  F   UNL     1      -2.886  12.816   7.697  1.00  0.00    -0.206 F 
ATOM     75  C   UNL     1      -4.177  10.888   8.055  1.00  0.00     0.040 A 
ATOM     76  C   UNL     1      -3.096   8.786   8.508  1.00  0.00     0.040 A 
ATOM     77  F   UNL     1      -0.756   8.672   8.634  1.00  0.00    -0.206 F 
ATOM     78  C   UNL     1      -4.263   9.525   8.328  1.00  0.00     0.006 A 
ENDBRANCH  50  71
BRANCH  62  79
ATOM     79  C   UNL     1       1.251  15.777  11.980  1.00  0.00     0.057 A 
ATOM     80  C   UNL     1       0.968  15.210  13.231  1.00  0.00     0.134 A 
ATOM     81  C   UNL     1       1.036  17.154  11.836  1.00  0.00     0.134 A 
ATOM     82  F   UNL     1       1.144  13.895  13.438  1.00  0.00    -0.206 F 
ATOM     83  C   UNL     1       0.435  15.969  14.273  1.00  0.00     0.040 A 
ATOM     84  C   UNL     1       0.544  17.932  12.884  1.00  0.00     0.040 A 
ATOM     85  F   UNL     1       1.301  17.768  10.673  1.00  0.00    -0.206 F 
ATOM     86  C   UNL     1       0.224  17.336  14.102  1.00  0.00     0.006 A 
ENDBRANCH  62  79
ENDBRANCH  36  37
ENDBRANCH  28  31
ENDBRANCH  26  27
ENDBRANCH  25  26
ENDBRANCH   1  25
TORSDOF 14
