REMARK SMILES COC(=O)c1c(N2C(=O)C[C@H](Sc3ccccc3C(=O)NCCCNC(=O)c3ccc(-c4c5nc(c(-c6c(F)cccc6F)c6ccc([nH]6)c(-c6c(F)cccc6F)c6nc(c(-c7c(F)cccc7F)c7ccc4[nH]7)C=C6)C=C5)cc3)C2=O)sc(C)c1C
REMARK SMILES IDX 19 1 20 2 21 3 18 5 13 6 14 7 15 8 17 9 16 10 12 11 11 12
REMARK SMILES IDX 7 13 8 14 82 15 9 16 10 17 83 18 6 19 5 20 87 21 84 22 85 23
REMARK SMILES IDX 88 24 86 25 3 26 4 27 2 28 1 29 22 30 23 31 24 32 25 33
REMARK SMILES IDX 26 34 27 36 28 37 29 38 81 39 30 40 80 41 31 42 32 43 33 44
REMARK SMILES IDX 74 45 34 46 79 47 73 48 75 49 35 50 78 51 72 52 71 53 36 55
REMARK SMILES IDX 62 56 45 57 61 58 46 59 49 60 60 61 76 62 47 63 48 64 59 66
REMARK SMILES IDX 77 67 50 68 37 69 38 70 43 71 39 72 40 73 42 74 44 75 41 76
REMARK SMILES IDX 63 77 64 78 69 79 65 80 66 81 68 82 70 83 67 84 51 85 52 86
REMARK SMILES IDX 57 87 53 88 54 89 56 90 58 91 55 92
REMARK H PARENT 21 4 25 35 75 54 49 65
REMARK Flexibility Score: inf
ROOT
ATOM      1  C   UNL     1      -6.270   2.628  -0.653  1.00  0.00     0.252 C 
ATOM      2  O   UNL     1      -6.441   3.268  -1.693  1.00  0.00    -0.269 OA
ATOM      3  N   UNL     1      -6.246   1.259  -0.779  1.00  0.00    -0.352 N 
ATOM      4  H   UNL     1      -6.485   0.907  -1.667  1.00  0.00     0.163 HD
ENDROOT
BRANCH   1   5
ATOM      5  C   UNL     1      -6.138   3.378   0.645  1.00  0.00     0.053 A 
ATOM      6  C   UNL     1      -5.365   3.109   1.798  1.00  0.00     0.021 A 
ATOM      7  C   UNL     1      -5.609   3.893   2.954  1.00  0.00     0.016 A 
ATOM      8  C   UNL     1      -6.490   4.971   2.960  1.00  0.00     0.001 A 
ATOM      9  C   UNL     1      -6.966   4.531   0.655  1.00  0.00     0.015 A 
ATOM     10  C   UNL     1      -7.140   5.319   1.792  1.00  0.00     0.001 A 
BRANCH   6  11
ATOM     11  S   UNL     1      -4.178   1.829   2.193  1.00  0.00    -0.111 SA
BRANCH  11  12
ATOM     12  C   UNL     1      -2.810   1.857   0.970  1.00  0.00     0.151 C 
ATOM     13  N   UNL     1      -1.395   3.616   0.478  1.00  0.00    -0.239 N 
ATOM     14  C   UNL     1      -2.041   3.387  -0.704  1.00  0.00     0.236 C 
ATOM     15  C   UNL     1      -1.702   2.729   1.474  1.00  0.00     0.248 C 
ATOM     16  O   UNL     1      -1.854   3.899  -1.798  1.00  0.00    -0.274 OA
ATOM     17  C   UNL     1      -2.990   2.255  -0.485  1.00  0.00     0.126 C 
ATOM     18  O   UNL     1      -1.161   2.609   2.566  1.00  0.00    -0.273 OA
BRANCH  13  19
ATOM     19  C   UNL     1      -0.273   4.396   0.555  1.00  0.00     0.120 A 
ATOM     20  C   UNL     1       1.022   4.039   0.872  1.00  0.00     0.098 A 
ATOM     21  C   UNL     1       1.809   5.231   1.125  1.00  0.00    -0.021 A 
ATOM     22  S   UNL     1      -0.512   6.057   0.367  1.00  0.00    -0.122 S 
ATOM     23  C   UNL     1       1.074   6.390   0.903  1.00  0.00     0.007 A 
ATOM     24  C   UNL     1       3.236   5.190   1.570  1.00  0.00     0.046 C 
ATOM     25  C   UNL     1       1.489   7.813   1.072  1.00  0.00     0.057 C 
BRANCH  20  26
ATOM     26  C   UNL     1       1.497   2.645   0.939  1.00  0.00     0.341 C 
ATOM     27  O   UNL     1       2.499   2.296   1.540  1.00  0.00    -0.246 OA
BRANCH  26  28
ATOM     28  O   UNL     1       0.714   1.794   0.196  1.00  0.00    -0.465 OA
ATOM     29  C   UNL     1       1.115   0.421   0.195  1.00  0.00     0.282 C 
ENDBRANCH  26  28
ENDBRANCH  20  26
ENDBRANCH  13  19
ENDBRANCH  11  12
ENDBRANCH   6  11
ENDBRANCH   1   5
BRANCH   3  30
ATOM     30  C   UNL     1      -5.918   0.277   0.214  1.00  0.00     0.118 C 
BRANCH  30  31
ATOM     31  C   UNL     1      -6.131  -1.171  -0.140  1.00  0.00     0.042 C 
BRANCH  31  32
ATOM     32  C   UNL     1      -5.220  -1.670  -1.254  1.00  0.00     0.118 C 
BRANCH  32  33
ATOM     33  N   UNL     1      -3.780  -1.655  -0.960  1.00  0.00    -0.352 N 
ATOM     34  C   UNL     1      -2.857  -2.679  -0.868  1.00  0.00     0.251 C 
ATOM     35  H   UNL     1      -3.408  -0.758  -0.801  1.00  0.00     0.163 HD
ATOM     36  O   UNL     1      -1.690  -2.430  -0.579  1.00  0.00    -0.269 OA
BRANCH  34  37
ATOM     37  C   UNL     1      -3.301  -4.076  -1.060  1.00  0.00     0.039 A 
ATOM     38  C   UNL     1      -2.928  -5.059  -0.141  1.00  0.00     0.014 A 
ATOM     39  C   UNL     1      -4.201  -4.377  -2.076  1.00  0.00     0.014 A 
ATOM     40  C   UNL     1      -3.593  -6.288  -0.148  1.00  0.00     0.010 A 
ATOM     41  C   UNL     1      -4.977  -5.519  -1.970  1.00  0.00     0.010 A 
ATOM     42  C   UNL     1      -4.687  -6.493  -1.004  1.00  0.00    -0.014 A 
BRANCH  42  43
ATOM     43  C   UNL     1      -5.551  -7.702  -0.922  1.00  0.00     0.031 A 
ATOM     44  C   UNL     1      -5.780  -8.540  -2.154  1.00  0.00     0.074 A 
ATOM     45  C   UNL     1      -6.212  -7.989   0.219  1.00  0.00     0.049 A 
ATOM     46  N   UNL     1      -6.592  -9.552  -2.329  1.00  0.00    -0.248 NA
ATOM     47  C   UNL     1      -5.033  -8.161  -3.367  1.00  0.00     0.031 C 
ATOM     48  C   UNL     1      -6.143  -7.217   1.464  1.00  0.00     0.029 A 
ATOM     49  N   UNL     1      -7.085  -9.007   0.517  1.00  0.00    -0.354 N 
ATOM     50  C   UNL     1      -6.468  -9.905  -3.667  1.00  0.00     0.074 A 
ATOM     51  C   UNL     1      -5.573  -8.951  -4.280  1.00  0.00     0.031 C 
ATOM     52  C   UNL     1      -6.903  -7.811   2.397  1.00  0.00     0.029 A 
ATOM     53  C   UNL     1      -7.556  -8.976   1.809  1.00  0.00     0.049 A 
ATOM     54  H   UNL     1      -7.351  -9.695  -0.136  1.00  0.00     0.167 HD
ATOM     55  C   UNL     1      -7.013 -10.956  -4.322  1.00  0.00     0.037 A 
ATOM     56  C   UNL     1      -8.420  -9.790   2.445  1.00  0.00     0.037 A 
ATOM     57  C   UNL     1      -7.868 -11.931  -3.702  1.00  0.00     0.049 A 
ATOM     58  C   UNL     1      -9.012 -10.954   1.695  1.00  0.00     0.074 A 
ATOM     59  C   UNL     1      -8.418 -13.071  -4.259  1.00  0.00     0.029 A 
ATOM     60  N   UNL     1      -8.290 -11.883  -2.383  1.00  0.00    -0.354 N 
ATOM     61  N   UNL     1      -8.821 -11.320   0.451  1.00  0.00    -0.248 NA
ATOM     62  C   UNL     1      -9.937 -11.821   2.440  1.00  0.00     0.031 C 
ATOM     63  C   UNL     1      -9.216 -13.686  -3.291  1.00  0.00     0.029 A 
ATOM     64  C   UNL     1      -9.114 -12.962  -2.114  1.00  0.00     0.049 A 
ATOM     65  H   UNL     1      -8.042 -11.185  -1.734  1.00  0.00     0.167 HD
ATOM     66  C   UNL     1      -9.572 -12.476   0.275  1.00  0.00     0.074 A 
ATOM     67  C   UNL     1     -10.207 -12.759   1.544  1.00  0.00     0.031 C 
ATOM     68  C   UNL     1      -9.725 -13.235  -0.838  1.00  0.00     0.037 A 
BRANCH  55  69
ATOM     69  C   UNL     1      -6.682 -11.115  -5.778  1.00  0.00     0.057 A 
ATOM     70  C   UNL     1      -5.391 -11.451  -6.210  1.00  0.00     0.134 A 
ATOM     71  C   UNL     1      -7.669 -10.963  -6.759  1.00  0.00     0.134 A 
ATOM     72  F   UNL     1      -4.393 -11.596  -5.324  1.00  0.00    -0.206 F 
ATOM     73  C   UNL     1      -5.088 -11.602  -7.564  1.00  0.00     0.040 A 
ATOM     74  C   UNL     1      -7.386 -11.143  -8.114  1.00  0.00     0.040 A 
ATOM     75  F   UNL     1      -8.927 -10.644  -6.417  1.00  0.00    -0.206 F 
ATOM     76  C   UNL     1      -6.091 -11.458  -8.520  1.00  0.00     0.006 A 
ENDBRANCH  55  69
BRANCH  56  77
ATOM     77  C   UNL     1      -8.767  -9.559   3.873  1.00  0.00     0.057 A 
ATOM     78  C   UNL     1      -8.375 -10.463   4.869  1.00  0.00     0.134 A 
ATOM     79  C   UNL     1      -9.525  -8.453   4.276  1.00  0.00     0.134 A 
ATOM     80  F   UNL     1      -7.663 -11.553   4.546  1.00  0.00    -0.206 F 
ATOM     81  C   UNL     1      -8.751 -10.296   6.203  1.00  0.00     0.040 A 
ATOM     82  C   UNL     1      -9.882  -8.256   5.612  1.00  0.00     0.040 A 
ATOM     83  F   UNL     1      -9.926  -7.542   3.377  1.00  0.00    -0.206 F 
ATOM     84  C   UNL     1      -9.505  -9.186   6.578  1.00  0.00     0.006 A 
ENDBRANCH  56  77
BRANCH  68  85
ATOM     85  C   UNL     1     -10.574 -14.467  -0.722  1.00  0.00     0.057 A 
ATOM     86  C   UNL     1     -11.965 -14.400  -0.579  1.00  0.00     0.134 A 
ATOM     87  C   UNL     1      -9.992 -15.739  -0.801  1.00  0.00     0.134 A 
ATOM     88  F   UNL     1     -12.583 -13.212  -0.486  1.00  0.00    -0.206 F 
ATOM     89  C   UNL     1     -12.745 -15.554  -0.493  1.00  0.00     0.040 A 
ATOM     90  C   UNL     1     -10.764 -16.899  -0.749  1.00  0.00     0.040 A 
ATOM     91  F   UNL     1      -8.665 -15.874  -0.951  1.00  0.00    -0.206 F 
ATOM     92  C   UNL     1     -12.145 -16.808  -0.586  1.00  0.00     0.006 A 
ENDBRANCH  68  85
ENDBRANCH  42  43
ENDBRANCH  34  37
ENDBRANCH  32  33
ENDBRANCH  31  32
ENDBRANCH  30  31
ENDBRANCH   3  30
TORSDOF 15
