REMARK SMILES C[C@@H](Sc1nc(C[NH+]2CCCC2)nc2ccccc12)C(=O)NCCCNC(=O)c1ccc(-c2c3nc(c(-c4c(F)cccc4F)c4ccc([nH]4)c(-c4c(F)cccc4F)c4nc(c(-c5c(F)cccc5F)c5ccc2[nH]5)C=C4)C=C3)cc1
REMARK SMILES IDX 23 1 22 2 20 3 21 4 2 6 1 7 3 8 4 9 5 10 19 11 6 12 14 13
REMARK SMILES IDX 18 14 13 15 15 16 17 17 16 18 7 19 8 20 9 21 12 22 10 24
REMARK SMILES IDX 11 25 24 26 25 27 26 28 27 29 28 31 29 32 30 33 82 34 31 35
REMARK SMILES IDX 81 36 32 37 33 38 34 39 75 40 35 41 80 42 74 43 76 44 36 45
REMARK SMILES IDX 79 46 73 47 72 48 37 50 63 51 46 52 62 53 47 54 50 55 61 56
REMARK SMILES IDX 77 57 48 58 49 59 60 61 78 62 51 63 38 64 39 65 44 66 40 67
REMARK SMILES IDX 41 68 43 69 45 70 42 71 64 72 65 73 70 74 66 75 67 76 69 77
REMARK SMILES IDX 71 78 68 79 52 80 53 81 58 82 54 83 55 84 57 85 59 86 56 87
REMARK H PARENT 22 5 8 23 26 30 76 49 50 60
REMARK Flexibility Score: inf
ROOT
ATOM      1  C   UNL     1      -1.026  -0.968   1.890  1.00  0.00     0.117 C 
ENDROOT
BRANCH   1   2
ATOM      2  N   UNL     1      -1.606  -1.222   0.578  1.00  0.00    -0.355 N 
ATOM      3  C   UNL     1      -1.016  -1.522  -0.623  1.00  0.00     0.233 C 
ATOM      4  O   UNL     1      -1.767  -1.797  -1.564  1.00  0.00    -0.274 OA
ATOM      5  H   UNL     1      -2.589  -1.170   0.548  1.00  0.00     0.163 HD
BRANCH   3   6
ATOM      6  C   UNL     1       0.503  -1.412  -0.839  1.00  0.00     0.139 C 
ATOM      7  C   UNL     1       0.836   0.073  -0.885  1.00  0.00     0.030 C 
BRANCH   6   8
ATOM      8  S   UNL     1       1.323  -2.514   0.394  1.00  0.00    -0.093 SA
BRANCH   8   9
ATOM      9  C   UNL     1       3.077  -2.350   0.203  1.00  0.00     0.109 A 
ATOM     10  N   UNL     1       3.637  -3.551  -0.024  1.00  0.00    -0.220 NA
ATOM     11  C   UNL     1       3.840  -1.210   0.491  1.00  0.00     0.033 A 
ATOM     12  C   UNL     1       4.968  -3.638   0.069  1.00  0.00     0.185 A 
ATOM     13  C   UNL     1       5.217  -1.373   0.315  1.00  0.00     0.075 A 
ATOM     14  C   UNL     1       3.367   0.038   0.974  1.00  0.00     0.013 A 
ATOM     15  N   UNL     1       5.782  -2.571   0.134  1.00  0.00    -0.227 NA
ATOM     16  C   UNL     1       6.039  -0.255   0.402  1.00  0.00     0.029 A 
ATOM     17  C   UNL     1       4.204   1.145   1.069  1.00  0.00     0.001 A 
ATOM     18  C   UNL     1       5.542   1.006   0.740  1.00  0.00     0.002 A 
BRANCH  12  19
ATOM     19  C   UNL     1       5.568  -5.021   0.299  1.00  0.00     0.340 C 
BRANCH  19  20
ATOM     20  N   UNL     1       5.290  -5.697   1.593  1.00  0.00    -0.329 N 
ATOM     21  C   UNL     1       3.890  -6.072   1.805  1.00  0.00     0.262 C 
ATOM     22  C   UNL     1       5.740  -4.958   2.775  1.00  0.00     0.262 C 
ATOM     23  H   UNL     1       5.846  -6.546   1.496  1.00  0.00     0.348 HD
ATOM     24  C   UNL     1       3.320  -5.097   2.817  1.00  0.00     0.067 C 
ATOM     25  C   UNL     1       4.514  -4.623   3.616  1.00  0.00     0.067 C 
ENDBRANCH  19  20
ENDBRANCH  12  19
ENDBRANCH   8   9
ENDBRANCH   6   8
ENDBRANCH   3   6
ENDBRANCH   1   2
BRANCH   1  26
ATOM     26  C   UNL     1      -1.418   0.371   2.483  1.00  0.00     0.042 C 
BRANCH  26  27
ATOM     27  C   UNL     1      -2.900   0.521   2.764  1.00  0.00     0.118 C 
BRANCH  27  28
ATOM     28  N   UNL     1      -3.391  -0.432   3.747  1.00  0.00    -0.352 N 
ATOM     29  C   UNL     1      -4.003  -0.229   4.960  1.00  0.00     0.251 C 
ATOM     30  H   UNL     1      -3.263  -1.378   3.504  1.00  0.00     0.163 HD
ATOM     31  O   UNL     1      -4.192  -1.183   5.707  1.00  0.00    -0.269 OA
BRANCH  29  32
ATOM     32  C   UNL     1      -4.409   1.130   5.387  1.00  0.00     0.039 A 
ATOM     33  C   UNL     1      -4.254   1.480   6.731  1.00  0.00     0.014 A 
ATOM     34  C   UNL     1      -4.953   2.052   4.489  1.00  0.00     0.014 A 
ATOM     35  C   UNL     1      -4.576   2.770   7.155  1.00  0.00     0.010 A 
ATOM     36  C   UNL     1      -5.179   3.366   4.890  1.00  0.00     0.010 A 
ATOM     37  C   UNL     1      -4.999   3.739   6.229  1.00  0.00    -0.014 A 
BRANCH  37  38
ATOM     38  C   UNL     1      -5.236   5.143   6.651  1.00  0.00     0.031 A 
ATOM     39  C   UNL     1      -6.601   5.763   6.526  1.00  0.00     0.074 A 
ATOM     40  C   UNL     1      -4.203   5.878   7.108  1.00  0.00     0.049 A 
ATOM     41  N   UNL     1      -6.989   6.975   6.835  1.00  0.00    -0.248 NA
ATOM     42  C   UNL     1      -7.666   4.922   5.956  1.00  0.00     0.031 C 
ATOM     43  C   UNL     1      -2.819   5.413   7.221  1.00  0.00     0.029 A 
ATOM     44  N   UNL     1      -4.155   7.172   7.563  1.00  0.00    -0.354 N 
ATOM     45  C   UNL     1      -8.334   7.043   6.493  1.00  0.00     0.074 A 
ATOM     46  C   UNL     1      -8.681   5.771   5.896  1.00  0.00     0.031 C 
ATOM     47  C   UNL     1      -2.067   6.391   7.748  1.00  0.00     0.029 A 
ATOM     48  C   UNL     1      -2.904   7.565   7.972  1.00  0.00     0.049 A 
ATOM     49  H   UNL     1      -4.942   7.762   7.593  1.00  0.00     0.167 HD
ATOM     50  C   UNL     1      -9.207   8.061   6.683  1.00  0.00     0.037 A 
ATOM     51  C   UNL     1      -2.477   8.740   8.472  1.00  0.00     0.037 A 
ATOM     52  C   UNL     1      -8.862   9.321   7.289  1.00  0.00     0.049 A 
ATOM     53  C   UNL     1      -3.466   9.855   8.668  1.00  0.00     0.074 A 
ATOM     54  C   UNL     1      -9.687  10.395   7.574  1.00  0.00     0.029 A 
ATOM     55  N   UNL     1      -7.586   9.679   7.698  1.00  0.00    -0.354 N 
ATOM     56  N   UNL     1      -4.751   9.878   8.409  1.00  0.00    -0.248 NA
ATOM     57  C   UNL     1      -2.945  11.106   9.236  1.00  0.00     0.031 C 
ATOM     58  C   UNL     1      -8.901  11.423   8.106  1.00  0.00     0.029 A 
ATOM     59  C   UNL     1      -7.597  10.967   8.210  1.00  0.00     0.049 A 
ATOM     60  H   UNL     1      -6.790   9.104   7.634  1.00  0.00     0.167 HD
ATOM     61  C   UNL     1      -5.198  11.130   8.811  1.00  0.00     0.074 A 
ATOM     62  C   UNL     1      -4.049  11.829   9.348  1.00  0.00     0.031 C 
ATOM     63  C   UNL     1      -6.447  11.653   8.742  1.00  0.00     0.037 A 
BRANCH  50  64
ATOM     64  C   UNL     1     -10.625   7.852   6.229  1.00  0.00     0.057 A 
ATOM     65  C   UNL     1     -11.483   6.949   6.872  1.00  0.00     0.134 A 
ATOM     66  C   UNL     1     -11.152   8.591   5.162  1.00  0.00     0.134 A 
ATOM     67  F   UNL     1     -11.040   6.200   7.894  1.00  0.00    -0.206 F 
ATOM     68  C   UNL     1     -12.802   6.768   6.453  1.00  0.00     0.040 A 
ATOM     69  C   UNL     1     -12.479   8.441   4.754  1.00  0.00     0.040 A 
ATOM     70  F   UNL     1     -10.390   9.479   4.505  1.00  0.00    -0.206 F 
ATOM     71  C   UNL     1     -13.306   7.522   5.395  1.00  0.00     0.006 A 
ENDBRANCH  50  64
BRANCH  51  72
ATOM     72  C   UNL     1      -1.051   8.915   8.848  1.00  0.00     0.057 A 
ATOM     73  C   UNL     1      -0.668   9.052  10.188  1.00  0.00     0.134 A 
ATOM     74  C   UNL     1      -0.039   8.959   7.882  1.00  0.00     0.134 A 
ATOM     75  F   UNL     1      -1.593   9.034  11.159  1.00  0.00    -0.206 F 
ATOM     76  C   UNL     1       0.665   9.252  10.551  1.00  0.00     0.040 A 
ATOM     77  C   UNL     1       1.301   9.130   8.233  1.00  0.00     0.040 A 
ATOM     78  F   UNL     1      -0.338   8.823   6.581  1.00  0.00    -0.206 F 
ATOM     79  C   UNL     1       1.654   9.286   9.571  1.00  0.00     0.006 A 
ENDBRANCH  51  72
BRANCH  63  80
ATOM     80  C   UNL     1      -6.640  13.036   9.298  1.00  0.00     0.057 A 
ATOM     81  C   UNL     1      -6.101  14.170   8.676  1.00  0.00     0.134 A 
ATOM     82  C   UNL     1      -7.385  13.235  10.468  1.00  0.00     0.134 A 
ATOM     83  F   UNL     1      -5.367  14.050   7.559  1.00  0.00    -0.206 F 
ATOM     84  C   UNL     1      -6.264  15.447   9.217  1.00  0.00     0.040 A 
ATOM     85  C   UNL     1      -7.582  14.509  11.001  1.00  0.00     0.040 A 
ATOM     86  F   UNL     1      -7.938  12.194  11.109  1.00  0.00    -0.206 F 
ATOM     87  C   UNL     1      -7.012  15.619  10.381  1.00  0.00     0.006 A 
ENDBRANCH  63  80
ENDBRANCH  37  38
ENDBRANCH  29  32
ENDBRANCH  27  28
ENDBRANCH  26  27
ENDBRANCH   1  26
TORSDOF 14
