REMARK SMILES COc1ccc(/C=C2/SC(=S)N(c3ccc(C(=O)NCCCNC(=O)c4ccc(-c5c6nc(c(-c7c(F)cccc7F)c7ccc([nH]7)c(-c7c(F)cccc7F)c7nc(c(-c8c(F)cccc8F)c8ccc5[nH]8)C=C7)C=C6)cc4)c(O)c3)C2=O)cc1OC
REMARK SMILES IDX 20 1 19 2 17 3 18 4 16 6 13 7 14 8 82 9 15 10 80 11 12 12
REMARK SMILES IDX 7 13 8 14 9 15 83 16 10 17 84 18 11 19 6 20 3 21 4 22 86 23
REMARK SMILES IDX 5 24 85 25 2 26 1 27 87 28 88 29 81 30 21 32 22 33 23 34
REMARK SMILES IDX 24 35 25 37 26 38 27 39 79 40 28 41 78 42 29 43 30 44 31 45
REMARK SMILES IDX 72 46 32 47 77 48 71 49 73 50 33 51 76 52 70 53 69 54 34 56
REMARK SMILES IDX 60 57 43 58 59 59 44 60 47 61 58 62 74 63 45 64 46 65 57 67
REMARK SMILES IDX 75 68 48 69 35 70 36 71 41 72 37 73 38 74 40 75 42 76 39 77
REMARK SMILES IDX 61 78 62 79 67 80 63 81 64 82 66 83 68 84 65 85 49 86 50 87
REMARK SMILES IDX 55 88 51 89 52 90 54 91 56 92 53 93
REMARK H PARENT 19 5 81 31 23 36 73 55 47 66
REMARK Flexibility Score: inf
ROOT
ATOM      1  C   UNL     1      10.300   8.072   2.155  1.00  0.00     0.118 C 
ENDROOT
BRANCH   1   2
ATOM      2  N   UNL     1       9.298   8.407   1.161  1.00  0.00    -0.352 N 
ATOM      3  C   UNL     1       7.958   8.133   1.073  1.00  0.00     0.255 C 
ATOM      4  O   UNL     1       7.376   8.549   0.067  1.00  0.00    -0.269 OA
ATOM      5  H   UNL     1       9.648   8.931   0.405  1.00  0.00     0.163 HD
BRANCH   3   6
ATOM      6  C   UNL     1       7.151   7.466   2.135  1.00  0.00     0.081 A 
ATOM      7  C   UNL     1       5.361   6.362   4.033  1.00  0.00     0.054 A 
ATOM      8  C   UNL     1       4.930   7.369   3.171  1.00  0.00     0.028 A 
ATOM      9  C   UNL     1       6.667   5.875   3.916  1.00  0.00     0.073 A 
ATOM     10  C   UNL     1       5.825   7.931   2.254  1.00  0.00     0.020 A 
ATOM     11  C   UNL     1       7.536   6.392   2.945  1.00  0.00     0.130 A 
BRANCH   7  12
ATOM     12  N   UNL     1       4.461   5.742   4.938  1.00  0.00    -0.261 N 
ATOM     13  C   UNL     1       1.922   3.194   5.368  1.00  0.00     0.029 C 
ATOM     14  C   UNL     1       2.732   4.253   5.518  1.00  0.00     0.081 C 
ATOM     15  S   UNL     1       3.341   4.762   7.047  1.00  0.00    -0.054 SA
ATOM     16  C   UNL     1       3.358   5.063   4.428  1.00  0.00     0.270 C 
ATOM     17  C   UNL     1       4.633   5.714   6.311  1.00  0.00     0.152 C 
ATOM     18  O   UNL     1       2.952   5.091   3.281  1.00  0.00    -0.268 OA
ATOM     19  S   UNL     1       5.800   6.469   7.241  1.00  0.00    -0.051 S 
BRANCH  13  20
ATOM     20  C   UNL     1       1.611   2.591   4.069  1.00  0.00    -0.020 A 
ATOM     21  C   UNL     1       1.139   1.562   1.504  1.00  0.00     0.160 A 
ATOM     22  C   UNL     1       0.120   2.224   2.207  1.00  0.00     0.051 A 
ATOM     23  C   UNL     1       2.402   1.400   2.084  1.00  0.00     0.161 A 
ATOM     24  C   UNL     1       0.351   2.731   3.490  1.00  0.00     0.012 A 
ATOM     25  C   UNL     1       2.616   1.906   3.372  1.00  0.00     0.058 A 
BRANCH  21  26
ATOM     26  O   UNL     1       0.899   1.188   0.209  1.00  0.00    -0.493 OA
ATOM     27  C   UNL     1      -0.012   0.095   0.128  1.00  0.00     0.278 C 
ENDBRANCH  21  26
BRANCH  23  28
ATOM     28  O   UNL     1       3.520   0.809   1.561  1.00  0.00    -0.493 OA
ATOM     29  C   UNL     1       3.427   0.176   0.296  1.00  0.00     0.278 C 
ENDBRANCH  23  28
ENDBRANCH  13  20
ENDBRANCH   7  12
BRANCH  11  30
ATOM     30  O   UNL     1       8.729   5.753   2.774  1.00  0.00    -0.507 OA
ATOM     31  H   UNL     1       9.340   6.065   2.136  1.00  0.00     0.293 HD
ENDBRANCH  11  30
ENDBRANCH   3   6
ENDBRANCH   1   2
BRANCH   1  32
ATOM     32  C   UNL     1      11.154   6.891   1.689  1.00  0.00     0.042 C 
BRANCH  32  33
ATOM     33  C   UNL     1      12.197   7.266   0.641  1.00  0.00     0.118 C 
BRANCH  33  34
ATOM     34  N   UNL     1      13.333   7.964   1.226  1.00  0.00    -0.352 N 
ATOM     35  C   UNL     1      14.650   7.584   1.318  1.00  0.00     0.251 C 
ATOM     36  H   UNL     1      13.125   8.843   1.617  1.00  0.00     0.163 HD
ATOM     37  O   UNL     1      15.411   8.207   2.053  1.00  0.00    -0.269 OA
BRANCH  35  38
ATOM     38  C   UNL     1      15.159   6.421   0.556  1.00  0.00     0.039 A 
ATOM     39  C   UNL     1      16.033   5.532   1.192  1.00  0.00     0.014 A 
ATOM     40  C   UNL     1      14.816   6.221  -0.784  1.00  0.00     0.014 A 
ATOM     41  C   UNL     1      16.500   4.405   0.509  1.00  0.00     0.010 A 
ATOM     42  C   UNL     1      15.236   5.068  -1.445  1.00  0.00     0.010 A 
ATOM     43  C   UNL     1      16.072   4.143  -0.802  1.00  0.00    -0.014 A 
BRANCH  43  44
ATOM     44  C   UNL     1      16.445   2.885  -1.499  1.00  0.00     0.031 A 
ATOM     45  C   UNL     1      17.309   2.919  -2.728  1.00  0.00     0.074 A 
ATOM     46  C   UNL     1      15.922   1.718  -1.073  1.00  0.00     0.049 A 
ATOM     47  N   UNL     1      17.639   1.940  -3.531  1.00  0.00    -0.248 NA
ATOM     48  C   UNL     1      17.856   4.228  -3.119  1.00  0.00     0.031 C 
ATOM     49  C   UNL     1      15.033   1.561   0.080  1.00  0.00     0.029 A 
ATOM     50  N   UNL     1      16.040   0.447  -1.576  1.00  0.00    -0.354 N 
ATOM     51  C   UNL     1      18.415   2.513  -4.530  1.00  0.00     0.074 A 
ATOM     52  C   UNL     1      18.483   3.932  -4.249  1.00  0.00     0.031 C 
ATOM     53  C   UNL     1      14.684   0.270   0.194  1.00  0.00     0.029 A 
ATOM     54  C   UNL     1      15.290  -0.484  -0.898  1.00  0.00     0.049 A 
ATOM     55  H   UNL     1      16.608   0.223  -2.349  1.00  0.00     0.167 HD
ATOM     56  C   UNL     1      19.024   1.908  -5.577  1.00  0.00     0.037 A 
ATOM     57  C   UNL     1      15.090  -1.793  -1.143  1.00  0.00     0.037 A 
ATOM     58  C   UNL     1      18.980   0.492  -5.836  1.00  0.00     0.049 A 
ATOM     59  C   UNL     1      15.768  -2.434  -2.320  1.00  0.00     0.074 A 
ATOM     60  C   UNL     1      19.646  -0.225  -6.815  1.00  0.00     0.029 A 
ATOM     61  N   UNL     1      18.221  -0.419  -5.119  1.00  0.00    -0.354 N 
ATOM     62  N   UNL     1      16.567  -1.894  -3.207  1.00  0.00    -0.248 NA
ATOM     63  C   UNL     1      15.513  -3.866  -2.534  1.00  0.00     0.031 C 
ATOM     64  C   UNL     1      19.253  -1.564  -6.720  1.00  0.00     0.029 A 
ATOM     65  C   UNL     1      18.374  -1.686  -5.657  1.00  0.00     0.049 A 
ATOM     66  H   UNL     1      17.657  -0.198  -4.342  1.00  0.00     0.167 HD
ATOM     67  C   UNL     1      16.919  -2.919  -4.075  1.00  0.00     0.074 A 
ATOM     68  C   UNL     1      16.265  -4.118  -3.596  1.00  0.00     0.031 C 
ATOM     69  C   UNL     1      17.710  -2.869  -5.174  1.00  0.00     0.037 A 
BRANCH  56  70
ATOM     70  C   UNL     1      19.799   2.769  -6.530  1.00  0.00     0.057 A 
ATOM     71  C   UNL     1      21.043   3.312  -6.188  1.00  0.00     0.134 A 
ATOM     72  C   UNL     1      19.328   2.995  -7.830  1.00  0.00     0.134 A 
ATOM     73  F   UNL     1      21.546   3.138  -4.957  1.00  0.00    -0.206 F 
ATOM     74  C   UNL     1      21.787   4.061  -7.101  1.00  0.00     0.040 A 
ATOM     75  C   UNL     1      20.073   3.724  -8.759  1.00  0.00     0.040 A 
ATOM     76  F   UNL     1      18.147   2.495  -8.224  1.00  0.00    -0.206 F 
ATOM     77  C   UNL     1      21.305   4.262  -8.394  1.00  0.00     0.006 A 
ENDBRANCH  56  70
BRANCH  57  78
ATOM     78  C   UNL     1      14.193  -2.584  -0.265  1.00  0.00     0.057 A 
ATOM     79  C   UNL     1      14.701  -3.563   0.597  1.00  0.00     0.134 A 
ATOM     80  C   UNL     1      12.806  -2.393  -0.278  1.00  0.00     0.134 A 
ATOM     81  F   UNL     1      16.020  -3.807   0.637  1.00  0.00    -0.206 F 
ATOM     82  C   UNL     1      13.862  -4.336   1.401  1.00  0.00     0.040 A 
ATOM     83  C   UNL     1      11.957  -3.142   0.539  1.00  0.00     0.040 A 
ATOM     84  F   UNL     1      12.257  -1.467  -1.077  1.00  0.00    -0.206 F 
ATOM     85  C   UNL     1      12.485  -4.122   1.376  1.00  0.00     0.006 A 
ENDBRANCH  57  78
BRANCH  69  86
ATOM     86  C   UNL     1      17.914  -4.147  -5.929  1.00  0.00     0.057 A 
ATOM     87  C   UNL     1      16.907  -4.687  -6.739  1.00  0.00     0.134 A 
ATOM     88  C   UNL     1      19.139  -4.823  -5.878  1.00  0.00     0.134 A 
ATOM     89  F   UNL     1      15.706  -4.095  -6.816  1.00  0.00    -0.206 F 
ATOM     90  C   UNL     1      17.107  -5.865  -7.461  1.00  0.00     0.040 A 
ATOM     91  C   UNL     1      19.359  -5.989  -6.613  1.00  0.00     0.040 A 
ATOM     92  F   UNL     1      20.145  -4.354  -5.125  1.00  0.00    -0.206 F 
ATOM     93  C   UNL     1      18.339  -6.514  -7.404  1.00  0.00     0.006 A 
ENDBRANCH  69  86
ENDBRANCH  43  44
ENDBRANCH  35  38
ENDBRANCH  33  34
ENDBRANCH  32  33
ENDBRANCH   1  32
TORSDOF 15
