REMARK SMILES C[C@@H](CO)CS[C@@H](C)C[C@@](C)([NH3+])C(=O)NCCCNC(=O)c1ccc(-c2c3nc(c(-c4c(F)cccc4F)c4ccc([nH]4)c(-c4c(F)cccc4F)c4nc(c(-c5c(F)cccc5F)c5ccc2[nH]5)C=C4)C=C3)cc1
REMARK SMILES IDX 10 1 11 2 9 3 7 4 8 5 6 6 5 7 2 8 1 9 3 10 4 11 12 13 13 17
REMARK SMILES IDX 14 18 15 19 16 21 17 22 18 23 19 24 20 25 21 27 22 28 23 29
REMARK SMILES IDX 75 30 24 31 74 32 25 33 26 34 27 35 68 36 28 37 73 38 67 39
REMARK SMILES IDX 69 40 29 41 72 42 66 43 65 44 30 46 56 47 39 48 55 49 40 50
REMARK SMILES IDX 43 51 54 52 70 53 41 54 42 55 53 57 71 58 44 59 31 60 32 61
REMARK SMILES IDX 37 62 33 63 34 64 36 65 38 66 35 67 57 68 58 69 63 70 59 71
REMARK SMILES IDX 60 72 62 73 64 74 61 75 45 76 46 77 51 78 47 79 48 80 50 81
REMARK SMILES IDX 52 82 49 83
REMARK H PARENT 4 12 12 14 12 15 12 16 15 20 19 26 69 45 43 56
REMARK Flexibility Score: inf
ROOT
ATOM      1  C   UNL     1       0.889   3.293  -0.001  1.00  0.00     0.172 C 
ATOM      2  C   UNL     1       0.277   4.630   0.454  1.00  0.00     0.090 C 
ENDROOT
BRANCH   1   3
ATOM      3  C   UNL     1       0.292   2.157   0.896  1.00  0.00     0.093 C 
BRANCH   3   4
ATOM      4  C   UNL     1      -1.167   1.662   0.759  1.00  0.00     0.050 C 
ATOM      5  C   UNL     1      -1.504   0.694   1.903  1.00  0.00     0.019 C 
BRANCH   4   6
ATOM      6  S   UNL     1      -1.743   0.965  -0.843  1.00  0.00    -0.158 SA
BRANCH   6   7
ATOM      7  C   UNL     1      -1.034  -0.737  -0.958  1.00  0.00     0.075 C 
BRANCH   7   8
ATOM      8  C   UNL     1       0.397  -0.939  -1.513  1.00  0.00     0.021 C 
ATOM      9  C   UNL     1       1.502  -0.657  -0.496  1.00  0.00     0.011 C 
BRANCH   8  10
ATOM     10  C   UNL     1       0.573  -2.376  -2.029  1.00  0.00     0.160 C 
BRANCH  10  11
ATOM     11  O   UNL     1       0.310  -3.333  -1.011  1.00  0.00    -0.396 OA
ATOM     12  H   UNL     1       0.933  -3.205  -0.279  1.00  0.00     0.210 HD
ENDBRANCH  10  11
ENDBRANCH   8  10
ENDBRANCH   7   8
ENDBRANCH   6   7
ENDBRANCH   4   6
ENDBRANCH   3   4
ENDBRANCH   1   3
BRANCH   1  13
ATOM     13  N   UNL     1       2.346   3.276   0.316  1.00  0.00    -0.345 N 
ATOM     14  H   UNL     1       2.477   3.398   1.320  1.00  0.00     0.345 HD
ATOM     15  H   UNL     1       2.812   4.035  -0.182  1.00  0.00     0.345 HD
ATOM     16  H   UNL     1       2.746   2.384   0.027  1.00  0.00     0.345 HD
ENDBRANCH   1  13
BRANCH   1  17
ATOM     17  C   UNL     1       0.755   3.103  -1.550  1.00  0.00     0.281 C 
ATOM     18  O   UNL     1       0.647   2.014  -2.109  1.00  0.00    -0.268 OA
ATOM     19  N   UNL     1       0.864   4.155  -2.414  1.00  0.00    -0.351 N 
ATOM     20  H   UNL     1       0.164   4.221  -3.102  1.00  0.00     0.163 HD
BRANCH  19  21
ATOM     21  C   UNL     1       1.882   5.189  -2.445  1.00  0.00     0.118 C 
BRANCH  21  22
ATOM     22  C   UNL     1       3.075   4.773  -3.310  1.00  0.00     0.042 C 
BRANCH  22  23
ATOM     23  C   UNL     1       2.719   4.421  -4.754  1.00  0.00     0.118 C 
BRANCH  23  24
ATOM     24  N   UNL     1       2.014   5.498  -5.438  1.00  0.00    -0.352 N 
ATOM     25  C   UNL     1       2.417   6.311  -6.464  1.00  0.00     0.251 C 
ATOM     26  H   UNL     1       1.102   5.669  -5.110  1.00  0.00     0.163 HD
ATOM     27  O   UNL     1       1.748   7.308  -6.750  1.00  0.00    -0.269 OA
BRANCH  25  28
ATOM     28  C   UNL     1       3.653   6.021  -7.216  1.00  0.00     0.039 A 
ATOM     29  C   UNL     1       4.515   7.073  -7.534  1.00  0.00     0.014 A 
ATOM     30  C   UNL     1       3.954   4.721  -7.629  1.00  0.00     0.014 A 
ATOM     31  C   UNL     1       5.715   6.810  -8.198  1.00  0.00     0.010 A 
ATOM     32  C   UNL     1       5.185   4.449  -8.218  1.00  0.00     0.010 A 
ATOM     33  C   UNL     1       6.080   5.490  -8.508  1.00  0.00    -0.014 A 
BRANCH  33  34
ATOM     34  C   UNL     1       7.396   5.177  -9.122  1.00  0.00     0.031 A 
ATOM     35  C   UNL     1       7.467   4.540 -10.483  1.00  0.00     0.074 A 
ATOM     36  C   UNL     1       8.526   5.402  -8.422  1.00  0.00     0.049 A 
ATOM     37  N   UNL     1       8.515   4.118 -11.144  1.00  0.00    -0.248 NA
ATOM     38  C   UNL     1       6.191   4.323 -11.183  1.00  0.00     0.031 C 
ATOM     39  C   UNL     1       8.588   5.968  -7.072  1.00  0.00     0.029 A 
ATOM     40  N   UNL     1       9.840   5.167  -8.742  1.00  0.00    -0.354 N 
ATOM     41  C   UNL     1       8.025   3.572 -12.324  1.00  0.00     0.074 A 
ATOM     42  C   UNL     1       6.583   3.672 -12.269  1.00  0.00     0.031 C 
ATOM     43  C   UNL     1       9.872   6.053  -6.689  1.00  0.00     0.029 A 
ATOM     44  C   UNL     1      10.721   5.508  -7.743  1.00  0.00     0.049 A 
ATOM     45  H   UNL     1      10.125   4.789  -9.605  1.00  0.00     0.167 HD
ATOM     46  C   UNL     1       8.715   3.054 -13.367  1.00  0.00     0.037 A 
ATOM     47  C   UNL     1      12.060   5.383  -7.678  1.00  0.00     0.037 A 
ATOM     48  C   UNL     1      10.152   2.984 -13.432  1.00  0.00     0.049 A 
ATOM     49  C   UNL     1      12.800   4.801  -8.851  1.00  0.00     0.074 A 
ATOM     50  C   UNL     1      10.945   2.541 -14.476  1.00  0.00     0.029 A 
ATOM     51  N   UNL     1      11.009   3.364 -12.411  1.00  0.00    -0.354 N 
ATOM     52  N   UNL     1      12.327   4.361  -9.992  1.00  0.00    -0.248 NA
ATOM     53  C   UNL     1      14.262   4.703  -8.731  1.00  0.00     0.031 C 
ATOM     54  C   UNL     1      12.280   2.606 -14.069  1.00  0.00     0.029 A 
ATOM     55  C   UNL     1      12.322   3.141 -12.791  1.00  0.00     0.049 A 
ATOM     56  H   UNL     1      10.726   3.737 -11.545  1.00  0.00     0.167 HD
ATOM     57  C   UNL     1      13.431   3.964 -10.734  1.00  0.00     0.074 A 
ATOM     58  C   UNL     1      14.600   4.230  -9.922  1.00  0.00     0.031 C 
ATOM     59  C   UNL     1      13.475   3.424 -11.976  1.00  0.00     0.037 A 
BRANCH  46  60
ATOM     60  C   UNL     1       7.930   2.526 -14.533  1.00  0.00     0.057 A 
ATOM     61  C   UNL     1       7.246   3.378 -15.410  1.00  0.00     0.134 A 
ATOM     62  C   UNL     1       7.911   1.155 -14.818  1.00  0.00     0.134 A 
ATOM     63  F   UNL     1       7.217   4.701 -15.188  1.00  0.00    -0.206 F 
ATOM     64  C   UNL     1       6.556   2.884 -16.518  1.00  0.00     0.040 A 
ATOM     65  C   UNL     1       7.248   0.652 -15.939  1.00  0.00     0.040 A 
ATOM     66  F   UNL     1       8.551   0.284 -14.024  1.00  0.00    -0.206 F 
ATOM     67  C   UNL     1       6.564   1.517 -16.790  1.00  0.00     0.006 A 
ENDBRANCH  46  60
BRANCH  47  68
ATOM     68  C   UNL     1      12.796   5.820  -6.463  1.00  0.00     0.057 A 
ATOM     69  C   UNL     1      13.663   6.919  -6.497  1.00  0.00     0.134 A 
ATOM     70  C   UNL     1      12.677   5.132  -5.250  1.00  0.00     0.134 A 
ATOM     71  F   UNL     1      13.834   7.608  -7.635  1.00  0.00    -0.206 F 
ATOM     72  C   UNL     1      14.407   7.300  -5.380  1.00  0.00     0.040 A 
ATOM     73  C   UNL     1      13.393   5.520  -4.116  1.00  0.00     0.040 A 
ATOM     74  F   UNL     1      11.857   4.076  -5.146  1.00  0.00    -0.206 F 
ATOM     75  C   UNL     1      14.270   6.601  -4.182  1.00  0.00     0.006 A 
ENDBRANCH  47  68
BRANCH  59  76
ATOM     76  C   UNL     1      14.829   3.126 -12.551  1.00  0.00     0.057 A 
ATOM     77  C   UNL     1      15.618   2.069 -12.079  1.00  0.00     0.134 A 
ATOM     78  C   UNL     1      15.331   3.882 -13.618  1.00  0.00     0.134 A 
ATOM     79  F   UNL     1      15.201   1.316 -11.050  1.00  0.00    -0.206 F 
ATOM     80  C   UNL     1      16.869   1.790 -12.633  1.00  0.00     0.040 A 
ATOM     81  C   UNL     1      16.566   3.594 -14.200  1.00  0.00     0.040 A 
ATOM     82  F   UNL     1      14.621   4.902 -14.124  1.00  0.00    -0.206 F 
ATOM     83  C   UNL     1      17.342   2.549 -13.702  1.00  0.00     0.006 A 
ENDBRANCH  59  76
ENDBRANCH  33  34
ENDBRANCH  25  28
ENDBRANCH  23  24
ENDBRANCH  22  23
ENDBRANCH  21  22
ENDBRANCH  19  21
ENDBRANCH   1  17
TORSDOF 18
