REMARK SMILES COC(=O)c1ccc([C@H]2[C@H]3C(=O)CC(C)(C)CC3=Nc3ccccc3N2C(=O)CCC(=O)NCCCNC(=O)c2ccc(-c3c4nc(c(-c5c(F)cccc5F)c5ccc([nH]5)c(-c5c(F)cccc5F)c5nc(c(-c6c(F)cccc6F)c6ccc3[nH]6)C=C5)C=C4)cc2)cc1
REMARK SMILES IDX 31 1 32 2 33 3 30 5 29 6 27 7 28 8 26 9 9 10 8 12 5 13 6 14
REMARK SMILES IDX 95 15 7 16 94 17 3 18 4 19 2 20 1 21 25 22 20 23 24 24 21 25
REMARK SMILES IDX 23 26 22 27 19 28 18 29 10 30 17 31 11 32 14 34 12 35 13 36
REMARK SMILES IDX 15 37 16 38 34 39 35 40 36 41 37 42 38 43 39 45 40 46 41 47
REMARK SMILES IDX 93 48 42 49 92 50 43 51 44 52 45 53 86 54 46 55 91 56 85 57
REMARK SMILES IDX 87 58 47 59 90 60 84 61 83 62 48 64 74 65 57 66 73 67 58 68
REMARK SMILES IDX 61 69 72 70 88 71 59 72 60 73 71 75 89 76 62 77 49 78 50 79
REMARK SMILES IDX 55 80 51 81 52 82 54 83 56 84 53 85 75 86 76 87 81 88 77 89
REMARK SMILES IDX 78 90 80 91 82 92 79 93 63 94 64 95 69 96 65 97 66 98 68 99
REMARK SMILES IDX 70 100 67 101
REMARK H PARENT 33 4 37 44 87 63 61 74
REMARK Flexibility Score: 90.00
ROOT
ATOM      1  C   UNL     1       0.854  -7.372  -1.996  1.00  0.00     0.220 C 
ATOM      2  O   UNL     1       1.064  -8.441  -1.407  1.00  0.00    -0.275 OA
ATOM      3  N   UNL     1      -0.238  -6.670  -1.581  1.00  0.00    -0.356 N 
ATOM      4  H   UNL     1      -0.577  -7.015  -0.724  1.00  0.00     0.163 HD
ENDROOT
BRANCH   1   5
ATOM      5  C   UNL     1       1.800  -6.959  -3.108  1.00  0.00     0.110 C 
BRANCH   5   6
ATOM      6  C   UNL     1       1.512  -7.520  -4.504  1.00  0.00     0.110 C 
BRANCH   6   7
ATOM      7  C   UNL     1       0.830  -6.459  -5.322  1.00  0.00     0.228 C 
ATOM      8  O   UNL     1       1.588  -5.618  -5.816  1.00  0.00    -0.274 OA
BRANCH   7   9
ATOM      9  N   UNL     1      -0.542  -6.423  -5.542  1.00  0.00    -0.302 N 
BRANCH   9  10
ATOM     10  C   UNL     1      -1.205  -5.097  -6.059  1.00  0.00     0.137 CG0
ATOM     11  G   UNL     1      -1.799  -5.156  -7.473  1.00  0.00     0.000 G0
BRANCH  10  12
ATOM     12  C   UNL     1      -0.665  -3.751  -5.466  1.00  0.00    -0.024 A 
ATOM     13  C   UNL     1       0.389  -1.700  -3.758  1.00  0.00     0.060 A 
ATOM     14  C   UNL     1       1.133  -2.205  -4.825  1.00  0.00     0.016 A 
ATOM     15  C   UNL     1      -0.947  -2.065  -3.674  1.00  0.00     0.016 A 
ATOM     16  C   UNL     1       0.593  -3.184  -5.690  1.00  0.00     0.007 A 
ATOM     17  C   UNL     1      -1.447  -3.054  -4.535  1.00  0.00     0.007 A 
BRANCH  13  18
ATOM     18  C   UNL     1       1.034  -0.836  -2.734  1.00  0.00     0.337 C 
ATOM     19  O   UNL     1       2.095  -0.238  -2.911  1.00  0.00    -0.246 OA
BRANCH  18  20
ATOM     20  O   UNL     1       0.340  -0.890  -1.570  1.00  0.00    -0.465 OA
ATOM     21  C   UNL     1       0.926  -0.184  -0.469  1.00  0.00     0.282 C 
ENDBRANCH  18  20
ENDBRANCH  13  18
ENDBRANCH  10  12
ENDBRANCH   9  10
BRANCH   9  22
ATOM     22  C   UNL     1      -1.410  -7.633  -5.451  1.00  0.00     0.070 A 
ATOM     23  C   UNL     1      -2.418  -7.925  -6.406  1.00  0.00     0.087 A 
ATOM     24  C   UNL     1      -1.340  -8.522  -4.362  1.00  0.00     0.028 A 
ATOM     25  C   UNL     1      -3.374  -8.930  -6.150  1.00  0.00     0.030 A 
ATOM     26  C   UNL     1      -2.255  -9.558  -4.144  1.00  0.00     0.002 A 
ATOM     27  C   UNL     1      -3.306  -9.735  -5.019  1.00  0.00     0.002 A 
BRANCH  23  28
ATOM     28  N   UNL     1      -2.389  -7.475  -7.740  1.00  0.00    -0.255 NA
ATOM     29  C   UNL     1      -1.564  -6.521  -8.003  1.00  0.00     0.032 C 
ATOM     30  C   UNL     1      -1.799  -5.156  -7.473  1.00  0.00     0.128 CG0
ATOM     31  C   UNL     1      -0.216  -6.827  -8.583  1.00  0.00     0.059 C 
ATOM     32  C   UNL     1      -1.435  -4.128  -8.505  1.00  0.00     0.144 C 
ATOM     33  G   UNL     1      -1.205  -5.097  -6.059  1.00  0.00     0.000 G0
ATOM     34  C   UNL     1       0.234  -5.773  -9.598  1.00  0.00    -0.023 C 
ATOM     35  O   UNL     1      -1.818  -2.962  -8.396  1.00  0.00    -0.299 OA
ATOM     36  C   UNL     1      -0.783  -4.623  -9.795  1.00  0.00     0.083 C 
ATOM     37  C   UNL     1       1.579  -5.153  -9.173  1.00  0.00     0.012 C 
ATOM     38  C   UNL     1       0.445  -6.547 -10.908  1.00  0.00     0.012 C 
ENDBRANCH  23  28
ENDBRANCH   9  22
ENDBRANCH   7   9
ENDBRANCH   6   7
ENDBRANCH   5   6
ENDBRANCH   1   5
BRANCH   3  39
ATOM     39  C   UNL     1      -1.065  -5.521  -2.064  1.00  0.00     0.117 C 
BRANCH  39  40
ATOM     40  C   UNL     1      -2.331  -6.064  -2.763  1.00  0.00     0.042 C 
BRANCH  40  41
ATOM     41  C   UNL     1      -3.772  -5.541  -3.001  1.00  0.00     0.118 C 
BRANCH  41  42
ATOM     42  N   UNL     1      -4.095  -4.133  -3.029  1.00  0.00    -0.352 N 
ATOM     43  C   UNL     1      -4.810  -3.294  -3.874  1.00  0.00     0.251 C 
ATOM     44  H   UNL     1      -3.714  -3.649  -2.261  1.00  0.00     0.163 HD
ATOM     45  O   UNL     1      -5.149  -2.224  -3.353  1.00  0.00    -0.269 OA
BRANCH  43  46
ATOM     46  C   UNL     1      -5.108  -3.445  -5.354  1.00  0.00     0.039 A 
ATOM     47  C   UNL     1      -5.118  -2.239  -6.094  1.00  0.00     0.014 A 
ATOM     48  C   UNL     1      -5.491  -4.592  -6.049  1.00  0.00     0.014 A 
ATOM     49  C   UNL     1      -5.537  -2.159  -7.444  1.00  0.00     0.010 A 
ATOM     50  C   UNL     1      -5.888  -4.515  -7.426  1.00  0.00     0.010 A 
ATOM     51  C   UNL     1      -5.952  -3.295  -8.144  1.00  0.00    -0.014 A 
BRANCH  51  52
ATOM     52  C   UNL     1      -6.533  -3.186  -9.548  1.00  0.00     0.031 A 
ATOM     53  C   UNL     1      -7.979  -3.579  -9.816  1.00  0.00     0.074 A 
ATOM     54  C   UNL     1      -5.840  -2.706 -10.610  1.00  0.00     0.049 A 
ATOM     55  N   UNL     1      -8.646  -3.617 -10.950  1.00  0.00    -0.248 NA
ATOM     56  C   UNL     1      -8.779  -3.968  -8.649  1.00  0.00     0.031 C 
ATOM     57  C   UNL     1      -4.475  -2.189 -10.574  1.00  0.00     0.029 A 
ATOM     58  N   UNL     1      -6.192  -2.590 -11.946  1.00  0.00    -0.354 N 
ATOM     59  C   UNL     1      -9.933  -4.042 -10.632  1.00  0.00     0.074 A 
ATOM     60  C   UNL     1      -9.938  -4.295  -9.205  1.00  0.00     0.031 C 
ATOM     61  C   UNL     1      -4.091  -1.854 -11.819  1.00  0.00     0.029 A 
ATOM     62  C   UNL     1      -5.173  -2.144 -12.760  1.00  0.00     0.049 A 
ATOM     63  H   UNL     1      -7.091  -2.807 -12.283  1.00  0.00     0.167 HD
ATOM     64  C   UNL     1     -11.025  -4.189 -11.428  1.00  0.00     0.037 A 
ATOM     65  C   UNL     1      -5.090  -1.990 -14.102  1.00  0.00     0.037 A 
ATOM     66  C   UNL     1     -11.076  -3.915 -12.845  1.00  0.00     0.049 A 
ATOM     67  C   UNL     1      -6.281  -2.255 -14.989  1.00  0.00     0.074 A 
ATOM     68  C   UNL     1     -12.167  -4.001 -13.698  1.00  0.00     0.029 A 
ATOM     69  N   UNL     1     -10.004  -3.510 -13.620  1.00  0.00    -0.354 N 
ATOM     70  N   UNL     1      -7.490  -2.630 -14.658  1.00  0.00    -0.248 NA
ATOM     71  C   UNL     1      -6.100  -2.050 -16.439  1.00  0.00     0.031 C 
ATOM     72  C   UNL     1     -11.742  -3.705 -14.997  1.00  0.00     0.029 A 
ATOM     73  C   UNL     1     -10.399  -3.377 -14.945  1.00  0.00     0.049 A 
ATOM     74  H   UNL     1      -9.095  -3.341 -13.282  1.00  0.00     0.167 HD
ATOM     75  C   UNL     1      -8.221  -2.659 -15.842  1.00  0.00     0.074 A 
ATOM     76  C   UNL     1      -7.324  -2.263 -16.904  1.00  0.00     0.031 C 
ATOM     77  C   UNL     1      -9.527  -2.976 -16.019  1.00  0.00     0.037 A 
BRANCH  64  78
ATOM     78  C   UNL     1     -12.289  -4.690 -10.781  1.00  0.00     0.057 A 
ATOM     79  C   UNL     1     -13.040  -3.896  -9.905  1.00  0.00     0.134 A 
ATOM     80  C   UNL     1     -12.785  -5.966 -11.079  1.00  0.00     0.134 A 
ATOM     81  F   UNL     1     -12.623  -2.664  -9.577  1.00  0.00    -0.206 F 
ATOM     82  C   UNL     1     -14.217  -4.367  -9.319  1.00  0.00     0.040 A 
ATOM     83  C   UNL     1     -13.976  -6.436 -10.524  1.00  0.00     0.040 A 
ATOM     84  F   UNL     1     -12.128  -6.772 -11.928  1.00  0.00    -0.206 F 
ATOM     85  C   UNL     1     -14.691  -5.639  -9.633  1.00  0.00     0.006 A 
ENDBRANCH  64  78
BRANCH  65  86
ATOM     86  C   UNL     1      -3.806  -1.557 -14.725  1.00  0.00     0.057 A 
ATOM     87  C   UNL     1      -3.671  -0.296 -15.319  1.00  0.00     0.134 A 
ATOM     88  C   UNL     1      -2.703  -2.418 -14.792  1.00  0.00     0.134 A 
ATOM     89  F   UNL     1      -4.704   0.560 -15.327  1.00  0.00    -0.206 F 
ATOM     90  C   UNL     1      -2.494   0.089 -15.967  1.00  0.00     0.040 A 
ATOM     91  C   UNL     1      -1.512  -2.038 -15.415  1.00  0.00     0.040 A 
ATOM     92  F   UNL     1      -2.769  -3.647 -14.257  1.00  0.00    -0.206 F 
ATOM     93  C   UNL     1      -1.408  -0.783 -16.011  1.00  0.00     0.006 A 
ENDBRANCH  65  86
BRANCH  77  94
ATOM     94  C   UNL     1     -10.098  -2.870 -17.407  1.00  0.00     0.057 A 
ATOM     95  C   UNL     1      -9.754  -3.768 -18.426  1.00  0.00     0.134 A 
ATOM     96  C   UNL     1     -11.040  -1.879 -17.718  1.00  0.00     0.134 A 
ATOM     97  F   UNL     1      -8.851  -4.735 -18.204  1.00  0.00    -0.206 F 
ATOM     98  C   UNL     1     -10.308  -3.671 -19.706  1.00  0.00     0.040 A 
ATOM     99  C   UNL     1     -11.620  -1.789 -18.986  1.00  0.00     0.040 A 
ATOM    100  F   UNL     1     -11.424  -0.989 -16.791  1.00  0.00    -0.206 F 
ATOM    101  C   UNL     1     -11.250  -2.684 -19.986  1.00  0.00     0.006 A 
ENDBRANCH  77  94
ENDBRANCH  51  52
ENDBRANCH  43  46
ENDBRANCH  41  42
ENDBRANCH  40  41
ENDBRANCH  39  40
ENDBRANCH   3  39
TORSDOF 16
