REMARK SMILES Cc1cc(NCc2ccc(C(=O)NCCCNC(=O)c3ccc(-c4c5nc(c(-c6c(F)cccc6F)c6ccc([nH]6)c(-c6c(F)cccc6F)c6nc(c(-c7c(F)cccc7F)c7ccc4[nH]7)C=C6)C=C5)cc3)o2)ccc1F
REMARK SMILES IDX 14 1 13 2 11 3 12 4 10 6 7 7 8 8 74 9 9 10 6 11 5 12 4 14
REMARK SMILES IDX 1 15 2 16 3 17 77 18 76 19 78 20 75 21 15 22 16 23 17 24
REMARK SMILES IDX 18 25 19 27 20 28 21 29 73 30 22 31 72 32 23 33 24 34 25 35
REMARK SMILES IDX 66 36 26 37 71 38 65 39 67 40 27 41 70 42 64 43 63 44 28 46
REMARK SMILES IDX 54 47 37 48 53 49 38 50 41 51 52 52 68 53 39 54 40 55 51 57
REMARK SMILES IDX 69 58 42 59 29 60 30 61 35 62 31 63 32 64 34 65 36 66 33 67
REMARK SMILES IDX 55 68 56 69 61 70 57 71 58 72 60 73 62 74 59 75 43 76 44 77
REMARK SMILES IDX 49 78 45 79 46 80 48 81 50 82 47 83
REMARK H PARENT 13 5 5 13 17 26 67 45 41 56
REMARK Flexibility Score: inf
ROOT
ATOM      1  C   UNL     1      -8.565   0.902   4.377  1.00  0.00     0.118 C 
ENDROOT
BRANCH   1   2
ATOM      2  N   UNL     1      -7.822   2.110   4.100  1.00  0.00    -0.349 N 
ATOM      3  C   UNL     1      -6.775   2.284   3.226  1.00  0.00     0.286 C 
ATOM      4  O   UNL     1      -6.361   3.437   3.090  1.00  0.00    -0.266 OA
ATOM      5  H   UNL     1      -8.100   2.910   4.601  1.00  0.00     0.163 HD
BRANCH   3   6
ATOM      6  C   UNL     1      -6.243   1.145   2.501  1.00  0.00     0.191 A 
ATOM      7  C   UNL     1      -5.206   0.239   0.778  1.00  0.00     0.124 A 
ATOM      8  C   UNL     1      -5.577  -0.810   1.582  1.00  0.00     0.048 A 
ATOM      9  O   UNL     1      -5.601   1.420   1.324  1.00  0.00    -0.454 OA
ATOM     10  C   UNL     1      -6.214  -0.226   2.698  1.00  0.00     0.056 A 
BRANCH   7  11
ATOM     11  C   UNL     1      -4.466   0.338  -0.499  1.00  0.00     0.188 C 
BRANCH  11  12
ATOM     12  N   UNL     1      -3.212   1.052  -0.369  1.00  0.00    -0.378 N 
ATOM     13  H   UNL     1      -3.246   2.033  -0.452  1.00  0.00     0.161 HD
BRANCH  12  14
ATOM     14  C   UNL     1      -1.975   0.487  -0.140  1.00  0.00     0.035 A 
ATOM     15  C   UNL     1       1.619   1.781   0.029  1.00  0.00     0.047 C 
ATOM     16  C   UNL     1       0.446   0.853   0.015  1.00  0.00    -0.013 A 
ATOM     17  C   UNL     1      -0.863   1.343  -0.088  1.00  0.00     0.032 A 
ATOM     18  C   UNL     1       0.635  -0.526   0.069  1.00  0.00     0.126 A 
ATOM     19  C   UNL     1      -0.444  -1.398   0.032  1.00  0.00     0.041 A 
ATOM     20  F   UNL     1       1.876  -1.029   0.142  1.00  0.00    -0.207 F 
ATOM     21  C   UNL     1      -1.742  -0.891  -0.077  1.00  0.00     0.029 A 
ENDBRANCH  12  14
ENDBRANCH  11  12
ENDBRANCH   7  11
ENDBRANCH   3   6
ENDBRANCH   1   2
BRANCH   1  22
ATOM     22  C   UNL     1      -7.915   0.105   5.510  1.00  0.00     0.042 C 
BRANCH  22  23
ATOM     23  C   UNL     1      -8.455   0.579   6.830  1.00  0.00     0.118 C 
BRANCH  23  24
ATOM     24  N   UNL     1      -9.844   0.152   7.008  1.00  0.00    -0.352 N 
ATOM     25  C   UNL     1     -10.562   0.028   8.176  1.00  0.00     0.251 C 
ATOM     26  H   UNL     1     -10.330  -0.077   6.183  1.00  0.00     0.163 HD
ATOM     27  O   UNL     1     -11.626  -0.565   8.209  1.00  0.00    -0.269 OA
BRANCH  25  28
ATOM     28  C   UNL     1     -10.043   0.695   9.374  1.00  0.00     0.039 A 
ATOM     29  C   UNL     1     -10.305   0.214  10.662  1.00  0.00     0.014 A 
ATOM     30  C   UNL     1      -9.366   1.892   9.176  1.00  0.00     0.014 A 
ATOM     31  C   UNL     1      -9.927   0.993  11.748  1.00  0.00     0.010 A 
ATOM     32  C   UNL     1      -8.772   2.511  10.216  1.00  0.00     0.010 A 
ATOM     33  C   UNL     1      -9.201   2.152  11.487  1.00  0.00    -0.014 A 
BRANCH  33  34
ATOM     34  C   UNL     1      -8.886   3.194  12.431  1.00  0.00     0.031 A 
ATOM     35  C   UNL     1      -7.790   2.965  13.356  1.00  0.00     0.074 A 
ATOM     36  C   UNL     1      -9.437   4.390  12.117  1.00  0.00     0.049 A 
ATOM     37  N   UNL     1      -7.612   3.627  14.435  1.00  0.00    -0.248 NA
ATOM     38  C   UNL     1      -6.801   1.910  13.153  1.00  0.00     0.031 C 
ATOM     39  C   UNL     1      -9.056   5.744  12.469  1.00  0.00     0.029 A 
ATOM     40  N   UNL     1     -10.606   4.566  11.362  1.00  0.00    -0.354 N 
ATOM     41  C   UNL     1      -6.317   3.383  14.832  1.00  0.00     0.074 A 
ATOM     42  C   UNL     1      -5.939   2.177  14.139  1.00  0.00     0.031 C 
ATOM     43  C   UNL     1     -10.108   6.558  12.239  1.00  0.00     0.029 A 
ATOM     44  C   UNL     1     -11.233   5.716  11.853  1.00  0.00     0.049 A 
ATOM     45  H   UNL     1     -10.924   3.991  10.629  1.00  0.00     0.167 HD
ATOM     46  C   UNL     1      -5.676   4.367  15.527  1.00  0.00     0.037 A 
ATOM     47  C   UNL     1     -12.383   5.535  12.572  1.00  0.00     0.037 A 
ATOM     48  C   UNL     1      -6.589   5.510  15.692  1.00  0.00     0.049 A 
ATOM     49  C   UNL     1     -12.146   5.840  14.032  1.00  0.00     0.074 A 
ATOM     50  C   UNL     1      -6.715   6.710  15.009  1.00  0.00     0.029 A 
ATOM     51  N   UNL     1      -7.783   5.330  16.384  1.00  0.00    -0.354 N 
ATOM     52  N   UNL     1     -10.989   5.732  14.633  1.00  0.00    -0.248 NA
ATOM     53  C   UNL     1     -13.174   6.412  14.891  1.00  0.00     0.031 C 
ATOM     54  C   UNL     1      -8.022   7.220  15.258  1.00  0.00     0.029 A 
ATOM     55  C   UNL     1      -8.686   6.335  16.093  1.00  0.00     0.049 A 
ATOM     56  H   UNL     1      -7.961   4.584  17.002  1.00  0.00     0.167 HD
ATOM     57  C   UNL     1     -11.075   6.264  15.895  1.00  0.00     0.074 A 
ATOM     58  C   UNL     1     -12.465   6.672  16.003  1.00  0.00     0.031 C 
ATOM     59  C   UNL     1      -9.997   6.355  16.736  1.00  0.00     0.037 A 
BRANCH  46  60
ATOM     60  C   UNL     1      -4.189   4.455  15.805  1.00  0.00     0.057 A 
ATOM     61  C   UNL     1      -3.623   5.674  16.236  1.00  0.00     0.134 A 
ATOM     62  C   UNL     1      -3.252   3.413  15.673  1.00  0.00     0.134 A 
ATOM     63  F   UNL     1      -4.377   6.755  16.478  1.00  0.00    -0.206 F 
ATOM     64  C   UNL     1      -2.249   5.853  16.456  1.00  0.00     0.040 A 
ATOM     65  C   UNL     1      -1.872   3.583  15.867  1.00  0.00     0.040 A 
ATOM     66  F   UNL     1      -3.609   2.157  15.400  1.00  0.00    -0.206 F 
ATOM     67  C   UNL     1      -1.363   4.808  16.258  1.00  0.00     0.006 A 
ENDBRANCH  46  60
BRANCH  47  68
ATOM     68  C   UNL     1     -13.213   4.423  11.991  1.00  0.00     0.057 A 
ATOM     69  C   UNL     1     -13.677   4.604  10.668  1.00  0.00     0.134 A 
ATOM     70  C   UNL     1     -13.095   3.100  12.433  1.00  0.00     0.134 A 
ATOM     71  F   UNL     1     -13.840   5.845  10.180  1.00  0.00    -0.206 F 
ATOM     72  C   UNL     1     -13.816   3.537   9.773  1.00  0.00     0.040 A 
ATOM     73  C   UNL     1     -13.262   2.021  11.549  1.00  0.00     0.040 A 
ATOM     74  F   UNL     1     -12.679   2.829  13.678  1.00  0.00    -0.206 F 
ATOM     75  C   UNL     1     -13.559   2.241  10.203  1.00  0.00     0.006 A 
ENDBRANCH  47  68
BRANCH  59  76
ATOM     76  C   UNL     1     -10.046   6.540  18.244  1.00  0.00     0.057 A 
ATOM     77  C   UNL     1     -11.191   6.373  19.035  1.00  0.00     0.134 A 
ATOM     78  C   UNL     1      -8.852   6.735  18.989  1.00  0.00     0.134 A 
ATOM     79  F   UNL     1     -12.381   6.060  18.512  1.00  0.00    -0.206 F 
ATOM     80  C   UNL     1     -11.166   6.454  20.434  1.00  0.00     0.040 A 
ATOM     81  C   UNL     1      -8.803   6.727  20.384  1.00  0.00     0.040 A 
ATOM     82  F   UNL     1      -7.659   6.912  18.405  1.00  0.00    -0.206 F 
ATOM     83  C   UNL     1      -9.969   6.608  21.115  1.00  0.00     0.006 A 
ENDBRANCH  59  76
ENDBRANCH  33  34
ENDBRANCH  25  28
ENDBRANCH  23  24
ENDBRANCH  22  23
ENDBRANCH   1  22
TORSDOF 13
