REMARK SMILES Cc1nc(C(=O)NCCCNC(=O)c2ccc(-c3c4nc(c(-c5c(F)cccc5F)c5ccc([nH]5)c(-c5c(F)cccc5F)c5nc(c(-c6c(F)cccc6F)c6ccc3[nH]6)C=C5)C=C4)cc2)nn1-c1cccc(C(F)(F)F)c1
REMARK SMILES IDX 9 1 8 2 7 3 5 4 6 5 4 7 1 8 2 9 3 10 69 11 68 12 70 13 71 14
REMARK SMILES IDX 79 15 72 16 74 17 73 18 75 19 76 20 77 21 78 22 10 23 11 24
REMARK SMILES IDX 12 25 13 27 14 28 15 29 67 30 16 31 66 32 17 33 18 34 19 35
REMARK SMILES IDX 60 36 20 37 65 38 59 39 61 40 21 41 64 42 58 43 57 44 22 46
REMARK SMILES IDX 48 47 31 48 47 49 32 50 35 51 46 52 62 53 33 54 34 55 45 57
REMARK SMILES IDX 63 58 36 59 23 60 24 61 29 62 25 63 26 64 28 65 30 66 27 67
REMARK SMILES IDX 49 68 50 69 55 70 51 71 52 72 54 73 56 74 53 75 37 76 38 77
REMARK SMILES IDX 43 78 39 79 40 80 42 81 44 82 41 83
REMARK H PARENT 7 6 11 26 61 45 35 56
REMARK Flexibility Score: inf
ROOT
ATOM      1  C   UNL     1      -2.256   0.382   6.226  1.00  0.00     0.042 C 
ENDROOT
BRANCH   1   2
ATOM      2  C   UNL     1      -0.795  -0.080   6.191  1.00  0.00     0.118 C 
BRANCH   2   3
ATOM      3  N   UNL     1      -0.644  -1.459   5.735  1.00  0.00    -0.349 N 
ATOM      4  C   UNL     1      -0.273  -1.982   4.506  1.00  0.00     0.290 C 
ATOM      5  O   UNL     1      -0.277  -3.212   4.404  1.00  0.00    -0.266 OA
ATOM      6  H   UNL     1      -0.840  -2.137   6.422  1.00  0.00     0.163 HD
BRANCH   4   7
ATOM      7  C   UNL     1       0.077  -1.093   3.376  1.00  0.00     0.239 A 
ATOM      8  C   UNL     1       0.851  -0.326  -0.029  1.00  0.00     0.090 C 
ATOM      9  C   UNL     1       0.402  -0.407   1.381  1.00  0.00     0.130 A 
ATOM     10  N   UNL     1       0.169  -1.515   2.061  1.00  0.00    -0.207 NA
ATOM     11  N   UNL     1       0.342   0.662   2.250  1.00  0.00    -0.217 N 
ATOM     12  N   UNL     1       0.364   0.208   3.514  1.00  0.00    -0.140 NA
BRANCH  11  13
ATOM     13  C   UNL     1       0.129   2.042   2.035  1.00  0.00     0.067 A 
ATOM     14  C   UNL     1       0.641   2.952   2.972  1.00  0.00     0.028 A 
ATOM     15  C   UNL     1      -0.710   2.486   1.007  1.00  0.00     0.041 A 
ATOM     16  C   UNL     1       0.357   4.309   2.856  1.00  0.00     0.003 A 
ATOM     17  C   UNL     1      -1.043   3.850   0.919  1.00  0.00     0.058 A 
ATOM     18  C   UNL     1      -0.482   4.755   1.836  1.00  0.00     0.013 A 
BRANCH  17  19
ATOM     19  C   UNL     1      -2.029   4.349  -0.110  1.00  0.00     0.416 C 
ATOM     20  F   UNL     1      -3.073   5.017   0.454  1.00  0.00    -0.166 F 
ATOM     21  F   UNL     1      -1.463   5.212  -0.997  1.00  0.00    -0.166 F 
ATOM     22  F   UNL     1      -2.583   3.353  -0.855  1.00  0.00    -0.166 F 
ENDBRANCH  17  19
ENDBRANCH  11  13
ENDBRANCH   4   7
ENDBRANCH   2   3
ENDBRANCH   1   2
BRANCH   1  23
ATOM     23  C   UNL     1      -2.961  -0.105   7.481  1.00  0.00     0.118 C 
BRANCH  23  24
ATOM     24  N   UNL     1      -2.475   0.552   8.700  1.00  0.00    -0.352 N 
ATOM     25  C   UNL     1      -2.924   0.406  10.001  1.00  0.00     0.251 C 
ATOM     26  H   UNL     1      -1.730   1.183   8.575  1.00  0.00     0.163 HD
ATOM     27  O   UNL     1      -2.648   1.232  10.855  1.00  0.00    -0.269 OA
BRANCH  25  28
ATOM     28  C   UNL     1      -3.749  -0.769  10.338  1.00  0.00     0.039 A 
ATOM     29  C   UNL     1      -4.830  -0.671  11.217  1.00  0.00     0.014 A 
ATOM     30  C   UNL     1      -3.443  -1.980   9.726  1.00  0.00     0.014 A 
ATOM     31  C   UNL     1      -5.646  -1.784  11.399  1.00  0.00     0.010 A 
ATOM     32  C   UNL     1      -4.346  -3.008   9.756  1.00  0.00     0.010 A 
ATOM     33  C   UNL     1      -5.415  -2.943  10.636  1.00  0.00    -0.014 A 
BRANCH  33  34
ATOM     34  C   UNL     1      -6.376  -4.041  10.628  1.00  0.00     0.031 A 
ATOM     35  C   UNL     1      -7.767  -3.602  10.350  1.00  0.00     0.074 A 
ATOM     36  C   UNL     1      -6.022  -5.346  10.647  1.00  0.00     0.049 A 
ATOM     37  N   UNL     1      -8.759  -3.609  11.175  1.00  0.00    -0.248 NA
ATOM     38  C   UNL     1      -8.056  -2.913   9.079  1.00  0.00     0.031 C 
ATOM     39  C   UNL     1      -4.675  -5.926  10.621  1.00  0.00     0.029 A 
ATOM     40  N   UNL     1      -6.813  -6.454  10.583  1.00  0.00    -0.354 N 
ATOM     41  C   UNL     1      -9.858  -3.166  10.448  1.00  0.00     0.074 A 
ATOM     42  C   UNL     1      -9.331  -2.555   9.256  1.00  0.00     0.031 C 
ATOM     43  C   UNL     1      -4.747  -7.236  10.297  1.00  0.00     0.029 A 
ATOM     44  C   UNL     1      -6.142  -7.630  10.250  1.00  0.00     0.049 A 
ATOM     45  H   UNL     1      -7.782  -6.426  10.758  1.00  0.00     0.167 HD
ATOM     46  C   UNL     1     -11.106  -3.614  10.755  1.00  0.00     0.037 A 
ATOM     47  C   UNL     1      -6.704  -8.825   9.929  1.00  0.00     0.037 A 
ATOM     48  C   UNL     1     -11.138  -4.179  12.086  1.00  0.00     0.049 A 
ATOM     49  C   UNL     1      -8.093  -8.809  10.455  1.00  0.00     0.074 A 
ATOM     50  C   UNL     1     -10.767  -3.723  13.338  1.00  0.00     0.029 A 
ATOM     51  N   UNL     1     -11.213  -5.547  12.203  1.00  0.00    -0.354 N 
ATOM     52  N   UNL     1      -8.382  -8.834  11.727  1.00  0.00    -0.248 NA
ATOM     53  C   UNL     1      -9.129  -8.268   9.588  1.00  0.00     0.031 C 
ATOM     54  C   UNL     1     -10.133  -4.840  13.960  1.00  0.00     0.029 A 
ATOM     55  C   UNL     1     -10.250  -5.931  13.101  1.00  0.00     0.049 A 
ATOM     56  H   UNL     1     -11.840  -6.141  11.730  1.00  0.00     0.167 HD
ATOM     57  C   UNL     1      -9.396  -7.901  11.867  1.00  0.00     0.074 A 
ATOM     58  C   UNL     1      -9.868  -7.640  10.506  1.00  0.00     0.031 C 
ATOM     59  C   UNL     1      -9.553  -7.193  13.024  1.00  0.00     0.037 A 
BRANCH  46  60
ATOM     60  C   UNL     1     -12.155  -3.944   9.718  1.00  0.00     0.057 A 
ATOM     61  C   UNL     1     -13.440  -4.316  10.152  1.00  0.00     0.134 A 
ATOM     62  C   UNL     1     -11.880  -4.218   8.362  1.00  0.00     0.134 A 
ATOM     63  F   UNL     1     -13.821  -4.119  11.423  1.00  0.00    -0.206 F 
ATOM     64  C   UNL     1     -14.342  -4.997   9.326  1.00  0.00     0.040 A 
ATOM     65  C   UNL     1     -12.794  -4.849   7.516  1.00  0.00     0.040 A 
ATOM     66  F   UNL     1     -10.685  -3.995   7.804  1.00  0.00    -0.206 F 
ATOM     67  C   UNL     1     -14.016  -5.275   8.006  1.00  0.00     0.006 A 
ENDBRANCH  46  60
BRANCH  47  68
ATOM     68  C   UNL     1      -6.242  -9.860   8.968  1.00  0.00     0.057 A 
ATOM     69  C   UNL     1      -6.870 -11.115   8.898  1.00  0.00     0.134 A 
ATOM     70  C   UNL     1      -5.374  -9.555   7.904  1.00  0.00     0.134 A 
ATOM     71  F   UNL     1      -7.743 -11.494   9.842  1.00  0.00    -0.206 F 
ATOM     72  C   UNL     1      -6.681 -11.991   7.819  1.00  0.00     0.040 A 
ATOM     73  C   UNL     1      -5.170 -10.424   6.825  1.00  0.00     0.040 A 
ATOM     74  F   UNL     1      -4.763  -8.365   7.825  1.00  0.00    -0.206 F 
ATOM     75  C   UNL     1      -5.839 -11.640   6.770  1.00  0.00     0.006 A 
ENDBRANCH  47  68
BRANCH  59  76
ATOM     76  C   UNL     1      -8.775  -7.615  14.242  1.00  0.00     0.057 A 
ATOM     77  C   UNL     1      -7.375  -7.669  14.319  1.00  0.00     0.134 A 
ATOM     78  C   UNL     1      -9.478  -7.831  15.433  1.00  0.00     0.134 A 
ATOM     79  F   UNL     1      -6.605  -7.376  13.263  1.00  0.00    -0.206 F 
ATOM     80  C   UNL     1      -6.712  -7.970  15.514  1.00  0.00     0.040 A 
ATOM     81  C   UNL     1      -8.828  -8.095  16.640  1.00  0.00     0.040 A 
ATOM     82  F   UNL     1     -10.818  -7.742  15.453  1.00  0.00    -0.206 F 
ATOM     83  C   UNL     1      -7.439  -8.177  16.682  1.00  0.00     0.006 A 
ENDBRANCH  59  76
ENDBRANCH  33  34
ENDBRANCH  25  28
ENDBRANCH  23  24
ENDBRANCH   1  23
TORSDOF 12
