REMARK SMILES COc1ccc(NS(=O)(=O)c2ccc(Cl)c(C(=O)NCCCNC(=O)c3ccc(-c4c5nc(c(-c6c(F)cccc6F)c6ccc([nH]6)c(-c6c(F)cccc6F)c6nc(c(-c7c(F)cccc7F)c7ccc4[nH]7)C=C6)C=C5)cc3)c2)cc1Cl
REMARK SMILES IDX 20 1 19 2 17 3 18 4 16 6 11 7 12 8 80 9 13 10 14 11 15 12
REMARK SMILES IDX 8 13 9 14 10 15 7 16 6 18 3 19 4 20 82 21 5 22 81 23 83 24
REMARK SMILES IDX 2 25 1 26 21 27 22 28 23 29 24 30 25 32 26 33 27 34 79 35
REMARK SMILES IDX 28 36 78 37 29 38 30 39 31 40 72 41 32 42 77 43 71 44 73 45
REMARK SMILES IDX 33 46 76 47 70 48 69 49 34 51 60 52 43 53 59 54 44 55 47 56
REMARK SMILES IDX 58 57 74 58 45 59 46 60 57 62 75 63 48 64 35 65 36 66 41 67
REMARK SMILES IDX 37 68 38 69 40 70 42 71 39 72 61 73 62 74 67 75 63 76 64 77
REMARK SMILES IDX 66 78 68 79 65 80 49 81 50 82 55 83 51 84 52 85 54 86 56 87
REMARK SMILES IDX 53 88
REMARK H PARENT 19 5 7 17 23 31 73 50 47 61
REMARK Flexibility Score: inf
ROOT
ATOM      1  C   UNL     1      -4.867   4.246  -1.789  1.00  0.00     0.118 C 
ENDROOT
BRANCH   1   2
ATOM      2  N   UNL     1      -4.007   3.629  -0.791  1.00  0.00    -0.352 N 
ATOM      3  C   UNL     1      -3.174   4.187   0.153  1.00  0.00     0.252 C 
ATOM      4  O   UNL     1      -2.633   3.441   0.969  1.00  0.00    -0.269 OA
ATOM      5  H   UNL     1      -4.024   2.644  -0.789  1.00  0.00     0.163 HD
BRANCH   3   6
ATOM      6  C   UNL     1      -2.769   5.615   0.121  1.00  0.00     0.059 A 
ATOM      7  C   UNL     1      -0.850   7.109  -0.048  1.00  0.00     0.088 A 
ATOM      8  C   UNL     1      -1.713   8.185  -0.265  1.00  0.00     0.024 A 
ATOM      9  C   UNL     1      -1.379   5.839   0.185  1.00  0.00     0.037 A 
ATOM     10  C   UNL     1      -3.095   7.991  -0.193  1.00  0.00     0.023 A 
ATOM     11  C   UNL     1      -3.626   6.713   0.035  1.00  0.00     0.053 A 
ATOM     12  Cl  UNL     1      -5.325   6.612   0.318  1.00  0.00    -0.083 Cl
BRANCH   7  13
ATOM     13  S   UNL     1       0.900   7.434  -0.149  1.00  0.00     0.261 S 
ATOM     14  O   UNL     1       1.170   8.443   0.856  1.00  0.00    -0.201 OA
ATOM     15  O   UNL     1       1.204   7.659  -1.543  1.00  0.00    -0.201 OA
BRANCH  13  16
ATOM     16  N   UNL     1       1.707   6.075   0.380  1.00  0.00    -0.280 N 
ATOM     17  H   UNL     1       2.146   6.138   1.259  1.00  0.00     0.180 HD
BRANCH  16  18
ATOM     18  C   UNL     1       1.830   4.832  -0.305  1.00  0.00     0.051 A 
ATOM     19  C   UNL     1       1.694   2.156  -1.121  1.00  0.00     0.137 A 
ATOM     20  C   UNL     1       0.963   3.133  -1.796  1.00  0.00     0.050 A 
ATOM     21  C   UNL     1       2.606   2.539  -0.134  1.00  0.00     0.085 A 
ATOM     22  C   UNL     1       1.051   4.472  -1.406  1.00  0.00     0.030 A 
ATOM     23  C   UNL     1       2.649   3.869   0.291  1.00  0.00     0.051 A 
ATOM     24  Cl  UNL     1       3.693   1.421   0.606  1.00  0.00    -0.080 Cl
BRANCH  19  25
ATOM     25  O   UNL     1       1.469   0.862  -1.507  1.00  0.00    -0.495 OA
ATOM     26  C   UNL     1       0.954   0.063  -0.435  1.00  0.00     0.278 C 
ENDBRANCH  19  25
ENDBRANCH  16  18
ENDBRANCH  13  16
ENDBRANCH   7  13
ENDBRANCH   3   6
ENDBRANCH   1   2
BRANCH   1  27
ATOM     27  C   UNL     1      -4.976   3.500  -3.115  1.00  0.00     0.042 C 
BRANCH  27  28
ATOM     28  C   UNL     1      -5.394   2.035  -3.041  1.00  0.00     0.118 C 
BRANCH  28  29
ATOM     29  N   UNL     1      -6.680   1.806  -2.400  1.00  0.00    -0.352 N 
ATOM     30  C   UNL     1      -7.932   1.514  -2.884  1.00  0.00     0.251 C 
ATOM     31  H   UNL     1      -6.646   1.875  -1.418  1.00  0.00     0.163 HD
ATOM     32  O   UNL     1      -8.866   1.450  -2.085  1.00  0.00    -0.269 OA
BRANCH  30  33
ATOM     33  C   UNL     1      -8.212   1.319  -4.328  1.00  0.00     0.039 A 
ATOM     34  C   UNL     1      -9.434   1.788  -4.831  1.00  0.00     0.014 A 
ATOM     35  C   UNL     1      -7.345   0.644  -5.185  1.00  0.00     0.014 A 
ATOM     36  C   UNL     1      -9.739   1.662  -6.191  1.00  0.00     0.010 A 
ATOM     37  C   UNL     1      -7.606   0.599  -6.557  1.00  0.00     0.010 A 
ATOM     38  C   UNL     1      -8.802   1.113  -7.079  1.00  0.00    -0.014 A 
BRANCH  38  39
ATOM     39  C   UNL     1      -9.044   1.077  -8.547  1.00  0.00     0.031 A 
ATOM     40  C   UNL     1      -9.078  -0.234  -9.287  1.00  0.00     0.074 A 
ATOM     41  C   UNL     1      -9.148   2.232  -9.236  1.00  0.00     0.049 A 
ATOM     42  N   UNL     1      -9.133  -0.456 -10.576  1.00  0.00    -0.248 NA
ATOM     43  C   UNL     1      -9.011  -1.456  -8.470  1.00  0.00     0.031 C 
ATOM     44  C   UNL     1      -9.086   3.575  -8.656  1.00  0.00     0.029 A 
ATOM     45  N   UNL     1      -9.309   2.461 -10.581  1.00  0.00    -0.354 N 
ATOM     46  C   UNL     1      -9.076  -1.836 -10.726  1.00  0.00     0.074 A 
ATOM     47  C   UNL     1      -8.942  -2.398  -9.399  1.00  0.00     0.031 C 
ATOM     48  C   UNL     1      -9.223   4.484  -9.633  1.00  0.00     0.029 A 
ATOM     49  C   UNL     1      -9.339   3.794 -10.914  1.00  0.00     0.049 A 
ATOM     50  H   UNL     1      -9.393   1.738 -11.245  1.00  0.00     0.167 HD
ATOM     51  C   UNL     1      -9.148  -2.571 -11.862  1.00  0.00     0.037 A 
ATOM     52  C   UNL     1      -9.436   4.397 -12.114  1.00  0.00     0.037 A 
ATOM     53  C   UNL     1      -9.325  -2.019 -13.180  1.00  0.00     0.049 A 
ATOM     54  C   UNL     1      -9.544   3.561 -13.357  1.00  0.00     0.074 A 
ATOM     55  C   UNL     1      -9.463  -2.688 -14.384  1.00  0.00     0.029 A 
ATOM     56  N   UNL     1      -9.399  -0.664 -13.465  1.00  0.00    -0.354 N 
ATOM     57  N   UNL     1      -9.523   2.256 -13.477  1.00  0.00    -0.248 NA
ATOM     58  C   UNL     1      -9.693   4.280 -14.631  1.00  0.00     0.031 C 
ATOM     59  C   UNL     1      -9.594  -1.738 -15.402  1.00  0.00     0.029 A 
ATOM     60  C   UNL     1      -9.574  -0.478 -14.827  1.00  0.00     0.049 A 
ATOM     61  H   UNL     1      -9.336   0.058 -12.799  1.00  0.00     0.167 HD
ATOM     62  C   UNL     1      -9.676   1.997 -14.833  1.00  0.00     0.074 A 
ATOM     63  C   UNL     1      -9.803   3.280 -15.493  1.00  0.00     0.031 C 
ATOM     64  C   UNL     1      -9.706   0.803 -15.471  1.00  0.00     0.037 A 
BRANCH  51  65
ATOM     65  C   UNL     1      -9.047  -4.063 -11.729  1.00  0.00     0.057 A 
ATOM     66  C   UNL     1     -10.088  -4.825 -11.184  1.00  0.00     0.134 A 
ATOM     67  C   UNL     1      -7.915  -4.748 -12.187  1.00  0.00     0.134 A 
ATOM     68  F   UNL     1     -11.196  -4.228 -10.718  1.00  0.00    -0.206 F 
ATOM     69  C   UNL     1      -9.997  -6.214 -11.077  1.00  0.00     0.040 A 
ATOM     70  C   UNL     1      -7.823  -6.139 -12.108  1.00  0.00     0.040 A 
ATOM     71  F   UNL     1      -6.885  -4.079 -12.726  1.00  0.00    -0.206 F 
ATOM     72  C   UNL     1      -8.864  -6.875 -11.546  1.00  0.00     0.006 A 
ENDBRANCH  51  65
BRANCH  52  73
ATOM     73  C   UNL     1      -9.454   5.879 -12.195  1.00  0.00     0.057 A 
ATOM     74  C   UNL     1     -10.633   6.569 -12.499  1.00  0.00     0.134 A 
ATOM     75  C   UNL     1      -8.301   6.638 -11.963  1.00  0.00     0.134 A 
ATOM     76  F   UNL     1     -11.764   5.893 -12.750  1.00  0.00    -0.206 F 
ATOM     77  C   UNL     1     -10.663   7.961 -12.584  1.00  0.00     0.040 A 
ATOM     78  C   UNL     1      -8.322   8.033 -12.022  1.00  0.00     0.040 A 
ATOM     79  F   UNL     1      -7.143   6.035 -11.658  1.00  0.00    -0.206 F 
ATOM     80  C   UNL     1      -9.505   8.697 -12.339  1.00  0.00     0.006 A 
ENDBRANCH  52  73
BRANCH  64  81
ATOM     81  C   UNL     1      -9.914   0.822 -16.956  1.00  0.00     0.057 A 
ATOM     82  C   UNL     1      -8.893   1.197 -17.837  1.00  0.00     0.134 A 
ATOM     83  C   UNL     1     -11.134   0.416 -17.510  1.00  0.00     0.134 A 
ATOM     84  F   UNL     1      -7.705   1.608 -17.367  1.00  0.00    -0.206 F 
ATOM     85  C   UNL     1      -9.084   1.183 -19.220  1.00  0.00     0.040 A 
ATOM     86  C   UNL     1     -11.329   0.377 -18.891  1.00  0.00     0.040 A 
ATOM     87  F   UNL     1     -12.149   0.038 -16.719  1.00  0.00    -0.206 F 
ATOM     88  C   UNL     1     -10.303   0.765 -19.750  1.00  0.00     0.006 A 
ENDBRANCH  64  81
ENDBRANCH  38  39
ENDBRANCH  30  33
ENDBRANCH  28  29
ENDBRANCH  27  28
ENDBRANCH   1  27
TORSDOF 14
