REMARK SMILES CC[C@@H]1CC(=O)N(Cc2ccc(C(=O)NCCCNC(=O)c3ccc(-c4c5nc(c(-c6c(F)cccc6F)c6ccc([nH]6)c(-c6c(F)cccc6F)c6nc(c(-c7c(F)cccc7F)c7ccc4[nH]7)C=C6)C=C5)cc3)cn2)C1
REMARK SMILES IDX 16 1 15 2 13 3 14 4 12 6 9 7 10 8 77 9 11 10 76 11 8 12 7 13
REMARK SMILES IDX 3 14 4 15 78 16 5 17 6 18 2 19 1 20 17 21 18 22 19 23 20 24
REMARK SMILES IDX 21 26 22 27 23 28 75 29 24 30 74 31 25 32 26 33 27 34 68 35
REMARK SMILES IDX 28 36 73 37 67 38 69 39 29 40 72 41 66 42 65 43 30 45 56 46
REMARK SMILES IDX 39 47 55 48 40 49 43 50 54 51 70 52 41 53 42 54 53 56 71 57
REMARK SMILES IDX 44 58 31 59 32 60 37 61 33 62 34 63 36 64 38 65 35 66 57 67
REMARK SMILES IDX 58 68 63 69 59 70 60 71 62 72 64 73 61 74 45 75 46 76 51 77
REMARK SMILES IDX 47 78 48 79 50 80 52 81 49 82
REMARK H PARENT 15 5 19 25 69 44 43 55
REMARK Flexibility Score: inf
ROOT
ATOM      1  C   UNL     1       8.134   3.138   2.855  1.00  0.00     0.118 C 
ENDROOT
BRANCH   1   2
ATOM      2  N   UNL     1       8.166   4.503   2.359  1.00  0.00    -0.352 N 
ATOM      3  C   UNL     1       7.292   5.210   1.574  1.00  0.00     0.252 C 
ATOM      4  O   UNL     1       7.534   6.396   1.360  1.00  0.00    -0.269 OA
ATOM      5  H   UNL     1       8.962   5.013   2.636  1.00  0.00     0.163 HD
BRANCH   3   6
ATOM      6  C   UNL     1       6.051   4.619   1.031  1.00  0.00     0.058 A 
ATOM      7  C   UNL     1       3.583   3.726   0.166  1.00  0.00     0.060 A 
ATOM      8  C   UNL     1       4.660   2.842   0.188  1.00  0.00     0.026 A 
ATOM      9  N   UNL     1       3.723   5.032   0.494  1.00  0.00    -0.259 NA
ATOM     10  C   UNL     1       5.905   3.298   0.617  1.00  0.00     0.017 A 
ATOM     11  C   UNL     1       4.948   5.451   0.900  1.00  0.00     0.125 A 
BRANCH   7  12
ATOM     12  C   UNL     1       2.200   3.231  -0.184  1.00  0.00     0.175 C 
BRANCH  12  13
ATOM     13  N   UNL     1       1.512   2.571   0.919  1.00  0.00    -0.336 N 
ATOM     14  C   UNL     1       0.861   0.794   2.284  1.00  0.00     0.017 C 
ATOM     15  C   UNL     1      -0.156   1.936   2.418  1.00  0.00     0.105 C 
ATOM     16  C   UNL     1       2.082   1.511   1.718  1.00  0.00     0.124 C 
ATOM     17  C   UNL     1       0.209   2.865   1.287  1.00  0.00     0.223 C 
ATOM     18  O   UNL     1      -0.521   3.712   0.810  1.00  0.00    -0.275 OA
BRANCH  14  19
ATOM     19  C   UNL     1       0.340  -0.377   1.418  1.00  0.00     0.002 C 
ATOM     20  C   UNL     1       0.518  -0.268  -0.092  1.00  0.00     0.004 C 
ENDBRANCH  14  19
ENDBRANCH  12  13
ENDBRANCH   7  12
ENDBRANCH   3   6
ENDBRANCH   1   2
BRANCH   1  21
ATOM     21  C   UNL     1       9.066   2.237   2.048  1.00  0.00     0.042 C 
BRANCH  21  22
ATOM     22  C   UNL     1      10.544   2.492   2.331  1.00  0.00     0.118 C 
BRANCH  22  23
ATOM     23  N   UNL     1      10.914   2.103   3.685  1.00  0.00    -0.352 N 
ATOM     24  C   UNL     1      11.791   1.142   4.120  1.00  0.00     0.251 C 
ATOM     25  H   UNL     1      10.464   2.609   4.400  1.00  0.00     0.163 HD
ATOM     26  O   UNL     1      11.775   0.795   5.297  1.00  0.00    -0.269 OA
BRANCH  24  27
ATOM     27  C   UNL     1      12.743   0.515   3.179  1.00  0.00     0.039 A 
ATOM     28  C   UNL     1      12.984  -0.858   3.278  1.00  0.00     0.014 A 
ATOM     29  C   UNL     1      13.420   1.278   2.224  1.00  0.00     0.014 A 
ATOM     30  C   UNL     1      13.847  -1.477   2.372  1.00  0.00     0.010 A 
ATOM     31  C   UNL     1      14.219   0.649   1.274  1.00  0.00     0.010 A 
ATOM     32  C   UNL     1      14.437  -0.735   1.335  1.00  0.00    -0.014 A 
BRANCH  32  33
ATOM     33  C   UNL     1      15.255  -1.393   0.286  1.00  0.00     0.031 A 
ATOM     34  C   UNL     1      16.706  -1.042   0.120  1.00  0.00     0.074 A 
ATOM     35  C   UNL     1      14.662  -2.245  -0.572  1.00  0.00     0.049 A 
ATOM     36  N   UNL     1      17.553  -1.441  -0.794  1.00  0.00    -0.248 NA
ATOM     37  C   UNL     1      17.275  -0.098   1.095  1.00  0.00     0.031 C 
ATOM     38  C   UNL     1      13.249  -2.630  -0.540  1.00  0.00     0.029 A 
ATOM     39  N   UNL     1      15.167  -2.930  -1.649  1.00  0.00    -0.354 N 
ATOM     40  C   UNL     1      18.747  -0.788  -0.514  1.00  0.00     0.074 A 
ATOM     41  C   UNL     1      18.502   0.070   0.625  1.00  0.00     0.031 C 
ATOM     42  C   UNL     1      13.005  -3.493  -1.538  1.00  0.00     0.029 A 
ATOM     43  C   UNL     1      14.228  -3.685  -2.310  1.00  0.00     0.049 A 
ATOM     44  H   UNL     1      16.112  -2.885  -1.921  1.00  0.00     0.167 HD
ATOM     45  C   UNL     1      19.943  -0.909  -1.139  1.00  0.00     0.037 A 
ATOM     46  C   UNL     1      14.334  -4.432  -3.425  1.00  0.00     0.037 A 
ATOM     47  C   UNL     1      20.180  -1.776  -2.264  1.00  0.00     0.049 A 
ATOM     48  C   UNL     1      15.665  -4.526  -4.118  1.00  0.00     0.074 A 
ATOM     49  C   UNL     1      21.371  -2.021  -2.926  1.00  0.00     0.029 A 
ATOM     50  N   UNL     1      19.206  -2.529  -2.902  1.00  0.00    -0.354 N 
ATOM     51  N   UNL     1      16.806  -3.966  -3.795  1.00  0.00    -0.248 NA
ATOM     52  C   UNL     1      15.724  -5.355  -5.330  1.00  0.00     0.031 C 
ATOM     53  C   UNL     1      21.105  -2.873  -4.002  1.00  0.00     0.029 A 
ATOM     54  C   UNL     1      19.761  -3.209  -3.975  1.00  0.00     0.049 A 
ATOM     55  H   UNL     1      18.260  -2.574  -2.634  1.00  0.00     0.167 HD
ATOM     56  C   UNL     1      17.722  -4.392  -4.748  1.00  0.00     0.074 A 
ATOM     57  C   UNL     1      17.008  -5.272  -5.650  1.00  0.00     0.031 C 
ATOM     58  C   UNL     1      19.036  -4.081  -4.865  1.00  0.00     0.037 A 
BRANCH  45  59
ATOM     59  C   UNL     1      21.084  -0.077  -0.627  1.00  0.00     0.057 A 
ATOM     60  C   UNL     1      21.676  -0.317   0.621  1.00  0.00     0.134 A 
ATOM     61  C   UNL     1      21.625   0.952  -1.409  1.00  0.00     0.134 A 
ATOM     62  F   UNL     1      21.203  -1.281   1.425  1.00  0.00    -0.206 F 
ATOM     63  C   UNL     1      22.743   0.455   1.084  1.00  0.00     0.040 A 
ATOM     64  C   UNL     1      22.712   1.710  -0.970  1.00  0.00     0.040 A 
ATOM     65  F   UNL     1      21.114   1.231  -2.617  1.00  0.00    -0.206 F 
ATOM     66  C   UNL     1      23.269   1.468   0.284  1.00  0.00     0.006 A 
ENDBRANCH  45  59
BRANCH  46  67
ATOM     67  C   UNL     1      13.146  -5.149  -3.954  1.00  0.00     0.057 A 
ATOM     68  C   UNL     1      13.070  -6.546  -3.920  1.00  0.00     0.134 A 
ATOM     69  C   UNL     1      12.058  -4.458  -4.503  1.00  0.00     0.134 A 
ATOM     70  F   UNL     1      14.086  -7.265  -3.421  1.00  0.00    -0.206 F 
ATOM     71  C   UNL     1      11.966  -7.232  -4.430  1.00  0.00     0.040 A 
ATOM     72  C   UNL     1      10.936  -5.129  -4.991  1.00  0.00     0.040 A 
ATOM     73  F   UNL     1      12.062  -3.118  -4.555  1.00  0.00    -0.206 F 
ATOM     74  C   UNL     1      10.892  -6.522  -4.963  1.00  0.00     0.006 A 
ENDBRANCH  46  67
BRANCH  58  75
ATOM     75  C   UNL     1      19.795  -4.712  -5.997  1.00  0.00     0.057 A 
ATOM     76  C   UNL     1      19.594  -4.326  -7.328  1.00  0.00     0.134 A 
ATOM     77  C   UNL     1      20.776  -5.680  -5.745  1.00  0.00     0.134 A 
ATOM     78  F   UNL     1      18.660  -3.414  -7.638  1.00  0.00    -0.206 F 
ATOM     79  C   UNL     1      20.329  -4.893  -8.370  1.00  0.00     0.040 A 
ATOM     80  C   UNL     1      21.538  -6.232  -6.775  1.00  0.00     0.040 A 
ATOM     81  F   UNL     1      21.025  -6.089  -4.492  1.00  0.00    -0.206 F 
ATOM     82  C   UNL     1      21.312  -5.842  -8.094  1.00  0.00     0.006 A 
ENDBRANCH  58  75
ENDBRANCH  32  33
ENDBRANCH  24  27
ENDBRANCH  22  23
ENDBRANCH  21  22
ENDBRANCH   1  21
TORSDOF 13
