REMARK SMILES O=C(NCCCNC(=O)[C@H](c1c[nH]c2ccc(Cl)cc12)[NH+]1CCN(c2cccc(Cl)c2)CC1)c1ccc(-c2c3nc(c(-c4c(F)cccc4F)c4ccc([nH]4)c(-c4c(F)cccc4F)c4nc(c(-c5c(F)cccc5F)c5ccc2[nH]5)C=C4)C=C3)cc1
REMARK SMILES IDX 5 1 4 2 3 3 1 4 2 5 34 7 35 8 87 9 36 10 86 11 37 12 38 13
REMARK SMILES IDX 39 14 80 15 40 16 85 17 79 18 81 19 41 20 84 21 78 22 77 23
REMARK SMILES IDX 42 25 68 26 51 27 67 28 52 29 55 30 66 31 82 32 53 33 54 34
REMARK SMILES IDX 65 36 83 37 56 38 43 39 44 40 49 41 45 42 46 43 48 44 50 45
REMARK SMILES IDX 47 46 69 47 70 48 75 49 71 50 72 51 74 52 76 53 73 54 57 55
REMARK SMILES IDX 58 56 63 57 59 58 60 59 62 60 64 61 61 62 6 63 7 64 8 65
REMARK SMILES IDX 9 67 10 68 21 69 22 70 33 71 23 73 32 74 24 75 25 76 26 77
REMARK SMILES IDX 31 78 27 79 29 80 28 81 30 82 11 83 12 84 20 85 13 86 14 87
REMARK SMILES IDX 19 88 15 90 17 91 16 92 18 93
REMARK H PARENT 3 6 81 24 55 35 7 66 21 72 13 89
REMARK Flexibility Score: inf
ROOT
ATOM      1  C   UNL     1       4.172  -4.311  -0.161  1.00  0.00     0.042 C 
ENDROOT
BRANCH   1   2
ATOM      2  C   UNL     1       4.980  -4.200   1.121  1.00  0.00     0.118 C 
BRANCH   2   3
ATOM      3  N   UNL     1       5.013  -2.841   1.656  1.00  0.00    -0.352 N 
ATOM      4  O   UNL     1       4.271  -0.992   2.709  1.00  0.00    -0.269 OA
ATOM      5  C   UNL     1       4.193  -2.209   2.561  1.00  0.00     0.251 C 
ATOM      6  H   UNL     1       5.747  -2.284   1.310  1.00  0.00     0.163 HD
BRANCH   5   7
ATOM      7  C   UNL     1       3.192  -2.983   3.323  1.00  0.00     0.039 A 
ATOM      8  C   UNL     1       3.499  -4.256   3.788  1.00  0.00     0.014 A 
ATOM      9  C   UNL     1       1.927  -2.443   3.573  1.00  0.00     0.014 A 
ATOM     10  C   UNL     1       2.489  -5.081   4.251  1.00  0.00     0.010 A 
ATOM     11  C   UNL     1       0.949  -3.224   4.202  1.00  0.00     0.010 A 
ATOM     12  C   UNL     1       1.205  -4.572   4.494  1.00  0.00    -0.014 A 
BRANCH  12  13
ATOM     13  C   UNL     1       0.190  -5.479   5.093  1.00  0.00     0.031 A 
ATOM     14  C   UNL     1      -1.106  -5.781   4.390  1.00  0.00     0.074 A 
ATOM     15  C   UNL     1       0.491  -6.103   6.250  1.00  0.00     0.049 A 
ATOM     16  N   UNL     1      -2.063  -6.599   4.750  1.00  0.00    -0.248 NA
ATOM     17  C   UNL     1      -1.374  -5.069   3.131  1.00  0.00     0.031 C 
ATOM     18  C   UNL     1       1.714  -5.884   7.031  1.00  0.00     0.029 A 
ATOM     19  N   UNL     1      -0.168  -7.083   6.945  1.00  0.00    -0.354 N 
ATOM     20  C   UNL     1      -3.062  -6.465   3.794  1.00  0.00     0.074 A 
ATOM     21  C   UNL     1      -2.600  -5.481   2.840  1.00  0.00     0.031 C 
ATOM     22  C   UNL     1       1.766  -6.775   8.030  1.00  0.00     0.029 A 
ATOM     23  C   UNL     1       0.541  -7.562   8.020  1.00  0.00     0.049 A 
ATOM     24  H   UNL     1      -1.063  -7.412   6.697  1.00  0.00     0.167 HD
ATOM     25  C   UNL     1      -4.252  -7.107   3.719  1.00  0.00     0.037 A 
ATOM     26  C   UNL     1       0.238  -8.522   8.911  1.00  0.00     0.037 A 
ATOM     27  C   UNL     1      -4.686  -8.121   4.647  1.00  0.00     0.049 A 
ATOM     28  C   UNL     1      -1.078  -9.227   8.793  1.00  0.00     0.074 A 
ATOM     29  C   UNL     1      -5.857  -8.859   4.633  1.00  0.00     0.029 A 
ATOM     30  N   UNL     1      -3.961  -8.544   5.751  1.00  0.00    -0.354 N 
ATOM     31  N   UNL     1      -2.007  -9.091   7.879  1.00  0.00    -0.248 NA
ATOM     32  C   UNL     1      -1.397 -10.205   9.841  1.00  0.00     0.031 C 
ATOM     33  C   UNL     1      -5.857  -9.702   5.750  1.00  0.00     0.029 A 
ATOM     34  C   UNL     1      -4.667  -9.520   6.435  1.00  0.00     0.049 A 
ATOM     35  H   UNL     1      -3.075  -8.202   6.010  1.00  0.00     0.167 HD
ATOM     36  C   UNL     1      -3.018  -9.970   8.235  1.00  0.00     0.074 A 
ATOM     37  C   UNL     1      -2.576 -10.653   9.434  1.00  0.00     0.031 C 
ATOM     38  C   UNL     1      -4.209 -10.187   7.627  1.00  0.00     0.037 A 
BRANCH  25  39
ATOM     39  C   UNL     1      -5.188  -6.713   2.612  1.00  0.00     0.057 A 
ATOM     40  C   UNL     1      -4.961  -7.074   1.278  1.00  0.00     0.134 A 
ATOM     41  C   UNL     1      -6.355  -5.991   2.896  1.00  0.00     0.134 A 
ATOM     42  F   UNL     1      -3.856  -7.753   0.936  1.00  0.00    -0.206 F 
ATOM     43  C   UNL     1      -5.851  -6.714   0.264  1.00  0.00     0.040 A 
ATOM     44  C   UNL     1      -7.263  -5.646   1.894  1.00  0.00     0.040 A 
ATOM     45  F   UNL     1      -6.636  -5.618   4.154  1.00  0.00    -0.206 F 
ATOM     46  C   UNL     1      -7.010  -6.003   0.572  1.00  0.00     0.006 A 
ENDBRANCH  25  39
BRANCH  26  47
ATOM     47  C   UNL     1       1.200  -8.861   9.989  1.00  0.00     0.057 A 
ATOM     48  C   UNL     1       1.869 -10.090  10.000  1.00  0.00     0.134 A 
ATOM     49  C   UNL     1       1.492  -7.957  11.018  1.00  0.00     0.134 A 
ATOM     50  F   UNL     1       1.620 -11.003   9.050  1.00  0.00    -0.206 F 
ATOM     51  C   UNL     1       2.787 -10.412  11.000  1.00  0.00     0.040 A 
ATOM     52  C   UNL     1       2.429  -8.254  12.008  1.00  0.00     0.040 A 
ATOM     53  F   UNL     1       0.892  -6.759  11.057  1.00  0.00    -0.206 F 
ATOM     54  C   UNL     1       3.075  -9.488  12.004  1.00  0.00     0.006 A 
ENDBRANCH  26  47
BRANCH  38  55
ATOM     55  C   UNL     1      -5.098 -11.224   8.243  1.00  0.00     0.057 A 
ATOM     56  C   UNL     1      -5.786 -10.987   9.440  1.00  0.00     0.134 A 
ATOM     57  C   UNL     1      -5.272 -12.470   7.628  1.00  0.00     0.134 A 
ATOM     58  F   UNL     1      -5.646  -9.819  10.085  1.00  0.00    -0.206 F 
ATOM     59  C   UNL     1      -6.596 -11.965  10.018  1.00  0.00     0.040 A 
ATOM     60  C   UNL     1      -6.098 -13.446   8.184  1.00  0.00     0.040 A 
ATOM     61  F   UNL     1      -4.644 -12.755   6.477  1.00  0.00    -0.206 F 
ATOM     62  C   UNL     1      -6.756 -13.198   9.387  1.00  0.00     0.006 A 
ENDBRANCH  38  55
ENDBRANCH  12  13
ENDBRANCH   5   7
ENDBRANCH   2   3
ENDBRANCH   1   2
BRANCH   1  63
ATOM     63  C   UNL     1       4.838  -3.592  -1.320  1.00  0.00     0.118 C 
BRANCH  63  64
ATOM     64  N   UNL     1       6.180  -4.095  -1.615  1.00  0.00    -0.351 N 
ATOM     65  C   UNL     1       6.748  -4.459  -2.810  1.00  0.00     0.283 C 
ATOM     66  H   UNL     1       6.769  -4.187  -0.832  1.00  0.00     0.163 HD
ATOM     67  O   UNL     1       7.912  -4.877  -2.756  1.00  0.00    -0.268 OA
BRANCH  65  68
ATOM     68  C   UNL     1       5.987  -4.392  -4.171  1.00  0.00     0.307 C 
BRANCH  68  69
ATOM     69  N   UNL     1       4.738  -5.226  -4.188  1.00  0.00    -0.318 N 
ATOM     70  C   UNL     1       4.422  -5.775  -5.539  1.00  0.00     0.284 C 
ATOM     71  C   UNL     1       4.646  -6.355  -3.226  1.00  0.00     0.284 C 
ATOM     72  H   UNL     1       4.058  -4.528  -3.887  1.00  0.00     0.349 HD
ATOM     73  C   UNL     1       5.131  -7.101  -5.957  1.00  0.00     0.178 C 
ATOM     74  C   UNL     1       5.371  -7.668  -3.572  1.00  0.00     0.178 C 
ATOM     75  N   UNL     1       4.992  -8.113  -4.906  1.00  0.00    -0.360 N 
BRANCH  75  76
ATOM     76  C   UNL     1       4.221  -9.243  -5.096  1.00  0.00     0.038 A 
ATOM     77  C   UNL     1       3.070  -9.506  -4.337  1.00  0.00     0.026 A 
ATOM     78  C   UNL     1       4.599 -10.198  -6.048  1.00  0.00     0.046 A 
ATOM     79  C   UNL     1       2.323 -10.677  -4.517  1.00  0.00     0.004 A 
ATOM     80  C   UNL     1       3.869 -11.379  -6.214  1.00  0.00     0.043 A 
ATOM     81  C   UNL     1       2.729 -11.622  -5.454  1.00  0.00     0.020 A 
ATOM     82  Cl  UNL     1       4.397 -12.558  -7.353  1.00  0.00    -0.084 Cl
ENDBRANCH  75  76
ENDBRANCH  68  69
BRANCH  68  83
ATOM     83  C   UNL     1       5.653  -2.923  -4.531  1.00  0.00     0.044 A 
ATOM     84  C   UNL     1       5.605  -1.830  -3.673  1.00  0.00     0.094 A 
ATOM     85  C   UNL     1       5.458  -2.323  -5.833  1.00  0.00     0.011 A 
ATOM     86  N   UNL     1       4.978  -0.792  -4.295  1.00  0.00    -0.361 N 
ATOM     87  C   UNL     1       4.941  -1.037  -5.638  1.00  0.00     0.046 A 
ATOM     88  C   UNL     1       5.673  -2.733  -7.166  1.00  0.00     0.031 A 
ATOM     89  H   UNL     1       4.612   0.005  -3.848  1.00  0.00     0.166 HD
ATOM     90  C   UNL     1       4.521  -0.194  -6.670  1.00  0.00     0.028 A 
ATOM     91  C   UNL     1       5.330  -1.867  -8.213  1.00  0.00     0.041 A 
ATOM     92  C   UNL     1       4.735  -0.632  -7.973  1.00  0.00     0.022 A 
ATOM     93  Cl  UNL     1       5.673  -2.331  -9.837  1.00  0.00    -0.084 Cl
ENDBRANCH  68  83
ENDBRANCH  65  68
ENDBRANCH  63  64
ENDBRANCH   1  63
TORSDOF 13
