REMARK SMILES C#CC[N@H+](CC(=O)NCCCNC(=O)c1ccc(-c2c3nc(c(-c4c(F)cccc4F)c4ccc([nH]4)c(-c4c(F)cccc4F)c4nc(c(-c5c(F)cccc5F)c5ccc2[nH]5)C=C4)C=C3)cc1)[C@H](C)c1ccccc1[N+](=O)[O-]
REMARK SMILES IDX 9 1 8 2 6 3 7 4 5 6 4 7 3 9 2 10 1 11 69 12 70 13 71 14
REMARK SMILES IDX 72 15 76 16 73 17 75 18 74 19 77 20 78 21 79 22 10 23 11 24
REMARK SMILES IDX 12 25 13 26 14 28 15 29 16 30 68 31 17 32 67 33 18 34 19 35
REMARK SMILES IDX 20 36 61 37 21 38 66 39 60 40 62 41 22 42 65 43 59 44 58 45
REMARK SMILES IDX 23 47 49 48 32 49 48 50 33 51 36 52 47 53 63 54 34 55 35 56
REMARK SMILES IDX 46 58 64 59 37 60 24 61 25 62 30 63 26 64 27 65 29 66 31 67
REMARK SMILES IDX 28 68 50 69 51 70 56 71 52 72 53 73 55 74 57 75 54 76 38 77
REMARK SMILES IDX 39 78 44 79 40 80 41 81 43 82 45 83 42 84
REMARK H PARENT 8 5 4 8 12 27 62 46 36 57
REMARK Flexibility Score: inf
ROOT
ATOM      1  C   UNL     1      -3.921  -3.138  -1.659  1.00  0.00     0.118 C 
ENDROOT
BRANCH   1   2
ATOM      2  N   UNL     1      -4.206  -3.985  -0.503  1.00  0.00    -0.351 N 
ATOM      3  C   UNL     1      -4.077  -3.789   0.850  1.00  0.00     0.275 C 
ATOM      4  O   UNL     1      -4.364  -4.741   1.581  1.00  0.00    -0.269 OA
ATOM      5  H   UNL     1      -4.560  -4.872  -0.741  1.00  0.00     0.163 HD
BRANCH   3   6
ATOM      6  C   UNL     1      -3.652  -2.428   1.440  1.00  0.00     0.364 C 
BRANCH   6   7
ATOM      7  N   UNL     1      -2.168  -2.227   1.594  1.00  0.00    -0.311 N 
ATOM      8  H   UNL     1      -1.782  -2.901   2.255  1.00  0.00     0.349 HD
BRANCH   7   9
ATOM      9  C   UNL     1      -1.510  -2.482   0.313  1.00  0.00     0.354 C 
BRANCH   9  10
ATOM     10  C   UNL     1      -0.062  -2.376   0.128  1.00  0.00    -0.047 C 
ATOM     11  C   UNL     1       1.106  -2.362  -0.172  1.00  0.00     0.010 C 
ENDBRANCH   9  10
ENDBRANCH   7   9
BRANCH   7  12
ATOM     12  C   UNL     1      -1.862  -0.894   2.209  1.00  0.00     0.220 C 
ATOM     13  C   UNL     1      -2.322   0.257   1.279  1.00  0.00     0.081 C 
BRANCH  12  14
ATOM     14  C   UNL     1      -0.391  -0.811   2.688  1.00  0.00     0.087 A 
ATOM     15  C   UNL     1       0.262  -2.003   3.084  1.00  0.00     0.017 A 
ATOM     16  C   UNL     1       0.420   0.342   2.656  1.00  0.00     0.278 A 
ATOM     17  C   UNL     1       1.657  -2.080   3.184  1.00  0.00     0.001 A 
ATOM     18  C   UNL     1       1.822   0.273   2.743  1.00  0.00     0.086 A 
ATOM     19  C   UNL     1       2.440  -0.953   2.961  1.00  0.00     0.007 A 
BRANCH  16  20
ATOM     20  N   UNL     1      -0.149   1.680   2.628  1.00  0.00     0.063 N 
ATOM     21  O   UNL     1       0.305   2.478   1.796  1.00  0.00    -0.258 OA
ATOM     22  O   UNL     1      -1.031   1.935   3.460  1.00  0.00    -0.258 OA
ENDBRANCH  16  20
ENDBRANCH  12  14
ENDBRANCH   7  12
ENDBRANCH   6   7
ENDBRANCH   3   6
ENDBRANCH   1   2
BRANCH   1  23
ATOM     23  C   UNL     1      -2.661  -3.577  -2.420  1.00  0.00     0.042 C 
BRANCH  23  24
ATOM     24  C   UNL     1      -2.798  -4.902  -3.146  1.00  0.00     0.118 C 
BRANCH  24  25
ATOM     25  N   UNL     1      -3.329  -4.704  -4.478  1.00  0.00    -0.352 N 
ATOM     26  C   UNL     1      -2.678  -4.772  -5.685  1.00  0.00     0.251 C 
ATOM     27  H   UNL     1      -4.290  -4.492  -4.525  1.00  0.00     0.163 HD
ATOM     28  O   UNL     1      -3.186  -4.242  -6.669  1.00  0.00    -0.269 OA
BRANCH  26  29
ATOM     29  C   UNL     1      -1.372  -5.466  -5.811  1.00  0.00     0.039 A 
ATOM     30  C   UNL     1      -0.436  -4.973  -6.724  1.00  0.00     0.014 A 
ATOM     31  C   UNL     1      -1.083  -6.629  -5.090  1.00  0.00     0.014 A 
ATOM     32  C   UNL     1       0.790  -5.624  -6.890  1.00  0.00     0.010 A 
ATOM     33  C   UNL     1       0.178  -7.216  -5.179  1.00  0.00     0.010 A 
ATOM     34  C   UNL     1       1.119  -6.738  -6.100  1.00  0.00    -0.014 A 
BRANCH  34  35
ATOM     35  C   UNL     1       2.427  -7.428  -6.253  1.00  0.00     0.031 A 
ATOM     36  C   UNL     1       2.479  -8.872  -6.682  1.00  0.00     0.074 A 
ATOM     37  C   UNL     1       3.568  -6.769  -5.971  1.00  0.00     0.049 A 
ATOM     38  N   UNL     1       3.520  -9.652  -6.836  1.00  0.00    -0.248 NA
ATOM     39  C   UNL     1       1.193  -9.536  -6.949  1.00  0.00     0.031 C 
ATOM     40  C   UNL     1       3.650  -5.383  -5.503  1.00  0.00     0.029 A 
ATOM     41  N   UNL     1       4.878  -7.176  -6.029  1.00  0.00    -0.354 N 
ATOM     42  C   UNL     1       3.013 -10.895  -7.198  1.00  0.00     0.074 A 
ATOM     43  C   UNL     1       1.572 -10.783  -7.188  1.00  0.00     0.031 C 
ATOM     44  C   UNL     1       4.940  -5.048  -5.344  1.00  0.00     0.029 A 
ATOM     45  C   UNL     1       5.774  -6.206  -5.649  1.00  0.00     0.049 A 
ATOM     46  H   UNL     1       5.149  -8.078  -6.315  1.00  0.00     0.167 HD
ATOM     47  C   UNL     1       3.687 -12.022  -7.530  1.00  0.00     0.037 A 
ATOM     48  C   UNL     1       7.116  -6.247  -5.545  1.00  0.00     0.037 A 
ATOM     49  C   UNL     1       5.123 -12.122  -7.561  1.00  0.00     0.049 A 
ATOM     50  C   UNL     1       7.840  -7.516  -5.907  1.00  0.00     0.074 A 
ATOM     51  C   UNL     1       5.901 -13.198  -7.951  1.00  0.00     0.029 A 
ATOM     52  N   UNL     1       5.995 -11.115  -7.177  1.00  0.00    -0.354 N 
ATOM     53  N   UNL     1       7.349  -8.658  -6.326  1.00  0.00    -0.248 NA
ATOM     54  C   UNL     1       9.304  -7.501  -5.788  1.00  0.00     0.031 C 
ATOM     55  C   UNL     1       7.242 -12.866  -7.737  1.00  0.00     0.029 A 
ATOM     56  C   UNL     1       7.303 -11.557  -7.286  1.00  0.00     0.049 A 
ATOM     57  H   UNL     1       5.725 -10.219  -6.873  1.00  0.00     0.167 HD
ATOM     58  C   UNL     1       8.444  -9.483  -6.550  1.00  0.00     0.074 A 
ATOM     59  C   UNL     1       9.624  -8.705  -6.237  1.00  0.00     0.031 C 
ATOM     60  C   UNL     1       8.470 -10.770  -6.976  1.00  0.00     0.037 A 
BRANCH  47  61
ATOM     61  C   UNL     1       2.884 -13.244  -7.879  1.00  0.00     0.057 A 
ATOM     62  C   UNL     1       2.118 -13.324  -9.050  1.00  0.00     0.134 A 
ATOM     63  C   UNL     1       2.920 -14.377  -7.056  1.00  0.00     0.134 A 
ATOM     64  F   UNL     1       2.031 -12.273  -9.879  1.00  0.00    -0.206 F 
ATOM     65  C   UNL     1       1.399 -14.476  -9.376  1.00  0.00     0.040 A 
ATOM     66  C   UNL     1       2.231 -15.545  -7.387  1.00  0.00     0.040 A 
ATOM     67  F   UNL     1       3.638 -14.374  -5.923  1.00  0.00    -0.206 F 
ATOM     68  C   UNL     1       1.463 -15.594  -8.548  1.00  0.00     0.006 A 
ENDBRANCH  47  61
BRANCH  48  69
ATOM     69  C   UNL     1       7.867  -5.052  -5.077  1.00  0.00     0.057 A 
ATOM     70  C   UNL     1       8.736  -4.358  -5.927  1.00  0.00     0.134 A 
ATOM     71  C   UNL     1       7.750  -4.588  -3.760  1.00  0.00     0.134 A 
ATOM     72  F   UNL     1       8.905  -4.761  -7.194  1.00  0.00    -0.206 F 
ATOM     73  C   UNL     1       9.483  -3.267  -5.479  1.00  0.00     0.040 A 
ATOM     74  C   UNL     1       8.466  -3.479  -3.308  1.00  0.00     0.040 A 
ATOM     75  F   UNL     1       6.926  -5.200  -2.896  1.00  0.00    -0.206 F 
ATOM     76  C   UNL     1       9.345  -2.822  -4.165  1.00  0.00     0.006 A 
ENDBRANCH  48  69
BRANCH  60  77
ATOM     77  C   UNL     1       9.817 -11.406  -7.171  1.00  0.00     0.057 A 
ATOM     78  C   UNL     1      10.651 -11.729  -6.093  1.00  0.00     0.134 A 
ATOM     79  C   UNL     1      10.267 -11.737  -8.456  1.00  0.00     0.134 A 
ATOM     80  F   UNL     1      10.287 -11.431  -4.837  1.00  0.00    -0.206 F 
ATOM     81  C   UNL     1      11.896 -12.331  -6.289  1.00  0.00     0.040 A 
ATOM     82  C   UNL     1      11.493 -12.369  -8.662  1.00  0.00     0.040 A 
ATOM     83  F   UNL     1       9.513 -11.467  -9.533  1.00  0.00    -0.206 F 
ATOM     84  C   UNL     1      12.316 -12.660  -7.576  1.00  0.00     0.006 A 
ENDBRANCH  60  77
ENDBRANCH  34  35
ENDBRANCH  26  29
ENDBRANCH  24  25
ENDBRANCH  23  24
ENDBRANCH   1  23
TORSDOF 16
