REMARK SMILES C[C@@H](C(=O)NCCCNC(=O)c1ccc(-c2c3nc(c(-c4c(F)cccc4F)c4ccc([nH]4)c(-c4c(F)cccc4F)c4nc(c(-c5c(F)cccc5F)c5ccc2[nH]5)C=C4)C=C3)cc1)c1ccc(C[C@@H]2CCC[C@@H]2O)cc1F
REMARK SMILES IDX 6 1 5 2 3 3 4 4 2 6 1 7 66 8 67 9 78 10 68 11 77 12 79 13
REMARK SMILES IDX 69 14 70 15 71 16 72 17 75 18 73 19 74 20 76 21 7 23 8 24
REMARK SMILES IDX 9 25 10 26 11 28 12 29 13 30 65 31 14 32 64 33 15 34 16 35
REMARK SMILES IDX 17 36 58 37 18 38 63 39 57 40 59 41 19 42 62 43 56 44 55 45
REMARK SMILES IDX 20 47 46 48 29 49 45 50 30 51 33 52 44 53 60 54 31 55 32 56
REMARK SMILES IDX 43 58 61 59 34 60 21 61 22 62 27 63 23 64 24 65 26 66 28 67
REMARK SMILES IDX 25 68 47 69 48 70 53 71 49 72 50 73 52 74 54 75 51 76 35 77
REMARK SMILES IDX 36 78 41 79 37 80 38 81 40 82 42 83 39 84
REMARK H PARENT 5 5 76 22 9 27 59 46 33 57
REMARK Flexibility Score: inf
ROOT
ATOM      1  C   UNL     1     -10.615   4.935   9.486  1.00  0.00     0.117 C 
ENDROOT
BRANCH   1   2
ATOM      2  N   UNL     1     -10.463   3.596   8.944  1.00  0.00    -0.356 N 
ATOM      3  C   UNL     1     -10.363   3.174   7.649  1.00  0.00     0.227 C 
ATOM      4  O   UNL     1     -10.577   1.975   7.453  1.00  0.00    -0.274 OA
ATOM      5  H   UNL     1     -10.426   2.879   9.617  1.00  0.00     0.163 HD
BRANCH   3   6
ATOM      6  C   UNL     1      -9.977   4.168   6.535  1.00  0.00     0.108 C 
ATOM      7  C   UNL     1     -11.223   4.979   6.161  1.00  0.00     0.023 C 
BRANCH   6   8
ATOM      8  C   UNL     1      -9.283   3.518   5.331  1.00  0.00    -0.000 A 
ATOM      9  C   UNL     1      -8.471   2.381   5.489  1.00  0.00     0.008 A 
ATOM     10  C   UNL     1      -9.359   4.056   4.038  1.00  0.00     0.127 A 
ATOM     11  C   UNL     1      -7.831   1.778   4.399  1.00  0.00     0.004 A 
ATOM     12  C   UNL     1      -8.694   3.481   2.955  1.00  0.00     0.043 A 
ATOM     13  F   UNL     1     -10.062   5.169   3.790  1.00  0.00    -0.207 F 
ATOM     14  C   UNL     1      -7.910   2.338   3.123  1.00  0.00    -0.045 A 
BRANCH  14  15
ATOM     15  C   UNL     1      -7.152   1.762   1.956  1.00  0.00     0.041 C 
BRANCH  15  16
ATOM     16  C   UNL     1      -5.630   2.018   1.883  1.00  0.00     0.022 C 
ATOM     17  C   UNL     1      -4.812   1.349   2.994  1.00  0.00     0.007 C 
ATOM     18  C   UNL     1      -5.152   3.473   1.948  1.00  0.00     0.117 C 
ATOM     19  C   UNL     1      -4.505   2.435   4.030  1.00  0.00     0.003 C 
ATOM     20  C   UNL     1      -4.974   3.757   3.433  1.00  0.00     0.032 C 
BRANCH  18  21
ATOM     21  O   UNL     1      -6.025   4.395   1.333  1.00  0.00    -0.393 OA
ATOM     22  H   UNL     1      -6.890   4.363   1.769  1.00  0.00     0.210 HD
ENDBRANCH  18  21
ENDBRANCH  15  16
ENDBRANCH  14  15
ENDBRANCH   6   8
ENDBRANCH   3   6
ENDBRANCH   1   2
BRANCH   1  23
ATOM     23  C   UNL     1     -12.082   5.242   9.795  1.00  0.00     0.042 C 
BRANCH  23  24
ATOM     24  C   UNL     1     -12.713   4.319  10.834  1.00  0.00     0.118 C 
BRANCH  24  25
ATOM     25  N   UNL     1     -12.168   4.523  12.167  1.00  0.00    -0.352 N 
ATOM     26  C   UNL     1     -12.786   4.972  13.308  1.00  0.00     0.251 C 
ATOM     27  H   UNL     1     -11.213   4.306  12.266  1.00  0.00     0.163 HD
ATOM     28  O   UNL     1     -12.110   5.265  14.292  1.00  0.00    -0.269 OA
BRANCH  26  29
ATOM     29  C   UNL     1     -14.255   5.138  13.351  1.00  0.00     0.039 A 
ATOM     30  C   UNL     1     -14.784   6.309  13.901  1.00  0.00     0.014 A 
ATOM     31  C   UNL     1     -15.112   4.150  12.856  1.00  0.00     0.014 A 
ATOM     32  C   UNL     1     -16.163   6.531  13.870  1.00  0.00     0.010 A 
ATOM     33  C   UNL     1     -16.480   4.401  12.764  1.00  0.00     0.010 A 
ATOM     34  C   UNL     1     -17.017   5.603  13.253  1.00  0.00    -0.014 A 
BRANCH  34  35
ATOM     35  C   UNL     1     -18.459   5.899  13.045  1.00  0.00     0.031 A 
ATOM     36  C   UNL     1     -19.517   5.053  13.694  1.00  0.00     0.074 A 
ATOM     37  C   UNL     1     -18.810   6.881  12.190  1.00  0.00     0.049 A 
ATOM     38  N   UNL     1     -20.816   5.093  13.537  1.00  0.00    -0.248 NA
ATOM     39  C   UNL     1     -19.059   4.011  14.627  1.00  0.00     0.031 C 
ATOM     40  C   UNL     1     -17.875   7.746  11.465  1.00  0.00     0.029 A 
ATOM     41  N   UNL     1     -20.046   7.303  11.763  1.00  0.00    -0.354 N 
ATOM     42  C   UNL     1     -21.328   4.075  14.332  1.00  0.00     0.074 A 
ATOM     43  C   UNL     1     -20.199   3.414  14.950  1.00  0.00     0.031 C 
ATOM     44  C   UNL     1     -18.569   8.593  10.688  1.00  0.00     0.029 A 
ATOM     45  C   UNL     1     -19.992   8.301  10.818  1.00  0.00     0.049 A 
ATOM     46  H   UNL     1     -20.890   6.926  12.101  1.00  0.00     0.167 HD
ATOM     47  C   UNL     1     -22.622   3.732  14.531  1.00  0.00     0.037 A 
ATOM     48  C   UNL     1     -20.974   8.893  10.111  1.00  0.00     0.037 A 
ATOM     49  C   UNL     1     -23.743   4.413  13.937  1.00  0.00     0.049 A 
ATOM     50  C   UNL     1     -22.400   8.465  10.334  1.00  0.00     0.074 A 
ATOM     51  C   UNL     1     -25.093   4.201  14.161  1.00  0.00     0.029 A 
ATOM     52  N   UNL     1     -23.648   5.424  12.994  1.00  0.00    -0.354 N 
ATOM     53  N   UNL     1     -22.873   7.571  11.168  1.00  0.00    -0.248 NA
ATOM     54  C   UNL     1     -23.428   9.124   9.515  1.00  0.00     0.031 C 
ATOM     55  C   UNL     1     -25.815   5.036  13.304  1.00  0.00     0.029 A 
ATOM     56  C   UNL     1     -24.915   5.809  12.588  1.00  0.00     0.049 A 
ATOM     57  H   UNL     1     -22.806   5.810  12.662  1.00  0.00     0.167 HD
ATOM     58  C   UNL     1     -24.250   7.576  10.988  1.00  0.00     0.074 A 
ATOM     59  C   UNL     1     -24.540   8.578   9.985  1.00  0.00     0.031 C 
ATOM     60  C   UNL     1     -25.191   6.812  11.594  1.00  0.00     0.037 A 
BRANCH  47  61
ATOM     61  C   UNL     1     -22.919   2.565  15.425  1.00  0.00     0.057 A 
ATOM     62  C   UNL     1     -22.779   2.643  16.816  1.00  0.00     0.134 A 
ATOM     63  C   UNL     1     -23.452   1.383  14.894  1.00  0.00     0.134 A 
ATOM     64  F   UNL     1     -22.270   3.744  17.388  1.00  0.00    -0.206 F 
ATOM     65  C   UNL     1     -23.154   1.585  17.646  1.00  0.00     0.040 A 
ATOM     66  C   UNL     1     -23.853   0.328  15.715  1.00  0.00     0.040 A 
ATOM     67  F   UNL     1     -23.621   1.247  13.569  1.00  0.00    -0.206 F 
ATOM     68  C   UNL     1     -23.704   0.428  17.096  1.00  0.00     0.006 A 
ENDBRANCH  47  61
BRANCH  48  69
ATOM     69  C   UNL     1     -20.654   9.931   9.096  1.00  0.00     0.057 A 
ATOM     70  C   UNL     1     -21.070  11.257   9.258  1.00  0.00     0.134 A 
ATOM     71  C   UNL     1     -19.969   9.611   7.916  1.00  0.00     0.134 A 
ATOM     72  F   UNL     1     -21.749  11.622  10.355  1.00  0.00    -0.206 F 
ATOM     73  C   UNL     1     -20.849  12.220   8.271  1.00  0.00     0.040 A 
ATOM     74  C   UNL     1     -19.713  10.571   6.935  1.00  0.00     0.040 A 
ATOM     75  F   UNL     1     -19.536   8.360   7.700  1.00  0.00    -0.206 F 
ATOM     76  C   UNL     1     -20.166  11.877   7.106  1.00  0.00     0.006 A 
ENDBRANCH  48  69
BRANCH  60  77
ATOM     77  C   UNL     1     -26.622   7.040  11.206  1.00  0.00     0.057 A 
ATOM     78  C   UNL     1     -27.121   6.629   9.963  1.00  0.00     0.134 A 
ATOM     79  C   UNL     1     -27.524   7.623  12.105  1.00  0.00     0.134 A 
ATOM     80  F   UNL     1     -26.306   6.078   9.052  1.00  0.00    -0.206 F 
ATOM     81  C   UNL     1     -28.463   6.804   9.623  1.00  0.00     0.040 A 
ATOM     82  C   UNL     1     -28.874   7.777  11.787  1.00  0.00     0.040 A 
ATOM     83  F   UNL     1     -27.112   8.031  13.315  1.00  0.00    -0.206 F 
ATOM     84  C   UNL     1     -29.346   7.370  10.541  1.00  0.00     0.006 A 
ENDBRANCH  60  77
ENDBRANCH  34  35
ENDBRANCH  26  29
ENDBRANCH  24  25
ENDBRANCH  23  24
ENDBRANCH   1  23
TORSDOF 14
