REMARK SMILES O=C(C[C@H]1C[C@H]2CC[C@@H](C1)[N@H+]2C[C@@H]1CNC(=O)O1)NCCCNC(=O)c1ccc(-c2c3nc(c(-c4c(F)cccc4F)c4ccc([nH]4)c(-c4c(F)cccc4F)c4nc(c(-c5c(F)cccc5F)c5ccc2[nH]5)C=C4)C=C3)cc1
REMARK SMILES IDX 20 1 19 2 1 3 2 4 3 6 4 7 5 8 10 9 6 10 9 11 7 12 11 13 8 14
REMARK SMILES IDX 12 16 13 17 14 18 18 19 15 20 16 21 17 23 21 24 22 25 23 26
REMARK SMILES IDX 24 27 25 29 26 30 27 31 79 32 28 33 78 34 29 35 30 36 31 37
REMARK SMILES IDX 72 38 32 39 77 40 71 41 73 42 33 43 76 44 70 45 69 46 34 48
REMARK SMILES IDX 60 49 43 50 59 51 44 52 47 53 58 54 74 55 45 56 46 57 57 59
REMARK SMILES IDX 75 60 48 61 35 62 36 63 41 64 37 65 38 66 40 67 42 68 39 69
REMARK SMILES IDX 61 70 62 71 67 72 63 73 64 74 66 75 68 76 65 77 49 78 50 79
REMARK SMILES IDX 55 80 51 81 52 82 54 83 56 84 53 85
REMARK H PARENT 19 5 11 15 15 22 23 28 73 47 47 58
REMARK Flexibility Score: inf
ROOT
ATOM      1  C   UNL     1       1.198  -0.075   3.268  1.00  0.00     0.117 C 
ENDROOT
BRANCH   1   2
ATOM      2  N   UNL     1       1.707   0.081   1.919  1.00  0.00    -0.356 N 
ATOM      3  O   UNL     1      -0.247  -0.142   0.794  1.00  0.00    -0.275 OA
ATOM      4  C   UNL     1       0.976   0.003   0.759  1.00  0.00     0.220 C 
ATOM      5  H   UNL     1       2.671   0.259   1.825  1.00  0.00     0.163 HD
BRANCH   4   6
ATOM      6  C   UNL     1       1.710  -0.064  -0.608  1.00  0.00     0.104 C 
BRANCH   6   7
ATOM      7  C   UNL     1       3.066   0.607  -0.948  1.00  0.00     0.010 C 
ATOM      8  C   UNL     1       3.916   1.031   0.233  1.00  0.00     0.069 C 
ATOM      9  C   UNL     1       3.952  -0.202  -1.961  1.00  0.00     0.069 C 
ATOM     10  C   UNL     1       4.846  -0.068   0.762  1.00  0.00     0.184 C 
ATOM     11  C   UNL     1       5.157  -0.967  -1.350  1.00  0.00     0.184 C 
ATOM     12  C   UNL     1       4.288  -1.512   0.812  1.00  0.00     0.071 C 
ATOM     13  N   UNL     1       5.841  -0.271  -0.265  1.00  0.00    -0.327 N 
ATOM     14  C   UNL     1       4.593  -2.139  -0.545  1.00  0.00     0.071 C 
ATOM     15  H   UNL     1       6.623  -0.863   0.014  1.00  0.00     0.348 HD
BRANCH  13  16
ATOM     16  C   UNL     1       6.955   0.652  -0.422  1.00  0.00     0.310 C 
BRANCH  16  17
ATOM     17  C   UNL     1       7.023   1.967  -1.249  1.00  0.00     0.252 C 
ATOM     18  C   UNL     1       6.361   3.231  -0.722  1.00  0.00     0.170 C 
ATOM     19  O   UNL     1       6.524   1.801  -2.584  1.00  0.00    -0.438 OA
ATOM     20  N   UNL     1       5.366   3.501  -1.703  1.00  0.00    -0.318 N 
ATOM     21  C   UNL     1       5.528   2.707  -2.796  1.00  0.00     0.407 C 
ATOM     22  H   UNL     1       4.654   4.173  -1.603  1.00  0.00     0.167 HD
ATOM     23  O   UNL     1       4.859   2.780  -3.818  1.00  0.00    -0.225 OA
ENDBRANCH  16  17
ENDBRANCH  13  16
ENDBRANCH   6   7
ENDBRANCH   4   6
ENDBRANCH   1   2
BRANCH   1  24
ATOM     24  C   UNL     1       1.764  -1.334   3.936  1.00  0.00     0.042 C 
BRANCH  24  25
ATOM     25  C   UNL     1       3.277  -1.399   4.179  1.00  0.00     0.118 C 
BRANCH  25  26
ATOM     26  N   UNL     1       3.854  -0.395   5.048  1.00  0.00    -0.352 N 
ATOM     27  C   UNL     1       4.885  -0.526   5.955  1.00  0.00     0.251 C 
ATOM     28  H   UNL     1       3.458   0.504   4.981  1.00  0.00     0.163 HD
ATOM     29  O   UNL     1       5.335   0.476   6.505  1.00  0.00    -0.269 OA
BRANCH  27  30
ATOM     30  C   UNL     1       5.410  -1.860   6.342  1.00  0.00     0.039 A 
ATOM     31  C   UNL     1       5.435  -2.165   7.706  1.00  0.00     0.014 A 
ATOM     32  C   UNL     1       5.881  -2.799   5.419  1.00  0.00     0.014 A 
ATOM     33  C   UNL     1       5.853  -3.428   8.138  1.00  0.00     0.010 A 
ATOM     34  C   UNL     1       6.251  -4.084   5.850  1.00  0.00     0.010 A 
ATOM     35  C   UNL     1       6.222  -4.420   7.214  1.00  0.00    -0.014 A 
BRANCH  35  36
ATOM     36  C   UNL     1       6.498  -5.807   7.694  1.00  0.00     0.031 A 
ATOM     37  C   UNL     1       7.866  -6.427   7.593  1.00  0.00     0.074 A 
ATOM     38  C   UNL     1       5.495  -6.523   8.245  1.00  0.00     0.049 A 
ATOM     39  N   UNL     1       8.281  -7.590   8.037  1.00  0.00    -0.248 NA
ATOM     40  C   UNL     1       8.898  -5.652   6.891  1.00  0.00     0.031 C 
ATOM     41  C   UNL     1       4.107  -6.069   8.367  1.00  0.00     0.029 A 
ATOM     42  N   UNL     1       5.484  -7.773   8.816  1.00  0.00    -0.354 N 
ATOM     43  C   UNL     1       9.620  -7.683   7.677  1.00  0.00     0.074 A 
ATOM     44  C   UNL     1       9.932  -6.482   6.929  1.00  0.00     0.031 C 
ATOM     45  C   UNL     1       3.393  -7.006   9.009  1.00  0.00     0.029 A 
ATOM     46  C   UNL     1       4.256  -8.143   9.312  1.00  0.00     0.049 A 
ATOM     47  H   UNL     1       6.280  -8.349   8.864  1.00  0.00     0.167 HD
ATOM     48  C   UNL     1      10.513  -8.666   7.958  1.00  0.00     0.037 A 
ATOM     49  C   UNL     1       3.862  -9.267   9.943  1.00  0.00     0.037 A 
ATOM     50  C   UNL     1      10.205  -9.867   8.696  1.00  0.00     0.049 A 
ATOM     51  C   UNL     1       4.867 -10.350  10.222  1.00  0.00     0.074 A 
ATOM     52  C   UNL     1      11.058 -10.895   9.066  1.00  0.00     0.029 A 
ATOM     53  N   UNL     1       8.946 -10.213   9.165  1.00  0.00    -0.354 N 
ATOM     54  N   UNL     1       6.147 -10.385   9.945  1.00  0.00    -0.248 NA
ATOM     55  C   UNL     1       4.371 -11.547  10.916  1.00  0.00     0.031 C 
ATOM     56  C   UNL     1      10.305 -11.888   9.702  1.00  0.00     0.029 A 
ATOM     57  C   UNL     1       8.995 -11.449   9.794  1.00  0.00     0.049 A 
ATOM     58  H   UNL     1       8.136  -9.661   9.067  1.00  0.00     0.167 HD
ATOM     59  C   UNL     1       6.615 -11.589  10.457  1.00  0.00     0.074 A 
ATOM     60  C   UNL     1       5.485 -12.244  11.081  1.00  0.00     0.031 C 
ATOM     61  C   UNL     1       7.869 -12.104  10.413  1.00  0.00     0.037 A 
BRANCH  48  62
ATOM     62  C   UNL     1      11.921  -8.490   7.458  1.00  0.00     0.057 A 
ATOM     63  C   UNL     1      12.779  -7.515   7.985  1.00  0.00     0.134 A 
ATOM     64  C   UNL     1      12.445  -9.341   6.475  1.00  0.00     0.134 A 
ATOM     65  F   UNL     1      12.343  -6.663   8.926  1.00  0.00    -0.206 F 
ATOM     66  C   UNL     1      14.093  -7.373   7.534  1.00  0.00     0.040 A 
ATOM     67  C   UNL     1      13.767  -9.230   6.038  1.00  0.00     0.040 A 
ATOM     68  F   UNL     1      11.687 -10.307   5.935  1.00  0.00    -0.206 F 
ATOM     69  C   UNL     1      14.593  -8.238   6.562  1.00  0.00     0.006 A 
ENDBRANCH  48  62
BRANCH  49  70
ATOM     70  C   UNL     1       2.447  -9.423  10.373  1.00  0.00     0.057 A 
ATOM     71  C   UNL     1       2.098  -9.458  11.729  1.00  0.00     0.134 A 
ATOM     72  C   UNL     1       1.413  -9.564   9.440  1.00  0.00     0.134 A 
ATOM     73  F   UNL     1       3.045  -9.350  12.673  1.00  0.00    -0.206 F 
ATOM     74  C   UNL     1       0.778  -9.653  12.141  1.00  0.00     0.040 A 
ATOM     75  C   UNL     1       0.085  -9.727   9.836  1.00  0.00     0.040 A 
ATOM     76  F   UNL     1       1.679  -9.533   8.125  1.00  0.00    -0.206 F 
ATOM     77  C   UNL     1      -0.234  -9.782  11.192  1.00  0.00     0.006 A 
ENDBRANCH  49  70
BRANCH  61  78
ATOM     78  C   UNL     1       8.093 -13.425  11.098  1.00  0.00     0.057 A 
ATOM     79  C   UNL     1       7.534 -14.619  10.622  1.00  0.00     0.134 A 
ATOM     80  C   UNL     1       8.882 -13.502  12.254  1.00  0.00     0.134 A 
ATOM     81  F   UNL     1       6.759 -14.618   9.527  1.00  0.00    -0.206 F 
ATOM     82  C   UNL     1       7.712 -15.830  11.295  1.00  0.00     0.040 A 
ATOM     83  C   UNL     1       9.097 -14.713  12.915  1.00  0.00     0.040 A 
ATOM     84  F   UNL     1       9.460 -12.403  12.761  1.00  0.00    -0.206 F 
ATOM     85  C   UNL     1       8.499 -15.880  12.443  1.00  0.00     0.006 A 
ENDBRANCH  61  78
ENDBRANCH  35  36
ENDBRANCH  27  30
ENDBRANCH  25  26
ENDBRANCH  24  25
ENDBRANCH   1  24
TORSDOF 13
