REMARK SMILES O=C(NCCCNC(=O)c1cn(C2CN(C(=O)[C@@H]3CC=CCC3)C2)nn1)c1ccc(-c2c3nc(c(-c4c(F)cccc4F)c4ccc([nH]4)c(-c4c(F)cccc4F)c4nc(c(-c5c(F)cccc5F)c5ccc2[nH]5)C=C4)C=C3)cc1
REMARK SMILES IDX 5 1 4 2 3 3 1 4 2 5 27 7 28 8 80 9 29 10 79 11 30 12 31 13
REMARK SMILES IDX 32 14 73 15 33 16 78 17 72 18 74 19 34 20 77 21 71 22 70 23
REMARK SMILES IDX 35 25 61 26 44 27 60 28 45 29 48 30 59 31 75 32 46 33 47 34
REMARK SMILES IDX 58 36 76 37 49 38 36 39 37 40 42 41 38 42 39 43 41 44 43 45
REMARK SMILES IDX 40 46 62 47 63 48 68 49 64 50 65 51 67 52 69 53 66 54 50 55
REMARK SMILES IDX 51 56 56 57 52 58 53 59 55 60 57 61 54 62 6 63 7 64 8 65
REMARK SMILES IDX 9 67 10 68 11 69 26 70 12 71 25 72 13 73 14 74 24 75 15 76
REMARK SMILES IDX 16 77 17 78 18 79 19 80 23 81 20 82 22 83 21 84
REMARK H PARENT 3 6 74 24 48 35 7 66
REMARK Flexibility Score: inf
ROOT
ATOM      1  C   UNL     1      -1.254  -4.076  19.458  1.00  0.00     0.042 C 
ENDROOT
BRANCH   1   2
ATOM      2  C   UNL     1      -0.986  -3.975  20.956  1.00  0.00     0.118 C 
BRANCH   2   3
ATOM      3  N   UNL     1       0.239  -3.292  21.314  1.00  0.00    -0.352 N 
ATOM      4  O   UNL     1       1.681  -1.819  22.091  1.00  0.00    -0.269 OA
ATOM      5  C   UNL     1       0.584  -1.992  21.552  1.00  0.00     0.251 C 
ATOM      6  H   UNL     1       1.001  -3.908  21.407  1.00  0.00     0.163 HD
BRANCH   5   7
ATOM      7  C   UNL     1      -0.190  -0.798  21.119  1.00  0.00     0.039 A 
ATOM      8  C   UNL     1      -1.530  -0.766  20.729  1.00  0.00     0.014 A 
ATOM      9  C   UNL     1       0.551   0.399  21.071  1.00  0.00     0.014 A 
ATOM     10  C   UNL     1      -2.077   0.408  20.199  1.00  0.00     0.010 A 
ATOM     11  C   UNL     1       0.016   1.565  20.542  1.00  0.00     0.010 A 
ATOM     12  C   UNL     1      -1.288   1.560  20.063  1.00  0.00    -0.014 A 
BRANCH  12  13
ATOM     13  C   UNL     1      -1.909   2.828  19.669  1.00  0.00     0.031 A 
ATOM     14  C   UNL     1      -2.849   3.336  20.710  1.00  0.00     0.074 A 
ATOM     15  C   UNL     1      -1.542   3.558  18.590  1.00  0.00     0.049 A 
ATOM     16  N   UNL     1      -4.131   3.467  20.617  1.00  0.00    -0.248 NA
ATOM     17  C   UNL     1      -2.332   3.555  22.075  1.00  0.00     0.031 C 
ATOM     18  C   UNL     1      -0.450   3.282  17.653  1.00  0.00     0.029 A 
ATOM     19  N   UNL     1      -2.015   4.763  18.137  1.00  0.00    -0.354 N 
ATOM     20  C   UNL     1      -4.543   4.019  21.829  1.00  0.00     0.074 A 
ATOM     21  C   UNL     1      -3.449   3.847  22.743  1.00  0.00     0.031 C 
ATOM     22  C   UNL     1      -0.203   4.379  16.898  1.00  0.00     0.029 A 
ATOM     23  C   UNL     1      -1.194   5.398  17.197  1.00  0.00     0.049 A 
ATOM     24  H   UNL     1      -2.865   5.151  18.448  1.00  0.00     0.167 HD
ATOM     25  C   UNL     1      -5.625   4.844  21.877  1.00  0.00     0.037 A 
ATOM     26  C   UNL     1      -1.305   6.674  16.727  1.00  0.00     0.037 A 
ATOM     27  C   UNL     1      -6.453   4.660  20.709  1.00  0.00     0.049 A 
ATOM     28  C   UNL     1      -2.684   7.133  17.011  1.00  0.00     0.074 A 
ATOM     29  C   UNL     1      -7.135   3.603  20.139  1.00  0.00     0.029 A 
ATOM     30  N   UNL     1      -6.351   5.612  19.727  1.00  0.00    -0.354 N 
ATOM     31  N   UNL     1      -3.739   6.655  16.418  1.00  0.00    -0.248 NA
ATOM     32  C   UNL     1      -2.915   7.779  18.292  1.00  0.00     0.031 C 
ATOM     33  C   UNL     1      -6.984   3.782  18.732  1.00  0.00     0.029 A 
ATOM     34  C   UNL     1      -6.303   4.979  18.518  1.00  0.00     0.049 A 
ATOM     35  H   UNL     1      -6.319   6.586  19.870  1.00  0.00     0.167 HD
ATOM     36  C   UNL     1      -4.660   6.500  17.441  1.00  0.00     0.074 A 
ATOM     37  C   UNL     1      -4.121   7.274  18.560  1.00  0.00     0.031 C 
ATOM     38  C   UNL     1      -5.609   5.521  17.376  1.00  0.00     0.037 A 
BRANCH  25  39
ATOM     39  C   UNL     1      -5.675   6.127  22.689  1.00  0.00     0.057 A 
ATOM     40  C   UNL     1      -6.845   6.909  22.638  1.00  0.00     0.134 A 
ATOM     41  C   UNL     1      -4.548   6.786  23.225  1.00  0.00     0.134 A 
ATOM     42  F   UNL     1      -7.990   6.405  22.151  1.00  0.00    -0.206 F 
ATOM     43  C   UNL     1      -6.861   8.268  22.979  1.00  0.00     0.040 A 
ATOM     44  C   UNL     1      -4.567   8.129  23.614  1.00  0.00     0.040 A 
ATOM     45  F   UNL     1      -3.344   6.215  23.314  1.00  0.00    -0.206 F 
ATOM     46  C   UNL     1      -5.714   8.886  23.455  1.00  0.00     0.006 A 
ENDBRANCH  25  39
BRANCH  26  47
ATOM     47  C   UNL     1      -0.253   7.655  16.341  1.00  0.00     0.057 A 
ATOM     48  C   UNL     1      -0.570   8.848  15.665  1.00  0.00     0.134 A 
ATOM     49  C   UNL     1       1.033   7.602  16.903  1.00  0.00     0.134 A 
ATOM     50  F   UNL     1      -1.788   9.027  15.131  1.00  0.00    -0.206 F 
ATOM     51  C   UNL     1       0.323   9.929  15.581  1.00  0.00     0.040 A 
ATOM     52  C   UNL     1       1.935   8.672  16.825  1.00  0.00     0.040 A 
ATOM     53  F   UNL     1       1.421   6.548  17.634  1.00  0.00    -0.206 F 
ATOM     54  C   UNL     1       1.577   9.847  16.175  1.00  0.00     0.006 A 
ENDBRANCH  26  47
BRANCH  38  55
ATOM     55  C   UNL     1      -5.811   4.821  16.062  1.00  0.00     0.057 A 
ATOM     56  C   UNL     1      -4.844   4.035  15.415  1.00  0.00     0.134 A 
ATOM     57  C   UNL     1      -7.092   4.839  15.500  1.00  0.00     0.134 A 
ATOM     58  F   UNL     1      -3.615   3.881  15.926  1.00  0.00    -0.206 F 
ATOM     59  C   UNL     1      -5.135   3.334  14.239  1.00  0.00     0.040 A 
ATOM     60  C   UNL     1      -7.404   4.115  14.349  1.00  0.00     0.040 A 
ATOM     61  F   UNL     1      -8.079   5.529  16.094  1.00  0.00    -0.206 F 
ATOM     62  C   UNL     1      -6.421   3.368  13.707  1.00  0.00     0.006 A 
ENDBRANCH  38  55
ENDBRANCH  12  13
ENDBRANCH   5   7
ENDBRANCH   2   3
ENDBRANCH   1   2
BRANCH   1  63
ATOM     63  C   UNL     1      -0.149  -4.761  18.654  1.00  0.00     0.118 C 
BRANCH  63  64
ATOM     64  N   UNL     1       0.046  -6.155  19.024  1.00  0.00    -0.351 N 
ATOM     65  C   UNL     1      -0.196  -7.310  18.308  1.00  0.00     0.273 C 
ATOM     66  H   UNL     1       0.408  -6.296  19.928  1.00  0.00     0.163 HD
ATOM     67  O   UNL     1      -0.112  -8.384  18.889  1.00  0.00    -0.267 OA
BRANCH  65  68
ATOM     68  C   UNL     1      -0.528  -7.205  16.897  1.00  0.00     0.170 A 
ATOM     69  C   UNL     1       0.101  -6.455  15.924  1.00  0.00     0.145 A 
ATOM     70  N   UNL     1      -1.546  -7.917  16.312  1.00  0.00    -0.125 NA
ATOM     71  N   UNL     1      -0.652  -6.661  14.806  1.00  0.00    -0.245 N 
ATOM     72  N   UNL     1      -1.624  -7.558  15.036  1.00  0.00    -0.066 NA
BRANCH  71  73
ATOM     73  C   UNL     1      -0.514  -6.021  13.534  1.00  0.00     0.148 C 
ATOM     74  C   UNL     1      -0.255  -4.498  13.617  1.00  0.00     0.148 C 
ATOM     75  C   UNL     1       0.917  -6.127  12.959  1.00  0.00     0.148 C 
ATOM     76  N   UNL     1       0.767  -4.731  12.612  1.00  0.00    -0.338 N 
ATOM     77  C   UNL     1       1.242  -3.879  11.661  1.00  0.00     0.226 C 
ATOM     78  O   UNL     1       0.911  -2.691  11.656  1.00  0.00    -0.275 OA
BRANCH  77  79
ATOM     79  C   UNL     1       2.157  -4.426  10.573  1.00  0.00     0.083 C 
ATOM     80  C   UNL     1       1.392  -5.395   9.656  1.00  0.00     0.040 C 
ATOM     81  C   UNL     1       3.460  -5.008  11.132  1.00  0.00     0.018 C 
ATOM     82  C   UNL     1       2.275  -6.314   8.866  1.00  0.00    -0.030 C 
ATOM     83  C   UNL     1       4.357  -5.554  10.020  1.00  0.00     0.028 C 
ATOM     84  C   UNL     1       3.605  -6.377   9.018  1.00  0.00    -0.031 C 
ENDBRANCH  77  79
ENDBRANCH  71  73
ENDBRANCH  65  68
ENDBRANCH  63  64
ENDBRANCH   1  63
TORSDOF 12
