REMARK SMILES CC(C)(C)OC(=O)[C@@H](C(=O)NCCCNC(=O)c1ccc(-c2c3nc(c(-c4c(F)cccc4F)c4ccc([nH]4)c(-c4c(F)cccc4F)c4nc(c(-c5c(F)cccc5F)c5ccc2[nH]5)C=C4)C=C3)cc1)[C@@H]([NH3+])Cc1cccc(F)c1
REMARK SMILES IDX 12 1 11 2 9 3 10 4 8 6 6 7 7 8 5 9 2 10 1 11 3 12 4 13 72 14
REMARK SMILES IDX 73 15 74 19 75 20 76 21 81 22 77 23 79 24 78 25 80 26 13 27
REMARK SMILES IDX 14 28 15 29 16 30 17 32 18 33 19 34 71 35 20 36 70 37 21 38
REMARK SMILES IDX 22 39 23 40 64 41 24 42 69 43 63 44 65 45 25 46 68 47 62 48
REMARK SMILES IDX 61 49 26 51 52 52 35 53 51 54 36 55 39 56 50 57 66 58 37 59
REMARK SMILES IDX 38 60 49 62 67 63 40 64 27 65 28 66 33 67 29 68 30 69 32 70
REMARK SMILES IDX 34 71 31 72 53 73 54 74 59 75 55 76 56 77 58 78 60 79 57 80
REMARK SMILES IDX 41 81 42 82 47 83 43 84 44 85 46 86 48 87 45 88
REMARK H PARENT 11 5 73 16 73 17 73 18 15 31 65 50 39 61
REMARK Flexibility Score: inf
ROOT
ATOM      1  C   UNL     1      -1.968  -4.754   2.779  1.00  0.00     0.117 C 
ENDROOT
BRANCH   1   2
ATOM      2  N   UNL     1      -0.908  -5.240   1.911  1.00  0.00    -0.355 N 
ATOM      3  C   UNL     1       0.244  -4.566   1.617  1.00  0.00     0.240 C 
ATOM      4  O   UNL     1       0.582  -4.512   0.435  1.00  0.00    -0.274 OA
ATOM      5  H   UNL     1      -1.031  -6.127   1.501  1.00  0.00     0.163 HD
BRANCH   3   6
ATOM      6  C   UNL     1       1.003  -3.872   2.731  1.00  0.00     0.246 C 
BRANCH   6   7
ATOM      7  C   UNL     1       0.545  -2.432   2.784  1.00  0.00     0.325 C 
ATOM      8  O   UNL     1      -0.153  -1.979   3.683  1.00  0.00    -0.251 OA
BRANCH   7   9
ATOM      9  O   UNL     1       0.958  -1.742   1.689  1.00  0.00    -0.459 OA
BRANCH   9  10
ATOM     10  C   UNL     1       0.582  -0.358   1.475  1.00  0.00     0.104 C 
ATOM     11  C   UNL     1       1.208   0.005   0.121  1.00  0.00     0.056 C 
ATOM     12  C   UNL     1       1.181   0.543   2.558  1.00  0.00     0.056 C 
ATOM     13  C   UNL     1      -0.938  -0.194   1.367  1.00  0.00     0.056 C 
ENDBRANCH   9  10
ENDBRANCH   7   9
ENDBRANCH   6   7
BRANCH   6  14
ATOM     14  C   UNL     1       2.548  -3.966   2.550  1.00  0.00     0.209 C 
BRANCH  14  15
ATOM     15  N   UNL     1       3.235  -3.176   3.609  1.00  0.00    -0.354 N 
ATOM     16  H   UNL     1       3.022  -3.574   4.523  1.00  0.00     0.344 HD
ATOM     17  H   UNL     1       2.912  -2.209   3.575  1.00  0.00     0.344 HD
ATOM     18  H   UNL     1       4.243  -3.203   3.453  1.00  0.00     0.344 HD
ENDBRANCH  14  15
BRANCH  14  19
ATOM     19  C   UNL     1       3.111  -5.417   2.675  1.00  0.00     0.102 C 
BRANCH  19  20
ATOM     20  C   UNL     1       2.936  -6.402   1.539  1.00  0.00    -0.039 A 
ATOM     21  C   UNL     1       2.954  -6.023   0.189  1.00  0.00     0.004 A 
ATOM     22  C   UNL     1       2.845  -7.771   1.834  1.00  0.00     0.043 A 
ATOM     23  C   UNL     1       2.774  -6.965  -0.830  1.00  0.00     0.003 A 
ATOM     24  C   UNL     1       2.701  -8.707   0.813  1.00  0.00     0.123 A 
ATOM     25  C   UNL     1       2.644  -8.314  -0.517  1.00  0.00     0.039 A 
ATOM     26  F   UNL     1       2.615 -10.008   1.119  1.00  0.00    -0.207 F 
ENDBRANCH  19  20
ENDBRANCH  14  19
ENDBRANCH   6  14
ENDBRANCH   3   6
ENDBRANCH   1   2
BRANCH   1  27
ATOM     27  C   UNL     1      -2.833  -3.714   2.056  1.00  0.00     0.042 C 
BRANCH  27  28
ATOM     28  C   UNL     1      -3.456  -4.200   0.745  1.00  0.00     0.118 C 
BRANCH  28  29
ATOM     29  N   UNL     1      -4.415  -5.276   0.943  1.00  0.00    -0.352 N 
ATOM     30  C   UNL     1      -5.760  -5.324   0.670  1.00  0.00     0.251 C 
ATOM     31  H   UNL     1      -4.042  -6.098   1.335  1.00  0.00     0.163 HD
ATOM     32  O   UNL     1      -6.428  -6.270   1.076  1.00  0.00    -0.269 OA
BRANCH  30  33
ATOM     33  C   UNL     1      -6.420  -4.235  -0.083  1.00  0.00     0.039 A 
ATOM     34  C   UNL     1      -7.625  -3.721   0.406  1.00  0.00     0.014 A 
ATOM     35  C   UNL     1      -5.883  -3.741  -1.275  1.00  0.00     0.014 A 
ATOM     36  C   UNL     1      -8.247  -2.658  -0.252  1.00  0.00     0.010 A 
ATOM     37  C   UNL     1      -6.480  -2.648  -1.907  1.00  0.00     0.010 A 
ATOM     38  C   UNL     1      -7.657  -2.084  -1.389  1.00  0.00    -0.014 A 
BRANCH  38  39
ATOM     39  C   UNL     1      -8.215  -0.850  -2.000  1.00  0.00     0.031 A 
ATOM     40  C   UNL     1      -8.814  -0.870  -3.377  1.00  0.00     0.074 A 
ATOM     41  C   UNL     1      -8.105   0.315  -1.332  1.00  0.00     0.049 A 
ATOM     42  N   UNL     1      -9.263   0.129  -4.094  1.00  0.00    -0.248 NA
ATOM     43  C   UNL     1      -8.908  -2.178  -4.044  1.00  0.00     0.031 C 
ATOM     44  C   UNL     1      -7.506   0.476  -0.005  1.00  0.00     0.029 A 
ATOM     45  N   UNL     1      -8.473   1.590  -1.685  1.00  0.00    -0.354 N 
ATOM     46  C   UNL     1      -9.677  -0.423  -5.299  1.00  0.00     0.074 A 
ATOM     47  C   UNL     1      -9.404  -1.843  -5.228  1.00  0.00     0.031 C 
ATOM     48  C   UNL     1      -7.548   1.772   0.343  1.00  0.00     0.029 A 
ATOM     49  C   UNL     1      -8.141   2.538  -0.748  1.00  0.00     0.049 A 
ATOM     50  H   UNL     1      -8.931   1.804  -2.530  1.00  0.00     0.167 HD
ATOM     51  C   UNL     1     -10.244   0.198  -6.361  1.00  0.00     0.037 A 
ATOM     52  C   UNL     1      -8.277   3.877  -0.771  1.00  0.00     0.037 A 
ATOM     53  C   UNL     1     -10.547   1.605  -6.420  1.00  0.00     0.049 A 
ATOM     54  C   UNL     1      -8.892   4.538  -1.971  1.00  0.00     0.074 A 
ATOM     55  C   UNL     1     -11.214   2.301  -7.415  1.00  0.00     0.029 A 
ATOM     56  N   UNL     1     -10.198   2.531  -5.450  1.00  0.00    -0.354 N 
ATOM     57  N   UNL     1      -9.354   3.991  -3.068  1.00  0.00    -0.248 NA
ATOM     58  C   UNL     1      -9.000   6.005  -1.940  1.00  0.00     0.031 C 
ATOM     59  C   UNL     1     -11.228   3.656  -7.068  1.00  0.00     0.029 A 
ATOM     60  C   UNL     1     -10.601   3.797  -5.841  1.00  0.00     0.049 A 
ATOM     61  H   UNL     1      -9.732   2.320  -4.609  1.00  0.00     0.167 HD
ATOM     62  C   UNL     1      -9.819   5.040  -3.849  1.00  0.00     0.074 A 
ATOM     63  C   UNL     1      -9.602   6.256  -3.093  1.00  0.00     0.031 C 
ATOM     64  C   UNL     1     -10.373   5.000  -5.084  1.00  0.00     0.037 A 
BRANCH  51  65
ATOM     65  C   UNL     1     -10.587  -0.634  -7.560  1.00  0.00     0.057 A 
ATOM     66  C   UNL     1     -11.699  -1.485  -7.571  1.00  0.00     0.134 A 
ATOM     67  C   UNL     1      -9.849  -0.515  -8.744  1.00  0.00     0.134 A 
ATOM     68  F   UNL     1     -12.443  -1.645  -6.466  1.00  0.00    -0.206 F 
ATOM     69  C   UNL     1     -12.061  -2.195  -8.717  1.00  0.00     0.040 A 
ATOM     70  C   UNL     1     -10.212  -1.205  -9.902  1.00  0.00     0.040 A 
ATOM     71  F   UNL     1      -8.778   0.291  -8.801  1.00  0.00    -0.206 F 
ATOM     72  C   UNL     1     -11.321  -2.048  -9.889  1.00  0.00     0.006 A 
ENDBRANCH  51  65
BRANCH  52  73
ATOM     73  C   UNL     1      -7.805   4.694   0.375  1.00  0.00     0.057 A 
ATOM     74  C   UNL     1      -8.712   5.337   1.224  1.00  0.00     0.134 A 
ATOM     75  C   UNL     1      -6.440   4.871   0.630  1.00  0.00     0.134 A 
ATOM     76  F   UNL     1     -10.031   5.222   1.015  1.00  0.00    -0.206 F 
ATOM     77  C   UNL     1      -8.278   6.146   2.276  1.00  0.00     0.040 A 
ATOM     78  C   UNL     1      -5.993   5.659   1.691  1.00  0.00     0.040 A 
ATOM     79  F   UNL     1      -5.523   4.277  -0.148  1.00  0.00    -0.206 F 
ATOM     80  C   UNL     1      -6.914   6.306   2.513  1.00  0.00     0.006 A 
ENDBRANCH  52  73
BRANCH  64  81
ATOM     81  C   UNL     1     -10.787   6.306  -5.691  1.00  0.00     0.057 A 
ATOM     82  C   UNL     1      -9.845   7.205  -6.204  1.00  0.00     0.134 A 
ATOM     83  C   UNL     1     -12.140   6.654  -5.791  1.00  0.00     0.134 A 
ATOM     84  F   UNL     1      -8.533   6.935  -6.122  1.00  0.00    -0.206 F 
ATOM     85  C   UNL     1     -10.232   8.414  -6.783  1.00  0.00     0.040 A 
ATOM     86  C   UNL     1     -12.541   7.850  -6.388  1.00  0.00     0.040 A 
ATOM     87  F   UNL     1     -13.092   5.833  -5.323  1.00  0.00    -0.206 F 
ATOM     88  C   UNL     1     -11.585   8.736  -6.882  1.00  0.00     0.006 A 
ENDBRANCH  64  81
ENDBRANCH  38  39
ENDBRANCH  30  33
ENDBRANCH  28  29
ENDBRANCH  27  28
ENDBRANCH   1  27
TORSDOF 17
