REMARK SMILES CCn1c(C(=O)NCCCNC(=O)c2ccc(-c3c4nc(c(-c5c(F)cccc5F)c5ccc([nH]5)c(-c5c(F)cccc5F)c5nc(c(-c6c(F)cccc6F)c6ccc3[nH]6)C=C5)C=C4)cc2)c(C[NH2+]Cc2ccccc2Cl)c2ccc(C)cc21
REMARK SMILES IDX 8 1 7 2 5 3 6 4 4 6 3 7 85 8 68 9 79 10 84 11 80 12 82 13
REMARK SMILES IDX 81 14 83 15 2 16 1 17 69 18 70 19 71 22 72 23 73 24 77 25
REMARK SMILES IDX 74 26 76 27 78 28 75 29 9 30 10 31 11 32 12 33 13 35 14 36
REMARK SMILES IDX 15 37 67 38 16 39 66 40 17 41 18 42 19 43 60 44 20 45 65 46
REMARK SMILES IDX 59 47 61 48 21 49 64 50 58 51 57 52 22 54 48 55 31 56 47 57
REMARK SMILES IDX 32 58 35 59 46 60 62 61 33 62 34 63 45 65 63 66 36 67 23 68
REMARK SMILES IDX 24 69 29 70 25 71 26 72 28 73 30 74 27 75 49 76 50 77 55 78
REMARK SMILES IDX 51 79 52 80 54 81 56 82 53 83 37 84 38 85 43 86 39 87 40 88
REMARK SMILES IDX 42 89 44 90 41 91
REMARK H PARENT 7 5 70 20 70 21 11 34 61 53 35 64
REMARK Flexibility Score: inf
ROOT
ATOM      1  C   UNL     1      -0.855  -5.181  -0.475  1.00  0.00     0.118 C 
ENDROOT
BRANCH   1   2
ATOM      2  N   UNL     1      -0.793  -3.768  -0.157  1.00  0.00    -0.351 N 
ATOM      3  C   UNL     1      -0.476  -2.584  -0.760  1.00  0.00     0.268 C 
ATOM      4  O   UNL     1      -0.978  -1.652  -0.101  1.00  0.00    -0.268 OA
ATOM      5  H   UNL     1      -1.060  -3.616   0.778  1.00  0.00     0.163 HD
BRANCH   3   6
ATOM      6  C   UNL     1       0.343  -2.304  -1.956  1.00  0.00     0.117 A 
ATOM      7  N   UNL     1       0.763  -0.979  -2.243  1.00  0.00    -0.336 N 
ATOM      8  C   UNL     1       1.532  -0.906  -3.393  1.00  0.00     0.049 A 
ATOM      9  C   UNL     1       0.893  -3.068  -3.004  1.00  0.00     0.045 A 
ATOM     10  C   UNL     1       1.624  -2.193  -3.889  1.00  0.00     0.009 A 
ATOM     11  C   UNL     1       2.155   0.182  -4.045  1.00  0.00     0.030 A 
ATOM     12  C   UNL     1       2.364  -2.407  -5.077  1.00  0.00     0.011 A 
ATOM     13  C   UNL     1       2.874  -0.046  -5.231  1.00  0.00    -0.049 A 
ATOM     14  C   UNL     1       2.976  -1.338  -5.737  1.00  0.00     0.004 A 
ATOM     15  C   UNL     1       3.525   1.103  -5.947  1.00  0.00     0.044 C 
BRANCH   7  16
ATOM     16  C   UNL     1       0.456   0.212  -1.449  1.00  0.00     0.119 C 
ATOM     17  C   UNL     1       1.299   0.325  -0.188  1.00  0.00     0.027 C 
ENDBRANCH   7  16
BRANCH   9  18
ATOM     18  C   UNL     1       0.837  -4.528  -3.300  1.00  0.00     0.300 C 
BRANCH  18  19
ATOM     19  N   UNL     1       1.814  -5.172  -2.433  1.00  0.00    -0.339 N 
ATOM     20  H   UNL     1       1.571  -4.970  -1.464  1.00  0.00     0.346 HD
ATOM     21  H   UNL     1       2.732  -4.803  -2.682  1.00  0.00     0.346 HD
BRANCH  19  22
ATOM     22  C   UNL     1       1.866  -6.621  -2.607  1.00  0.00     0.299 C 
BRANCH  22  23
ATOM     23  C   UNL     1       2.270  -7.135  -3.965  1.00  0.00     0.025 A 
ATOM     24  C   UNL     1       3.315  -6.522  -4.678  1.00  0.00     0.011 A 
ATOM     25  C   UNL     1       1.667  -8.280  -4.519  1.00  0.00     0.049 A 
ATOM     26  C   UNL     1       3.714  -7.011  -5.921  1.00  0.00     0.001 A 
ATOM     27  C   UNL     1       2.103  -8.795  -5.738  1.00  0.00     0.021 A 
ATOM     28  Cl  UNL     1       0.332  -9.085  -3.780  1.00  0.00    -0.084 Cl
ATOM     29  C   UNL     1       3.112  -8.148  -6.445  1.00  0.00     0.002 A 
ENDBRANCH  22  23
ENDBRANCH  19  22
ENDBRANCH  18  19
ENDBRANCH   9  18
ENDBRANCH   3   6
ENDBRANCH   1   2
BRANCH   1  30
ATOM     30  C   UNL     1       0.072  -6.062   0.372  1.00  0.00     0.042 C 
BRANCH  30  31
ATOM     31  C   UNL     1      -0.611  -6.970   1.401  1.00  0.00     0.118 C 
BRANCH  31  32
ATOM     32  N   UNL     1      -1.846  -7.585   0.946  1.00  0.00    -0.352 N 
ATOM     33  C   UNL     1      -2.237  -8.756   0.371  1.00  0.00     0.251 C 
ATOM     34  H   UNL     1      -2.615  -6.989   1.096  1.00  0.00     0.163 HD
ATOM     35  O   UNL     1      -3.463  -8.883   0.240  1.00  0.00    -0.269 OA
BRANCH  33  36
ATOM     36  C   UNL     1      -1.364  -9.854  -0.133  1.00  0.00     0.039 A 
ATOM     37  C   UNL     1       0.023  -9.818  -0.258  1.00  0.00     0.014 A 
ATOM     38  C   UNL     1      -2.042 -10.997  -0.607  1.00  0.00     0.014 A 
ATOM     39  C   UNL     1       0.696 -10.857  -0.926  1.00  0.00     0.010 A 
ATOM     40  C   UNL     1      -1.376 -12.029  -1.268  1.00  0.00     0.010 A 
ATOM     41  C   UNL     1      -0.007 -11.934  -1.493  1.00  0.00    -0.014 A 
BRANCH  41  42
ATOM     42  C   UNL     1       0.716 -12.931  -2.303  1.00  0.00     0.031 A 
ATOM     43  C   UNL     1       1.833 -13.665  -1.637  1.00  0.00     0.074 A 
ATOM     44  C   UNL     1       0.365 -13.329  -3.549  1.00  0.00     0.049 A 
ATOM     45  N   UNL     1       3.077 -13.727  -1.992  1.00  0.00    -0.248 NA
ATOM     46  C   UNL     1       1.521 -14.419  -0.415  1.00  0.00     0.031 C 
ATOM     47  C   UNL     1      -0.847 -12.995  -4.301  1.00  0.00     0.029 A 
ATOM     48  N   UNL     1       1.004 -14.215  -4.380  1.00  0.00    -0.354 N 
ATOM     49  C   UNL     1       3.685 -14.643  -1.134  1.00  0.00     0.074 A 
ATOM     50  C   UNL     1       2.702 -14.973  -0.132  1.00  0.00     0.031 C 
ATOM     51  C   UNL     1      -0.956 -13.819  -5.368  1.00  0.00     0.029 A 
ATOM     52  C   UNL     1       0.237 -14.645  -5.457  1.00  0.00     0.049 A 
ATOM     53  H   UNL     1       1.927 -14.520  -4.227  1.00  0.00     0.167 HD
ATOM     54  C   UNL     1       4.906 -15.191  -1.393  1.00  0.00     0.037 A 
ATOM     55  C   UNL     1       0.529 -15.627  -6.346  1.00  0.00     0.037 A 
ATOM     56  C   UNL     1       5.642 -14.442  -2.376  1.00  0.00     0.049 A 
ATOM     57  C   UNL     1       1.981 -15.907  -6.288  1.00  0.00     0.074 A 
ATOM     58  C   UNL     1       6.073 -13.134  -2.487  1.00  0.00     0.029 A 
ATOM     59  N   UNL     1       5.824 -14.987  -3.622  1.00  0.00    -0.354 N 
ATOM     60  N   UNL     1       2.904 -15.155  -6.813  1.00  0.00    -0.248 NA
ATOM     61  C   UNL     1       2.453 -16.891  -5.327  1.00  0.00     0.031 C 
ATOM     62  C   UNL     1       5.993 -12.834  -3.878  1.00  0.00     0.029 A 
ATOM     63  C   UNL     1       5.548 -13.989  -4.519  1.00  0.00     0.049 A 
ATOM     64  H   UNL     1       6.099 -15.909  -3.829  1.00  0.00     0.167 HD
ATOM     65  C   UNL     1       3.968 -15.247  -5.933  1.00  0.00     0.074 A 
ATOM     66  C   UNL     1       3.688 -16.428  -5.123  1.00  0.00     0.031 C 
ATOM     67  C   UNL     1       4.827 -14.201  -5.749  1.00  0.00     0.037 A 
BRANCH  54  68
ATOM     68  C   UNL     1       5.336 -16.573  -0.967  1.00  0.00     0.057 A 
ATOM     69  C   UNL     1       4.435 -17.630  -0.738  1.00  0.00     0.134 A 
ATOM     70  C   UNL     1       6.689 -16.949  -1.072  1.00  0.00     0.134 A 
ATOM     71  F   UNL     1       3.110 -17.439  -0.705  1.00  0.00    -0.206 F 
ATOM     72  C   UNL     1       4.846 -18.963  -0.630  1.00  0.00     0.040 A 
ATOM     73  C   UNL     1       7.105 -18.285  -1.017  1.00  0.00     0.040 A 
ATOM     74  F   UNL     1       7.641 -16.035  -1.313  1.00  0.00    -0.206 F 
ATOM     75  C   UNL     1       6.181 -19.299  -0.801  1.00  0.00     0.006 A 
ENDBRANCH  54  68
BRANCH  55  76
ATOM     76  C   UNL     1      -0.374 -16.468  -7.162  1.00  0.00     0.057 A 
ATOM     77  C   UNL     1      -1.626 -16.875  -6.671  1.00  0.00     0.134 A 
ATOM     78  C   UNL     1       0.068 -17.108  -8.329  1.00  0.00     0.134 A 
ATOM     79  F   UNL     1      -2.107 -16.384  -5.520  1.00  0.00    -0.206 F 
ATOM     80  C   UNL     1      -2.389 -17.866  -7.297  1.00  0.00     0.040 A 
ATOM     81  C   UNL     1      -0.682 -18.108  -8.961  1.00  0.00     0.040 A 
ATOM     82  F   UNL     1       1.266 -16.818  -8.857  1.00  0.00    -0.206 F 
ATOM     83  C   UNL     1      -1.911 -18.497  -8.439  1.00  0.00     0.006 A 
ENDBRANCH  55  76
BRANCH  67  84
ATOM     84  C   UNL     1       4.796 -13.069  -6.738  1.00  0.00     0.057 A 
ATOM     85  C   UNL     1       6.003 -12.622  -7.293  1.00  0.00     0.134 A 
ATOM     86  C   UNL     1       3.644 -12.344  -7.073  1.00  0.00     0.134 A 
ATOM     87  F   UNL     1       7.161 -13.224  -6.977  1.00  0.00    -0.206 F 
ATOM     88  C   UNL     1       6.060 -11.525  -8.156  1.00  0.00     0.040 A 
ATOM     89  C   UNL     1       3.678 -11.294  -7.993  1.00  0.00     0.040 A 
ATOM     90  F   UNL     1       2.465 -12.585  -6.483  1.00  0.00    -0.206 F 
ATOM     91  C   UNL     1       4.891 -10.871  -8.527  1.00  0.00     0.006 A 
ENDBRANCH  67  84
ENDBRANCH  41  42
ENDBRANCH  33  36
ENDBRANCH  31  32
ENDBRANCH  30  31
ENDBRANCH   1  30
TORSDOF 15
