REMARK SMILES Cc1sc(C(=O)NCCCNC(=O)c2ccc(-c3c4nc(c(-c5c(F)cccc5F)c5ccc([nH]5)c(-c5c(F)cccc5F)c5nc(c(-c6c(F)cccc6F)c6ccc3[nH]6)C=C5)C=C4)cc2)cc1S(=O)(=O)N1C[C@@H](C)[C@H](C)C1
REMARK SMILES IDX 9 1 8 2 7 3 5 4 6 5 4 7 1 8 2 9 3 10 69 11 68 12 70 13 71 14
REMARK SMILES IDX 72 15 73 16 74 17 79 18 75 19 77 20 76 21 78 22 10 23 11 24
REMARK SMILES IDX 12 25 13 27 14 28 15 29 67 30 16 31 66 32 17 33 18 34 19 35
REMARK SMILES IDX 60 36 20 37 65 38 59 39 61 40 21 41 64 42 58 43 57 44 22 46
REMARK SMILES IDX 48 47 31 48 47 49 32 50 35 51 46 52 62 53 33 54 34 55 45 57
REMARK SMILES IDX 63 58 36 59 23 60 24 61 29 62 25 63 26 64 28 65 30 66 27 67
REMARK SMILES IDX 49 68 50 69 55 70 51 71 52 72 54 73 56 74 53 75 37 76 38 77
REMARK SMILES IDX 43 78 39 79 40 80 42 81 44 82 41 83
REMARK H PARENT 7 6 11 26 61 45 35 56
REMARK Flexibility Score: inf
ROOT
ATOM      1  C   UNL     1      -4.676  -2.243   0.786  1.00  0.00     0.042 C 
ENDROOT
BRANCH   1   2
ATOM      2  C   UNL     1      -4.282  -1.520  -0.499  1.00  0.00     0.118 C 
BRANCH   2   3
ATOM      3  N   UNL     1      -4.191  -0.094  -0.274  1.00  0.00    -0.351 N 
ATOM      4  C   UNL     1      -3.134   0.719   0.042  1.00  0.00     0.261 C 
ATOM      5  O   UNL     1      -3.425   1.908   0.202  1.00  0.00    -0.268 OA
ATOM      6  H   UNL     1      -5.049   0.381  -0.364  1.00  0.00     0.163 HD
BRANCH   4   7
ATOM      7  C   UNL     1      -1.776   0.204   0.133  1.00  0.00     0.093 A 
ATOM      8  C   UNL     1       2.107   0.678  -0.006  1.00  0.00     0.058 C 
ATOM      9  C   UNL     1       0.724   0.154   0.066  1.00  0.00     0.022 A 
ATOM     10  S   UNL     1      -0.507   1.353   0.067  1.00  0.00    -0.134 S 
ATOM     11  C   UNL     1       0.183  -1.115   0.139  1.00  0.00     0.097 A 
ATOM     12  C   UNL     1      -1.248  -1.062   0.278  1.00  0.00     0.047 A 
BRANCH  11  13
ATOM     13  S   UNL     1       0.951  -2.682   0.058  1.00  0.00     0.244 S 
ATOM     14  O   UNL     1       0.530  -3.303   1.298  1.00  0.00    -0.207 OA
ATOM     15  O   UNL     1       0.496  -3.181  -1.223  1.00  0.00    -0.207 OA
BRANCH  13  16
ATOM     16  N   UNL     1       2.606  -2.646   0.037  1.00  0.00    -0.197 NA
ATOM     17  C   UNL     1       3.369  -2.400  -1.184  1.00  0.00     0.106 C 
ATOM     18  C   UNL     1       3.394  -2.473   1.251  1.00  0.00     0.106 C 
ATOM     19  C   UNL     1       4.785  -2.054  -0.704  1.00  0.00     0.005 C 
ATOM     20  C   UNL     1       4.648  -1.728   0.796  1.00  0.00     0.005 C 
ATOM     21  C   UNL     1       5.378  -0.889  -1.494  1.00  0.00     0.009 C 
ATOM     22  C   UNL     1       5.874  -2.126   1.605  1.00  0.00     0.009 C 
ENDBRANCH  13  16
ENDBRANCH  11  13
ENDBRANCH   4   7
ENDBRANCH   2   3
ENDBRANCH   1   2
BRANCH   1  23
ATOM     23  C   UNL     1      -6.115  -1.947   1.205  1.00  0.00     0.118 C 
BRANCH  23  24
ATOM     24  N   UNL     1      -7.069  -2.389   0.196  1.00  0.00    -0.352 N 
ATOM     25  C   UNL     1      -8.079  -3.308   0.280  1.00  0.00     0.251 C 
ATOM     26  H   UNL     1      -6.971  -1.960  -0.684  1.00  0.00     0.163 HD
ATOM     27  O   UNL     1      -8.579  -3.755  -0.748  1.00  0.00    -0.269 OA
BRANCH  25  28
ATOM     28  C   UNL     1      -8.580  -3.747   1.596  1.00  0.00     0.039 A 
ATOM     29  C   UNL     1      -8.987  -5.074   1.753  1.00  0.00     0.014 A 
ATOM     30  C   UNL     1      -8.713  -2.840   2.651  1.00  0.00     0.014 A 
ATOM     31  C   UNL     1      -9.505  -5.495   2.976  1.00  0.00     0.010 A 
ATOM     32  C   UNL     1      -9.143  -3.283   3.896  1.00  0.00     0.010 A 
ATOM     33  C   UNL     1      -9.568  -4.607   4.063  1.00  0.00    -0.014 A 
BRANCH  33  34
ATOM     34  C   UNL     1     -10.106  -5.045   5.373  1.00  0.00     0.031 A 
ATOM     35  C   UNL     1     -11.354  -4.413   5.926  1.00  0.00     0.074 A 
ATOM     36  C   UNL     1      -9.445  -5.982   6.078  1.00  0.00     0.049 A 
ATOM     37  N   UNL     1     -11.961  -4.640   7.063  1.00  0.00    -0.248 NA
ATOM     38  C   UNL     1     -11.989  -3.367   5.108  1.00  0.00     0.031 C 
ATOM     39  C   UNL     1      -8.198  -6.628   5.665  1.00  0.00     0.029 A 
ATOM     40  N   UNL     1      -9.730  -6.553   7.291  1.00  0.00    -0.354 N 
ATOM     41  C   UNL     1     -13.036  -3.761   7.099  1.00  0.00     0.074 A 
ATOM     42  C   UNL     1     -12.962  -2.951   5.903  1.00  0.00     0.031 C 
ATOM     43  C   UNL     1      -7.843  -7.531   6.592  1.00  0.00     0.029 A 
ATOM     44  C   UNL     1      -8.813  -7.498   7.681  1.00  0.00     0.049 A 
ATOM     45  H   UNL     1     -10.516  -6.309   7.831  1.00  0.00     0.167 HD
ATOM     46  C   UNL     1     -14.012  -3.656   8.032  1.00  0.00     0.037 A 
ATOM     47  C   UNL     1      -8.762  -8.251   8.795  1.00  0.00     0.037 A 
ATOM     48  C   UNL     1     -14.088  -4.479   9.210  1.00  0.00     0.049 A 
ATOM     49  C   UNL     1      -9.856  -8.113   9.817  1.00  0.00     0.074 A 
ATOM     50  C   UNL     1     -15.061  -4.491  10.194  1.00  0.00     0.029 A 
ATOM     51  N   UNL     1     -13.148  -5.436   9.566  1.00  0.00    -0.354 N 
ATOM     52  N   UNL     1     -10.905  -7.326   9.807  1.00  0.00    -0.248 NA
ATOM     53  C   UNL     1      -9.765  -8.979  11.000  1.00  0.00     0.031 C 
ATOM     54  C   UNL     1     -14.682  -5.417  11.171  1.00  0.00     0.029 A 
ATOM     55  C   UNL     1     -13.507  -6.029  10.765  1.00  0.00     0.049 A 
ATOM     56  H   UNL     1     -12.344  -5.660   9.043  1.00  0.00     0.167 HD
ATOM     57  C   UNL     1     -11.616  -7.625  10.962  1.00  0.00     0.074 A 
ATOM     58  C   UNL     1     -10.886  -8.677  11.639  1.00  0.00     0.031 C 
ATOM     59  C   UNL     1     -12.770  -7.080  11.421  1.00  0.00     0.037 A 
BRANCH  46  60
ATOM     60  C   UNL     1     -15.074  -2.616   7.811  1.00  0.00     0.057 A 
ATOM     61  C   UNL     1     -16.012  -2.720   6.774  1.00  0.00     0.134 A 
ATOM     62  C   UNL     1     -15.179  -1.508   8.663  1.00  0.00     0.134 A 
ATOM     63  F   UNL     1     -15.962  -3.748   5.913  1.00  0.00    -0.206 F 
ATOM     64  C   UNL     1     -16.993  -1.747   6.573  1.00  0.00     0.040 A 
ATOM     65  C   UNL     1     -16.176  -0.545   8.491  1.00  0.00     0.040 A 
ATOM     66  F   UNL     1     -14.320  -1.346   9.680  1.00  0.00    -0.206 F 
ATOM     67  C   UNL     1     -17.081  -0.659   7.439  1.00  0.00     0.006 A 
ENDBRANCH  46  60
BRANCH  47  68
ATOM     68  C   UNL     1      -7.654  -9.222   8.988  1.00  0.00     0.057 A 
ATOM     69  C   UNL     1      -7.888 -10.601   8.959  1.00  0.00     0.134 A 
ATOM     70  C   UNL     1      -6.340  -8.796   9.212  1.00  0.00     0.134 A 
ATOM     71  F   UNL     1      -9.129 -11.072   8.763  1.00  0.00    -0.206 F 
ATOM     72  C   UNL     1      -6.862 -11.523   9.172  1.00  0.00     0.040 A 
ATOM     73  C   UNL     1      -5.298  -9.706   9.397  1.00  0.00     0.040 A 
ATOM     74  F   UNL     1      -6.046  -7.487   9.239  1.00  0.00    -0.206 F 
ATOM     75  C   UNL     1      -5.560 -11.074   9.388  1.00  0.00     0.006 A 
ENDBRANCH  47  68
BRANCH  59  76
ATOM     76  C   UNL     1     -13.335  -7.647  12.692  1.00  0.00     0.057 A 
ATOM     77  C   UNL     1     -12.722  -7.448  13.935  1.00  0.00     0.134 A 
ATOM     78  C   UNL     1     -14.524  -8.388  12.669  1.00  0.00     0.134 A 
ATOM     79  F   UNL     1     -11.575  -6.758  14.025  1.00  0.00    -0.206 F 
ATOM     80  C   UNL     1     -13.251  -7.995  15.105  1.00  0.00     0.040 A 
ATOM     81  C   UNL     1     -15.081  -8.911  13.836  1.00  0.00     0.040 A 
ATOM     82  F   UNL     1     -15.170  -8.606  11.514  1.00  0.00    -0.206 F 
ATOM     83  C   UNL     1     -14.438  -8.725  15.058  1.00  0.00     0.006 A 
ENDBRANCH  59  76
ENDBRANCH  33  34
ENDBRANCH  25  28
ENDBRANCH  23  24
ENDBRANCH   1  23
TORSDOF 12
