REMARK SMILES C[C@@H](CCC(=O)NCCCNC(=O)c1ccc(-c2c3nc(c(-c4c(F)cccc4F)c4ccc([nH]4)c(-c4c(F)cccc4F)c4nc(c(-c5c(F)cccc5F)c5ccc2[nH]5)C=C4)C=C3)cc1)[C@@H]1CC[C@H]2[C@@H]3CC[C@H]4CC(=O)CC[C@@]4(C)[C@H]3CC(=O)[C@@]21C
REMARK SMILES IDX 8 1 7 2 5 3 6 4 4 6 3 7 2 8 1 9 68 10 69 11 87 12 70 13
REMARK SMILES IDX 71 14 85 15 88 16 72 17 84 18 86 19 73 20 83 21 74 22 81 23
REMARK SMILES IDX 75 24 80 25 82 26 76 27 79 28 77 29 78 30 9 31 10 32 11 33
REMARK SMILES IDX 12 34 13 36 14 37 15 38 67 39 16 40 66 41 17 42 18 43 19 44
REMARK SMILES IDX 60 45 20 46 65 47 59 48 61 49 21 50 64 51 58 52 57 53 22 55
REMARK SMILES IDX 48 56 31 57 47 58 32 59 35 60 46 61 62 62 33 63 34 64 45 66
REMARK SMILES IDX 63 67 36 68 23 69 24 70 29 71 25 72 26 73 28 74 30 75 27 76
REMARK SMILES IDX 49 77 50 78 55 79 51 80 52 81 54 82 56 83 53 84 37 85 38 86
REMARK SMILES IDX 43 87 39 88 40 89 42 90 44 91 41 92
REMARK H PARENT 7 5 11 35 61 54 35 65
REMARK Flexibility Score: inf
ROOT
ATOM      1  C   UNL     1       1.806   0.318  -1.309  1.00  0.00     0.117 C 
ENDROOT
BRANCH   1   2
ATOM      2  N   UNL     1       1.623  -1.145  -1.278  1.00  0.00    -0.356 N 
ATOM      3  C   UNL     1       1.454  -2.201  -2.115  1.00  0.00     0.220 C 
ATOM      4  O   UNL     1       1.508  -3.337  -1.627  1.00  0.00    -0.275 OA
ATOM      5  H   UNL     1       1.622  -1.459  -0.345  1.00  0.00     0.163 HD
BRANCH   3   6
ATOM      6  C   UNL     1       1.103  -2.064  -3.570  1.00  0.00     0.100 C 
BRANCH   6   7
ATOM      7  C   UNL     1      -0.401  -2.192  -3.808  1.00  0.00     0.013 C 
BRANCH   7   8
ATOM      8  C   UNL     1      -1.266  -1.262  -2.928  1.00  0.00    -0.010 C 
ATOM      9  C   UNL     1      -0.987   0.169  -3.458  1.00  0.00     0.008 C 
BRANCH   8  10
ATOM     10  C   UNL     1      -1.505  -1.971  -1.415  1.00  0.00     0.005 C 
ATOM     11  C   UNL     1      -3.103  -2.139  -1.404  1.00  0.00     0.005 C 
ATOM     12  C   UNL     1      -1.264  -1.778   0.259  1.00  0.00     0.032 C 
ATOM     13  C   UNL     1      -3.628  -1.595  -0.085  1.00  0.00     0.005 C 
ATOM     14  C   UNL     1      -2.428  -0.823   0.455  1.00  0.00     0.006 C 
ATOM     15  C   UNL     1      -0.086  -1.422   1.311  1.00  0.00     0.139 C 
ATOM     16  C   UNL     1      -1.453  -3.249   0.800  1.00  0.00     0.020 C 
ATOM     17  C   UNL     1      -2.694  -0.127   1.775  1.00  0.00    -0.003 C 
ATOM     18  C   UNL     1      -0.431  -1.121   2.846  1.00  0.00     0.080 C 
ATOM     19  O   UNL     1       1.113  -1.535   1.049  1.00  0.00    -0.299 OA
ATOM     20  C   UNL     1      -3.694   1.282   1.334  1.00  0.00     0.004 C 
ATOM     21  C   UNL     1      -1.332   0.097   2.965  1.00  0.00     0.006 C 
ATOM     22  C   UNL     1      -3.899   2.771   2.522  1.00  0.00     0.005 C 
ATOM     23  C   UNL     1      -1.511   1.167   4.572  1.00  0.00    -0.025 C 
ATOM     24  C   UNL     1      -2.662   2.795   4.349  1.00  0.00     0.002 C 
ATOM     25  C   UNL     1      -2.099   0.294   5.793  1.00  0.00     0.015 C 
ATOM     26  C   UNL     1      -0.083   1.527   5.066  1.00  0.00     0.012 C 
ATOM     27  C   UNL     1      -2.827   3.337   5.872  1.00  0.00     0.079 C 
ATOM     28  C   UNL     1      -3.171   0.888   6.710  1.00  0.00     0.076 C 
ATOM     29  C   UNL     1      -3.111   2.361   6.978  1.00  0.00     0.133 C 
ATOM     30  O   UNL     1      -3.368   2.792   8.108  1.00  0.00    -0.300 OA
ENDBRANCH   8  10
ENDBRANCH   7   8
ENDBRANCH   6   7
ENDBRANCH   3   6
ENDBRANCH   1   2
BRANCH   1  31
ATOM     31  C   UNL     1       0.566   1.222  -1.168  1.00  0.00     0.042 C 
BRANCH  31  32
ATOM     32  C   UNL     1      -0.271   1.589   0.038  1.00  0.00     0.118 C 
BRANCH  32  33
ATOM     33  N   UNL     1       0.235   2.361   1.099  1.00  0.00    -0.352 N 
ATOM     34  C   UNL     1      -0.457   2.753   2.224  1.00  0.00     0.251 C 
ATOM     35  H   UNL     1       1.174   2.650   1.031  1.00  0.00     0.163 HD
ATOM     36  O   UNL     1       0.183   3.502   2.971  1.00  0.00    -0.269 OA
BRANCH  34  37
ATOM     37  C   UNL     1      -2.001   2.509   2.542  1.00  0.00     0.039 A 
ATOM     38  C   UNL     1      -2.401   4.250   2.708  1.00  0.00     0.014 A 
ATOM     39  C   UNL     1      -3.246   1.299   3.428  1.00  0.00     0.014 A 
ATOM     40  C   UNL     1      -3.795   4.717   3.592  1.00  0.00     0.010 A 
ATOM     41  C   UNL     1      -4.654   1.919   4.282  1.00  0.00     0.010 A 
ATOM     42  C   UNL     1      -4.918   3.614   4.285  1.00  0.00    -0.014 A 
BRANCH  42  43
ATOM     43  C   UNL     1      -6.375   3.965   4.394  1.00  0.00     0.031 A 
ATOM     44  C   UNL     1      -7.162   3.347   5.511  1.00  0.00     0.074 A 
ATOM     45  C   UNL     1      -7.006   4.452   3.302  1.00  0.00     0.049 A 
ATOM     46  N   UNL     1      -8.414   2.993   5.583  1.00  0.00    -0.248 NA
ATOM     47  C   UNL     1      -6.374   2.934   6.673  1.00  0.00     0.031 C 
ATOM     48  C   UNL     1      -6.384   4.906   2.053  1.00  0.00     0.029 A 
ATOM     49  N   UNL     1      -8.343   4.559   3.027  1.00  0.00    -0.354 N 
ATOM     50  C   UNL     1      -8.511   2.311   6.793  1.00  0.00     0.074 A 
ATOM     51  C   UNL     1      -7.168   2.040   7.240  1.00  0.00     0.031 C 
ATOM     52  C   UNL     1      -7.317   5.182   1.137  1.00  0.00     0.029 A 
ATOM     53  C   UNL     1      -8.612   4.977   1.744  1.00  0.00     0.049 A 
ATOM     54  H   UNL     1      -9.046   4.355   3.686  1.00  0.00     0.167 HD
ATOM     55  C   UNL     1      -9.600   2.156   7.583  1.00  0.00     0.037 A 
ATOM     56  C   UNL     1      -9.785   5.208   1.136  1.00  0.00     0.037 A 
ATOM     57  C   UNL     1     -10.873   2.693   7.201  1.00  0.00     0.049 A 
ATOM     58  C   UNL     1     -10.997   5.071   1.998  1.00  0.00     0.074 A 
ATOM     59  C   UNL     1     -12.041   2.780   7.926  1.00  0.00     0.029 A 
ATOM     60  N   UNL     1     -11.102   3.304   5.973  1.00  0.00    -0.354 N 
ATOM     61  N   UNL     1     -11.082   4.571   3.209  1.00  0.00    -0.248 NA
ATOM     62  C   UNL     1     -12.254   5.588   1.459  1.00  0.00     0.031 C 
ATOM     63  C   UNL     1     -12.993   3.408   7.113  1.00  0.00     0.029 A 
ATOM     64  C   UNL     1     -12.404   3.746   5.901  1.00  0.00     0.049 A 
ATOM     65  H   UNL     1     -10.432   3.405   5.259  1.00  0.00     0.167 HD
ATOM     66  C   UNL     1     -12.392   4.755   3.604  1.00  0.00     0.074 A 
ATOM     67  C   UNL     1     -13.060   5.423   2.499  1.00  0.00     0.031 C 
ATOM     68  C   UNL     1     -12.996   4.413   4.768  1.00  0.00     0.037 A 
BRANCH  55  69
ATOM     69  C   UNL     1      -9.400   1.554   8.950  1.00  0.00     0.057 A 
ATOM     70  C   UNL     1      -8.595   2.179   9.920  1.00  0.00     0.134 A 
ATOM     71  C   UNL     1      -9.978   0.331   9.301  1.00  0.00     0.134 A 
ATOM     72  F   UNL     1      -8.015   3.362   9.664  1.00  0.00    -0.206 F 
ATOM     73  C   UNL     1      -8.304   1.571  11.143  1.00  0.00     0.040 A 
ATOM     74  C   UNL     1      -9.730  -0.267  10.541  1.00  0.00     0.040 A 
ATOM     75  F   UNL     1     -10.781  -0.316   8.443  1.00  0.00    -0.206 F 
ATOM     76  C   UNL     1      -8.874   0.342  11.457  1.00  0.00     0.006 A 
ENDBRANCH  55  69
BRANCH  56  77
ATOM     77  C   UNL     1      -9.809   5.763  -0.241  1.00  0.00     0.057 A 
ATOM     78  C   UNL     1     -10.079   7.120  -0.457  1.00  0.00     0.134 A 
ATOM     79  C   UNL     1      -9.466   4.995  -1.361  1.00  0.00     0.134 A 
ATOM     80  F   UNL     1     -10.376   7.920   0.578  1.00  0.00    -0.206 F 
ATOM     81  C   UNL     1     -10.048   7.684  -1.734  1.00  0.00     0.040 A 
ATOM     82  C   UNL     1      -9.410   5.550  -2.643  1.00  0.00     0.040 A 
ATOM     83  F   UNL     1      -9.134   3.703  -1.221  1.00  0.00    -0.206 F 
ATOM     84  C   UNL     1      -9.713   6.897  -2.833  1.00  0.00     0.006 A 
ENDBRANCH  56  77
BRANCH  68  85
ATOM     85  C   UNL     1     -14.441   4.755   4.881  1.00  0.00     0.057 A 
ATOM     86  C   UNL     1     -15.405   4.040   4.164  1.00  0.00     0.134 A 
ATOM     87  C   UNL     1     -14.870   5.744   5.772  1.00  0.00     0.134 A 
ATOM     88  F   UNL     1     -15.038   3.093   3.287  1.00  0.00    -0.206 F 
ATOM     89  C   UNL     1     -16.760   4.311   4.319  1.00  0.00     0.040 A 
ATOM     90  C   UNL     1     -16.224   5.996   5.964  1.00  0.00     0.040 A 
ATOM     91  F   UNL     1     -13.983   6.449   6.491  1.00  0.00    -0.206 F 
ATOM     92  C   UNL     1     -17.172   5.280   5.232  1.00  0.00     0.006 A 
ENDBRANCH  68  85
ENDBRANCH  42  43
ENDBRANCH  34  37
ENDBRANCH  32  33
ENDBRANCH  31  32
ENDBRANCH   1  31
TORSDOF 13
