REMARK SMILES O=C(NCCCNC(=O)c1nnn(-c2ccc(C(F)(F)F)cc2)c1-c1cccc(Cl)c1)c1ccc(-c2c3nc(c(-c4c(F)cccc4F)c4ccc([nH]4)c(-c4c(F)cccc4F)c4nc(c(-c5c(F)cccc5F)c5ccc2[nH]5)C=C4)C=C3)cc1
REMARK SMILES IDX 5 1 4 2 3 3 1 4 2 5 32 7 33 8 85 9 34 10 84 11 35 12 36 13
REMARK SMILES IDX 37 14 78 15 38 16 83 17 77 18 79 19 39 20 82 21 76 22 75 23
REMARK SMILES IDX 40 25 66 26 49 27 65 28 50 29 53 30 64 31 80 32 51 33 52 34
REMARK SMILES IDX 63 36 81 37 54 38 41 39 42 40 47 41 43 42 44 43 46 44 48 45
REMARK SMILES IDX 45 46 67 47 68 48 73 49 69 50 70 51 72 52 74 53 71 54 55 55
REMARK SMILES IDX 56 56 61 57 57 58 58 59 60 60 62 61 59 62 6 63 7 64 8 65
REMARK SMILES IDX 9 67 10 68 11 69 24 70 12 71 13 72 25 73 26 74 31 75 27 76
REMARK SMILES IDX 29 77 28 78 30 79 14 80 15 81 23 82 16 83 22 84 17 85 18 86
REMARK SMILES IDX 19 87 20 88 21 89
REMARK H PARENT 3 6 79 24 53 35 7 66
REMARK Flexibility Score: inf
ROOT
ATOM      1  C   UNL     1       5.066   0.983   1.837  1.00  0.00     0.042 C 
ENDROOT
BRANCH   1   2
ATOM      2  C   UNL     1       4.631  -0.116   0.871  1.00  0.00     0.118 C 
BRANCH   2   3
ATOM      3  N   UNL     1       3.203  -0.368   0.833  1.00  0.00    -0.352 N 
ATOM      4  O   UNL     1       1.068  -0.446   0.301  1.00  0.00    -0.269 OA
ATOM      5  C   UNL     1       2.130   0.171   0.178  1.00  0.00     0.251 C 
ATOM      6  H   UNL     1       2.942  -1.110   1.424  1.00  0.00     0.163 HD
BRANCH   5   7
ATOM      7  C   UNL     1       2.125   1.434  -0.616  1.00  0.00     0.039 A 
ATOM      8  C   UNL     1       3.231   2.236  -0.889  1.00  0.00     0.014 A 
ATOM      9  C   UNL     1       0.870   1.853  -1.108  1.00  0.00     0.014 A 
ATOM     10  C   UNL     1       3.082   3.440  -1.583  1.00  0.00     0.010 A 
ATOM     11  C   UNL     1       0.717   3.046  -1.817  1.00  0.00     0.010 A 
ATOM     12  C   UNL     1       1.825   3.856  -2.041  1.00  0.00    -0.014 A 
BRANCH  12  13
ATOM     13  C   UNL     1       1.758   5.069  -2.860  1.00  0.00     0.031 A 
ATOM     14  C   UNL     1       2.470   5.014  -4.171  1.00  0.00     0.074 A 
ATOM     15  C   UNL     1       1.012   6.162  -2.606  1.00  0.00     0.049 A 
ATOM     16  N   UNL     1       3.473   5.731  -4.567  1.00  0.00    -0.248 NA
ATOM     17  C   UNL     1       2.019   4.017  -5.151  1.00  0.00     0.031 C 
ATOM     18  C   UNL     1      -0.029   6.340  -1.596  1.00  0.00     0.029 A 
ATOM     19  N   UNL     1       0.991   7.347  -3.292  1.00  0.00    -0.354 N 
ATOM     20  C   UNL     1       3.690   5.391  -5.902  1.00  0.00     0.074 A 
ATOM     21  C   UNL     1       2.827   4.271  -6.182  1.00  0.00     0.031 C 
ATOM     22  C   UNL     1      -0.705   7.485  -1.854  1.00  0.00     0.029 A 
ATOM     23  C   UNL     1      -0.064   8.181  -2.959  1.00  0.00     0.049 A 
ATOM     24  H   UNL     1       1.668   7.586  -3.966  1.00  0.00     0.167 HD
ATOM     25  C   UNL     1       4.449   6.158  -6.734  1.00  0.00     0.037 A 
ATOM     26  C   UNL     1      -0.411   9.341  -3.569  1.00  0.00     0.037 A 
ATOM     27  C   UNL     1       5.277   7.086  -6.014  1.00  0.00     0.049 A 
ATOM     28  C   UNL     1       0.755   9.837  -4.337  1.00  0.00     0.074 A 
ATOM     29  C   UNL     1       6.257   6.980  -5.046  1.00  0.00     0.029 A 
ATOM     30  N   UNL     1       4.955   8.418  -6.059  1.00  0.00    -0.354 N 
ATOM     31  N   UNL     1       1.821  10.367  -3.809  1.00  0.00    -0.248 NA
ATOM     32  C   UNL     1       0.876   9.454  -5.735  1.00  0.00     0.031 C 
ATOM     33  C   UNL     1       6.104   8.142  -4.233  1.00  0.00     0.029 A 
ATOM     34  C   UNL     1       5.054   8.884  -4.774  1.00  0.00     0.049 A 
ATOM     35  H   UNL     1       4.703   8.938  -6.856  1.00  0.00     0.167 HD
ATOM     36  C   UNL     1       2.852   9.996  -4.655  1.00  0.00     0.074 A 
ATOM     37  C   UNL     1       2.197   9.560  -5.883  1.00  0.00     0.031 C 
ATOM     38  C   UNL     1       4.119   9.809  -4.183  1.00  0.00     0.037 A 
BRANCH  25  39
ATOM     39  C   UNL     1       4.236   6.281  -8.222  1.00  0.00     0.057 A 
ATOM     40  C   UNL     1       5.221   6.895  -9.020  1.00  0.00     0.134 A 
ATOM     41  C   UNL     1       2.990   6.087  -8.848  1.00  0.00     0.134 A 
ATOM     42  F   UNL     1       6.441   7.157  -8.527  1.00  0.00    -0.206 F 
ATOM     43  C   UNL     1       4.964   7.337 -10.323  1.00  0.00     0.040 A 
ATOM     44  C   UNL     1       2.738   6.479 -10.167  1.00  0.00     0.040 A 
ATOM     45  F   UNL     1       1.931   5.603  -8.186  1.00  0.00    -0.206 F 
ATOM     46  C   UNL     1       3.717   7.133 -10.900  1.00  0.00     0.006 A 
ENDBRANCH  25  39
BRANCH  26  47
ATOM     47  C   UNL     1      -1.735   9.989  -3.688  1.00  0.00     0.057 A 
ATOM     48  C   UNL     1      -1.856  11.348  -4.015  1.00  0.00     0.134 A 
ATOM     49  C   UNL     1      -2.916   9.230  -3.751  1.00  0.00     0.134 A 
ATOM     50  F   UNL     1      -0.780  12.148  -4.023  1.00  0.00    -0.206 F 
ATOM     51  C   UNL     1      -3.075  11.914  -4.408  1.00  0.00     0.040 A 
ATOM     52  C   UNL     1      -4.141   9.786  -4.131  1.00  0.00     0.040 A 
ATOM     53  F   UNL     1      -2.900   7.908  -3.530  1.00  0.00    -0.206 F 
ATOM     54  C   UNL     1      -4.222  11.129  -4.477  1.00  0.00     0.006 A 
ENDBRANCH  26  47
BRANCH  38  55
ATOM     55  C   UNL     1       4.456  10.351  -2.825  1.00  0.00     0.057 A 
ATOM     56  C   UNL     1       3.812   9.963  -1.640  1.00  0.00     0.134 A 
ATOM     57  C   UNL     1       5.558  11.205  -2.698  1.00  0.00     0.134 A 
ATOM     58  F   UNL     1       2.822   9.060  -1.648  1.00  0.00    -0.206 F 
ATOM     59  C   UNL     1       4.210  10.458  -0.394  1.00  0.00     0.040 A 
ATOM     60  C   UNL     1       5.989  11.674  -1.456  1.00  0.00     0.040 A 
ATOM     61  F   UNL     1       6.261  11.570  -3.783  1.00  0.00    -0.206 F 
ATOM     62  C   UNL     1       5.304  11.313  -0.299  1.00  0.00     0.006 A 
ENDBRANCH  38  55
ENDBRANCH  12  13
ENDBRANCH   5   7
ENDBRANCH   2   3
ENDBRANCH   1   2
BRANCH   1  63
ATOM     63  C   UNL     1       4.587   0.821   3.275  1.00  0.00     0.118 C 
BRANCH  63  64
ATOM     64  N   UNL     1       5.191  -0.295   3.978  1.00  0.00    -0.351 N 
ATOM     65  C   UNL     1       5.902  -0.291   5.159  1.00  0.00     0.274 C 
ATOM     66  H   UNL     1       5.079  -1.176   3.554  1.00  0.00     0.163 HD
ATOM     67  O   UNL     1       6.342  -1.357   5.587  1.00  0.00    -0.267 OA
BRANCH  65  68
ATOM     68  C   UNL     1       6.118   0.968   5.853  1.00  0.00     0.178 A 
ATOM     69  N   UNL     1       7.364   1.534   5.945  1.00  0.00    -0.124 NA
ATOM     70  C   UNL     1       5.180   1.815   6.432  1.00  0.00     0.108 A 
ATOM     71  N   UNL     1       7.234   2.738   6.480  1.00  0.00    -0.061 NA
ATOM     72  N   UNL     1       5.948   2.893   6.869  1.00  0.00    -0.212 N 
BRANCH  70  73
ATOM     73  C   UNL     1       3.718   1.780   6.397  1.00  0.00     0.004 A 
ATOM     74  C   UNL     1       3.017   2.787   5.706  1.00  0.00     0.010 A 
ATOM     75  C   UNL     1       3.002   0.757   7.022  1.00  0.00     0.031 A 
ATOM     76  C   UNL     1       1.625   2.782   5.652  1.00  0.00     0.002 A 
ATOM     77  C   UNL     1       1.606   0.763   6.971  1.00  0.00     0.041 A 
ATOM     78  C   UNL     1       0.917   1.768   6.291  1.00  0.00     0.020 A 
ATOM     79  Cl  UNL     1       0.720  -0.479   7.765  1.00  0.00    -0.084 Cl
ENDBRANCH  70  73
BRANCH  72  80
ATOM     80  C   UNL     1       5.505   4.085   7.496  1.00  0.00     0.067 A 
ATOM     81  C   UNL     1       6.062   5.308   7.109  1.00  0.00     0.029 A 
ATOM     82  C   UNL     1       4.451   4.052   8.418  1.00  0.00     0.029 A 
ATOM     83  C   UNL     1       5.486   6.498   7.560  1.00  0.00     0.015 A 
ATOM     84  C   UNL     1       3.898   5.244   8.886  1.00  0.00     0.015 A 
ATOM     85  C   UNL     1       4.386   6.478   8.435  1.00  0.00     0.056 A 
BRANCH  85  86
ATOM     86  C   UNL     1       3.719   7.769   8.845  1.00  0.00     0.416 C 
ATOM     87  F   UNL     1       4.592   8.674   9.363  1.00  0.00    -0.166 F 
ATOM     88  F   UNL     1       3.116   8.389   7.792  1.00  0.00    -0.166 F 
ATOM     89  F   UNL     1       2.745   7.604   9.784  1.00  0.00    -0.166 F 
ENDBRANCH  85  86
ENDBRANCH  72  80
ENDBRANCH  65  68
ENDBRANCH  63  64
ENDBRANCH   1  63
TORSDOF 13
