REMARK SMILES O=C(CC1(C(=O)NCCCNC(=O)c2ccc(-c3c4nc(c(-c5c(F)cccc5F)c5ccc([nH]5)c(-c5c(F)cccc5F)c5nc(c(-c6c(F)cccc6F)c6ccc3[nH]6)C=C5)C=C4)cc2)CCCCC1)Nc1ccc(N2CCOC2=O)cc1
REMARK SMILES IDX 8 1 7 2 5 3 6 4 4 6 68 7 72 8 69 9 71 10 70 11 3 12 2 13
REMARK SMILES IDX 1 14 73 15 74 17 75 18 85 19 76 20 84 21 77 22 78 23 79 24
REMARK SMILES IDX 82 25 80 26 81 27 83 28 9 29 10 30 11 31 12 32 13 34 14 35
REMARK SMILES IDX 15 36 67 37 16 38 66 39 17 40 18 41 19 42 60 43 20 44 65 45
REMARK SMILES IDX 59 46 61 47 21 48 64 49 58 50 57 51 22 53 48 54 31 55 47 56
REMARK SMILES IDX 32 57 35 58 46 59 62 60 33 61 34 62 45 64 63 65 36 66 23 67
REMARK SMILES IDX 24 68 29 69 25 70 26 71 28 72 30 73 27 74 49 75 50 76 55 77
REMARK SMILES IDX 51 78 52 79 54 80 56 81 53 82 37 83 38 84 43 85 39 86 40 87
REMARK SMILES IDX 42 88 44 89 41 90
REMARK H PARENT 7 5 73 16 11 33 61 52 35 63
REMARK Flexibility Score: inf
ROOT
ATOM      1  C   UNL     1       4.775   0.272  -4.917  1.00  0.00     0.117 C 
ENDROOT
BRANCH   1   2
ATOM      2  N   UNL     1       3.739  -0.549  -4.352  1.00  0.00    -0.356 N 
ATOM      3  C   UNL     1       3.332  -0.782  -3.081  1.00  0.00     0.226 C 
ATOM      4  O   UNL     1       2.305  -1.469  -3.028  1.00  0.00    -0.274 OA
ATOM      5  H   UNL     1       3.219  -1.042  -5.027  1.00  0.00     0.163 HD
BRANCH   3   6
ATOM      6  C   UNL     1       4.064  -0.302  -1.776  1.00  0.00     0.058 C 
ATOM      7  C   UNL     1       4.186   1.241  -1.664  1.00  0.00     0.017 C 
ATOM      8  C   UNL     1       5.447  -0.988  -1.616  1.00  0.00     0.017 C 
ATOM      9  C   UNL     1       5.429   1.974  -2.161  1.00  0.00     0.001 C 
ATOM     10  C   UNL     1       6.665  -0.298  -2.213  1.00  0.00     0.001 C 
ATOM     11  C   UNL     1       6.731   1.205  -1.978  1.00  0.00     0.000 C 
BRANCH   6  12
ATOM     12  C   UNL     1       3.180  -0.897  -0.570  1.00  0.00     0.117 C 
BRANCH  12  13
ATOM     13  C   UNL     1       2.180   0.040   0.101  1.00  0.00     0.225 C 
ATOM     14  O   UNL     1       0.998   0.088  -0.216  1.00  0.00    -0.275 OA
ATOM     15  N   UNL     1       2.792   0.851   1.048  1.00  0.00    -0.326 N 
ATOM     16  H   UNL     1       3.711   0.631   1.325  1.00  0.00     0.169 HD
BRANCH  15  17
ATOM     17  C   UNL     1       2.173   1.960   1.630  1.00  0.00     0.041 A 
ATOM     18  C   UNL     1       2.791   3.207   1.496  1.00  0.00     0.028 A 
ATOM     19  C   UNL     1       1.015   1.825   2.384  1.00  0.00     0.028 A 
ATOM     20  C   UNL     1       2.214   4.336   2.076  1.00  0.00     0.028 A 
ATOM     21  C   UNL     1       0.512   2.934   3.066  1.00  0.00     0.028 A 
ATOM     22  C   UNL     1       1.094   4.197   2.898  1.00  0.00     0.047 A 
BRANCH  22  23
ATOM     23  N   UNL     1       0.544   5.311   3.545  1.00  0.00    -0.274 N 
ATOM     24  C   UNL     1       0.404   6.594   2.939  1.00  0.00     0.171 C 
ATOM     25  C   UNL     1       0.133   5.354   4.861  1.00  0.00     0.414 C 
ATOM     26  C   UNL     1      -0.540   7.281   3.895  1.00  0.00     0.257 C 
ATOM     27  O   UNL     1      -0.373   6.596   5.139  1.00  0.00    -0.447 OA
ATOM     28  O   UNL     1       0.232   4.475   5.708  1.00  0.00    -0.224 OA
ENDBRANCH  22  23
ENDBRANCH  15  17
ENDBRANCH  12  13
ENDBRANCH   6  12
ENDBRANCH   3   6
ENDBRANCH   1   2
BRANCH   1  29
ATOM     29  C   UNL     1       5.820  -0.502  -5.697  1.00  0.00     0.042 C 
BRANCH  29  30
ATOM     30  C   UNL     1       5.464  -0.670  -7.157  1.00  0.00     0.118 C 
BRANCH  30  31
ATOM     31  N   UNL     1       5.455   0.603  -7.874  1.00  0.00    -0.352 N 
ATOM     32  C   UNL     1       6.327   1.124  -8.799  1.00  0.00     0.251 C 
ATOM     33  H   UNL     1       4.694   1.188  -7.656  1.00  0.00     0.163 HD
ATOM     34  O   UNL     1       6.249   2.312  -9.099  1.00  0.00    -0.269 OA
BRANCH  32  35
ATOM     35  C   UNL     1       7.370   0.276  -9.413  1.00  0.00     0.039 A 
ATOM     36  C   UNL     1       8.620   0.830  -9.701  1.00  0.00     0.014 A 
ATOM     37  C   UNL     1       7.121  -1.063  -9.714  1.00  0.00     0.014 A 
ATOM     38  C   UNL     1       9.637   0.017 -10.206  1.00  0.00     0.010 A 
ATOM     39  C   UNL     1       8.165  -1.896 -10.086  1.00  0.00     0.010 A 
ATOM     40  C   UNL     1       9.434  -1.365 -10.351  1.00  0.00    -0.014 A 
BRANCH  40  41
ATOM     41  C   UNL     1      10.524  -2.272 -10.786  1.00  0.00     0.031 A 
ATOM     42  C   UNL     1      10.361  -3.102 -12.032  1.00  0.00     0.074 A 
ATOM     43  C   UNL     1      11.624  -2.404 -10.019  1.00  0.00     0.049 A 
ATOM     44  N   UNL     1      11.162  -4.009 -12.530  1.00  0.00    -0.248 NA
ATOM     45  C   UNL     1       9.120  -2.915 -12.802  1.00  0.00     0.031 C 
ATOM     46  C   UNL     1      11.868  -1.701  -8.757  1.00  0.00     0.029 A 
ATOM     47  N   UNL     1      12.741  -3.184 -10.182  1.00  0.00    -0.354 N 
ATOM     48  C   UNL     1      10.515  -4.507 -13.654  1.00  0.00     0.074 A 
ATOM     49  C   UNL     1       9.229  -3.853 -13.730  1.00  0.00     0.031 C 
ATOM     50  C   UNL     1      13.071  -2.055  -8.280  1.00  0.00     0.029 A 
ATOM     51  C   UNL     1      13.662  -3.046  -9.171  1.00  0.00     0.049 A 
ATOM     52  H   UNL     1      12.870  -3.787 -10.950  1.00  0.00     0.167 HD
ATOM     53  C   UNL     1      10.964  -5.407 -14.559  1.00  0.00     0.037 A 
ATOM     54  C   UNL     1      14.845  -3.659  -8.980  1.00  0.00     0.037 A 
ATOM     55  C   UNL     1      12.258  -6.033 -14.494  1.00  0.00     0.049 A 
ATOM     56  C   UNL     1      15.317  -4.662  -9.998  1.00  0.00     0.074 A 
ATOM     57  C   UNL     1      12.839  -6.905 -15.397  1.00  0.00     0.029 A 
ATOM     58  N   UNL     1      13.170  -5.854 -13.465  1.00  0.00    -0.354 N 
ATOM     59  N   UNL     1      14.729  -5.061 -11.100  1.00  0.00    -0.248 NA
ATOM     60  C   UNL     1      16.618  -5.297  -9.747  1.00  0.00     0.031 C 
ATOM     61  C   UNL     1      14.078  -7.300 -14.885  1.00  0.00     0.029 A 
ATOM     62  C   UNL     1      14.297  -6.625 -13.694  1.00  0.00     0.049 A 
ATOM     63  H   UNL     1      13.036  -5.266 -12.687  1.00  0.00     0.167 HD
ATOM     64  C   UNL     1      15.599  -5.972 -11.687  1.00  0.00     0.074 A 
ATOM     65  C   UNL     1      16.763  -6.048 -10.829  1.00  0.00     0.031 C 
ATOM     66  C   UNL     1      15.448  -6.684 -12.830  1.00  0.00     0.037 A 
BRANCH  53  67
ATOM     67  C   UNL     1      10.056  -5.764 -15.701  1.00  0.00     0.057 A 
ATOM     68  C   UNL     1       9.749  -4.850 -16.718  1.00  0.00     0.134 A 
ATOM     69  C   UNL     1       9.519  -7.053 -15.811  1.00  0.00     0.134 A 
ATOM     70  F   UNL     1      10.219  -3.594 -16.669  1.00  0.00    -0.206 F 
ATOM     71  C   UNL     1       8.924  -5.197 -17.789  1.00  0.00     0.040 A 
ATOM     72  C   UNL     1       8.718  -7.422 -16.893  1.00  0.00     0.040 A 
ATOM     73  F   UNL     1       9.775  -7.980 -14.875  1.00  0.00    -0.206 F 
ATOM     74  C   UNL     1       8.414  -6.490 -17.883  1.00  0.00     0.006 A 
ENDBRANCH  53  67
BRANCH  54  75
ATOM     75  C   UNL     1      15.672  -3.340  -7.787  1.00  0.00     0.057 A 
ATOM     76  C   UNL     1      16.904  -2.686  -7.913  1.00  0.00     0.134 A 
ATOM     77  C   UNL     1      15.264  -3.699  -6.497  1.00  0.00     0.134 A 
ATOM     78  F   UNL     1      17.358  -2.331  -9.123  1.00  0.00    -0.206 F 
ATOM     79  C   UNL     1      17.712  -2.427  -6.804  1.00  0.00     0.040 A 
ATOM     80  C   UNL     1      16.047  -3.418  -5.376  1.00  0.00     0.040 A 
ATOM     81  F   UNL     1      14.089  -4.317  -6.304  1.00  0.00    -0.206 F 
ATOM     82  C   UNL     1      17.282  -2.791  -5.530  1.00  0.00     0.006 A 
ENDBRANCH  54  75
BRANCH  66  83
ATOM     83  C   UNL     1      16.580  -7.582 -13.234  1.00  0.00     0.057 A 
ATOM     84  C   UNL     1      16.879  -8.758 -12.534  1.00  0.00     0.134 A 
ATOM     85  C   UNL     1      17.356  -7.286 -14.363  1.00  0.00     0.134 A 
ATOM     86  F   UNL     1      16.182  -9.092 -11.437  1.00  0.00    -0.206 F 
ATOM     87  C   UNL     1      17.926  -9.593 -12.927  1.00  0.00     0.040 A 
ATOM     88  C   UNL     1      18.384  -8.129 -14.784  1.00  0.00     0.040 A 
ATOM     89  F   UNL     1      17.115  -6.181 -15.085  1.00  0.00    -0.206 F 
ATOM     90  C   UNL     1      18.676  -9.283 -14.060  1.00  0.00     0.006 A 
ENDBRANCH  66  83
ENDBRANCH  40  41
ENDBRANCH  32  35
ENDBRANCH  30  31
ENDBRANCH  29  30
ENDBRANCH   1  29
TORSDOF 14
