REMARK SMILES CC1(C)[C@H](C(=O)NCCCNC(=O)c2ccc(-c3c4nc(c(-c5c(F)cccc5F)c5ccc([nH]5)c(-c5c(F)cccc5F)c5nc(c(-c6c(F)cccc6F)c6ccc3[nH]6)C=C5)C=C4)cc2)[C@H]1C(=O)Nc1ccccc1C(=O)Nc1nccs1
REMARK SMILES IDX 8 1 7 2 5 3 6 4 4 6 1 7 2 8 3 9 68 10 69 11 70 12 71 13
REMARK SMILES IDX 72 15 73 16 77 17 74 18 76 19 75 20 78 21 79 22 80 23 81 25
REMARK SMILES IDX 82 26 85 27 83 28 84 29 9 30 10 31 11 32 12 33 13 35 14 36
REMARK SMILES IDX 15 37 67 38 16 39 66 40 17 41 18 42 19 43 60 44 20 45 65 46
REMARK SMILES IDX 59 47 61 48 21 49 64 50 58 51 57 52 22 54 48 55 31 56 47 57
REMARK SMILES IDX 32 58 35 59 46 60 62 61 33 62 34 63 45 65 63 66 36 67 23 68
REMARK SMILES IDX 24 69 29 70 25 71 26 72 28 73 30 74 27 75 49 76 50 77 55 78
REMARK SMILES IDX 51 79 52 80 54 81 56 82 53 83 37 84 38 85 43 86 39 87 40 88
REMARK SMILES IDX 42 89 44 90 41 91
REMARK H PARENT 7 5 71 14 80 24 11 34 61 53 35 64
REMARK Flexibility Score: inf
ROOT
ATOM      1  C   UNL     1      -1.682   3.245  -0.205  1.00  0.00     0.117 C 
ENDROOT
BRANCH   1   2
ATOM      2  N   UNL     1      -2.115   2.518  -1.367  1.00  0.00    -0.356 N 
ATOM      3  C   UNL     1      -1.649   1.375  -1.940  1.00  0.00     0.224 C 
ATOM      4  O   UNL     1      -1.923   1.197  -3.116  1.00  0.00    -0.275 OA
ATOM      5  H   UNL     1      -2.885   2.919  -1.831  1.00  0.00     0.163 HD
BRANCH   3   6
ATOM      6  C   UNL     1      -0.962   0.290  -1.229  1.00  0.00     0.098 C 
ATOM      7  C   UNL     1       1.246  -0.849  -1.389  1.00  0.00     0.013 C 
ATOM      8  C   UNL     1       0.402   0.158  -0.642  1.00  0.00    -0.011 C 
ATOM      9  C   UNL     1       1.288   1.293  -0.156  1.00  0.00     0.013 C 
ATOM     10  C   UNL     1      -0.849  -0.009   0.251  1.00  0.00     0.098 C 
BRANCH  10  11
ATOM     11  C   UNL     1      -1.985  -0.880   0.623  1.00  0.00     0.228 C 
ATOM     12  O   UNL     1      -3.008  -0.317   1.017  1.00  0.00    -0.274 OA
ATOM     13  N   UNL     1      -2.029  -2.227   0.481  1.00  0.00    -0.325 N 
ATOM     14  H   UNL     1      -2.919  -2.613   0.651  1.00  0.00     0.169 HD
BRANCH  13  15
ATOM     15  C   UNL     1      -1.066  -3.173   0.142  1.00  0.00     0.054 A 
ATOM     16  C   UNL     1      -1.557  -4.135  -0.762  1.00  0.00     0.027 A 
ATOM     17  C   UNL     1       0.272  -3.221   0.560  1.00  0.00     0.063 A 
ATOM     18  C   UNL     1      -0.697  -5.001  -1.424  1.00  0.00     0.002 A 
ATOM     19  C   UNL     1       1.130  -4.099  -0.139  1.00  0.00     0.016 A 
ATOM     20  C   UNL     1       0.659  -4.949  -1.145  1.00  0.00     0.001 A 
BRANCH  17  21
ATOM     21  C   UNL     1       0.935  -2.392   1.623  1.00  0.00     0.259 C 
ATOM     22  O   UNL     1       2.141  -2.142   1.508  1.00  0.00    -0.269 OA
ATOM     23  N   UNL     1       0.299  -1.821   2.691  1.00  0.00    -0.298 N 
ATOM     24  H   UNL     1       0.736  -1.029   3.079  1.00  0.00     0.172 HD
BRANCH  23  25
ATOM     25  C   UNL     1      -0.860  -2.209   3.284  1.00  0.00     0.189 A 
ATOM     26  N   UNL     1      -1.544  -3.313   3.135  1.00  0.00    -0.229 NA
ATOM     27  S   UNL     1      -1.505  -1.038   4.348  1.00  0.00    -0.105 S 
ATOM     28  C   UNL     1      -2.724  -3.200   3.846  1.00  0.00     0.125 A 
ATOM     29  C   UNL     1      -2.909  -2.007   4.514  1.00  0.00     0.088 A 
ENDBRANCH  23  25
ENDBRANCH  17  21
ENDBRANCH  13  15
ENDBRANCH  10  11
ENDBRANCH   3   6
ENDBRANCH   1   2
BRANCH   1  30
ATOM     30  C   UNL     1      -0.500   4.135  -0.564  1.00  0.00     0.042 C 
BRANCH  30  31
ATOM     31  C   UNL     1      -0.864   5.246  -1.534  1.00  0.00     0.118 C 
BRANCH  31  32
ATOM     32  N   UNL     1      -1.748   6.224  -0.926  1.00  0.00    -0.352 N 
ATOM     33  C   UNL     1      -1.510   7.539  -0.619  1.00  0.00     0.251 C 
ATOM     34  H   UNL     1      -2.649   5.896  -0.702  1.00  0.00     0.163 HD
ATOM     35  O   UNL     1      -2.278   8.143   0.123  1.00  0.00    -0.269 OA
BRANCH  33  36
ATOM     36  C   UNL     1      -0.321   8.221  -1.171  1.00  0.00     0.039 A 
ATOM     37  C   UNL     1       0.393   9.102  -0.357  1.00  0.00     0.014 A 
ATOM     38  C   UNL     1       0.077   8.009  -2.494  1.00  0.00     0.014 A 
ATOM     39  C   UNL     1       1.534   9.732  -0.855  1.00  0.00     0.010 A 
ATOM     40  C   UNL     1       1.268   8.556  -2.955  1.00  0.00     0.010 A 
ATOM     41  C   UNL     1       1.997   9.441  -2.148  1.00  0.00    -0.014 A 
BRANCH  41  42
ATOM     42  C   UNL     1       3.218  10.080  -2.698  1.00  0.00     0.031 A 
ATOM     43  C   UNL     1       3.114  10.960  -3.915  1.00  0.00     0.074 A 
ATOM     44  C   UNL     1       4.418   9.827  -2.141  1.00  0.00     0.049 A 
ATOM     45  N   UNL     1       4.066  11.531  -4.607  1.00  0.00    -0.248 NA
ATOM     46  C   UNL     1       1.761  11.206  -4.442  1.00  0.00     0.031 C 
ATOM     47  C   UNL     1       4.651   8.964  -0.981  1.00  0.00     0.029 A 
ATOM     48  N   UNL     1       5.672  10.264  -2.485  1.00  0.00    -0.354 N 
ATOM     49  C   UNL     1       3.429  12.190  -5.652  1.00  0.00     0.074 A 
ATOM     50  C   UNL     1       2.018  11.896  -5.543  1.00  0.00     0.031 C 
ATOM     51  C   UNL     1       5.963   8.956  -0.695  1.00  0.00     0.029 A 
ATOM     52  C   UNL     1       6.668   9.773  -1.676  1.00  0.00     0.049 A 
ATOM     53  H   UNL     1       5.842  10.873  -3.240  1.00  0.00     0.167 HD
ATOM     54  C   UNL     1       3.968  12.992  -6.599  1.00  0.00     0.037 A 
ATOM     55  C   UNL     1       8.001   9.954  -1.731  1.00  0.00     0.037 A 
ATOM     56  C   UNL     1       5.370  13.302  -6.688  1.00  0.00     0.049 A 
ATOM     57  C   UNL     1       8.576  10.828  -2.813  1.00  0.00     0.074 A 
ATOM     58  C   UNL     1       6.013  14.133  -7.589  1.00  0.00     0.029 A 
ATOM     59  N   UNL     1       6.344  12.797  -5.841  1.00  0.00    -0.354 N 
ATOM     60  N   UNL     1       7.956  11.486  -3.763  1.00  0.00    -0.248 NA
ATOM     61  C   UNL     1      10.037  10.988  -2.828  1.00  0.00     0.031 C 
ATOM     62  C   UNL     1       7.383  14.098  -7.312  1.00  0.00     0.029 A 
ATOM     63  C   UNL     1       7.585  13.287  -6.207  1.00  0.00     0.049 A 
ATOM     64  H   UNL     1       6.177  12.181  -5.091  1.00  0.00     0.167 HD
ATOM     65  C   UNL     1       8.945  12.168  -4.461  1.00  0.00     0.074 A 
ATOM     66  C   UNL     1      10.204  11.852  -3.819  1.00  0.00     0.031 C 
ATOM     67  C   UNL     1       8.823  12.982  -5.537  1.00  0.00     0.037 A 
BRANCH  54  68
ATOM     68  C   UNL     1       3.037  13.603  -7.606  1.00  0.00     0.057 A 
ATOM     69  C   UNL     1       2.123  14.604  -7.250  1.00  0.00     0.134 A 
ATOM     70  C   UNL     1       3.085  13.222  -8.953  1.00  0.00     0.134 A 
ATOM     71  F   UNL     1       2.017  15.005  -5.974  1.00  0.00    -0.206 F 
ATOM     72  C   UNL     1       1.276  15.189  -8.193  1.00  0.00     0.040 A 
ATOM     73  C   UNL     1       2.263  13.821  -9.910  1.00  0.00     0.040 A 
ATOM     74  F   UNL     1       3.940  12.274  -9.363  1.00  0.00    -0.206 F 
ATOM     75  C   UNL     1       1.352  14.804  -9.529  1.00  0.00     0.006 A 
ENDBRANCH  54  68
BRANCH  55  76
ATOM     76  C   UNL     1       8.891   9.311  -0.729  1.00  0.00     0.057 A 
ATOM     77  C   UNL     1       9.599  10.078   0.204  1.00  0.00     0.134 A 
ATOM     78  C   UNL     1       9.085   7.925  -0.702  1.00  0.00     0.134 A 
ATOM     79  F   UNL     1       9.469  11.412   0.219  1.00  0.00    -0.206 F 
ATOM     80  C   UNL     1      10.493   9.494   1.104  1.00  0.00     0.040 A 
ATOM     81  C   UNL     1       9.953   7.325   0.212  1.00  0.00     0.040 A 
ATOM     82  F   UNL     1       8.430   7.132  -1.563  1.00  0.00    -0.206 F 
ATOM     83  C   UNL     1      10.669   8.113   1.111  1.00  0.00     0.006 A 
ENDBRANCH  55  76
BRANCH  67  84
ATOM     84  C   UNL     1      10.072  13.637  -6.051  1.00  0.00     0.057 A 
ATOM     85  C   UNL     1      11.060  12.920  -6.736  1.00  0.00     0.134 A 
ATOM     86  C   UNL     1      10.260  15.018  -5.899  1.00  0.00     0.134 A 
ATOM     87  F   UNL     1      10.945  11.594  -6.903  1.00  0.00    -0.206 F 
ATOM     88  C   UNL     1      12.203  13.549  -7.232  1.00  0.00     0.040 A 
ATOM     89  C   UNL     1      11.383  15.662  -6.417  1.00  0.00     0.040 A 
ATOM     90  F   UNL     1       9.345  15.765  -5.263  1.00  0.00    -0.206 F 
ATOM     91  C   UNL     1      12.362  14.925  -7.081  1.00  0.00     0.006 A 
ENDBRANCH  67  84
ENDBRANCH  41  42
ENDBRANCH  33  36
ENDBRANCH  31  32
ENDBRANCH  30  31
ENDBRANCH   1  30
TORSDOF 14
