REMARK SMILES Cn1ccc(NC(=O)[C@@H]2CCCC[C@@H]2C(=O)NCCCNC(=O)c2ccc(-c3c4nc(c(-c5c(F)cccc5F)c5ccc([nH]5)c(-c5c(F)cccc5F)c5nc(c(-c6c(F)cccc6F)c6ccc3[nH]6)C=C5)C=C4)cc2)n1
REMARK SMILES IDX 19 1 18 2 17 3 15 4 16 5 14 7 9 8 10 9 11 10 13 11 12 12
REMARK SMILES IDX 7 13 6 14 8 16 5 17 1 18 2 19 3 20 78 21 4 22 20 23 21 24
REMARK SMILES IDX 22 25 23 27 24 28 25 29 77 30 26 31 76 32 27 33 28 34 29 35
REMARK SMILES IDX 70 36 30 37 75 38 69 39 71 40 31 41 74 42 68 43 67 44 32 46
REMARK SMILES IDX 58 47 41 48 57 49 42 50 45 51 56 52 72 53 43 54 44 55 55 57
REMARK SMILES IDX 73 58 46 59 33 60 34 61 39 62 35 63 36 64 38 65 40 66 37 67
REMARK SMILES IDX 59 68 60 69 65 70 61 71 62 72 64 73 66 74 63 75 47 76 48 77
REMARK SMILES IDX 53 78 49 79 50 80 52 81 54 82 51 83
REMARK H PARENT 17 6 6 15 21 26 71 45 45 56
REMARK Flexibility Score: inf
ROOT
ATOM      1  C   UNL     1       3.863   1.913   1.565  1.00  0.00     0.042 C 
ENDROOT
BRANCH   1   2
ATOM      2  C   UNL     1       2.572   1.337   2.125  1.00  0.00     0.117 C 
BRANCH   2   3
ATOM      3  N   UNL     1       1.869   2.325   2.903  1.00  0.00    -0.356 N 
ATOM      4  C   UNL     1       0.766   3.059   2.608  1.00  0.00     0.223 C 
ATOM      5  O   UNL     1       0.374   3.803   3.509  1.00  0.00    -0.275 OA
ATOM      6  H   UNL     1       2.251   2.496   3.794  1.00  0.00     0.163 HD
BRANCH   4   7
ATOM      7  C   UNL     1       0.014   2.886   1.275  1.00  0.00     0.091 C 
ATOM      8  C   UNL     1       0.593   3.566   0.006  1.00  0.00     0.091 C 
ATOM      9  C   UNL     1       0.742   5.072   0.285  1.00  0.00     0.014 C 
ATOM     10  C   UNL     1      -0.628   5.706   0.522  1.00  0.00     0.001 C 
ATOM     11  C   UNL     1      -1.428   3.436   1.430  1.00  0.00     0.014 C 
ATOM     12  C   UNL     1      -1.489   4.966   1.545  1.00  0.00     0.001 C 
BRANCH   8  13
ATOM     13  C   UNL     1       1.831   2.988  -0.690  1.00  0.00     0.229 C 
ATOM     14  N   UNL     1       1.899   1.699  -1.133  1.00  0.00    -0.309 N 
ATOM     15  H   UNL     1       2.748   1.442  -1.560  1.00  0.00     0.171 HD
ATOM     16  O   UNL     1       2.837   3.683  -0.879  1.00  0.00    -0.274 OA
BRANCH  14  17
ATOM     17  C   UNL     1       0.949   0.712  -1.069  1.00  0.00     0.154 A 
ATOM     18  C   UNL     1      -2.266  -0.369  -0.307  1.00  0.00     0.173 C 
ATOM     19  N   UNL     1      -0.875  -0.281  -0.680  1.00  0.00    -0.274 N 
ATOM     20  C   UNL     1       0.059  -1.271  -0.643  1.00  0.00     0.110 A 
ATOM     21  N   UNL     1      -0.362   0.920  -0.985  1.00  0.00    -0.155 NA
ATOM     22  C   UNL     1       1.253  -0.668  -0.969  1.00  0.00     0.068 A 
ENDBRANCH  14  17
ENDBRANCH   8  13
ENDBRANCH   4   7
ENDBRANCH   2   3
ENDBRANCH   1   2
BRANCH   1  23
ATOM     23  C   UNL     1       5.005   1.877   2.562  1.00  0.00     0.118 C 
BRANCH  23  24
ATOM     24  N   UNL     1       5.466   0.518   2.809  1.00  0.00    -0.352 N 
ATOM     25  C   UNL     1       6.720  -0.018   2.679  1.00  0.00     0.251 C 
ATOM     26  H   UNL     1       4.772  -0.110   3.116  1.00  0.00     0.163 HD
ATOM     27  O   UNL     1       6.864  -1.240   2.728  1.00  0.00    -0.269 OA
BRANCH  25  28
ATOM     28  C   UNL     1       7.889   0.857   2.457  1.00  0.00     0.039 A 
ATOM     29  C   UNL     1       8.903   0.425   1.599  1.00  0.00     0.014 A 
ATOM     30  C   UNL     1       7.997   2.095   3.096  1.00  0.00     0.014 A 
ATOM     31  C   UNL     1       9.992   1.258   1.339  1.00  0.00     0.010 A 
ATOM     32  C   UNL     1       9.023   2.967   2.752  1.00  0.00     0.010 A 
ATOM     33  C   UNL     1      10.041   2.551   1.884  1.00  0.00    -0.014 A 
BRANCH  33  34
ATOM     34  C   UNL     1      11.158   3.478   1.578  1.00  0.00     0.031 A 
ATOM     35  C   UNL     1      12.041   3.982   2.687  1.00  0.00     0.074 A 
ATOM     36  C   UNL     1      11.336   3.914   0.316  1.00  0.00     0.049 A 
ATOM     37  N   UNL     1      13.020   4.849   2.636  1.00  0.00    -0.248 NA
ATOM     38  C   UNL     1      11.768   3.469   4.040  1.00  0.00     0.031 C 
ATOM     39  C   UNL     1      10.512   3.537  -0.835  1.00  0.00     0.029 A 
ATOM     40  N   UNL     1      12.263   4.778  -0.209  1.00  0.00    -0.354 N 
ATOM     41  C   UNL     1      13.462   4.997   3.944  1.00  0.00     0.074 A 
ATOM     42  C   UNL     1      12.608   4.179   4.776  1.00  0.00     0.031 C 
ATOM     43  C   UNL     1      10.989   4.142  -1.934  1.00  0.00     0.029 A 
ATOM     44  C   UNL     1      12.121   4.984  -1.560  1.00  0.00     0.049 A 
ATOM     45  H   UNL     1      12.963   5.211   0.331  1.00  0.00     0.167 HD
ATOM     46  C   UNL     1      14.503   5.729   4.408  1.00  0.00     0.037 A 
ATOM     47  C   UNL     1      12.819   5.771  -2.400  1.00  0.00     0.037 A 
ATOM     48  C   UNL     1      15.365   6.520   3.571  1.00  0.00     0.049 A 
ATOM     49  C   UNL     1      13.963   6.582  -1.857  1.00  0.00     0.074 A 
ATOM     50  C   UNL     1      16.486   7.245   3.931  1.00  0.00     0.029 A 
ATOM     51  N   UNL     1      15.197   6.692   2.205  1.00  0.00    -0.354 N 
ATOM     52  N   UNL     1      14.419   6.654  -0.630  1.00  0.00    -0.248 NA
ATOM     53  C   UNL     1      14.694   7.420  -2.818  1.00  0.00     0.031 C 
ATOM     54  C   UNL     1      16.965   7.901   2.793  1.00  0.00     0.029 A 
ATOM     55  C   UNL     1      16.178   7.535   1.712  1.00  0.00     0.049 A 
ATOM     56  H   UNL     1      14.486   6.276   1.666  1.00  0.00     0.167 HD
ATOM     57  C   UNL     1      15.506   7.516  -0.676  1.00  0.00     0.074 A 
ATOM     58  C   UNL     1      15.650   7.931  -2.057  1.00  0.00     0.031 C 
ATOM     59  C   UNL     1      16.313   7.929   0.332  1.00  0.00     0.037 A 
BRANCH  46  60
ATOM     60  C   UNL     1      14.764   5.706   5.887  1.00  0.00     0.057 A 
ATOM     61  C   UNL     1      15.231   4.557   6.541  1.00  0.00     0.134 A 
ATOM     62  C   UNL     1      14.579   6.857   6.663  1.00  0.00     0.134 A 
ATOM     63  F   UNL     1      15.418   3.416   5.861  1.00  0.00    -0.206 F 
ATOM     64  C   UNL     1      15.475   4.546   7.916  1.00  0.00     0.040 A 
ATOM     65  C   UNL     1      14.850   6.867   8.033  1.00  0.00     0.040 A 
ATOM     66  F   UNL     1      14.141   7.994   6.103  1.00  0.00    -0.206 F 
ATOM     67  C   UNL     1      15.292   5.707   8.664  1.00  0.00     0.006 A 
ENDBRANCH  46  60
BRANCH  47  68
ATOM     68  C   UNL     1      12.472   5.815  -3.843  1.00  0.00     0.057 A 
ATOM     69  C   UNL     1      13.336   5.288  -4.810  1.00  0.00     0.134 A 
ATOM     70  C   UNL     1      11.279   6.394  -4.294  1.00  0.00     0.134 A 
ATOM     71  F   UNL     1      14.502   4.735  -4.444  1.00  0.00    -0.206 F 
ATOM     72  C   UNL     1      13.040   5.355  -6.173  1.00  0.00     0.040 A 
ATOM     73  C   UNL     1      10.956   6.442  -5.651  1.00  0.00     0.040 A 
ATOM     74  F   UNL     1      10.404   6.910  -3.418  1.00  0.00    -0.206 F 
ATOM     75  C   UNL     1      11.843   5.930  -6.596  1.00  0.00     0.006 A 
ENDBRANCH  47  68
BRANCH  59  76
ATOM     76  C   UNL     1      17.450   8.841  -0.026  1.00  0.00     0.057 A 
ATOM     77  C   UNL     1      17.244  10.174  -0.400  1.00  0.00     0.134 A 
ATOM     78  C   UNL     1      18.774   8.387   0.048  1.00  0.00     0.134 A 
ATOM     79  F   UNL     1      16.001  10.668  -0.502  1.00  0.00    -0.206 F 
ATOM     80  C   UNL     1      18.312  11.017  -0.712  1.00  0.00     0.040 A 
ATOM     81  C   UNL     1      19.851   9.228  -0.231  1.00  0.00     0.040 A 
ATOM     82  F   UNL     1      19.042   7.123   0.410  1.00  0.00    -0.206 F 
ATOM     83  C   UNL     1      19.621  10.546  -0.619  1.00  0.00     0.006 A 
ENDBRANCH  59  76
ENDBRANCH  33  34
ENDBRANCH  25  28
ENDBRANCH  23  24
ENDBRANCH   1  23
TORSDOF 12
