REMARK SMILES Cc1nn(C)cc1-c1cc(C(F)(F)F)nc(N2CCC[C@@H]2C(=O)NCCCNC(=O)c2ccc(-c3c4nc(c(-c5c(F)cccc5F)c5ccc([nH]5)c(-c5c(F)cccc5F)c5nc(c(-c6c(F)cccc6F)c6ccc3[nH]6)C=C5)C=C4)cc2)n1
REMARK SMILES IDX 26 1 25 2 24 3 22 4 23 5 21 7 17 8 18 9 19 10 20 11 16 12
REMARK SMILES IDX 8 13 9 14 85 15 10 16 15 17 7 18 1 19 2 20 3 21 4 22 6 23
REMARK SMILES IDX 5 24 11 25 12 26 13 27 14 28 27 29 28 30 29 31 30 33 31 34
REMARK SMILES IDX 32 35 84 36 33 37 83 38 34 39 35 40 36 41 77 42 37 43 82 44
REMARK SMILES IDX 76 45 78 46 38 47 81 48 75 49 74 50 39 52 65 53 48 54 64 55
REMARK SMILES IDX 49 56 52 57 63 58 79 59 50 60 51 61 62 63 80 64 53 65 40 66
REMARK SMILES IDX 41 67 46 68 42 69 43 70 45 71 47 72 44 73 66 74 67 75 72 76
REMARK SMILES IDX 68 77 69 78 71 79 73 80 70 81 54 82 55 83 60 84 56 85 57 86
REMARK SMILES IDX 59 87 61 88 58 89
REMARK H PARENT 24 6 28 32 78 51 52 62
REMARK Flexibility Score: inf
ROOT
ATOM      1  C   UNL     1      -5.889  -6.803   2.772  1.00  0.00     0.042 C 
ENDROOT
BRANCH   1   2
ATOM      2  C   UNL     1      -5.048  -5.731   2.093  1.00  0.00     0.117 C 
BRANCH   2   3
ATOM      3  N   UNL     1      -4.680  -4.662   3.002  1.00  0.00    -0.354 N 
ATOM      4  C   UNL     1      -3.477  -4.303   3.535  1.00  0.00     0.242 C 
ATOM      5  O   UNL     1      -3.493  -3.332   4.303  1.00  0.00    -0.273 OA
ATOM      6  H   UNL     1      -5.433  -4.093   3.283  1.00  0.00     0.163 HD
BRANCH   4   7
ATOM      7  C   UNL     1      -2.165  -5.085   3.300  1.00  0.00     0.174 C 
ATOM      8  N   UNL     1      -1.927  -5.475   1.919  1.00  0.00    -0.329 N 
ATOM      9  C   UNL     1      -1.592  -6.866   1.751  1.00  0.00     0.120 C 
ATOM     10  C   UNL     1      -2.122  -7.518   3.025  1.00  0.00     0.024 C 
ATOM     11  C   UNL     1      -2.125  -6.409   4.076  1.00  0.00     0.037 C 
BRANCH   8  12
ATOM     12  C   UNL     1      -1.984  -4.583   0.900  1.00  0.00     0.227 A 
ATOM     13  C   UNL     1      -1.558  -2.506   0.043  1.00  0.00     0.080 A 
ATOM     14  C   UNL     1      -2.397  -2.714  -1.027  1.00  0.00     0.062 A 
ATOM     15  N   UNL     1      -1.374  -3.405   1.027  1.00  0.00    -0.213 NA
ATOM     16  C   UNL     1      -3.007  -3.947  -1.079  1.00  0.00     0.150 A 
ATOM     17  N   UNL     1      -2.763  -4.899  -0.144  1.00  0.00    -0.208 NA
BRANCH  13  18
ATOM     18  C   UNL     1      -0.770  -1.295   0.118  1.00  0.00     0.041 A 
ATOM     19  C   UNL     1      -2.480   0.691   0.044  1.00  0.00     0.069 C 
ATOM     20  C   UNL     1      -1.130   0.078   0.075  1.00  0.00     0.069 A 
ATOM     21  N   UNL     1      -0.048   0.870   0.058  1.00  0.00    -0.178 NA
ATOM     22  N   UNL     1       0.987   0.013   0.120  1.00  0.00    -0.275 N 
ATOM     23  C   UNL     1       0.608  -1.294   0.164  1.00  0.00     0.119 A 
ATOM     24  C   UNL     1       2.335   0.524   0.084  1.00  0.00     0.173 C 
ENDBRANCH  13  18
BRANCH  16  25
ATOM     25  C   UNL     1      -4.033  -4.242  -2.156  1.00  0.00     0.433 C 
ATOM     26  F   UNL     1      -3.797  -5.404  -2.827  1.00  0.00    -0.165 F 
ATOM     27  F   UNL     1      -5.298  -4.346  -1.653  1.00  0.00    -0.165 F 
ATOM     28  F   UNL     1      -4.103  -3.272  -3.115  1.00  0.00    -0.165 F 
ENDBRANCH  16  25
ENDBRANCH   8  12
ENDBRANCH   4   7
ENDBRANCH   2   3
ENDBRANCH   1   2
BRANCH   1  29
ATOM     29  C   UNL     1      -7.321  -6.371   3.054  1.00  0.00     0.118 C 
BRANCH  29  30
ATOM     30  N   UNL     1      -8.086  -6.154   1.835  1.00  0.00    -0.352 N 
ATOM     31  C   UNL     1      -9.290  -6.671   1.439  1.00  0.00     0.251 C 
ATOM     32  H   UNL     1      -7.672  -5.535   1.191  1.00  0.00     0.163 HD
ATOM     33  O   UNL     1      -9.674  -6.485   0.281  1.00  0.00    -0.269 OA
BRANCH  31  34
ATOM     34  C   UNL     1     -10.135  -7.455   2.365  1.00  0.00     0.039 A 
ATOM     35  C   UNL     1     -10.863  -8.534   1.853  1.00  0.00     0.014 A 
ATOM     36  C   UNL     1     -10.274  -7.100   3.710  1.00  0.00     0.014 A 
ATOM     37  C   UNL     1     -11.703  -9.271   2.690  1.00  0.00     0.010 A 
ATOM     38  C   UNL     1     -11.052  -7.881   4.561  1.00  0.00     0.010 A 
ATOM     39  C   UNL     1     -11.793  -8.959   4.055  1.00  0.00    -0.014 A 
BRANCH  39  40
ATOM     40  C   UNL     1     -12.701  -9.712   4.954  1.00  0.00     0.031 A 
ATOM     41  C   UNL     1     -13.883  -9.020   5.577  1.00  0.00     0.074 A 
ATOM     42  C   UNL     1     -12.442 -11.001   5.244  1.00  0.00     0.049 A 
ATOM     43  N   UNL     1     -14.759  -9.484   6.432  1.00  0.00    -0.248 NA
ATOM     44  C   UNL     1     -14.090  -7.609   5.213  1.00  0.00     0.031 C 
ATOM     45  C   UNL     1     -11.305 -11.771   4.737  1.00  0.00     0.029 A 
ATOM     46  N   UNL     1     -13.116 -11.888   6.043  1.00  0.00    -0.354 N 
ATOM     47  C   UNL     1     -15.602  -8.419   6.723  1.00  0.00     0.074 A 
ATOM     48  C   UNL     1     -15.107  -7.274   5.992  1.00  0.00     0.031 C 
ATOM     49  C   UNL     1     -11.374 -13.023   5.220  1.00  0.00     0.029 A 
ATOM     50  C   UNL     1     -12.541 -13.134   6.090  1.00  0.00     0.049 A 
ATOM     51  H   UNL     1     -13.935 -11.654   6.537  1.00  0.00     0.167 HD
ATOM     52  C   UNL     1     -16.705  -8.402   7.510  1.00  0.00     0.037 A 
ATOM     53  C   UNL     1     -12.915 -14.241   6.758  1.00  0.00     0.037 A 
ATOM     54  C   UNL     1     -17.220  -9.552   8.204  1.00  0.00     0.049 A 
ATOM     55  C   UNL     1     -14.161 -14.206   7.599  1.00  0.00     0.074 A 
ATOM     56  C   UNL     1     -18.359  -9.652   8.984  1.00  0.00     0.029 A 
ATOM     57  N   UNL     1     -16.631 -10.807   8.192  1.00  0.00    -0.354 N 
ATOM     58  N   UNL     1     -14.979 -13.206   7.824  1.00  0.00    -0.248 NA
ATOM     59  C   UNL     1     -14.542 -15.457   8.269  1.00  0.00     0.031 C 
ATOM     60  C   UNL     1     -18.444 -10.963   9.466  1.00  0.00     0.029 A 
ATOM     61  C   UNL     1     -17.379 -11.687   8.956  1.00  0.00     0.049 A 
ATOM     62  H   UNL     1     -15.803 -11.039   7.712  1.00  0.00     0.167 HD
ATOM     63  C   UNL     1     -15.986 -13.714   8.634  1.00  0.00     0.074 A 
ATOM     64  C   UNL     1     -15.681 -15.113   8.853  1.00  0.00     0.031 C 
ATOM     65  C   UNL     1     -17.067 -13.080   9.149  1.00  0.00     0.037 A 
BRANCH  52  66
ATOM     66  C   UNL     1     -17.430  -7.096   7.652  1.00  0.00     0.057 A 
ATOM     67  C   UNL     1     -18.172  -6.546   6.599  1.00  0.00     0.134 A 
ATOM     68  C   UNL     1     -17.402  -6.390   8.861  1.00  0.00     0.134 A 
ATOM     69  F   UNL     1     -18.227  -7.165   5.410  1.00  0.00    -0.206 F 
ATOM     70  C   UNL     1     -18.838  -5.326   6.734  1.00  0.00     0.040 A 
ATOM     71  C   UNL     1     -18.085  -5.183   9.016  1.00  0.00     0.040 A 
ATOM     72  F   UNL     1     -16.715  -6.863   9.911  1.00  0.00    -0.206 F 
ATOM     73  C   UNL     1     -18.800  -4.644   7.948  1.00  0.00     0.006 A 
ENDBRANCH  52  66
BRANCH  53  74
ATOM     74  C   UNL     1     -12.125 -15.489   6.626  1.00  0.00     0.057 A 
ATOM     75  C   UNL     1     -12.619 -16.579   5.900  1.00  0.00     0.134 A 
ATOM     76  C   UNL     1     -10.865 -15.624   7.220  1.00  0.00     0.134 A 
ATOM     77  F   UNL     1     -13.828 -16.513   5.323  1.00  0.00    -0.206 F 
ATOM     78  C   UNL     1     -11.896 -17.767   5.784  1.00  0.00     0.040 A 
ATOM     79  C   UNL     1     -10.122 -16.799   7.094  1.00  0.00     0.040 A 
ATOM     80  F   UNL     1     -10.335 -14.612   7.921  1.00  0.00    -0.206 F 
ATOM     81  C   UNL     1     -10.641 -17.878   6.380  1.00  0.00     0.006 A 
ENDBRANCH  53  74
BRANCH  65  82
ATOM     82  C   UNL     1     -18.021 -13.904   9.960  1.00  0.00     0.057 A 
ATOM     83  C   UNL     1     -17.714 -14.327  11.258  1.00  0.00     0.134 A 
ATOM     84  C   UNL     1     -19.277 -14.249   9.444  1.00  0.00     0.134 A 
ATOM     85  F   UNL     1     -16.522 -14.040  11.803  1.00  0.00    -0.206 F 
ATOM     86  C   UNL     1     -18.614 -15.086  12.008  1.00  0.00     0.040 A 
ATOM     87  C   UNL     1     -20.194 -14.987  10.192  1.00  0.00     0.040 A 
ATOM     88  F   UNL     1     -19.635 -13.867   8.209  1.00  0.00    -0.206 F 
ATOM     89  C   UNL     1     -19.861 -15.412  11.477  1.00  0.00     0.006 A 
ENDBRANCH  65  82
ENDBRANCH  39  40
ENDBRANCH  31  34
ENDBRANCH  29  30
ENDBRANCH   1  29
TORSDOF 13
