REMARK SMILES O=C(NCCCNC(=O)c1cc(Cl)ccc1NC(=O)c1ccc2c(c1)C(=O)N(Cc1ccco1)C2=O)c1ccc(-c2c3nc(c(-c4c(F)cccc4F)c4ccc([nH]4)c(-c4c(F)cccc4F)c4nc(c(-c5c(F)cccc5F)c5ccc2[nH]5)C=C4)C=C3)cc1
REMARK SMILES IDX 6 1 5 2 4 3 3 4 1 5 2 6 37 8 38 9 90 10 39 11 89 12 40 13
REMARK SMILES IDX 41 14 42 15 83 16 43 17 88 18 82 19 84 20 44 21 87 22 81 23
REMARK SMILES IDX 80 24 45 26 71 27 54 28 70 29 55 30 58 31 69 32 85 33 56 34
REMARK SMILES IDX 57 35 68 37 86 38 59 39 46 40 47 41 52 42 48 43 49 44 51 45
REMARK SMILES IDX 53 46 50 47 72 48 73 49 78 50 74 51 75 52 77 53 79 54 76 55
REMARK SMILES IDX 60 56 61 57 66 58 62 59 63 60 65 61 67 62 64 63 7 64 8 65
REMARK SMILES IDX 9 67 10 68 11 69 16 70 12 71 15 72 13 73 14 74 17 75 18 76
REMARK SMILES IDX 19 78 20 79 21 80 25 81 22 82 24 83 23 84 26 85 35 86 27 87
REMARK SMILES IDX 28 88 36 89 29 90 30 91 31 92 34 93 32 94 33 95
REMARK H PARENT 3 7 84 25 58 36 7 66 17 77
REMARK Flexibility Score: inf
ROOT
ATOM      1  C   UNL     1       4.438  -1.877   3.260  1.00  0.00     0.118 C 
ENDROOT
BRANCH   1   2
ATOM      2  C   UNL     1       5.006  -0.840   2.300  1.00  0.00     0.042 C 
BRANCH   2   3
ATOM      3  C   UNL     1       4.633  -1.080   0.844  1.00  0.00     0.118 C 
BRANCH   3   4
ATOM      4  N   UNL     1       3.196  -1.019   0.619  1.00  0.00    -0.352 N 
ATOM      5  O   UNL     1       1.209  -0.125   0.075  1.00  0.00    -0.269 OA
ATOM      6  C   UNL     1       2.431  -0.087  -0.036  1.00  0.00     0.251 C 
ATOM      7  H   UNL     1       2.689  -1.771   1.001  1.00  0.00     0.163 HD
BRANCH   6   8
ATOM      8  C   UNL     1       3.060   0.969  -0.858  1.00  0.00     0.039 A 
ATOM      9  C   UNL     1       4.139   0.689  -1.700  1.00  0.00     0.014 A 
ATOM     10  C   UNL     1       2.518   2.257  -0.824  1.00  0.00     0.014 A 
ATOM     11  C   UNL     1       4.763   1.718  -2.399  1.00  0.00     0.010 A 
ATOM     12  C   UNL     1       3.091   3.272  -1.592  1.00  0.00     0.010 A 
ATOM     13  C   UNL     1       4.237   3.016  -2.363  1.00  0.00    -0.014 A 
BRANCH  13  14
ATOM     14  C   UNL     1       4.852   4.098  -3.170  1.00  0.00     0.031 A 
ATOM     15  C   UNL     1       5.460   5.297  -2.503  1.00  0.00     0.074 A 
ATOM     16  C   UNL     1       4.822   4.014  -4.513  1.00  0.00     0.049 A 
ATOM     17  N   UNL     1       5.947   6.386  -3.042  1.00  0.00    -0.248 NA
ATOM     18  C   UNL     1       5.519   5.274  -1.034  1.00  0.00     0.031 C 
ATOM     19  C   UNL     1       4.260   2.898  -5.275  1.00  0.00     0.029 A 
ATOM     20  N   UNL     1       5.258   4.890  -5.475  1.00  0.00    -0.354 N 
ATOM     21  C   UNL     1       6.345   7.189  -1.982  1.00  0.00     0.074 A 
ATOM     22  C   UNL     1       6.019   6.472  -0.767  1.00  0.00     0.031 C 
ATOM     23  C   UNL     1       4.387   3.154  -6.585  1.00  0.00     0.029 A 
ATOM     24  C   UNL     1       4.978   4.477  -6.754  1.00  0.00     0.049 A 
ATOM     25  H   UNL     1       5.726   5.731  -5.268  1.00  0.00     0.167 HD
ATOM     26  C   UNL     1       6.931   8.410  -2.021  1.00  0.00     0.037 A 
ATOM     27  C   UNL     1       5.139   5.107  -7.932  1.00  0.00     0.037 A 
ATOM     28  C   UNL     1       7.248   9.114  -3.238  1.00  0.00     0.049 A 
ATOM     29  C   UNL     1       5.742   6.481  -7.952  1.00  0.00     0.074 A 
ATOM     30  C   UNL     1       7.876  10.338  -3.387  1.00  0.00     0.029 A 
ATOM     31  N   UNL     1       6.947   8.662  -4.515  1.00  0.00    -0.354 N 
ATOM     32  N   UNL     1       6.148   7.217  -6.946  1.00  0.00    -0.248 NA
ATOM     33  C   UNL     1       5.910   7.114  -9.267  1.00  0.00     0.031 C 
ATOM     34  C   UNL     1       7.897  10.655  -4.749  1.00  0.00     0.029 A 
ATOM     35  C   UNL     1       7.347   9.598  -5.455  1.00  0.00     0.049 A 
ATOM     36  H   UNL     1       6.512   7.803  -4.723  1.00  0.00     0.167 HD
ATOM     37  C   UNL     1       6.649   8.385  -7.506  1.00  0.00     0.074 A 
ATOM     38  C   UNL     1       6.494   8.259  -8.941  1.00  0.00     0.031 C 
ATOM     39  C   UNL     1       7.197   9.457  -6.884  1.00  0.00     0.037 A 
BRANCH  26  40
ATOM     40  C   UNL     1       7.225   9.078  -0.707  1.00  0.00     0.057 A 
ATOM     41  C   UNL     1       8.199   8.594   0.177  1.00  0.00     0.134 A 
ATOM     42  C   UNL     1       6.525  10.230  -0.323  1.00  0.00     0.134 A 
ATOM     43  F   UNL     1       8.902   7.490  -0.122  1.00  0.00    -0.206 F 
ATOM     44  C   UNL     1       8.436   9.204   1.411  1.00  0.00     0.040 A 
ATOM     45  C   UNL     1       6.776  10.868   0.894  1.00  0.00     0.040 A 
ATOM     46  F   UNL     1       5.587  10.756  -1.123  1.00  0.00    -0.206 F 
ATOM     47  C   UNL     1       7.725  10.348   1.770  1.00  0.00     0.006 A 
ENDBRANCH  26  40
BRANCH  27  48
ATOM     48  C   UNL     1       4.703   4.432  -9.179  1.00  0.00     0.057 A 
ATOM     49  C   UNL     1       5.633   3.939 -10.098  1.00  0.00     0.134 A 
ATOM     50  C   UNL     1       3.346   4.217  -9.452  1.00  0.00     0.134 A 
ATOM     51  F   UNL     1       6.946   4.126  -9.897  1.00  0.00    -0.206 F 
ATOM     52  C   UNL     1       5.231   3.257 -11.248  1.00  0.00     0.040 A 
ATOM     53  C   UNL     1       2.931   3.514 -10.584  1.00  0.00     0.040 A 
ATOM     54  F   UNL     1       2.406   4.654  -8.601  1.00  0.00    -0.206 F 
ATOM     55  C   UNL     1       3.876   3.035 -11.488  1.00  0.00     0.006 A 
ENDBRANCH  27  48
BRANCH  39  56
ATOM     56  C   UNL     1       7.726  10.565  -7.746  1.00  0.00     0.057 A 
ATOM     57  C   UNL     1       6.881  11.456  -8.418  1.00  0.00     0.134 A 
ATOM     58  C   UNL     1       9.107  10.787  -7.839  1.00  0.00     0.134 A 
ATOM     59  F   UNL     1       5.551  11.291  -8.381  1.00  0.00    -0.206 F 
ATOM     60  C   UNL     1       7.391  12.526  -9.157  1.00  0.00     0.040 A 
ATOM     61  C   UNL     1       9.627  11.868  -8.553  1.00  0.00     0.040 A 
ATOM     62  F   UNL     1       9.972   9.973  -7.214  1.00  0.00    -0.206 F 
ATOM     63  C   UNL     1       8.768  12.740  -9.216  1.00  0.00     0.006 A 
ENDBRANCH  39  56
ENDBRANCH  13  14
ENDBRANCH   6   8
ENDBRANCH   3   4
ENDBRANCH   2   3
ENDBRANCH   1   2
BRANCH   1  64
ATOM     64  N   UNL     1       4.989  -3.211   3.041  1.00  0.00    -0.352 N 
ATOM     65  C   UNL     1       5.864  -3.934   3.817  1.00  0.00     0.253 C 
ATOM     66  H   UNL     1       4.691  -3.659   2.216  1.00  0.00     0.163 HD
ATOM     67  O   UNL     1       6.388  -4.955   3.385  1.00  0.00    -0.269 OA
BRANCH  65  68
ATOM     68  C   UNL     1       6.228  -3.423   5.154  1.00  0.00     0.064 A 
ATOM     69  C   UNL     1       5.191  -3.102   6.045  1.00  0.00     0.036 A 
ATOM     70  C   UNL     1       7.574  -3.197   5.493  1.00  0.00     0.054 A 
ATOM     71  C   UNL     1       5.478  -2.387   7.197  1.00  0.00     0.041 A 
ATOM     72  C   UNL     1       7.815  -2.367   6.591  1.00  0.00     0.028 A 
ATOM     73  Cl  UNL     1       4.208  -1.930   8.259  1.00  0.00    -0.084 Cl
ATOM     74  C   UNL     1       6.780  -1.976   7.449  1.00  0.00     0.023 A 
BRANCH  70  75
ATOM     75  N   UNL     1       8.599  -3.811   4.728  1.00  0.00    -0.321 N 
ATOM     76  C   UNL     1       9.940  -4.039   4.963  1.00  0.00     0.255 C 
ATOM     77  H   UNL     1       8.292  -4.143   3.854  1.00  0.00     0.170 HD
ATOM     78  O   UNL     1      10.666  -4.490   4.080  1.00  0.00    -0.269 OA
BRANCH  76  79
ATOM     79  C   UNL     1      10.550  -3.760   6.278  1.00  0.00     0.041 A 
ATOM     80  C   UNL     1      11.635  -2.852   6.310  1.00  0.00     0.015 A 
ATOM     81  C   UNL     1       9.998  -4.284   7.457  1.00  0.00     0.028 A 
ATOM     82  C   UNL     1      12.097  -2.347   7.527  1.00  0.00     0.015 A 
ATOM     83  C   UNL     1      10.456  -3.742   8.642  1.00  0.00     0.054 A 
ATOM     84  C   UNL     1      11.454  -2.783   8.669  1.00  0.00     0.053 A 
ATOM     85  C   UNL     1       9.931  -3.868  10.001  1.00  0.00     0.261 C 
ATOM     86  C   UNL     1      11.548  -2.284  10.037  1.00  0.00     0.261 C 
ATOM     87  O   UNL     1       8.970  -4.556  10.290  1.00  0.00    -0.269 OA
ATOM     88  N   UNL     1      10.653  -3.007  10.777  1.00  0.00    -0.267 N 
ATOM     89  O   UNL     1      12.248  -1.347  10.363  1.00  0.00    -0.269 OA
BRANCH  88  90
ATOM     90  C   UNL     1      10.400  -2.770  12.183  1.00  0.00     0.204 C 
BRANCH  90  91
ATOM     91  C   UNL     1      11.538  -3.291  12.986  1.00  0.00     0.123 A 
ATOM     92  C   UNL     1      12.853  -2.894  13.133  1.00  0.00     0.047 A 
ATOM     93  O   UNL     1      11.294  -4.383  13.765  1.00  0.00    -0.467 OA
ATOM     94  C   UNL     1      13.448  -3.804  14.036  1.00  0.00     0.042 A 
ATOM     95  C   UNL     1      12.457  -4.686  14.398  1.00  0.00     0.195 A 
ENDBRANCH  90  91
ENDBRANCH  88  90
ENDBRANCH  76  79
ENDBRANCH  70  75
ENDBRANCH  65  68
ENDBRANCH   1  64
TORSDOF 14
