REMARK SMILES CC(C)C[C@H](NC(=O)[C@H]1CCCCC[C@H]1[NH3+])C(=O)NCCCNC(=O)c1ccc(-c2c3nc(c(-c4c(F)cccc4F)c4ccc([nH]4)c(-c4c(F)cccc4F)c4nc(c(-c5c(F)cccc5F)c5ccc2[nH]5)C=C4)C=C3)cc1
REMARK SMILES IDX 17 1 18 2 19 3 5 5 4 6 2 7 1 8 3 9 6 10 7 11 8 13 9 14 10 15
REMARK SMILES IDX 11 16 15 18 14 19 13 20 12 21 16 23 20 27 21 28 22 29 23 30
REMARK SMILES IDX 24 31 25 33 26 34 27 35 79 36 28 37 78 38 29 39 30 40 31 41
REMARK SMILES IDX 72 42 32 43 77 44 71 45 73 46 33 47 76 48 70 49 69 50 34 52
REMARK SMILES IDX 60 53 43 54 59 55 44 56 47 57 58 58 74 59 45 60 46 61 57 63
REMARK SMILES IDX 75 64 48 65 35 66 36 67 41 68 37 69 38 70 40 71 42 72 39 73
REMARK SMILES IDX 61 74 62 75 67 76 63 77 64 78 66 79 68 80 65 81 49 82 50 83
REMARK SMILES IDX 55 84 51 85 52 86 54 87 56 88 53 89
REMARK H PARENT 19 4 6 12 16 24 16 25 16 26 23 32 73 51 47 62
REMARK Flexibility Score: 90.00
ROOT
ATOM      1  C   UNL     1      -1.259  -6.195   0.233  1.00  0.00     0.242 C 
ATOM      2  O   UNL     1      -1.308  -6.722  -0.885  1.00  0.00    -0.273 OA
ATOM      3  N   UNL     1      -0.927  -7.035   1.269  1.00  0.00    -0.354 N 
ATOM      4  H   UNL     1      -1.182  -7.980   1.161  1.00  0.00     0.163 HD
ENDROOT
BRANCH   1   5
ATOM      5  C   UNL     1      -1.660  -4.669   0.405  1.00  0.00     0.171 C 
BRANCH   5   6
ATOM      6  C   UNL     1      -1.430  -3.735  -0.929  1.00  0.00     0.038 C 
BRANCH   6   7
ATOM      7  C   UNL     1      -0.059  -3.196  -1.524  1.00  0.00    -0.015 C 
ATOM      8  C   UNL     1       0.735  -4.215  -2.346  1.00  0.00     0.007 C 
ATOM      9  C   UNL     1      -0.186  -1.897  -2.346  1.00  0.00     0.007 C 
ENDBRANCH   6   7
ENDBRANCH   5   6
BRANCH   5  10
ATOM     10  N   UNL     1      -1.979  -4.153   1.835  1.00  0.00    -0.344 N 
ATOM     11  C   UNL     1      -1.455  -3.602   2.988  1.00  0.00     0.229 C 
ATOM     12  H   UNL     1      -2.947  -4.264   1.978  1.00  0.00     0.164 HD
ATOM     13  O   UNL     1      -2.050  -3.926   4.027  1.00  0.00    -0.275 OA
BRANCH  11  14
ATOM     14  C   UNL     1      -0.298  -2.567   3.103  1.00  0.00     0.136 C 
BRANCH  14  15
ATOM     15  C   UNL     1       0.758  -2.757   4.220  1.00  0.00     0.020 C 
BRANCH  15  16
ATOM     16  C   UNL     1       1.628  -4.016   4.216  1.00  0.00     0.001 CG0
ATOM     17  G   UNL     1       2.754  -4.130   3.176  1.00  0.00     0.000 G0
ENDBRANCH  15  16
ENDBRANCH  14  15
BRANCH  14  18
ATOM     18  C   UNL     1       0.396  -2.329   1.786  1.00  0.00     0.193 C 
BRANCH  18  19
ATOM     19  C   UNL     1       0.993  -3.702   1.405  1.00  0.00     0.066 C 
BRANCH  19  20
ATOM     20  C   UNL     1       2.459  -3.852   1.708  1.00  0.00     0.006 C 
BRANCH  20  21
ATOM     21  C   UNL     1       2.754  -4.130   3.176  1.00  0.00     0.000 CG0
ATOM     22  G   UNL     1       1.628  -4.016   4.216  1.00  0.00     0.000 G0
ENDBRANCH  20  21
ENDBRANCH  19  20
ENDBRANCH  18  19
BRANCH  18  23
ATOM     23  N   UNL     1      -0.634  -1.619   1.032  1.00  0.00    -0.354 N 
ATOM     24  H   UNL     1      -1.511  -2.136   1.086  1.00  0.00     0.344 HD
ATOM     25  H   UNL     1      -0.346  -1.538   0.057  1.00  0.00     0.344 HD
ATOM     26  H   UNL     1      -0.763  -0.688   1.428  1.00  0.00     0.344 HD
ENDBRANCH  18  23
ENDBRANCH  14  18
ENDBRANCH  11  14
ENDBRANCH   5  10
ENDBRANCH   1   5
BRANCH   3  27
ATOM     27  C   UNL     1      -0.248  -6.695   2.497  1.00  0.00     0.117 C 
BRANCH  27  28
ATOM     28  C   UNL     1       0.056  -7.801   3.491  1.00  0.00     0.042 C 
BRANCH  28  29
ATOM     29  C   UNL     1       1.149  -8.759   3.038  1.00  0.00     0.118 C 
BRANCH  29  30
ATOM     30  N   UNL     1       2.440  -8.135   2.725  1.00  0.00    -0.352 N 
ATOM     31  C   UNL     1       3.634  -7.992   3.390  1.00  0.00     0.251 C 
ATOM     32  H   UNL     1       2.454  -7.724   1.831  1.00  0.00     0.163 HD
ATOM     33  O   UNL     1       4.542  -7.361   2.833  1.00  0.00    -0.269 OA
BRANCH  31  34
ATOM     34  C   UNL     1       3.868  -8.514   4.754  1.00  0.00     0.039 A 
ATOM     35  C   UNL     1       4.770  -7.863   5.608  1.00  0.00     0.014 A 
ATOM     36  C   UNL     1       3.236  -9.662   5.207  1.00  0.00     0.014 A 
ATOM     37  C   UNL     1       4.960  -8.325   6.918  1.00  0.00     0.010 A 
ATOM     38  C   UNL     1       3.280 -10.006   6.550  1.00  0.00     0.010 A 
ATOM     39  C   UNL     1       4.175  -9.374   7.419  1.00  0.00    -0.014 A 
BRANCH  39  40
ATOM     40  C   UNL     1       4.289  -9.882   8.813  1.00  0.00     0.031 A 
ATOM     41  C   UNL     1       4.521 -11.356   9.062  1.00  0.00     0.074 A 
ATOM     42  C   UNL     1       4.076  -9.051   9.853  1.00  0.00     0.049 A 
ATOM     43  N   UNL     1       4.494 -12.025  10.188  1.00  0.00    -0.248 NA
ATOM     44  C   UNL     1       4.749 -12.205   7.878  1.00  0.00     0.031 C 
ATOM     45  C   UNL     1       3.758  -7.625   9.753  1.00  0.00     0.029 A 
ATOM     46  N   UNL     1       4.084  -9.292  11.204  1.00  0.00    -0.354 N 
ATOM     47  C   UNL     1       4.649 -13.362   9.837  1.00  0.00     0.074 A 
ATOM     48  C   UNL     1       4.681 -13.421   8.395  1.00  0.00     0.031 C 
ATOM     49  C   UNL     1       3.651  -7.108  10.987  1.00  0.00     0.029 A 
ATOM     50  C   UNL     1       3.844  -8.173  11.965  1.00  0.00     0.049 A 
ATOM     51  H   UNL     1       4.247 -10.182  11.592  1.00  0.00     0.167 HD
ATOM     52  C   UNL     1       4.798 -14.443  10.640  1.00  0.00     0.037 A 
ATOM     53  C   UNL     1       3.789  -8.024  13.302  1.00  0.00     0.037 A 
ATOM     54  C   UNL     1       4.838 -14.369  12.075  1.00  0.00     0.049 A 
ATOM     55  C   UNL     1       4.020  -9.225  14.175  1.00  0.00     0.074 A 
ATOM     56  C   UNL     1       5.069 -15.383  12.988  1.00  0.00     0.029 A 
ATOM     57  N   UNL     1       4.657 -13.204  12.806  1.00  0.00    -0.354 N 
ATOM     58  N   UNL     1       4.236 -10.472  13.830  1.00  0.00    -0.248 NA
ATOM     59  C   UNL     1       4.014  -8.995  15.625  1.00  0.00     0.031 C 
ATOM     60  C   UNL     1       4.987 -14.838  14.274  1.00  0.00     0.029 A 
ATOM     61  C   UNL     1       4.760 -13.475  14.160  1.00  0.00     0.049 A 
ATOM     62  H   UNL     1       4.481 -12.316  12.419  1.00  0.00     0.167 HD
ATOM     63  C   UNL     1       4.422 -11.169  15.017  1.00  0.00     0.074 A 
ATOM     64  C   UNL     1       4.316 -10.199  16.088  1.00  0.00     0.031 C 
ATOM     65  C   UNL     1       4.655 -12.492  15.207  1.00  0.00     0.037 A 
BRANCH  52  66
ATOM     66  C   UNL     1       4.956 -15.786   9.979  1.00  0.00     0.057 A 
ATOM     67  C   UNL     1       6.083 -16.109   9.209  1.00  0.00     0.134 A 
ATOM     68  C   UNL     1       3.977 -16.777  10.126  1.00  0.00     0.134 A 
ATOM     69  F   UNL     1       7.055 -15.205   9.014  1.00  0.00    -0.206 F 
ATOM     70  C   UNL     1       6.211 -17.348   8.578  1.00  0.00     0.040 A 
ATOM     71  C   UNL     1       4.110 -18.033   9.529  1.00  0.00     0.040 A 
ATOM     72  F   UNL     1       2.874 -16.544  10.854  1.00  0.00    -0.206 F 
ATOM     73  C   UNL     1       5.225 -18.318   8.743  1.00  0.00     0.006 A 
ENDBRANCH  52  66
BRANCH  53  74
ATOM     74  C   UNL     1       3.562  -6.680  13.895  1.00  0.00     0.057 A 
ATOM     75  C   UNL     1       4.587  -6.015  14.580  1.00  0.00     0.134 A 
ATOM     76  C   UNL     1       2.328  -6.028  13.795  1.00  0.00     0.134 A 
ATOM     77  F   UNL     1       5.789  -6.593  14.723  1.00  0.00    -0.206 F 
ATOM     78  C   UNL     1       4.386  -4.764  15.166  1.00  0.00     0.040 A 
ATOM     79  C   UNL     1       2.122  -4.764  14.351  1.00  0.00     0.040 A 
ATOM     80  F   UNL     1       1.309  -6.603  13.140  1.00  0.00    -0.206 F 
ATOM     81  C   UNL     1       3.150  -4.133  15.047  1.00  0.00     0.006 A 
ENDBRANCH  53  74
BRANCH  65  82
ATOM     82  C   UNL     1       4.854 -12.948  16.623  1.00  0.00     0.057 A 
ATOM     83  C   UNL     1       3.804 -12.972  17.550  1.00  0.00     0.134 A 
ATOM     84  C   UNL     1       6.114 -13.376  17.061  1.00  0.00     0.134 A 
ATOM     85  F   UNL     1       2.575 -12.566  17.197  1.00  0.00    -0.206 F 
ATOM     86  C   UNL     1       4.009 -13.364  18.873  1.00  0.00     0.040 A 
ATOM     87  C   UNL     1       6.324 -13.802  18.372  1.00  0.00     0.040 A 
ATOM     88  F   UNL     1       7.159 -13.392  16.221  1.00  0.00    -0.206 F 
ATOM     89  C   UNL     1       5.272 -13.785  19.286  1.00  0.00     0.006 A 
ENDBRANCH  65  82
ENDBRANCH  39  40
ENDBRANCH  31  34
ENDBRANCH  29  30
ENDBRANCH  28  29
ENDBRANCH  27  28
ENDBRANCH   3  27
TORSDOF 15
