REMARK SMILES Cc1oc(-c2ccc(Cl)cc2[N+](=O)[O-])cc1C(=O)NCCCNC(=O)c1ccc(-c2c3nc(c(-c4c(F)cccc4F)c4ccc([nH]4)c(-c4c(F)cccc4F)c4nc(c(-c5c(F)cccc5F)c5ccc2[nH]5)C=C4)C=C3)cc1
REMARK SMILES IDX 21 1 20 2 19 3 17 4 18 5 16 7 1 8 2 9 3 10 4 11 15 12 5 13
REMARK SMILES IDX 6 14 11 15 7 16 10 17 8 18 9 19 12 20 13 21 14 22 22 23
REMARK SMILES IDX 23 24 24 25 25 27 26 28 27 29 79 30 28 31 78 32 29 33 30 34
REMARK SMILES IDX 31 35 72 36 32 37 77 38 71 39 73 40 33 41 76 42 70 43 69 44
REMARK SMILES IDX 34 46 60 47 43 48 59 49 44 50 47 51 58 52 74 53 45 54 46 55
REMARK SMILES IDX 57 57 75 58 48 59 35 60 36 61 41 62 37 63 38 64 40 65 42 66
REMARK SMILES IDX 39 67 61 68 62 69 67 70 63 71 64 72 66 73 68 74 65 75 49 76
REMARK SMILES IDX 50 77 55 78 51 79 52 80 54 81 56 82 53 83
REMARK H PARENT 19 6 23 26 73 45 47 56
REMARK Flexibility Score: inf
ROOT
ATOM      1  C   UNL     1       3.579  -2.418   0.650  1.00  0.00     0.042 C 
ENDROOT
BRANCH   1   2
ATOM      2  C   UNL     1       2.641  -2.471  -0.554  1.00  0.00     0.118 C 
BRANCH   2   3
ATOM      3  N   UNL     1       1.365  -3.021  -0.172  1.00  0.00    -0.352 N 
ATOM      4  C   UNL     1       0.161  -2.466   0.147  1.00  0.00     0.254 C 
ATOM      5  O   UNL     1      -0.720  -3.284   0.438  1.00  0.00    -0.269 OA
ATOM      6  H   UNL     1       1.361  -4.004  -0.133  1.00  0.00     0.163 HD
BRANCH   4   7
ATOM      7  C   UNL     1      -0.161  -1.042   0.109  1.00  0.00     0.081 A 
ATOM      8  C   UNL     1       1.956   0.604   0.302  1.00  0.00     0.088 C 
ATOM      9  C   UNL     1       0.557   0.151   0.159  1.00  0.00     0.114 A 
ATOM     10  O   UNL     1      -0.296   1.220   0.076  1.00  0.00    -0.460 OA
ATOM     11  C   UNL     1      -1.558   0.746   0.013  1.00  0.00     0.142 A 
ATOM     12  C   UNL     1      -1.539  -0.621   0.055  1.00  0.00     0.065 A 
BRANCH  11  13
ATOM     13  C   UNL     1      -2.604   1.745  -0.039  1.00  0.00     0.095 A 
ATOM     14  C   UNL     1      -3.539   1.778   1.008  1.00  0.00     0.021 A 
ATOM     15  C   UNL     1      -2.719   2.699  -1.062  1.00  0.00     0.281 A 
ATOM     16  C   UNL     1      -4.553   2.740   1.031  1.00  0.00     0.022 A 
ATOM     17  C   UNL     1      -3.734   3.668  -1.048  1.00  0.00     0.107 A 
ATOM     18  C   UNL     1      -4.645   3.678   0.004  1.00  0.00     0.047 A 
ATOM     19  Cl  UNL     1      -5.899   4.854   0.036  1.00  0.00    -0.084 Cl
BRANCH  15  20
ATOM     20  N   UNL     1      -1.809   2.700  -2.203  1.00  0.00     0.063 N 
ATOM     21  O   UNL     1      -1.387   3.803  -2.581  1.00  0.00    -0.258 OA
ATOM     22  O   UNL     1      -1.575   1.620  -2.761  1.00  0.00    -0.258 OA
ENDBRANCH  15  20
ENDBRANCH  11  13
ENDBRANCH   4   7
ENDBRANCH   2   3
ENDBRANCH   1   2
BRANCH   1  23
ATOM     23  C   UNL     1       4.178  -3.770   1.019  1.00  0.00     0.118 C 
BRANCH  23  24
ATOM     24  N   UNL     1       5.144  -4.220   0.028  1.00  0.00    -0.352 N 
ATOM     25  C   UNL     1       6.484  -4.476   0.158  1.00  0.00     0.251 C 
ATOM     26  H   UNL     1       4.778  -4.364  -0.874  1.00  0.00     0.163 HD
ATOM     27  O   UNL     1       7.173  -4.601  -0.854  1.00  0.00    -0.269 OA
BRANCH  25  28
ATOM     28  C   UNL     1       7.111  -4.598   1.491  1.00  0.00     0.039 A 
ATOM     29  C   UNL     1       8.402  -4.093   1.676  1.00  0.00     0.014 A 
ATOM     30  C   UNL     1       6.465  -5.257   2.541  1.00  0.00     0.014 A 
ATOM     31  C   UNL     1       9.024  -4.209   2.920  1.00  0.00     0.010 A 
ATOM     32  C   UNL     1       7.053  -5.303   3.802  1.00  0.00     0.010 A 
ATOM     33  C   UNL     1       8.344  -4.792   4.001  1.00  0.00    -0.014 A 
BRANCH  33  34
ATOM     34  C   UNL     1       8.973  -4.889   5.342  1.00  0.00     0.031 A 
ATOM     35  C   UNL     1       9.268  -6.235   5.944  1.00  0.00     0.074 A 
ATOM     36  C   UNL     1       9.221  -3.765   6.041  1.00  0.00     0.049 A 
ATOM     37  N   UNL     1       9.749  -6.525   7.126  1.00  0.00    -0.248 NA
ATOM     38  C   UNL     1       8.956  -7.413   5.119  1.00  0.00     0.031 C 
ATOM     39  C   UNL     1       8.936  -2.403   5.583  1.00  0.00     0.029 A 
ATOM     40  N   UNL     1       9.761  -3.589   7.290  1.00  0.00    -0.354 N 
ATOM     41  C   UNL     1       9.781  -7.912   7.192  1.00  0.00     0.074 A 
ATOM     42  C   UNL     1       9.223  -8.407   5.952  1.00  0.00     0.031 C 
ATOM     43  C   UNL     1       9.323  -1.532   6.528  1.00  0.00     0.029 A 
ATOM     44  C   UNL     1       9.847  -2.272   7.671  1.00  0.00     0.049 A 
ATOM     45  H   UNL     1      10.057  -4.335   7.859  1.00  0.00     0.167 HD
ATOM     46  C   UNL     1      10.253  -8.702   8.185  1.00  0.00     0.037 A 
ATOM     47  C   UNL     1      10.294  -1.724   8.816  1.00  0.00     0.037 A 
ATOM     48  C   UNL     1      10.832  -8.204   9.406  1.00  0.00     0.049 A 
ATOM     49  C   UNL     1      10.815  -2.621   9.903  1.00  0.00     0.074 A 
ATOM     50  C   UNL     1      11.395  -8.919  10.449  1.00  0.00     0.029 A 
ATOM     51  N   UNL     1      10.923  -6.862   9.746  1.00  0.00    -0.354 N 
ATOM     52  N   UNL     1      10.899  -3.930   9.925  1.00  0.00    -0.248 NA
ATOM     53  C   UNL     1      11.311  -1.966  11.121  1.00  0.00     0.031 C 
ATOM     54  C   UNL     1      11.787  -8.012  11.439  1.00  0.00     0.029 A 
ATOM     55  C   UNL     1      11.513  -6.729  10.991  1.00  0.00     0.049 A 
ATOM     56  H   UNL     1      10.613  -6.115   9.184  1.00  0.00     0.167 HD
ATOM     57  C   UNL     1      11.480  -4.253  11.144  1.00  0.00     0.074 A 
ATOM     58  C   UNL     1      11.742  -3.003  11.826  1.00  0.00     0.031 C 
ATOM     59  C   UNL     1      11.771  -5.476  11.652  1.00  0.00     0.037 A 
BRANCH  46  60
ATOM     60  C   UNL     1      10.166 -10.189   7.990  1.00  0.00     0.057 A 
ATOM     61  C   UNL     1      10.962 -10.859   7.051  1.00  0.00     0.134 A 
ATOM     62  C   UNL     1       9.299 -10.964   8.770  1.00  0.00     0.134 A 
ATOM     63  F   UNL     1      11.806 -10.175   6.264  1.00  0.00    -0.206 F 
ATOM     64  C   UNL     1      10.878 -12.242   6.876  1.00  0.00     0.040 A 
ATOM     65  C   UNL     1       9.226 -12.351   8.623  1.00  0.00     0.040 A 
ATOM     66  F   UNL     1       8.513 -10.389   9.692  1.00  0.00    -0.206 F 
ATOM     67  C   UNL     1      10.013 -12.992   7.668  1.00  0.00     0.006 A 
ENDBRANCH  46  60
BRANCH  47  68
ATOM     68  C   UNL     1      10.290  -0.249   8.984  1.00  0.00     0.057 A 
ATOM     69  C   UNL     1      11.487   0.478   9.003  1.00  0.00     0.134 A 
ATOM     70  C   UNL     1       9.097   0.469   9.128  1.00  0.00     0.134 A 
ATOM     71  F   UNL     1      12.663  -0.156   8.886  1.00  0.00    -0.206 F 
ATOM     72  C   UNL     1      11.499   1.862   9.181  1.00  0.00     0.040 A 
ATOM     73  C   UNL     1       9.094   1.857   9.281  1.00  0.00     0.040 A 
ATOM     74  F   UNL     1       7.917  -0.167   9.108  1.00  0.00    -0.206 F 
ATOM     75  C   UNL     1      10.299   2.556   9.315  1.00  0.00     0.006 A 
ENDBRANCH  47  68
BRANCH  59  76
ATOM     76  C   UNL     1      12.437  -5.516  12.996  1.00  0.00     0.057 A 
ATOM     77  C   UNL     1      11.743  -5.214  14.175  1.00  0.00     0.134 A 
ATOM     78  C   UNL     1      13.780  -5.897  13.114  1.00  0.00     0.134 A 
ATOM     79  F   UNL     1      10.459  -4.830  14.129  1.00  0.00    -0.206 F 
ATOM     80  C   UNL     1      12.369  -5.267  15.422  1.00  0.00     0.040 A 
ATOM     81  C   UNL     1      14.408  -5.980  14.357  1.00  0.00     0.040 A 
ATOM     82  F   UNL     1      14.498  -6.207  12.024  1.00  0.00    -0.206 F 
ATOM     83  C   UNL     1      13.703  -5.657  15.515  1.00  0.00     0.006 A 
ENDBRANCH  59  76
ENDBRANCH  33  34
ENDBRANCH  25  28
ENDBRANCH  23  24
ENDBRANCH   1  23
TORSDOF 12
