REMARK SMILES CCOC(=O)c1c(NC(=O)[C@H]2CCCC[C@@H]2C(=O)NCCCNC(=O)c2ccc(-c3c4nc(c(-c5c(F)cccc5F)c5ccc([nH]5)c(-c5c(F)cccc5F)c5nc(c(-c6c(F)cccc6F)c6ccc3[nH]6)C=C5)C=C4)cc2)sc2c1CC[C@H](C)C2
REMARK SMILES IDX 17 1 18 2 19 3 16 5 11 6 12 7 13 8 15 9 14 10 9 11 8 12
REMARK SMILES IDX 10 14 7 15 6 16 82 17 80 18 81 19 83 20 87 21 84 22 85 23
REMARK SMILES IDX 86 24 4 25 5 26 3 27 2 28 1 29 20 30 21 31 22 32 23 33 24 34
REMARK SMILES IDX 25 36 26 37 27 38 79 39 28 40 78 41 29 42 30 43 31 44 72 45
REMARK SMILES IDX 32 46 77 47 71 48 73 49 33 50 76 51 70 52 69 53 34 55 60 56
REMARK SMILES IDX 43 57 59 58 44 59 47 60 58 61 74 62 45 63 46 64 57 66 75 67
REMARK SMILES IDX 48 68 35 69 36 70 41 71 37 72 38 73 40 74 42 75 39 76 61 77
REMARK SMILES IDX 62 78 67 79 63 80 64 81 66 82 68 83 65 84 49 85 50 86 55 87
REMARK SMILES IDX 51 88 52 89 54 90 56 91 53 92
REMARK H PARENT 19 4 8 13 23 35 73 54 47 65
REMARK Flexibility Score: inf
ROOT
ATOM      1  C   UNL     1       1.629   2.087  -5.549  1.00  0.00     0.223 C 
ATOM      2  O   UNL     1       1.808   1.713  -6.715  1.00  0.00    -0.275 OA
ATOM      3  N   UNL     1       0.822   3.217  -5.403  1.00  0.00    -0.356 N 
ATOM      4  H   UNL     1       0.794   3.740  -6.237  1.00  0.00     0.163 HD
ENDROOT
BRANCH   1   5
ATOM      5  C   UNL     1       2.352   1.322  -4.360  1.00  0.00     0.091 C 
ATOM      6  C   UNL     1       2.382  -0.259  -4.279  1.00  0.00     0.091 C 
ATOM      7  C   UNL     1       1.188  -0.850  -4.942  1.00  0.00     0.014 C 
ATOM      8  C   UNL     1       0.029  -0.316  -4.164  1.00  0.00     0.001 C 
ATOM      9  C   UNL     1       1.594   1.662  -3.151  1.00  0.00     0.014 C 
ATOM     10  C   UNL     1       0.206   1.057  -3.439  1.00  0.00     0.001 C 
BRANCH   6  11
ATOM     11  C   UNL     1       2.477  -0.975  -2.836  1.00  0.00     0.228 C 
ATOM     12  N   UNL     1       1.661  -1.065  -1.721  1.00  0.00    -0.317 N 
ATOM     13  H   UNL     1       2.151  -1.662  -1.111  1.00  0.00     0.170 HD
ATOM     14  O   UNL     1       3.572  -1.549  -2.638  1.00  0.00    -0.274 OA
BRANCH  12  15
ATOM     15  C   UNL     1       0.469  -0.734  -1.005  1.00  0.00     0.110 A 
ATOM     16  C   UNL     1      -0.895  -0.289  -0.984  1.00  0.00     0.098 A 
ATOM     17  C   UNL     1      -1.160   0.387   0.302  1.00  0.00    -0.017 A 
ATOM     18  S   UNL     1       0.974  -0.925   0.680  1.00  0.00    -0.122 S 
ATOM     19  C   UNL     1      -0.236   0.088   1.270  1.00  0.00     0.011 A 
ATOM     20  C   UNL     1      -2.339   1.296   0.591  1.00  0.00     0.038 C 
ATOM     21  C   UNL     1      -0.287   0.592   2.687  1.00  0.00     0.050 C 
ATOM     22  C   UNL     1      -2.275   1.970   1.965  1.00  0.00     0.008 C 
ATOM     23  C   UNL     1      -1.733   1.017   3.041  1.00  0.00    -0.009 C 
ATOM     24  C   UNL     1      -1.817   1.675   4.414  1.00  0.00     0.008 C 
BRANCH  16  25
ATOM     25  C   UNL     1      -1.974  -0.082  -2.021  1.00  0.00     0.341 C 
ATOM     26  O   UNL     1      -2.462   1.032  -2.218  1.00  0.00    -0.246 OA
BRANCH  25  27
ATOM     27  O   UNL     1      -2.403  -1.166  -2.736  1.00  0.00    -0.462 OA
BRANCH  27  28
ATOM     28  C   UNL     1      -3.046  -0.807  -3.988  1.00  0.00     0.230 C 
ATOM     29  C   UNL     1      -4.531  -0.514  -3.943  1.00  0.00     0.049 C 
ENDBRANCH  27  28
ENDBRANCH  25  27
ENDBRANCH  16  25
ENDBRANCH  12  15
ENDBRANCH   6  11
ENDBRANCH   1   5
BRANCH   3  30
ATOM     30  C   UNL     1      -0.019   3.867  -4.332  1.00  0.00     0.117 C 
BRANCH  30  31
ATOM     31  C   UNL     1       0.352   5.285  -3.922  1.00  0.00     0.042 C 
BRANCH  31  32
ATOM     32  C   UNL     1      -0.840   6.223  -4.068  1.00  0.00     0.118 C 
BRANCH  32  33
ATOM     33  N   UNL     1      -1.954   5.987  -3.136  1.00  0.00    -0.352 N 
ATOM     34  C   UNL     1      -3.231   6.548  -3.208  1.00  0.00     0.251 C 
ATOM     35  H   UNL     1      -1.782   5.372  -2.386  1.00  0.00     0.163 HD
ATOM     36  O   UNL     1      -3.993   6.576  -2.273  1.00  0.00    -0.269 OA
BRANCH  34  37
ATOM     37  C   UNL     1      -3.609   7.117  -4.518  1.00  0.00     0.039 A 
ATOM     38  C   UNL     1      -3.821   8.489  -4.670  1.00  0.00     0.014 A 
ATOM     39  C   UNL     1      -3.441   6.278  -5.610  1.00  0.00     0.014 A 
ATOM     40  C   UNL     1      -3.704   9.043  -5.946  1.00  0.00     0.010 A 
ATOM     41  C   UNL     1      -3.157   6.856  -6.825  1.00  0.00     0.010 A 
ATOM     42  C   UNL     1      -3.304   8.233  -7.021  1.00  0.00    -0.014 A 
BRANCH  42  43
ATOM     43  C   UNL     1      -2.917   8.829  -8.306  1.00  0.00     0.031 A 
ATOM     44  C   UNL     1      -2.017  10.032  -8.275  1.00  0.00     0.074 A 
ATOM     45  C   UNL     1      -3.128   8.224  -9.496  1.00  0.00     0.049 A 
ATOM     46  N   UNL     1      -2.248  11.213  -8.755  1.00  0.00    -0.248 NA
ATOM     47  C   UNL     1      -0.711   9.915  -7.607  1.00  0.00     0.031 C 
ATOM     48  C   UNL     1      -3.701   6.901  -9.774  1.00  0.00     0.029 A 
ATOM     49  N   UNL     1      -2.747   8.646 -10.733  1.00  0.00    -0.354 N 
ATOM     50  C   UNL     1      -1.073  11.949  -8.595  1.00  0.00     0.074 A 
ATOM     51  C   UNL     1      -0.197  11.135  -7.790  1.00  0.00     0.031 C 
ATOM     52  C   UNL     1      -3.397   6.530 -11.034  1.00  0.00     0.029 A 
ATOM     53  C   UNL     1      -2.803   7.666 -11.709  1.00  0.00     0.049 A 
ATOM     54  H   UNL     1      -2.457   9.569 -10.918  1.00  0.00     0.167 HD
ATOM     55  C   UNL     1      -0.837  13.110  -9.273  1.00  0.00     0.037 A 
ATOM     56  C   UNL     1      -2.394   7.764 -12.993  1.00  0.00     0.037 A 
ATOM     57  C   UNL     1      -2.042  13.656  -9.838  1.00  0.00     0.049 A 
ATOM     58  C   UNL     1      -2.352   9.204 -13.337  1.00  0.00     0.074 A 
ATOM     59  C   UNL     1      -3.256  14.070  -9.323  1.00  0.00     0.029 A 
ATOM     60  N   UNL     1      -2.254  13.520 -11.188  1.00  0.00    -0.354 N 
ATOM     61  N   UNL     1      -3.409   9.963 -13.426  1.00  0.00    -0.248 NA
ATOM     62  C   UNL     1      -1.092   9.907 -13.162  1.00  0.00     0.031 C 
ATOM     63  C   UNL     1      -4.223  13.629 -10.274  1.00  0.00     0.029 A 
ATOM     64  C   UNL     1      -3.528  13.029 -11.326  1.00  0.00     0.049 A 
ATOM     65  H   UNL     1      -1.620  13.733 -11.911  1.00  0.00     0.167 HD
ATOM     66  C   UNL     1      -3.015  11.184 -12.900  1.00  0.00     0.074 A 
ATOM     67  C   UNL     1      -1.555  11.121 -12.857  1.00  0.00     0.031 C 
ATOM     68  C   UNL     1      -3.905  12.023 -12.292  1.00  0.00     0.037 A 
BRANCH  55  69
ATOM     69  C   UNL     1       0.526  13.620  -9.668  1.00  0.00     0.057 A 
ATOM     70  C   UNL     1       0.686  14.943 -10.123  1.00  0.00     0.134 A 
ATOM     71  C   UNL     1       1.637  12.779  -9.876  1.00  0.00     0.134 A 
ATOM     72  F   UNL     1      -0.312  15.833 -10.016  1.00  0.00    -0.206 F 
ATOM     73  C   UNL     1       1.849  15.383 -10.770  1.00  0.00     0.040 A 
ATOM     74  C   UNL     1       2.821  13.220 -10.476  1.00  0.00     0.040 A 
ATOM     75  F   UNL     1       1.594  11.470  -9.597  1.00  0.00    -0.206 F 
ATOM     76  C   UNL     1       2.922  14.519 -10.949  1.00  0.00     0.006 A 
ENDBRANCH  55  69
BRANCH  56  77
ATOM     77  C   UNL     1      -1.830   6.699 -13.844  1.00  0.00     0.057 A 
ATOM     78  C   UNL     1      -1.803   6.815 -15.237  1.00  0.00     0.134 A 
ATOM     79  C   UNL     1      -1.080   5.643 -13.292  1.00  0.00     0.134 A 
ATOM     80  F   UNL     1      -2.457   7.812 -15.849  1.00  0.00    -0.206 F 
ATOM     81  C   UNL     1      -1.058   5.941 -16.039  1.00  0.00     0.040 A 
ATOM     82  C   UNL     1      -0.339   4.759 -14.080  1.00  0.00     0.040 A 
ATOM     83  F   UNL     1      -0.977   5.486 -11.963  1.00  0.00    -0.206 F 
ATOM     84  C   UNL     1      -0.316   4.915 -15.460  1.00  0.00     0.006 A 
ENDBRANCH  56  77
BRANCH  68  85
ATOM     85  C   UNL     1      -5.375  11.710 -12.399  1.00  0.00     0.057 A 
ATOM     86  C   UNL     1      -5.967  10.544 -11.890  1.00  0.00     0.134 A 
ATOM     87  C   UNL     1      -6.246  12.695 -12.879  1.00  0.00     0.134 A 
ATOM     88  F   UNL     1      -5.233   9.589 -11.310  1.00  0.00    -0.206 F 
ATOM     89  C   UNL     1      -7.351  10.348 -11.898  1.00  0.00     0.040 A 
ATOM     90  C   UNL     1      -7.634  12.526 -12.862  1.00  0.00     0.040 A 
ATOM     91  F   UNL     1      -5.764  13.866 -13.325  1.00  0.00    -0.206 F 
ATOM     92  C   UNL     1      -8.191  11.345 -12.379  1.00  0.00     0.006 A 
ENDBRANCH  68  85
ENDBRANCH  42  43
ENDBRANCH  34  37
ENDBRANCH  32  33
ENDBRANCH  31  32
ENDBRANCH  30  31
ENDBRANCH   3  30
TORSDOF 15
