REMARK SMILES O=C(C[C@@H](C(=O)N(c1ccccc1)c1ccccc1)[NH+]1CCOCC1)NCCCNC(=O)c1ccc(-c2c3nc(c(-c4c(F)cccc4F)c4ccc([nH]4)c(-c4c(F)cccc4F)c4nc(c(-c5c(F)cccc5F)c5ccc2[nH]5)C=C4)C=C3)cc1
REMARK SMILES IDX 27 1 26 2 1 3 2 4 3 6 4 7 5 8 6 9 7 10 8 11 9 12 13 13 10 14
REMARK SMILES IDX 12 15 11 16 14 17 15 18 19 19 16 20 18 21 17 22 20 23 21 24
REMARK SMILES IDX 25 25 22 27 24 28 23 29 28 30 29 31 30 32 31 33 32 35 33 36
REMARK SMILES IDX 34 37 86 38 35 39 85 40 36 41 37 42 38 43 79 44 39 45 84 46
REMARK SMILES IDX 78 47 80 48 40 49 83 50 77 51 76 52 41 54 67 55 50 56 66 57
REMARK SMILES IDX 51 58 54 59 65 60 81 61 52 62 53 63 64 65 82 66 55 67 42 68
REMARK SMILES IDX 43 69 48 70 44 71 45 72 47 73 49 74 46 75 68 76 69 77 74 78
REMARK SMILES IDX 70 79 71 80 73 81 75 82 72 83 56 84 57 85 62 86 58 87 59 88
REMARK SMILES IDX 61 89 63 90 60 91
REMARK H PARENT 26 5 20 26 30 34 80 53 54 64
REMARK Flexibility Score: inf
ROOT
ATOM      1  C   UNL     1       1.848  -1.632   1.956  1.00  0.00     0.117 C 
ENDROOT
BRANCH   1   2
ATOM      2  N   UNL     1       2.836  -1.473   0.899  1.00  0.00    -0.356 N 
ATOM      3  O   UNL     1       1.317  -0.823  -0.701  1.00  0.00    -0.275 OA
ATOM      4  C   UNL     1       2.480  -0.991  -0.342  1.00  0.00     0.226 C 
ATOM      5  H   UNL     1       3.774  -1.714   1.074  1.00  0.00     0.163 HD
BRANCH   4   6
ATOM      6  C   UNL     1       3.631  -0.594  -1.239  1.00  0.00     0.175 C 
BRANCH   6   7
ATOM      7  C   UNL     1       3.784   0.948  -1.252  1.00  0.00     0.284 C 
BRANCH   7   8
ATOM      8  C   UNL     1       4.681   1.270  -0.019  1.00  0.00     0.290 C 
ATOM      9  O   UNL     1       5.907   1.109  -0.194  1.00  0.00    -0.267 OA
ATOM     10  N   UNL     1       4.209   1.607   1.264  1.00  0.00    -0.276 N 
BRANCH  10  11
ATOM     11  C   UNL     1       2.873   1.831   1.814  1.00  0.00     0.049 A 
ATOM     12  C   UNL     1       2.698   2.059   3.205  1.00  0.00     0.027 A 
ATOM     13  C   UNL     1       1.680   1.820   1.083  1.00  0.00     0.027 A 
ATOM     14  C   UNL     1       1.439   2.129   3.824  1.00  0.00     0.002 A 
ATOM     15  C   UNL     1       0.411   1.881   1.694  1.00  0.00     0.002 A 
ATOM     16  C   UNL     1       0.289   2.013   3.066  1.00  0.00     0.000 A 
ENDBRANCH  10  11
BRANCH  10  17
ATOM     17  C   UNL     1       5.263   1.600   2.251  1.00  0.00     0.049 A 
ATOM     18  C   UNL     1       5.432   0.478   3.075  1.00  0.00     0.027 A 
ATOM     19  C   UNL     1       6.192   2.644   2.314  1.00  0.00     0.027 A 
ATOM     20  C   UNL     1       6.488   0.419   3.983  1.00  0.00     0.002 A 
ATOM     21  C   UNL     1       7.254   2.577   3.220  1.00  0.00     0.002 A 
ATOM     22  C   UNL     1       7.398   1.469   4.056  1.00  0.00     0.000 A 
ENDBRANCH  10  17
ENDBRANCH   7   8
BRANCH   7  23
ATOM     23  N   UNL     1       4.478   1.488  -2.479  1.00  0.00    -0.320 N 
ATOM     24  C   UNL     1       4.520   2.977  -2.475  1.00  0.00     0.291 C 
ATOM     25  C   UNL     1       3.902   1.081  -3.777  1.00  0.00     0.291 C 
ATOM     26  H   UNL     1       5.407   1.073  -2.408  1.00  0.00     0.348 HD
ATOM     27  C   UNL     1       3.179   3.646  -2.843  1.00  0.00     0.221 C 
ATOM     28  C   UNL     1       2.549   1.737  -4.085  1.00  0.00     0.221 C 
ATOM     29  O   UNL     1       2.665   3.165  -4.091  1.00  0.00    -0.370 OA
ENDBRANCH   7  23
ENDBRANCH   6   7
ENDBRANCH   4   6
ENDBRANCH   1   2
BRANCH   1  30
ATOM     30  C   UNL     1       2.010  -2.889   2.801  1.00  0.00     0.042 C 
BRANCH  30  31
ATOM     31  C   UNL     1       3.290  -2.947   3.626  1.00  0.00     0.118 C 
BRANCH  31  32
ATOM     32  N   UNL     1       3.425  -1.901   4.631  1.00  0.00    -0.352 N 
ATOM     33  C   UNL     1       4.251  -1.858   5.737  1.00  0.00     0.251 C 
ATOM     34  H   UNL     1       2.847  -1.115   4.504  1.00  0.00     0.163 HD
ATOM     35  O   UNL     1       4.225  -0.882   6.478  1.00  0.00    -0.269 OA
BRANCH  33  36
ATOM     36  C   UNL     1       5.107  -3.022   6.079  1.00  0.00     0.039 A 
ATOM     37  C   UNL     1       5.141  -3.436   7.414  1.00  0.00     0.014 A 
ATOM     38  C   UNL     1       5.785  -3.760   5.108  1.00  0.00     0.014 A 
ATOM     39  C   UNL     1       5.702  -4.671   7.741  1.00  0.00     0.010 A 
ATOM     40  C   UNL     1       6.263  -5.030   5.415  1.00  0.00     0.010 A 
ATOM     41  C   UNL     1       6.173  -5.519   6.725  1.00  0.00    -0.014 A 
BRANCH  41  42
ATOM     42  C   UNL     1       6.412  -6.958   6.995  1.00  0.00     0.031 A 
ATOM     43  C   UNL     1       7.765  -7.579   6.822  1.00  0.00     0.074 A 
ATOM     44  C   UNL     1       5.350  -7.729   7.309  1.00  0.00     0.049 A 
ATOM     45  N   UNL     1       8.129  -8.821   7.015  1.00  0.00    -0.248 NA
ATOM     46  C   UNL     1       8.842  -6.703   6.340  1.00  0.00     0.031 C 
ATOM     47  C   UNL     1       3.962  -7.262   7.400  1.00  0.00     0.029 A 
ATOM     48  N   UNL     1       5.265  -9.066   7.606  1.00  0.00    -0.354 N 
ATOM     49  C   UNL     1       9.472  -8.879   6.673  1.00  0.00     0.074 A 
ATOM     50  C   UNL     1       9.847  -7.559   6.213  1.00  0.00     0.031 C 
ATOM     51  C   UNL     1       3.175  -8.282   7.773  1.00  0.00     0.029 A 
ATOM     52  C   UNL     1       3.992  -9.479   7.920  1.00  0.00     0.049 A 
ATOM     53  H   UNL     1       6.041  -9.671   7.595  1.00  0.00     0.167 HD
ATOM     54  C   UNL     1      10.320  -9.933   6.758  1.00  0.00     0.037 A 
ATOM     55  C   UNL     1       3.534 -10.687   8.297  1.00  0.00     0.037 A 
ATOM     56  C   UNL     1       9.944 -11.240   7.231  1.00  0.00     0.049 A 
ATOM     57  C   UNL     1       4.504 -11.822   8.437  1.00  0.00     0.074 A 
ATOM     58  C   UNL     1      10.744 -12.354   7.419  1.00  0.00     0.029 A 
ATOM     59  N   UNL     1       8.656 -11.609   7.589  1.00  0.00    -0.354 N 
ATOM     60  N   UNL     1       5.794 -11.836   8.207  1.00  0.00    -0.248 NA
ATOM     61  C   UNL     1       3.958 -13.105   8.900  1.00  0.00     0.031 C 
ATOM     62  C   UNL     1       9.934 -13.406   7.864  1.00  0.00     0.029 A 
ATOM     63  C   UNL     1       8.636 -12.937   7.985  1.00  0.00     0.049 A 
ATOM     64  H   UNL     1       7.871 -11.015   7.565  1.00  0.00     0.167 HD
ATOM     65  C   UNL     1       6.220 -13.120   8.515  1.00  0.00     0.074 A 
ATOM     66  C   UNL     1       5.052 -13.851   8.966  1.00  0.00     0.031 C 
ATOM     67  C   UNL     1       7.465 -13.646   8.431  1.00  0.00     0.037 A 
BRANCH  54  68
ATOM     68  C   UNL     1      11.743  -9.704   6.343  1.00  0.00     0.057 A 
ATOM     69  C   UNL     1      12.619  -8.936   7.121  1.00  0.00     0.134 A 
ATOM     70  C   UNL     1      12.252 -10.277   5.171  1.00  0.00     0.134 A 
ATOM     71  F   UNL     1      12.190  -8.350   8.249  1.00  0.00    -0.206 F 
ATOM     72  C   UNL     1      13.944  -8.724   6.736  1.00  0.00     0.040 A 
ATOM     73  C   UNL     1      13.582 -10.091   4.787  1.00  0.00     0.040 A 
ATOM     74  F   UNL     1      11.469 -11.028   4.383  1.00  0.00    -0.206 F 
ATOM     75  C   UNL     1      14.430  -9.308   5.567  1.00  0.00     0.006 A 
ENDBRANCH  54  68
BRANCH  55  76
ATOM     76  C   UNL     1       2.099 -10.863   8.627  1.00  0.00     0.057 A 
ATOM     77  C   UNL     1       1.682 -11.012   9.955  1.00  0.00     0.134 A 
ATOM     78  C   UNL     1       1.113 -10.874   7.635  1.00  0.00     0.134 A 
ATOM     79  F   UNL     1       2.584 -11.022  10.948  1.00  0.00    -0.206 F 
ATOM     80  C   UNL     1       0.337 -11.181  10.284  1.00  0.00     0.040 A 
ATOM     81  C   UNL     1      -0.238 -11.021   7.951  1.00  0.00     0.040 A 
ATOM     82  F   UNL     1       1.449 -10.722   6.345  1.00  0.00    -0.206 F 
ATOM     83  C   UNL     1      -0.628 -11.182   9.280  1.00  0.00     0.006 A 
ENDBRANCH  55  76
BRANCH  67  84
ATOM     84  C   UNL     1       7.625 -15.074   8.857  1.00  0.00     0.057 A 
ATOM     85  C   UNL     1       7.172 -16.134   8.062  1.00  0.00     0.134 A 
ATOM     86  C   UNL     1       8.254 -15.391  10.067  1.00  0.00     0.134 A 
ATOM     87  F   UNL     1       6.547 -15.893   6.900  1.00  0.00    -0.206 F 
ATOM     88  C   UNL     1       7.320 -17.461   8.466  1.00  0.00     0.040 A 
ATOM     89  C   UNL     1       8.427 -16.714  10.472  1.00  0.00     0.040 A 
ATOM     90  F   UNL     1       8.713 -14.420  10.871  1.00  0.00    -0.206 F 
ATOM     91  C   UNL     1       7.954 -17.754   9.673  1.00  0.00     0.006 A 
ENDBRANCH  67  84
ENDBRANCH  41  42
ENDBRANCH  33  36
ENDBRANCH  31  32
ENDBRANCH  30  31
ENDBRANCH   1  30
TORSDOF 15
