REMARK SMILES C[C@@H](C(=O)NCCCNC(=O)c1ccc(-c2c3nc(c(-c4c(F)cccc4F)c4ccc([nH]4)c(-c4c(F)cccc4F)c4nc(c(-c5c(F)cccc5F)c5ccc2[nH]5)C=C4)C=C3)cc1)c1ccc(-c2cccc(OC(=O)Nc3ccccc3)c2)c(F)c1
REMARK SMILES IDX 3 1 4 2 5 3 2 5 1 6 66 7 67 8 88 9 68 10 86 11 69 12 87 13
REMARK SMILES IDX 70 14 71 15 85 16 72 17 74 18 73 19 75 20 76 21 77 22 78 23
REMARK SMILES IDX 79 25 80 26 84 27 81 28 83 29 82 30 6 31 7 32 8 33 9 34
REMARK SMILES IDX 10 35 11 37 12 38 13 39 65 40 14 41 64 42 15 43 16 44 17 45
REMARK SMILES IDX 58 46 18 47 63 48 57 49 59 50 19 51 62 52 56 53 55 54 20 56
REMARK SMILES IDX 46 57 29 58 45 59 30 60 33 61 44 62 60 63 31 64 32 65 43 67
REMARK SMILES IDX 61 68 34 69 21 70 22 71 27 72 23 73 24 74 26 75 28 76 25 77
REMARK SMILES IDX 47 78 48 79 53 80 49 81 50 82 52 83 54 84 51 85 35 86 36 87
REMARK SMILES IDX 41 88 37 89 38 90 40 91 42 92 39 93
REMARK H PARENT 5 4 78 24 9 36 59 55 33 66
REMARK Flexibility Score: inf
ROOT
ATOM      1  C   UNL     1       1.155   1.514   2.062  1.00  0.00     0.227 C 
ATOM      2  O   UNL     1       0.561   2.506   2.489  1.00  0.00    -0.274 OA
ATOM      3  N   UNL     1       2.488   1.461   2.346  1.00  0.00    -0.356 N 
ATOM      4  H   UNL     1       2.813   2.195   2.915  1.00  0.00     0.163 HD
ENDROOT
BRANCH   1   5
ATOM      5  C   UNL     1       0.482   0.369   1.284  1.00  0.00     0.105 C 
ATOM      6  C   UNL     1       0.878   0.342  -0.192  1.00  0.00     0.023 C 
BRANCH   5   7
ATOM      7  C   UNL     1      -1.041   0.352   1.354  1.00  0.00    -0.033 A 
ATOM      8  C   UNL     1      -1.818   1.508   1.194  1.00  0.00     0.005 A 
ATOM      9  C   UNL     1      -1.704  -0.874   1.494  1.00  0.00     0.044 A 
ATOM     10  C   UNL     1      -3.215   1.452   1.246  1.00  0.00     0.012 A 
ATOM     11  C   UNL     1      -3.096  -0.925   1.517  1.00  0.00     0.131 A 
ATOM     12  C   UNL     1      -3.882   0.232   1.420  1.00  0.00     0.018 A 
ATOM     13  F   UNL     1      -3.673  -2.131   1.640  1.00  0.00    -0.206 F 
BRANCH  12  14
ATOM     14  C   UNL     1      -5.345   0.189   1.570  1.00  0.00    -0.012 A 
ATOM     15  C   UNL     1      -6.206   0.867   0.690  1.00  0.00     0.009 A 
ATOM     16  C   UNL     1      -5.911  -0.501   2.655  1.00  0.00     0.056 A 
ATOM     17  C   UNL     1      -7.589   0.858   0.892  1.00  0.00     0.004 A 
ATOM     18  C   UNL     1      -7.285  -0.494   2.865  1.00  0.00     0.133 A 
ATOM     19  C   UNL     1      -8.130   0.179   1.982  1.00  0.00     0.047 A 
BRANCH  18  20
ATOM     20  O   UNL     1      -7.923  -1.120   3.962  1.00  0.00    -0.410 OA
BRANCH  20  21
ATOM     21  C   UNL     1      -7.295  -1.641   5.094  1.00  0.00     0.417 C 
ATOM     22  O   UNL     1      -6.083  -1.726   5.271  1.00  0.00    -0.224 OA
ATOM     23  N   UNL     1      -8.145  -1.977   6.116  1.00  0.00    -0.291 N 
ATOM     24  H   UNL     1      -7.698  -2.212   6.962  1.00  0.00     0.173 HD
BRANCH  23  25
ATOM     25  C   UNL     1      -9.544  -2.041   6.154  1.00  0.00     0.044 A 
ATOM     26  C   UNL     1     -10.145  -1.982   7.416  1.00  0.00     0.026 A 
ATOM     27  C   UNL     1     -10.350  -2.190   5.024  1.00  0.00     0.026 A 
ATOM     28  C   UNL     1     -11.535  -2.020   7.543  1.00  0.00     0.002 A 
ATOM     29  C   UNL     1     -11.740  -2.247   5.152  1.00  0.00     0.002 A 
ATOM     30  C   UNL     1     -12.332  -2.151   6.409  1.00  0.00     0.000 A 
ENDBRANCH  23  25
ENDBRANCH  20  21
ENDBRANCH  18  20
ENDBRANCH  12  14
ENDBRANCH   5   7
ENDBRANCH   1   5
BRANCH   3  31
ATOM     31  C   UNL     1       3.507   0.509   1.953  1.00  0.00     0.117 C 
BRANCH  31  32
ATOM     32  C   UNL     1       4.377   1.049   0.821  1.00  0.00     0.042 C 
BRANCH  32  33
ATOM     33  C   UNL     1       5.077   2.365   1.140  1.00  0.00     0.118 C 
BRANCH  33  34
ATOM     34  N   UNL     1       6.061   2.239   2.205  1.00  0.00    -0.352 N 
ATOM     35  C   UNL     1       7.413   2.474   2.175  1.00  0.00     0.251 C 
ATOM     36  H   UNL     1       5.705   1.941   3.073  1.00  0.00     0.163 HD
ATOM     37  O   UNL     1       8.117   2.149   3.126  1.00  0.00    -0.269 OA
BRANCH  35  38
ATOM     38  C   UNL     1       8.026   3.098   0.984  1.00  0.00     0.039 A 
ATOM     39  C   UNL     1       9.191   2.540   0.451  1.00  0.00     0.014 A 
ATOM     40  C   UNL     1       7.450   4.225   0.393  1.00  0.00     0.014 A 
ATOM     41  C   UNL     1       9.737   3.068  -0.722  1.00  0.00     0.010 A 
ATOM     42  C   UNL     1       7.950   4.701  -0.814  1.00  0.00     0.010 A 
ATOM     43  C   UNL     1       9.098   4.127  -1.384  1.00  0.00    -0.014 A 
BRANCH  43  44
ATOM     44  C   UNL     1       9.600   4.661  -2.674  1.00  0.00     0.031 A 
ATOM     45  C   UNL     1      10.061   6.088  -2.763  1.00  0.00     0.074 A 
ATOM     46  C   UNL     1       9.537   3.901  -3.784  1.00  0.00     0.049 A 
ATOM     47  N   UNL     1      10.381   6.792  -3.819  1.00  0.00    -0.248 NA
ATOM     48  C   UNL     1      10.138   6.832  -1.496  1.00  0.00     0.031 C 
ATOM     49  C   UNL     1       9.066   2.517  -3.837  1.00  0.00     0.029 A 
ATOM     50  N   UNL     1       9.839   4.200  -5.090  1.00  0.00    -0.354 N 
ATOM     51  C   UNL     1      10.669   8.066  -3.348  1.00  0.00     0.074 A 
ATOM     52  C   UNL     1      10.442   8.050  -1.918  1.00  0.00     0.031 C 
ATOM     53  C   UNL     1       9.107   2.087  -5.108  1.00  0.00     0.029 A 
ATOM     54  C   UNL     1       9.565   3.178  -5.964  1.00  0.00     0.049 A 
ATOM     55  H   UNL     1      10.216   5.065  -5.372  1.00  0.00     0.167 HD
ATOM     56  C   UNL     1      11.099   9.146  -4.041  1.00  0.00     0.037 A 
ATOM     57  C   UNL     1       9.647   3.130  -7.308  1.00  0.00     0.037 A 
ATOM     58  C   UNL     1      11.347   9.149  -5.458  1.00  0.00     0.049 A 
ATOM     59  C   UNL     1      10.128   4.339  -8.060  1.00  0.00     0.074 A 
ATOM     60  C   UNL     1      11.853  10.170  -6.243  1.00  0.00     0.029 A 
ATOM     61  N   UNL     1      11.101   8.077  -6.303  1.00  0.00    -0.354 N 
ATOM     62  N   UNL     1      10.463   5.518  -7.596  1.00  0.00    -0.248 NA
ATOM     63  C   UNL     1      10.246   4.212  -9.519  1.00  0.00     0.031 C 
ATOM     64  C   UNL     1      11.870   9.731  -7.571  1.00  0.00     0.029 A 
ATOM     65  C   UNL     1      11.421   8.420  -7.606  1.00  0.00     0.049 A 
ATOM     66  H   UNL     1      10.750   7.202  -6.019  1.00  0.00     0.167 HD
ATOM     67  C   UNL     1      10.855   6.265  -8.699  1.00  0.00     0.074 A 
ATOM     68  C   UNL     1      10.722   5.404  -9.856  1.00  0.00     0.031 C 
ATOM     69  C   UNL     1      11.290   7.548  -8.747  1.00  0.00     0.037 A 
BRANCH  56  70
ATOM     70  C   UNL     1      11.318  10.416  -3.269  1.00  0.00     0.057 A 
ATOM     71  C   UNL     1      12.360  10.550  -2.342  1.00  0.00     0.134 A 
ATOM     72  C   UNL     1      10.478  11.520  -3.459  1.00  0.00     0.134 A 
ATOM     73  F   UNL     1      13.194   9.526  -2.104  1.00  0.00    -0.206 F 
ATOM     74  C   UNL     1      12.535  11.721  -1.604  1.00  0.00     0.040 A 
ATOM     75  C   UNL     1      10.661  12.707  -2.748  1.00  0.00     0.040 A 
ATOM     76  F   UNL     1       9.465  11.464  -4.337  1.00  0.00    -0.206 F 
ATOM     77  C   UNL     1      11.685  12.806  -1.809  1.00  0.00     0.006 A 
ENDBRANCH  56  70
BRANCH  57  78
ATOM     78  C   UNL     1       9.267   1.885  -8.020  1.00  0.00     0.057 A 
ATOM     79  C   UNL     1      10.236   1.059  -8.599  1.00  0.00     0.134 A 
ATOM     80  C   UNL     1       7.931   1.476  -8.110  1.00  0.00     0.134 A 
ATOM     81  F   UNL     1      11.530   1.407  -8.558  1.00  0.00    -0.206 F 
ATOM     82  C   UNL     1       9.890  -0.127  -9.250  1.00  0.00     0.040 A 
ATOM     83  C   UNL     1       7.573   0.282  -8.738  1.00  0.00     0.040 A 
ATOM     84  F   UNL     1       6.956   2.220  -7.566  1.00  0.00    -0.206 F 
ATOM     85  C   UNL     1       8.555  -0.522  -9.314  1.00  0.00     0.006 A 
ENDBRANCH  57  78
BRANCH  69  86
ATOM     86  C   UNL     1      11.690   8.095 -10.085  1.00  0.00     0.057 A 
ATOM     87  C   UNL     1      10.740   8.460 -11.047  1.00  0.00     0.134 A 
ATOM     88  C   UNL     1      13.038   8.331 -10.381  1.00  0.00     0.134 A 
ATOM     89  F   UNL     1       9.434   8.248 -10.828  1.00  0.00    -0.206 F 
ATOM     90  C   UNL     1      11.120   9.035 -12.261  1.00  0.00     0.040 A 
ATOM     91  C   UNL     1      13.428   8.926 -11.582  1.00  0.00     0.040 A 
ATOM     92  F   UNL     1      13.996   8.011  -9.498  1.00  0.00    -0.206 F 
ATOM     93  C   UNL     1      12.466   9.279 -12.526  1.00  0.00     0.006 A 
ENDBRANCH  69  86
ENDBRANCH  43  44
ENDBRANCH  35  38
ENDBRANCH  33  34
ENDBRANCH  32  33
ENDBRANCH  31  32
ENDBRANCH   3  31
TORSDOF 15
