REMARK SMILES C[NH2+][C@]1(C(=O)NCCCNC(=O)c2ccc(-c3c4nc(c(-c5c(F)cccc5F)c5ccc([nH]5)c(-c5c(F)cccc5F)c5nc(c(-c6c(F)cccc6F)c6ccc3[nH]6)C=C5)C=C4)cc2)CC[C@H](Oc2cc(C(C)C)ccc2C)C1
REMARK SMILES IDX 7 1 6 2 4 3 5 4 3 6 67 7 81 8 68 9 69 10 2 11 1 12 70 15
REMARK SMILES IDX 71 16 72 17 79 18 73 19 78 20 80 21 77 22 74 23 75 24 76 25
REMARK SMILES IDX 8 26 9 27 10 28 11 29 12 31 13 32 14 33 66 34 15 35 65 36
REMARK SMILES IDX 16 37 17 38 18 39 59 40 19 41 64 42 58 43 60 44 20 45 63 46
REMARK SMILES IDX 57 47 56 48 21 50 47 51 30 52 46 53 31 54 34 55 45 56 61 57
REMARK SMILES IDX 32 58 33 59 44 61 62 62 35 63 22 64 23 65 28 66 24 67 25 68
REMARK SMILES IDX 27 69 29 70 26 71 48 72 49 73 54 74 50 75 51 76 53 77 55 78
REMARK SMILES IDX 52 79 36 80 37 81 42 82 38 83 39 84 41 85 43 86 40 87
REMARK H PARENT 6 5 2 13 2 14 10 30 60 49 34 60
REMARK Flexibility Score: inf
ROOT
ATOM      1  C   UNL     1       0.695  -0.291  -2.906  1.00  0.00     0.118 C 
ENDROOT
BRANCH   1   2
ATOM      2  N   UNL     1       1.141  -0.821  -1.629  1.00  0.00    -0.351 N 
ATOM      3  C   UNL     1       0.505  -1.163  -0.471  1.00  0.00     0.281 C 
ATOM      4  O   UNL     1       1.276  -1.438   0.456  1.00  0.00    -0.268 OA
ATOM      5  H   UNL     1       2.114  -0.963  -1.590  1.00  0.00     0.163 HD
BRANCH   3   6
ATOM      6  C   UNL     1      -1.056  -1.250  -0.337  1.00  0.00     0.179 C 
ATOM      7  C   UNL     1      -1.738   0.071  -0.726  1.00  0.00     0.083 C 
ATOM      8  C   UNL     1      -1.676  -2.260  -1.322  1.00  0.00     0.124 C 
ATOM      9  C   UNL     1      -3.154  -0.308  -1.121  1.00  0.00     0.052 C 
ATOM     10  C   UNL     1      -3.095  -1.759  -1.629  1.00  0.00     0.180 C 
BRANCH   6  11
ATOM     11  N   UNL     1      -1.485  -1.486   1.075  1.00  0.00    -0.336 N 
ATOM     12  C   UNL     1      -1.117  -2.769   1.658  1.00  0.00     0.331 C 
ATOM     13  H   UNL     1      -1.071  -0.754   1.652  1.00  0.00     0.346 HD
ATOM     14  H   UNL     1      -2.504  -1.482   1.053  1.00  0.00     0.346 HD
ENDBRANCH   6  11
BRANCH  10  15
ATOM     15  O   UNL     1      -4.021  -2.620  -0.959  1.00  0.00    -0.490 OA
BRANCH  15  16
ATOM     16  C   UNL     1      -5.362  -2.358  -1.066  1.00  0.00     0.122 A 
ATOM     17  C   UNL     1      -5.904  -1.408  -1.939  1.00  0.00     0.050 A 
ATOM     18  C   UNL     1      -6.211  -3.054  -0.194  1.00  0.00    -0.009 A 
ATOM     19  C   UNL     1      -7.257  -1.045  -1.881  1.00  0.00    -0.042 A 
ATOM     20  C   UNL     1      -7.580  -2.742  -0.181  1.00  0.00     0.007 A 
ATOM     21  C   UNL     1      -5.709  -4.107   0.756  1.00  0.00     0.048 C 
ATOM     22  C   UNL     1      -8.094  -1.734  -1.000  1.00  0.00     0.004 A 
BRANCH  19  23
ATOM     23  C   UNL     1      -7.782   0.134  -2.682  1.00  0.00     0.013 C 
ATOM     24  C   UNL     1      -7.127   1.435  -2.200  1.00  0.00     0.012 C 
ATOM     25  C   UNL     1      -7.578  -0.043  -4.189  1.00  0.00     0.012 C 
ENDBRANCH  19  23
ENDBRANCH  15  16
ENDBRANCH  10  15
ENDBRANCH   3   6
ENDBRANCH   1   2
BRANCH   1  26
ATOM     26  C   UNL     1       0.882   1.224  -2.989  1.00  0.00     0.042 C 
BRANCH  26  27
ATOM     27  C   UNL     1       2.338   1.673  -2.999  1.00  0.00     0.118 C 
BRANCH  27  28
ATOM     28  N   UNL     1       3.021   1.299  -4.227  1.00  0.00    -0.352 N 
ATOM     29  C   UNL     1       3.631   2.086  -5.172  1.00  0.00     0.251 C 
ATOM     30  H   UNL     1       3.051   0.332  -4.409  1.00  0.00     0.163 HD
ATOM     31  O   UNL     1       3.965   1.590  -6.244  1.00  0.00    -0.269 OA
BRANCH  29  32
ATOM     32  C   UNL     1       3.879   3.523  -4.920  1.00  0.00     0.039 A 
ATOM     33  C   UNL     1       3.695   4.428  -5.971  1.00  0.00     0.014 A 
ATOM     34  C   UNL     1       4.343   3.980  -3.683  1.00  0.00     0.014 A 
ATOM     35  C   UNL     1       3.928   5.790  -5.768  1.00  0.00     0.010 A 
ATOM     36  C   UNL     1       4.509   5.346  -3.461  1.00  0.00     0.010 A 
ATOM     37  C   UNL     1       4.313   6.263  -4.503  1.00  0.00    -0.014 A 
BRANCH  37  38
ATOM     38  C   UNL     1       4.526   7.712  -4.258  1.00  0.00     0.031 A 
ATOM     39  C   UNL     1       5.897   8.229  -3.919  1.00  0.00     0.074 A 
ATOM     40  C   UNL     1       3.475   8.553  -4.282  1.00  0.00     0.049 A 
ATOM     41  N   UNL     1       6.268   9.445  -3.606  1.00  0.00    -0.248 NA
ATOM     42  C   UNL     1       6.991   7.245  -3.907  1.00  0.00     0.031 C 
ATOM     43  C   UNL     1       2.090   8.168  -4.557  1.00  0.00     0.029 A 
ATOM     44  N   UNL     1       3.407   9.905  -4.059  1.00  0.00    -0.354 N 
ATOM     45  C   UNL     1       7.630   9.369  -3.343  1.00  0.00     0.074 A 
ATOM     46  C   UNL     1       8.011   7.981  -3.490  1.00  0.00     0.031 C 
ATOM     47  C   UNL     1       1.312   9.262  -4.505  1.00  0.00     0.029 A 
ATOM     48  C   UNL     1       2.136  10.416  -4.159  1.00  0.00     0.049 A 
ATOM     49  H   UNL     1       4.194  10.457  -3.849  1.00  0.00     0.167 HD
ATOM     50  C   UNL     1       8.489  10.367  -3.027  1.00  0.00     0.037 A 
ATOM     51  C   UNL     1       1.684  11.672  -3.983  1.00  0.00     0.037 A 
ATOM     52  C   UNL     1       8.114  11.752  -2.908  1.00  0.00     0.049 A 
ATOM     53  C   UNL     1       2.656  12.762  -3.632  1.00  0.00     0.074 A 
ATOM     54  C   UNL     1       8.922  12.847  -2.655  1.00  0.00     0.029 A 
ATOM     55  N   UNL     1       6.818  12.232  -3.032  1.00  0.00    -0.354 N 
ATOM     56  N   UNL     1       3.952  12.686  -3.450  1.00  0.00    -0.248 NA
ATOM     57  C   UNL     1       2.104  14.114  -3.468  1.00  0.00     0.031 C 
ATOM     58  C   UNL     1       8.110  13.984  -2.588  1.00  0.00     0.029 A 
ATOM     59  C   UNL     1       6.802  13.603  -2.841  1.00  0.00     0.049 A 
ATOM     60  H   UNL     1       6.027  11.679  -3.228  1.00  0.00     0.167 HD
ATOM     61  C   UNL     1       4.374  13.980  -3.173  1.00  0.00     0.074 A 
ATOM     62  C   UNL     1       3.197  14.823  -3.225  1.00  0.00     0.031 C 
ATOM     63  C   UNL     1       5.623  14.429  -2.900  1.00  0.00     0.037 A 
BRANCH  50  64
ATOM     64  C   UNL     1       9.924   9.995  -2.790  1.00  0.00     0.057 A 
ATOM     65  C   UNL     1      10.767   9.599  -3.836  1.00  0.00     0.134 A 
ATOM     66  C   UNL     1      10.477  10.062  -1.505  1.00  0.00     0.134 A 
ATOM     67  F   UNL     1      10.296   9.504  -5.089  1.00  0.00    -0.206 F 
ATOM     68  C   UNL     1      12.101   9.256  -3.610  1.00  0.00     0.040 A 
ATOM     69  C   UNL     1      11.816   9.746  -1.270  1.00  0.00     0.040 A 
ATOM     70  F   UNL     1       9.727  10.440  -0.459  1.00  0.00    -0.206 F 
ATOM     71  C   UNL     1      12.630   9.335  -2.323  1.00  0.00     0.006 A 
ENDBRANCH  50  64
BRANCH  51  72
ATOM     72  C   UNL     1       0.241  11.970  -4.160  1.00  0.00     0.057 A 
ATOM     73  C   UNL     1      -0.212  12.698  -5.266  1.00  0.00     0.134 A 
ATOM     74  C   UNL     1      -0.715  11.537  -3.235  1.00  0.00     0.134 A 
ATOM     75  F   UNL     1       0.660  13.155  -6.176  1.00  0.00    -0.206 F 
ATOM     76  C   UNL     1      -1.564  12.998  -5.439  1.00  0.00     0.040 A 
ATOM     77  C   UNL     1      -2.073  11.810  -3.406  1.00  0.00     0.040 A 
ATOM     78  F   UNL     1      -0.344  10.829  -2.158  1.00  0.00    -0.206 F 
ATOM     79  C   UNL     1      -2.500  12.549  -4.508  1.00  0.00     0.006 A 
ENDBRANCH  51  72
BRANCH  63  80
ATOM     80  C   UNL     1       5.785  15.901  -2.667  1.00  0.00     0.057 A 
ATOM     81  C   UNL     1       5.352  16.512  -1.483  1.00  0.00     0.134 A 
ATOM     82  C   UNL     1       6.414  16.710  -3.622  1.00  0.00     0.134 A 
ATOM     83  F   UNL     1       4.730  15.795  -0.536  1.00  0.00    -0.206 F 
ATOM     84  C   UNL     1       5.521  17.881  -1.267  1.00  0.00     0.040 A 
ATOM     85  C   UNL     1       6.610  18.074  -3.406  1.00  0.00     0.040 A 
ATOM     86  F   UNL     1       6.858  16.184  -4.774  1.00  0.00    -0.206 F 
ATOM     87  C   UNL     1       6.158  18.664  -2.228  1.00  0.00     0.006 A 
ENDBRANCH  63  80
ENDBRANCH  37  38
ENDBRANCH  29  32
ENDBRANCH  27  28
ENDBRANCH  26  27
ENDBRANCH   1  26
TORSDOF 14
