REMARK SMILES Cc1ccc(S(=O)(=O)N(CC(=O)NCCCNC(=O)c2ccc(-c3c4nc(c(-c5c(F)cccc5F)c5ccc([nH]5)c(-c5c(F)cccc5F)c5nc(c(-c6c(F)cccc6F)c6ccc3[nH]6)C=C5)C=C4)cc2)c2cc(Cl)cc(Cl)c2)cc1
REMARK SMILES IDX 14 1 13 2 11 3 12 4 10 6 9 7 6 8 7 9 8 10 5 11 1 12 2 13
REMARK SMILES IDX 3 14 83 15 4 16 82 17 74 18 75 19 81 20 76 21 79 22 77 23
REMARK SMILES IDX 78 24 80 25 15 26 16 27 17 28 18 29 19 31 20 32 21 33 73 34
REMARK SMILES IDX 22 35 72 36 23 37 24 38 25 39 66 40 26 41 71 42 65 43 67 44
REMARK SMILES IDX 27 45 70 46 64 47 63 48 28 50 54 51 37 52 53 53 38 54 41 55
REMARK SMILES IDX 52 56 68 57 39 58 40 59 51 61 69 62 42 63 29 64 30 65 35 66
REMARK SMILES IDX 31 67 32 68 34 69 36 70 33 71 55 72 56 73 61 74 57 75 58 76
REMARK SMILES IDX 60 77 62 78 59 79 43 80 44 81 49 82 45 83 46 84 48 85 50 86
REMARK SMILES IDX 47 87
REMARK H PARENT 13 5 17 30 67 49 41 60
REMARK Flexibility Score: inf
ROOT
ATOM      1  C   UNL     1      -2.393   1.942  -2.689  1.00  0.00     0.117 C 
ENDROOT
BRANCH   1   2
ATOM      2  N   UNL     1      -2.917   3.261  -2.381  1.00  0.00    -0.354 N 
ATOM      3  C   UNL     1      -3.328   3.813  -1.200  1.00  0.00     0.240 C 
ATOM      4  O   UNL     1      -3.468   5.041  -1.186  1.00  0.00    -0.273 OA
ATOM      5  H   UNL     1      -2.990   3.862  -3.157  1.00  0.00     0.163 HD
BRANCH   3   6
ATOM      6  C   UNL     1      -3.619   3.010   0.066  1.00  0.00     0.235 C 
BRANCH   6   7
ATOM      7  N   UNL     1      -4.200   1.662  -0.179  1.00  0.00    -0.257 N 
BRANCH   7   8
ATOM      8  S   UNL     1      -3.478   0.339   0.671  1.00  0.00     0.264 S 
ATOM      9  O   UNL     1      -4.091  -0.857   0.114  1.00  0.00    -0.201 OA
ATOM     10  O   UNL     1      -3.572   0.623   2.086  1.00  0.00    -0.201 OA
BRANCH   8  11
ATOM     11  C   UNL     1      -1.716   0.183   0.321  1.00  0.00     0.088 A 
ATOM     12  C   UNL     1       2.552  -0.433  -0.102  1.00  0.00     0.044 C 
ATOM     13  C   UNL     1       1.069  -0.221  -0.005  1.00  0.00    -0.051 A 
ATOM     14  C   UNL     1       0.178  -1.296  -0.097  1.00  0.00     0.005 A 
ATOM     15  C   UNL     1       0.558   1.050   0.254  1.00  0.00     0.005 A 
ATOM     16  C   UNL     1      -1.204  -1.095   0.048  1.00  0.00     0.022 A 
ATOM     17  C   UNL     1      -0.813   1.242   0.453  1.00  0.00     0.022 A 
ENDBRANCH   8  11
ENDBRANCH   7   8
BRANCH   7  18
ATOM     18  C   UNL     1      -5.686   1.730  -0.146  1.00  0.00     0.055 A 
ATOM     19  C   UNL     1      -6.325   2.639  -1.012  1.00  0.00     0.047 A 
ATOM     20  C   UNL     1      -6.476   1.097   0.823  1.00  0.00     0.047 A 
ATOM     21  C   UNL     1      -7.679   2.952  -0.866  1.00  0.00     0.044 A 
ATOM     22  C   UNL     1      -7.842   1.390   0.933  1.00  0.00     0.044 A 
ATOM     23  Cl  UNL     1      -8.387   4.156  -1.872  1.00  0.00    -0.084 Cl
ATOM     24  C   UNL     1      -8.445   2.333   0.110  1.00  0.00     0.041 A 
ATOM     25  Cl  UNL     1      -8.786   0.602   2.139  1.00  0.00    -0.084 Cl
ENDBRANCH   7  18
ENDBRANCH   6   7
ENDBRANCH   3   6
ENDBRANCH   1   2
BRANCH   1  26
ATOM     26  C   UNL     1      -3.434   0.907  -3.083  1.00  0.00     0.042 C 
BRANCH  26  27
ATOM     27  C   UNL     1      -3.770   0.908  -4.561  1.00  0.00     0.118 C 
BRANCH  27  28
ATOM     28  N   UNL     1      -2.893   0.059  -5.367  1.00  0.00    -0.352 N 
ATOM     29  C   UNL     1      -3.000  -0.335  -6.692  1.00  0.00     0.251 C 
ATOM     30  H   UNL     1      -2.103  -0.287  -4.894  1.00  0.00     0.163 HD
ATOM     31  O   UNL     1      -2.134  -1.051  -7.186  1.00  0.00    -0.269 OA
BRANCH  29  32
ATOM     32  C   UNL     1      -4.038   0.272  -7.561  1.00  0.00     0.039 A 
ATOM     33  C   UNL     1      -3.566   0.859  -8.742  1.00  0.00     0.014 A 
ATOM     34  C   UNL     1      -5.247   0.669  -7.013  1.00  0.00     0.014 A 
ATOM     35  C   UNL     1      -4.077   2.088  -9.120  1.00  0.00     0.010 A 
ATOM     36  C   UNL     1      -5.648   1.955  -7.271  1.00  0.00     0.010 A 
ATOM     37  C   UNL     1      -4.995   2.685  -8.267  1.00  0.00    -0.014 A 
BRANCH  37  38
ATOM     38  C   UNL     1      -5.400   4.068  -8.357  1.00  0.00     0.031 A 
ATOM     39  C   UNL     1      -6.644   4.344  -9.077  1.00  0.00     0.074 A 
ATOM     40  C   UNL     1      -4.718   5.007  -7.668  1.00  0.00     0.049 A 
ATOM     41  N   UNL     1      -6.988   5.504  -9.498  1.00  0.00    -0.248 NA
ATOM     42  C   UNL     1      -7.579   3.287  -9.459  1.00  0.00     0.031 C 
ATOM     43  C   UNL     1      -5.116   6.376  -7.361  1.00  0.00     0.029 A 
ATOM     44  N   UNL     1      -3.375   4.945  -7.270  1.00  0.00    -0.354 N 
ATOM     45  C   UNL     1      -8.302   5.415  -9.889  1.00  0.00     0.074 A 
ATOM     46  C   UNL     1      -8.557   4.005 -10.013  1.00  0.00     0.031 C 
ATOM     47  C   UNL     1      -4.011   7.103  -7.119  1.00  0.00     0.029 A 
ATOM     48  C   UNL     1      -2.873   6.259  -7.438  1.00  0.00     0.049 A 
ATOM     49  H   UNL     1      -2.885   4.156  -6.943  1.00  0.00     0.167 HD
ATOM     50  C   UNL     1      -9.036   6.561  -9.891  1.00  0.00     0.037 A 
ATOM     51  C   UNL     1      -1.958   6.512  -8.424  1.00  0.00     0.037 A 
ATOM     52  C   UNL     1      -8.147   7.719  -9.720  1.00  0.00     0.049 A 
ATOM     53  C   UNL     1      -2.473   7.443  -9.512  1.00  0.00     0.074 A 
ATOM     54  C   UNL     1      -7.827   8.560  -8.668  1.00  0.00     0.029 A 
ATOM     55  N   UNL     1      -7.160   7.920 -10.671  1.00  0.00    -0.354 N 
ATOM     56  N   UNL     1      -3.709   7.855  -9.613  1.00  0.00    -0.248 NA
ATOM     57  C   UNL     1      -1.646   7.917 -10.620  1.00  0.00     0.031 C 
ATOM     58  C   UNL     1      -6.607   9.234  -8.997  1.00  0.00     0.029 A 
ATOM     59  C   UNL     1      -6.211   8.833 -10.261  1.00  0.00     0.049 A 
ATOM     60  H   UNL     1      -7.138   7.461 -11.542  1.00  0.00     0.167 HD
ATOM     61  C   UNL     1      -3.871   8.582 -10.764  1.00  0.00     0.074 A 
ATOM     62  C   UNL     1      -2.549   8.572 -11.371  1.00  0.00     0.031 C 
ATOM     63  C   UNL     1      -5.081   9.101 -11.145  1.00  0.00     0.037 A 
BRANCH  50  64
ATOM     64  C   UNL     1     -10.549   6.645  -9.837  1.00  0.00     0.057 A 
ATOM     65  C   UNL     1     -11.167   7.901  -9.672  1.00  0.00     0.134 A 
ATOM     66  C   UNL     1     -11.456   5.565  -9.837  1.00  0.00     0.134 A 
ATOM     67  F   UNL     1     -10.457   9.038  -9.680  1.00  0.00    -0.206 F 
ATOM     68  C   UNL     1     -12.547   8.059  -9.474  1.00  0.00     0.040 A 
ATOM     69  C   UNL     1     -12.839   5.710  -9.660  1.00  0.00     0.040 A 
ATOM     70  F   UNL     1     -11.079   4.295  -9.985  1.00  0.00    -0.206 F 
ATOM     71  C   UNL     1     -13.390   6.960  -9.462  1.00  0.00     0.006 A 
ENDBRANCH  50  64
BRANCH  51  72
ATOM     72  C   UNL     1      -1.046   5.345  -8.637  1.00  0.00     0.057 A 
ATOM     73  C   UNL     1      -0.300   4.873  -7.537  1.00  0.00     0.134 A 
ATOM     74  C   UNL     1      -1.243   4.452  -9.694  1.00  0.00     0.134 A 
ATOM     75  F   UNL     1      -0.052   5.681  -6.492  1.00  0.00    -0.206 F 
ATOM     76  C   UNL     1       0.062   3.529  -7.410  1.00  0.00     0.040 A 
ATOM     77  C   UNL     1      -0.850   3.111  -9.592  1.00  0.00     0.040 A 
ATOM     78  F   UNL     1      -1.936   4.819 -10.781  1.00  0.00    -0.206 F 
ATOM     79  C   UNL     1      -0.256   2.633  -8.424  1.00  0.00     0.006 A 
ENDBRANCH  51  72
BRANCH  63  80
ATOM     80  C   UNL     1      -5.314   9.873 -12.428  1.00  0.00     0.057 A 
ATOM     81  C   UNL     1      -4.383  10.771 -12.966  1.00  0.00     0.134 A 
ATOM     82  C   UNL     1      -6.539   9.805 -13.134  1.00  0.00     0.134 A 
ATOM     83  F   UNL     1      -3.240  11.053 -12.326  1.00  0.00    -0.206 F 
ATOM     84  C   UNL     1      -4.603  11.454 -14.172  1.00  0.00     0.040 A 
ATOM     85  C   UNL     1      -6.794  10.525 -14.304  1.00  0.00     0.040 A 
ATOM     86  F   UNL     1      -7.554   9.025 -12.743  1.00  0.00    -0.206 F 
ATOM     87  C   UNL     1      -5.811  11.330 -14.847  1.00  0.00     0.006 A 
ENDBRANCH  63  80
ENDBRANCH  37  38
ENDBRANCH  29  32
ENDBRANCH  27  28
ENDBRANCH  26  27
ENDBRANCH   1  26
TORSDOF 14
