REMARK SMILES C[C@@H](C(=O)NCCCNC(=O)c1ccc(-c2c3nc(c(-c4c(F)cccc4F)c4ccc([nH]4)c(-c4c(F)cccc4F)c4nc(c(-c5c(F)cccc5F)c5ccc2[nH]5)C=C4)C=C3)cc1)c1ccc(C[C@H]2CCCC2=O)cc1F
REMARK SMILES IDX 6 1 5 2 3 3 4 4 2 6 1 7 66 8 67 9 78 10 68 11 77 12 79 13
REMARK SMILES IDX 69 14 70 15 71 16 72 17 75 18 73 19 74 20 76 21 7 22 8 23
REMARK SMILES IDX 9 24 10 25 11 27 12 28 13 29 65 30 14 31 64 32 15 33 16 34
REMARK SMILES IDX 17 35 58 36 18 37 63 38 57 39 59 40 19 41 62 42 56 43 55 44
REMARK SMILES IDX 20 46 46 47 29 48 45 49 30 50 33 51 44 52 60 53 31 54 32 55
REMARK SMILES IDX 43 57 61 58 34 59 21 60 22 61 27 62 23 63 24 64 26 65 28 66
REMARK SMILES IDX 25 67 47 68 48 69 53 70 49 71 50 72 52 73 54 74 51 75 35 76
REMARK SMILES IDX 36 77 41 78 37 79 38 80 40 81 42 82 39 83
REMARK H PARENT 5 5 9 26 59 45 33 56
REMARK Flexibility Score: inf
ROOT
ATOM      1  C   UNL     1       3.485   2.053   0.291  1.00  0.00     0.117 C 
ENDROOT
BRANCH   1   2
ATOM      2  N   UNL     1       2.392   2.605  -0.488  1.00  0.00    -0.356 N 
ATOM      3  C   UNL     1       1.106   2.172  -0.644  1.00  0.00     0.227 C 
ATOM      4  O   UNL     1       0.473   2.674  -1.575  1.00  0.00    -0.274 OA
ATOM      5  H   UNL     1       2.613   3.426  -0.985  1.00  0.00     0.163 HD
BRANCH   3   6
ATOM      6  C   UNL     1       0.505   1.142   0.335  1.00  0.00     0.108 C 
ATOM      7  C   UNL     1       1.044  -0.246  -0.025  1.00  0.00     0.023 C 
BRANCH   6   8
ATOM      8  C   UNL     1      -1.025   1.218   0.427  1.00  0.00    -0.000 A 
ATOM      9  C   UNL     1      -1.670   2.468   0.430  1.00  0.00     0.008 A 
ATOM     10  C   UNL     1      -1.847   0.089   0.553  1.00  0.00     0.127 A 
ATOM     11  C   UNL     1      -3.064   2.573   0.484  1.00  0.00     0.004 A 
ATOM     12  C   UNL     1      -3.235   0.188   0.645  1.00  0.00     0.043 A 
ATOM     13  F   UNL     1      -1.331  -1.147   0.604  1.00  0.00    -0.207 F 
ATOM     14  C   UNL     1      -3.863   1.433   0.612  1.00  0.00    -0.044 A 
BRANCH  14  15
ATOM     15  C   UNL     1      -5.365   1.534   0.718  1.00  0.00     0.047 C 
BRANCH  15  16
ATOM     16  C   UNL     1      -5.919   2.053   2.050  1.00  0.00     0.060 C 
ATOM     17  C   UNL     1      -5.427   1.347   3.318  1.00  0.00     0.012 C 
ATOM     18  C   UNL     1      -5.528   3.487   2.314  1.00  0.00     0.136 C 
ATOM     19  C   UNL     1      -4.294   2.201   3.875  1.00  0.00     0.009 C 
ATOM     20  C   UNL     1      -4.649   3.640   3.526  1.00  0.00     0.076 C 
ATOM     21  O   UNL     1      -5.891   4.430   1.619  1.00  0.00    -0.299 OA
ENDBRANCH  15  16
ENDBRANCH  14  15
ENDBRANCH   6   8
ENDBRANCH   3   6
ENDBRANCH   1   2
BRANCH   1  22
ATOM     22  C   UNL     1       4.425   1.223  -0.588  1.00  0.00     0.042 C 
BRANCH  22  23
ATOM     23  C   UNL     1       5.125   2.019  -1.685  1.00  0.00     0.118 C 
BRANCH  23  24
ATOM     24  N   UNL     1       6.095   2.966  -1.157  1.00  0.00    -0.352 N 
ATOM     25  C   UNL     1       7.459   3.002  -1.303  1.00  0.00     0.251 C 
ATOM     26  H   UNL     1       5.714   3.691  -0.611  1.00  0.00     0.163 HD
ATOM     27  O   UNL     1       8.124   3.771  -0.611  1.00  0.00    -0.269 OA
BRANCH  25  28
ATOM     28  C   UNL     1       8.139   2.104  -2.261  1.00  0.00     0.039 A 
ATOM     29  C   UNL     1       9.293   1.433  -1.850  1.00  0.00     0.014 A 
ATOM     30  C   UNL     1       7.651   1.922  -3.559  1.00  0.00     0.014 A 
ATOM     31  C   UNL     1       9.903   0.510  -2.704  1.00  0.00     0.010 A 
ATOM     32  C   UNL     1       8.220   0.953  -4.385  1.00  0.00     0.010 A 
ATOM     33  C   UNL     1       9.339   0.222  -3.957  1.00  0.00    -0.014 A 
BRANCH  33  34
ATOM     34  C   UNL     1       9.857  -0.888  -4.798  1.00  0.00     0.031 A 
ATOM     35  C   UNL     1      10.447  -0.616  -6.153  1.00  0.00     0.074 A 
ATOM     36  C   UNL     1       9.708  -2.158  -4.369  1.00  0.00     0.049 A 
ATOM     37  N   UNL     1      10.850  -1.468  -7.062  1.00  0.00    -0.248 NA
ATOM     38  C   UNL     1      10.588   0.794  -6.549  1.00  0.00     0.031 C 
ATOM     39  C   UNL     1       9.111  -2.555  -3.091  1.00  0.00     0.029 A 
ATOM     40  N   UNL     1      10.023  -3.353  -4.969  1.00  0.00    -0.354 N 
ATOM     41  C   UNL     1      11.273  -0.702  -8.141  1.00  0.00     0.074 A 
ATOM     42  C   UNL     1      11.054   0.684  -7.786  1.00  0.00     0.031 C 
ATOM     43  C   UNL     1       9.106  -3.894  -3.002  1.00  0.00     0.029 A 
ATOM     44  C   UNL     1       9.652  -4.455  -4.234  1.00  0.00     0.049 A 
ATOM     45  H   UNL     1      10.472  -3.415  -5.843  1.00  0.00     0.167 HD
ATOM     46  C   UNL     1      11.806  -1.119  -9.313  1.00  0.00     0.037 A 
ATOM     47  C   UNL     1       9.714  -5.767  -4.529  1.00  0.00     0.037 A 
ATOM     48  C   UNL     1      12.049  -2.498  -9.649  1.00  0.00     0.049 A 
ATOM     49  C   UNL     1      10.281  -6.196  -5.854  1.00  0.00     0.074 A 
ATOM     50  C   UNL     1      12.675  -3.010 -10.773  1.00  0.00     0.029 A 
ATOM     51  N   UNL     1      11.666  -3.582  -8.876  1.00  0.00    -0.354 N 
ATOM     52  N   UNL     1      10.773  -5.458  -6.820  1.00  0.00    -0.248 NA
ATOM     53  C   UNL     1      10.298  -7.639  -6.136  1.00  0.00     0.031 C 
ATOM     54  C   UNL     1      12.613  -4.405 -10.712  1.00  0.00     0.029 A 
ATOM     55  C   UNL     1      11.998  -4.762  -9.523  1.00  0.00     0.049 A 
ATOM     56  H   UNL     1      11.224  -3.523  -7.998  1.00  0.00     0.167 HD
ATOM     57  C   UNL     1      11.173  -6.346  -7.810  1.00  0.00     0.074 A 
ATOM     58  C   UNL     1      10.893  -7.678  -7.319  1.00  0.00     0.031 C 
ATOM     59  C   UNL     1      11.717  -6.081  -9.022  1.00  0.00     0.037 A 
BRANCH  46  60
ATOM     60  C   UNL     1      12.168  -0.085 -10.338  1.00  0.00     0.057 A 
ATOM     61  C   UNL     1      13.286   0.744 -10.189  1.00  0.00     0.134 A 
ATOM     62  C   UNL     1      11.451   0.004 -11.539  1.00  0.00     0.134 A 
ATOM     63  F   UNL     1      14.012   0.710  -9.062  1.00  0.00    -0.206 F 
ATOM     64  C   UNL     1      13.676   1.629 -11.196  1.00  0.00     0.040 A 
ATOM     65  C   UNL     1      11.844   0.869 -12.562  1.00  0.00     0.040 A 
ATOM     66  F   UNL     1      10.375  -0.769 -11.749  1.00  0.00    -0.206 F 
ATOM     67  C   UNL     1      12.960   1.684 -12.391  1.00  0.00     0.006 A 
ENDBRANCH  46  60
BRANCH  47  68
ATOM     68  C   UNL     1       9.196  -6.781  -3.572  1.00  0.00     0.057 A 
ATOM     69  C   UNL     1      10.052  -7.702  -2.957  1.00  0.00     0.134 A 
ATOM     70  C   UNL     1       7.828  -6.888  -3.292  1.00  0.00     0.134 A 
ATOM     71  F   UNL     1      11.370  -7.665  -3.200  1.00  0.00    -0.206 F 
ATOM     72  C   UNL     1       9.564  -8.713  -2.126  1.00  0.00     0.040 A 
ATOM     73  C   UNL     1       7.330  -7.874  -2.438  1.00  0.00     0.040 A 
ATOM     74  F   UNL     1       6.953  -6.034  -3.844  1.00  0.00    -0.206 F 
ATOM     75  C   UNL     1       8.198  -8.799  -1.864  1.00  0.00     0.006 A 
ENDBRANCH  47  68
BRANCH  59  76
ATOM     76  C   UNL     1      12.059  -7.252  -9.896  1.00  0.00     0.057 A 
ATOM     77  C   UNL     1      11.067  -8.013 -10.526  1.00  0.00     0.134 A 
ATOM     78  C   UNL     1      13.394  -7.590 -10.151  1.00  0.00     0.134 A 
ATOM     79  F   UNL     1       9.769  -7.750 -10.311  1.00  0.00    -0.206 F 
ATOM     80  C   UNL     1      11.390  -9.079 -11.367  1.00  0.00     0.040 A 
ATOM     81  C   UNL     1      13.730  -8.636 -11.011  1.00  0.00     0.040 A 
ATOM     82  F   UNL     1      14.393  -6.897  -9.584  1.00  0.00    -0.206 F 
ATOM     83  C   UNL     1      12.726  -9.386 -11.619  1.00  0.00     0.006 A 
ENDBRANCH  59  76
ENDBRANCH  33  34
ENDBRANCH  25  28
ENDBRANCH  23  24
ENDBRANCH  22  23
ENDBRANCH   1  22
TORSDOF 13
