REMARK SMILES C[C@@H](c1ccncc1)N1C[C@@H](C(=O)NCCCNC(=O)c2ccc(-c3c4nc(c(-c5c(F)cccc5F)c5ccc([nH]5)c(-c5c(F)cccc5F)c5nc(c(-c6c(F)cccc6F)c6ccc3[nH]6)C=C5)C=C4)cc2)CC1=O
REMARK SMILES IDX 16 1 15 2 14 3 12 4 13 5 11 7 9 8 10 9 76 10 75 11 77 12
REMARK SMILES IDX 2 13 1 14 3 15 4 16 8 17 5 18 7 19 6 20 17 21 18 22 19 23
REMARK SMILES IDX 20 25 21 26 22 27 74 28 23 29 73 30 24 31 25 32 26 33 67 34
REMARK SMILES IDX 27 35 72 36 66 37 68 38 28 39 71 40 65 41 64 42 29 44 55 45
REMARK SMILES IDX 38 46 54 47 39 48 42 49 53 50 69 51 40 52 41 53 52 55 70 56
REMARK SMILES IDX 43 57 30 58 31 59 36 60 32 61 33 62 35 63 37 64 34 65 56 66
REMARK SMILES IDX 57 67 62 68 58 69 59 70 61 71 63 72 60 73 44 74 45 75 50 76
REMARK SMILES IDX 46 77 47 78 49 79 51 80 48 81
REMARK H PARENT 14 6 18 24 68 43 42 54
REMARK Flexibility Score: inf
ROOT
ATOM      1  C   UNL     1      -4.112  -1.619   3.616  1.00  0.00     0.042 C 
ENDROOT
BRANCH   1   2
ATOM      2  C   UNL     1      -3.359  -2.545   2.667  1.00  0.00     0.117 C 
BRANCH   2   3
ATOM      3  N   UNL     1      -4.217  -3.091   1.626  1.00  0.00    -0.356 N 
ATOM      4  C   UNL     1      -4.230  -2.922   0.279  1.00  0.00     0.225 C 
ATOM      5  O   UNL     1      -5.080  -3.548  -0.359  1.00  0.00    -0.275 OA
ATOM      6  H   UNL     1      -4.918  -3.696   1.961  1.00  0.00     0.163 HD
BRANCH   4   7
ATOM      7  C   UNL     1      -3.248  -2.028  -0.451  1.00  0.00     0.107 C 
ATOM      8  N   UNL     1      -1.042  -1.300  -0.028  1.00  0.00    -0.335 N 
ATOM      9  C   UNL     1      -1.813  -2.491  -0.302  1.00  0.00     0.134 C 
ATOM     10  C   UNL     1      -1.842  -0.198   0.211  1.00  0.00     0.223 C 
ATOM     11  C   UNL     1      -3.282  -0.571  -0.020  1.00  0.00     0.115 C 
ATOM     12  O   UNL     1      -1.483   0.919   0.553  1.00  0.00    -0.275 OA
BRANCH   8  13
ATOM     13  C   UNL     1       0.422  -1.359   0.100  1.00  0.00     0.112 C 
ATOM     14  C   UNL     1       1.133  -0.052  -0.282  1.00  0.00     0.036 C 
BRANCH  13  15
ATOM     15  C   UNL     1       0.850  -1.935   1.442  1.00  0.00    -0.023 A 
ATOM     16  C   UNL     1       0.865  -3.327   1.623  1.00  0.00     0.026 A 
ATOM     17  C   UNL     1       1.238  -1.141   2.525  1.00  0.00     0.026 A 
ATOM     18  C   UNL     1       1.250  -3.851   2.847  1.00  0.00     0.111 A 
ATOM     19  C   UNL     1       1.630  -1.759   3.705  1.00  0.00     0.111 A 
ATOM     20  N   UNL     1       1.637  -3.096   3.892  1.00  0.00    -0.265 NA
ENDBRANCH  13  15
ENDBRANCH   8  13
ENDBRANCH   4   7
ENDBRANCH   2   3
ENDBRANCH   1   2
BRANCH   1  21
ATOM     21  C   UNL     1      -5.236  -2.290   4.399  1.00  0.00     0.118 C 
BRANCH  21  22
ATOM     22  N   UNL     1      -4.765  -3.354   5.272  1.00  0.00    -0.352 N 
ATOM     23  C   UNL     1      -4.843  -3.498   6.634  1.00  0.00     0.251 C 
ATOM     24  H   UNL     1      -4.314  -4.096   4.807  1.00  0.00     0.163 HD
ATOM     25  O   UNL     1      -4.219  -4.408   7.175  1.00  0.00    -0.269 OA
BRANCH  23  26
ATOM     26  C   UNL     1      -5.642  -2.568   7.463  1.00  0.00     0.039 A 
ATOM     27  C   UNL     1      -5.137  -2.191   8.711  1.00  0.00     0.014 A 
ATOM     28  C   UNL     1      -6.892  -2.096   7.052  1.00  0.00     0.014 A 
ATOM     29  C   UNL     1      -5.852  -1.296   9.510  1.00  0.00     0.010 A 
ATOM     30  C   UNL     1      -7.561  -1.134   7.809  1.00  0.00     0.010 A 
ATOM     31  C   UNL     1      -7.050  -0.725   9.049  1.00  0.00    -0.014 A 
BRANCH  31  32
ATOM     32  C   UNL     1      -7.744   0.317   9.850  1.00  0.00     0.031 A 
ATOM     33  C   UNL     1      -9.129   0.088  10.392  1.00  0.00     0.074 A 
ATOM     34  C   UNL     1      -7.126   1.495  10.068  1.00  0.00     0.049 A 
ATOM     35  N   UNL     1      -9.865   0.876  11.136  1.00  0.00    -0.248 NA
ATOM     36  C   UNL     1      -9.784  -1.179  10.034  1.00  0.00     0.031 C 
ATOM     37  C   UNL     1      -5.810   1.867   9.543  1.00  0.00     0.029 A 
ATOM     38  N   UNL     1      -7.515   2.593  10.793  1.00  0.00    -0.354 N 
ATOM     39  C   UNL     1     -11.064   0.203  11.334  1.00  0.00     0.074 A 
ATOM     40  C   UNL     1     -10.982  -1.029  10.580  1.00  0.00     0.031 C 
ATOM     41  C   UNL     1      -5.482   3.086   9.999  1.00  0.00     0.029 A 
ATOM     42  C   UNL     1      -6.578   3.598  10.815  1.00  0.00     0.049 A 
ATOM     43  H   UNL     1      -8.383   2.655  11.253  1.00  0.00     0.167 HD
ATOM     44  C   UNL     1     -12.126   0.566  12.093  1.00  0.00     0.037 A 
ATOM     45  C   UNL     1      -6.596   4.797  11.427  1.00  0.00     0.037 A 
ATOM     46  C   UNL     1     -12.203   1.792  12.848  1.00  0.00     0.049 A 
ATOM     47  C   UNL     1      -7.787   5.175  12.261  1.00  0.00     0.074 A 
ATOM     48  C   UNL     1     -13.213   2.225  13.690  1.00  0.00     0.029 A 
ATOM     49  N   UNL     1     -11.235   2.786  12.844  1.00  0.00    -0.354 N 
ATOM     50  N   UNL     1      -8.879   4.491  12.505  1.00  0.00    -0.248 NA
ATOM     51  C   UNL     1      -7.740   6.489  12.916  1.00  0.00     0.031 C 
ATOM     52  C   UNL     1     -12.882   3.505  14.151  1.00  0.00     0.029 A 
ATOM     53  C   UNL     1     -11.637   3.843  13.647  1.00  0.00     0.049 A 
ATOM     54  H   UNL     1     -10.388   2.747  12.344  1.00  0.00     0.167 HD
ATOM     55  C   UNL     1      -9.639   5.281  13.359  1.00  0.00     0.074 A 
ATOM     56  C   UNL     1      -8.867   6.480  13.613  1.00  0.00     0.031 C 
ATOM     57  C   UNL     1     -10.866   5.038  13.882  1.00  0.00     0.037 A 
BRANCH  44  58
ATOM     58  C   UNL     1     -13.296  -0.377  12.147  1.00  0.00     0.057 A 
ATOM     59  C   UNL     1     -13.215  -1.623  12.786  1.00  0.00     0.134 A 
ATOM     60  C   UNL     1     -14.530  -0.022  11.588  1.00  0.00     0.134 A 
ATOM     61  F   UNL     1     -12.060  -2.032  13.334  1.00  0.00    -0.206 F 
ATOM     62  C   UNL     1     -14.308  -2.490  12.842  1.00  0.00     0.040 A 
ATOM     63  C   UNL     1     -15.639  -0.867  11.665  1.00  0.00     0.040 A 
ATOM     64  F   UNL     1     -14.683   1.157  10.967  1.00  0.00    -0.206 F 
ATOM     65  C   UNL     1     -15.527  -2.109  12.287  1.00  0.00     0.006 A 
ENDBRANCH  44  58
BRANCH  45  66
ATOM     66  C   UNL     1      -5.437   5.717  11.296  1.00  0.00     0.057 A 
ATOM     67  C   UNL     1      -4.616   6.009  12.392  1.00  0.00     0.134 A 
ATOM     68  C   UNL     1      -5.129   6.335  10.078  1.00  0.00     0.134 A 
ATOM     69  F   UNL     1      -4.869   5.462  13.590  1.00  0.00    -0.206 F 
ATOM     70  C   UNL     1      -3.548   6.902  12.289  1.00  0.00     0.040 A 
ATOM     71  C   UNL     1      -4.046   7.206   9.953  1.00  0.00     0.040 A 
ATOM     72  F   UNL     1      -5.871   6.091   8.988  1.00  0.00    -0.206 F 
ATOM     73  C   UNL     1      -3.258   7.499  11.064  1.00  0.00     0.006 A 
ENDBRANCH  45  66
BRANCH  57  74
ATOM     74  C   UNL     1     -11.431   6.086  14.800  1.00  0.00     0.057 A 
ATOM     75  C   UNL     1     -11.820   7.350  14.335  1.00  0.00     0.134 A 
ATOM     76  C   UNL     1     -11.577   5.832  16.170  1.00  0.00     0.134 A 
ATOM     77  F   UNL     1     -11.695   7.665  13.037  1.00  0.00    -0.206 F 
ATOM     78  C   UNL     1     -12.288   8.337  15.205  1.00  0.00     0.040 A 
ATOM     79  C   UNL     1     -12.077   6.798  17.044  1.00  0.00     0.040 A 
ATOM     80  F   UNL     1     -11.237   4.640  16.683  1.00  0.00    -0.206 F 
ATOM     81  C   UNL     1     -12.420   8.060  16.564  1.00  0.00     0.006 A 
ENDBRANCH  57  74
ENDBRANCH  31  32
ENDBRANCH  23  26
ENDBRANCH  21  22
ENDBRANCH   1  21
TORSDOF 12
