REMARK SMILES O=C(NCCCNC(=O)c1ccc(F)cc1-c1ccc(F)c(Cl)c1)c1ccc(-c2c3nc(c(-c4c(F)cccc4F)c4ccc([nH]4)c(-c4c(F)cccc4F)c4nc(c(-c5c(F)cccc5F)c5ccc2[nH]5)C=C4)C=C3)cc1
REMARK SMILES IDX 4 1 3 2 1 3 2 4 25 6 26 7 78 8 27 9 77 10 28 11 29 12 30 13
REMARK SMILES IDX 71 14 31 15 76 16 70 17 72 18 32 19 75 20 69 21 68 22 33 24
REMARK SMILES IDX 59 25 42 26 58 27 43 28 46 29 57 30 73 31 44 32 45 33 56 35
REMARK SMILES IDX 74 36 47 37 34 38 35 39 40 40 36 41 37 42 39 43 41 44 38 45
REMARK SMILES IDX 60 46 61 47 66 48 62 49 63 50 65 51 67 52 64 53 48 54 49 55
REMARK SMILES IDX 54 56 50 57 51 58 53 59 55 60 52 61 5 62 6 63 7 64 8 65 9 67
REMARK SMILES IDX 10 68 11 69 16 70 12 71 15 72 13 73 14 74 17 75 18 76 24 77
REMARK SMILES IDX 19 78 22 79 20 80 23 81 21 82
REMARK H PARENT 3 5 72 23 46 34 7 66
REMARK Flexibility Score: inf
ROOT
ATOM      1  C   UNL     1       4.538  -1.253   0.564  1.00  0.00     0.118 C 
ENDROOT
BRANCH   1   2
ATOM      2  N   UNL     1       3.102  -1.104   0.368  1.00  0.00    -0.352 N 
ATOM      3  O   UNL     1       1.128  -0.077   0.054  1.00  0.00    -0.269 OA
ATOM      4  C   UNL     1       2.354  -0.020  -0.019  1.00  0.00     0.251 C 
ATOM      5  H   UNL     1       2.579  -1.919   0.542  1.00  0.00     0.163 HD
BRANCH   4   6
ATOM      6  C   UNL     1       2.999   1.223  -0.496  1.00  0.00     0.039 A 
ATOM      7  C   UNL     1       4.099   1.188  -1.354  1.00  0.00     0.014 A 
ATOM      8  C   UNL     1       2.459   2.454  -0.112  1.00  0.00     0.014 A 
ATOM      9  C   UNL     1       4.754   2.368  -1.696  1.00  0.00     0.010 A 
ATOM     10  C   UNL     1       3.061   3.643  -0.531  1.00  0.00     0.010 A 
ATOM     11  C   UNL     1       4.235   3.609  -1.298  1.00  0.00    -0.014 A 
BRANCH  11  12
ATOM     12  C   UNL     1       4.902   4.863  -1.730  1.00  0.00     0.031 A 
ATOM     13  C   UNL     1       5.511   5.799  -0.725  1.00  0.00     0.074 A 
ATOM     14  C   UNL     1       4.960   5.155  -3.044  1.00  0.00     0.049 A 
ATOM     15  N   UNL     1       6.094   6.955  -0.922  1.00  0.00    -0.248 NA
ATOM     16  C   UNL     1       5.457   5.388   0.687  1.00  0.00     0.031 C 
ATOM     17  C   UNL     1       4.410   4.322  -4.115  1.00  0.00     0.029 A 
ATOM     18  N   UNL     1       5.511   6.223  -3.704  1.00  0.00    -0.354 N 
ATOM     19  C   UNL     1       6.456   7.418   0.336  1.00  0.00     0.074 A 
ATOM     20  C   UNL     1       6.006   6.431   1.294  1.00  0.00     0.031 C 
ATOM     21  C   UNL     1       4.682   4.891  -5.298  1.00  0.00     0.029 A 
ATOM     22  C   UNL     1       5.365   6.160  -5.067  1.00  0.00     0.049 A 
ATOM     23  H   UNL     1       5.968   6.964  -3.244  1.00  0.00     0.167 HD
ATOM     24  C   UNL     1       7.112   8.558   0.658  1.00  0.00     0.037 A 
ATOM     25  C   UNL     1       5.716   7.034  -6.029  1.00  0.00     0.037 A 
ATOM     26  C   UNL     1       7.570   9.528  -0.303  1.00  0.00     0.049 A 
ATOM     27  C   UNL     1       6.399   8.313  -5.644  1.00  0.00     0.074 A 
ATOM     28  C   UNL     1       8.271  10.700  -0.075  1.00  0.00     0.029 A 
ATOM     29  N   UNL     1       7.369   9.444  -1.673  1.00  0.00    -0.354 N 
ATOM     30  N   UNL     1       6.748   8.731  -4.452  1.00  0.00    -0.248 NA
ATOM     31  C   UNL     1       6.730   9.244  -6.731  1.00  0.00     0.031 C 
ATOM     32  C   UNL     1       8.449  11.349  -1.300  1.00  0.00     0.029 A 
ATOM     33  C   UNL     1       7.910  10.554  -2.299  1.00  0.00     0.049 A 
ATOM     34  H   UNL     1       6.909   8.704  -2.133  1.00  0.00     0.167 HD
ATOM     35  C   UNL     1       7.358   9.963  -4.644  1.00  0.00     0.074 A 
ATOM     36  C   UNL     1       7.337  10.222  -6.070  1.00  0.00     0.031 C 
ATOM     37  C   UNL     1       7.889  10.799  -3.720  1.00  0.00     0.037 A 
BRANCH  24  38
ATOM     38  C   UNL     1       7.364   8.835   2.112  1.00  0.00     0.057 A 
ATOM     39  C   UNL     1       6.701   9.884   2.763  1.00  0.00     0.134 A 
ATOM     40  C   UNL     1       8.308   8.111   2.852  1.00  0.00     0.134 A 
ATOM     41  F   UNL     1       5.792  10.624   2.112  1.00  0.00    -0.206 F 
ATOM     42  C   UNL     1       6.973  10.207   4.094  1.00  0.00     0.040 A 
ATOM     43  C   UNL     1       8.570   8.408   4.191  1.00  0.00     0.040 A 
ATOM     44  F   UNL     1       8.971   7.088   2.292  1.00  0.00    -0.206 F 
ATOM     45  C   UNL     1       7.908   9.465   4.812  1.00  0.00     0.006 A 
ENDBRANCH  24  38
BRANCH  25  46
ATOM     46  C   UNL     1       5.423   6.706  -7.445  1.00  0.00     0.057 A 
ATOM     47  C   UNL     1       4.109   6.674  -7.929  1.00  0.00     0.134 A 
ATOM     48  C   UNL     1       6.446   6.349  -8.328  1.00  0.00     0.134 A 
ATOM     49  F   UNL     1       3.083   6.996  -7.127  1.00  0.00    -0.206 F 
ATOM     50  C   UNL     1       3.820   6.269  -9.233  1.00  0.00     0.040 A 
ATOM     51  C   UNL     1       6.174   5.965  -9.642  1.00  0.00     0.040 A 
ATOM     52  F   UNL     1       7.725   6.374  -7.925  1.00  0.00    -0.206 F 
ATOM     53  C   UNL     1       4.856   5.913 -10.094  1.00  0.00     0.006 A 
ENDBRANCH  25  46
BRANCH  37  54
ATOM     54  C   UNL     1       8.523  12.067  -4.209  1.00  0.00     0.057 A 
ATOM     55  C   UNL     1       9.913  12.233  -4.154  1.00  0.00     0.134 A 
ATOM     56  C   UNL     1       7.756  13.155  -4.643  1.00  0.00     0.134 A 
ATOM     57  F   UNL     1      10.702  11.231  -3.739  1.00  0.00    -0.206 F 
ATOM     58  C   UNL     1      10.516  13.444  -4.493  1.00  0.00     0.040 A 
ATOM     59  C   UNL     1       8.351  14.364  -5.007  1.00  0.00     0.040 A 
ATOM     60  F   UNL     1       6.421  13.055  -4.728  1.00  0.00    -0.206 F 
ATOM     61  C   UNL     1       9.734  14.515  -4.920  1.00  0.00     0.006 A 
ENDBRANCH  37  54
ENDBRANCH  11  12
ENDBRANCH   4   6
ENDBRANCH   1   2
BRANCH   1  62
ATOM     62  C   UNL     1       4.926  -1.403   2.028  1.00  0.00     0.042 C 
BRANCH  62  63
ATOM     63  C   UNL     1       4.356  -2.642   2.706  1.00  0.00     0.118 C 
BRANCH  63  64
ATOM     64  N   UNL     1       4.792  -3.882   2.079  1.00  0.00    -0.352 N 
ATOM     65  C   UNL     1       5.585  -4.893   2.559  1.00  0.00     0.251 C 
ATOM     66  H   UNL     1       4.464  -4.017   1.160  1.00  0.00     0.163 HD
ATOM     67  O   UNL     1       5.867  -5.843   1.830  1.00  0.00    -0.269 OA
BRANCH  65  68
ATOM     68  C   UNL     1       6.087  -4.847   3.952  1.00  0.00     0.047 A 
ATOM     69  C   UNL     1       5.139  -4.731   4.986  1.00  0.00     0.017 A 
ATOM     70  C   UNL     1       7.462  -4.982   4.246  1.00  0.00    -0.003 A 
ATOM     71  C   UNL     1       5.553  -4.649   6.312  1.00  0.00     0.040 A 
ATOM     72  C   UNL     1       7.852  -4.898   5.597  1.00  0.00     0.048 A 
ATOM     73  C   UNL     1       6.907  -4.720   6.604  1.00  0.00     0.123 A 
ATOM     74  F   UNL     1       7.310  -4.633   7.877  1.00  0.00    -0.207 F 
BRANCH  70  75
ATOM     75  C   UNL     1       8.493  -5.245   3.226  1.00  0.00    -0.016 A 
ATOM     76  C   UNL     1       8.823  -4.298   2.243  1.00  0.00     0.012 A 
ATOM     77  C   UNL     1       9.177  -6.478   3.224  1.00  0.00     0.032 A 
ATOM     78  C   UNL     1       9.798  -4.577   1.280  1.00  0.00     0.041 A 
ATOM     79  C   UNL     1      10.152  -6.754   2.264  1.00  0.00     0.077 A 
ATOM     80  C   UNL     1      10.456  -5.803   1.296  1.00  0.00     0.141 A 
ATOM     81  Cl  UNL     1      10.968  -8.270   2.299  1.00  0.00    -0.081 Cl
ATOM     82  F   UNL     1      11.390  -6.047   0.364  1.00  0.00    -0.205 F 
ENDBRANCH  70  75
ENDBRANCH  65  68
ENDBRANCH  63  64
ENDBRANCH  62  63
ENDBRANCH   1  62
TORSDOF 11
