REMARK SMILES CCCCCCNC(=O)Oc1cccc(-c2ccc([C@@H](C)C(=O)NCCCNC(=O)c3ccc(-c4c5nc(c(-c6c(F)cccc6F)c6ccc([nH]6)c(-c6c(F)cccc6F)c6nc(c(-c7c(F)cccc7F)c7ccc4[nH]7)C=C6)C=C5)cc3)cc2F)c1
REMARK SMILES IDX 16 1 17 2 18 3 19 4 85 5 86 6 87 7 15 8 11 9 12 10 88 11
REMARK SMILES IDX 13 12 14 13 10 14 8 15 7 16 9 18 6 19 5 20 4 21 3 22 2 23
REMARK SMILES IDX 1 24 20 25 21 26 22 27 23 28 24 29 25 31 26 32 27 33 28 34
REMARK SMILES IDX 29 35 30 37 31 38 32 39 84 40 33 41 83 42 34 43 35 44 36 45
REMARK SMILES IDX 77 46 37 47 82 48 76 49 78 50 38 51 81 52 75 53 74 54 39 56
REMARK SMILES IDX 65 57 48 58 64 59 49 60 52 61 63 62 79 63 50 64 51 65 62 67
REMARK SMILES IDX 80 68 53 69 40 70 41 71 46 72 42 73 43 74 45 75 47 76 44 77
REMARK SMILES IDX 66 78 67 79 72 80 68 81 69 82 71 83 73 84 70 85 54 86 55 87
REMARK SMILES IDX 60 88 56 89 57 90 59 91 61 92 58 93
REMARK H PARENT 7 17 24 30 28 36 78 55 52 66
REMARK Flexibility Score: inf
ROOT
ATOM      1  C   UNL     1      -5.183   8.437  -4.954  1.00  0.00     0.018 A 
ATOM      2  C   UNL     1      -5.656   9.729  -5.240  1.00  0.00     0.012 A 
ATOM      3  C   UNL     1      -5.560  10.283  -6.524  1.00  0.00     0.005 A 
ATOM      4  C   UNL     1      -4.928   9.593  -7.562  1.00  0.00    -0.033 A 
ATOM      5  C   UNL     1      -4.484   8.290  -7.297  1.00  0.00     0.044 A 
ATOM      6  C   UNL     1      -4.630   7.724  -6.028  1.00  0.00     0.131 A 
ATOM      7  F   UNL     1      -4.213   6.458  -5.866  1.00  0.00    -0.206 F 
ENDROOT
BRANCH   1   8
ATOM      8  C   UNL     1      -5.243   7.890  -3.579  1.00  0.00    -0.012 A 
ATOM      9  C   UNL     1      -4.266   6.598  -1.760  1.00  0.00     0.133 A 
ATOM     10  C   UNL     1      -5.340   6.889  -0.926  1.00  0.00     0.047 A 
ATOM     11  C   UNL     1      -4.212   7.081  -3.068  1.00  0.00     0.056 A 
ATOM     12  C   UNL     1      -6.369   7.690  -1.407  1.00  0.00     0.004 A 
ATOM     13  C   UNL     1      -6.323   8.178  -2.718  1.00  0.00     0.009 A 
BRANCH   9  14
ATOM     14  O   UNL     1      -3.308   5.694  -1.272  1.00  0.00    -0.410 OA
BRANCH  14  15
ATOM     15  C   UNL     1      -1.970   6.056  -1.334  1.00  0.00     0.412 C 
ATOM     16  N   UNL     1      -1.131   5.060  -0.912  1.00  0.00    -0.321 N 
ATOM     17  H   UNL     1      -0.168   5.265  -0.914  1.00  0.00     0.167 HD
ATOM     18  O   UNL     1      -1.530   7.136  -1.705  1.00  0.00    -0.224 OA
BRANCH  16  19
ATOM     19  C   UNL     1      -1.513   3.736  -0.464  1.00  0.00     0.119 C 
BRANCH  19  20
ATOM     20  C   UNL     1      -0.908   2.639  -1.339  1.00  0.00     0.021 C 
BRANCH  20  21
ATOM     21  C   UNL     1       0.622   2.545  -1.289  1.00  0.00     0.002 C 
BRANCH  21  22
ATOM     22  C   UNL     1       1.224   2.303   0.100  1.00  0.00    -0.000 C 
BRANCH  22  23
ATOM     23  C   UNL     1       0.738   1.042   0.817  1.00  0.00    -0.003 C 
ATOM     24  C   UNL     1       1.096  -0.243   0.086  1.00  0.00     0.004 C 
ENDBRANCH  22  23
ENDBRANCH  21  22
ENDBRANCH  20  21
ENDBRANCH  19  20
ENDBRANCH  16  19
ENDBRANCH  14  15
ENDBRANCH   9  14
ENDBRANCH   1   8
BRANCH   4  25
ATOM     25  C   UNL     1      -4.662  10.206  -8.927  1.00  0.00     0.105 C 
ATOM     26  C   UNL     1      -5.830  10.958  -9.561  1.00  0.00     0.023 C 
BRANCH  25  27
ATOM     27  C   UNL     1      -3.309  10.931  -9.011  1.00  0.00     0.227 C 
ATOM     28  O   UNL     1      -2.352  10.383  -9.571  1.00  0.00    -0.274 OA
ATOM     29  N   UNL     1      -3.074  12.168  -8.497  1.00  0.00    -0.356 N 
ATOM     30  H   UNL     1      -2.169  12.512  -8.680  1.00  0.00     0.163 HD
BRANCH  29  31
ATOM     31  C   UNL     1      -3.905  13.076  -7.732  1.00  0.00     0.117 C 
BRANCH  31  32
ATOM     32  C   UNL     1      -3.611  13.014  -6.235  1.00  0.00     0.042 C 
BRANCH  32  33
ATOM     33  C   UNL     1      -2.386  13.814  -5.808  1.00  0.00     0.118 C 
BRANCH  33  34
ATOM     34  N   UNL     1      -2.599  15.250  -5.924  1.00  0.00    -0.352 N 
ATOM     35  C   UNL     1      -2.609  16.239  -4.972  1.00  0.00     0.251 C 
ATOM     36  H   UNL     1      -2.764  15.566  -6.842  1.00  0.00     0.163 HD
ATOM     37  O   UNL     1      -3.024  17.354  -5.281  1.00  0.00    -0.269 OA
BRANCH  35  38
ATOM     38  C   UNL     1      -2.139  15.994  -3.588  1.00  0.00     0.039 A 
ATOM     39  C   UNL     1      -2.775  16.670  -2.539  1.00  0.00     0.014 A 
ATOM     40  C   UNL     1      -1.043  15.174  -3.312  1.00  0.00     0.014 A 
ATOM     41  C   UNL     1      -2.342  16.490  -1.223  1.00  0.00     0.010 A 
ATOM     42  C   UNL     1      -0.664  14.930  -1.992  1.00  0.00     0.010 A 
ATOM     43  C   UNL     1      -1.298  15.598  -0.934  1.00  0.00    -0.014 A 
BRANCH  43  44
ATOM     44  C   UNL     1      -0.842  15.373   0.462  1.00  0.00     0.031 A 
ATOM     45  C   UNL     1       0.553  15.757   0.877  1.00  0.00     0.074 A 
ATOM     46  C   UNL     1      -1.666  14.776   1.345  1.00  0.00     0.049 A 
ATOM     47  N   UNL     1       1.149  15.591   2.031  1.00  0.00    -0.248 NA
ATOM     48  C   UNL     1       1.399  16.389  -0.147  1.00  0.00     0.031 C 
ATOM     49  C   UNL     1      -3.023  14.310   1.054  1.00  0.00     0.029 A 
ATOM     50  N   UNL     1      -1.478  14.449   2.664  1.00  0.00    -0.354 N 
ATOM     51  C   UNL     1       2.440  16.076   1.865  1.00  0.00     0.074 A 
ATOM     52  C   UNL     1       2.558  16.499   0.487  1.00  0.00     0.031 C 
ATOM     53  C   UNL     1      -3.553  13.778   2.167  1.00  0.00     0.029 A 
ATOM     54  C   UNL     1      -2.564  13.834   3.239  1.00  0.00     0.049 A 
ATOM     55  H   UNL     1      -0.644  14.637   3.153  1.00  0.00     0.167 HD
ATOM     56  C   UNL     1       3.432  16.179   2.781  1.00  0.00     0.037 A 
ATOM     57  C   UNL     1      -2.740  13.363   4.487  1.00  0.00     0.037 A 
ATOM     58  C   UNL     1       3.304  15.787   4.160  1.00  0.00     0.049 A 
ATOM     59  C   UNL     1      -1.630  13.502   5.490  1.00  0.00     0.074 A 
ATOM     60  C   UNL     1       4.229  15.913   5.183  1.00  0.00     0.029 A 
ATOM     61  N   UNL     1       2.179  15.192   4.710  1.00  0.00    -0.354 N 
ATOM     62  N   UNL     1      -0.438  14.026   5.336  1.00  0.00    -0.248 NA
ATOM     63  C   UNL     1      -1.892  12.993   6.844  1.00  0.00     0.031 C 
ATOM     64  C   UNL     1       3.676  15.360   6.343  1.00  0.00     0.029 A 
ATOM     65  C   UNL     1       2.392  14.929   6.053  1.00  0.00     0.049 A 
ATOM     66  H   UNL     1       1.351  14.987   4.218  1.00  0.00     0.167 HD
ATOM     67  C   UNL     1       0.182  13.932   6.575  1.00  0.00     0.074 A 
ATOM     68  C   UNL     1      -0.772  13.316   7.474  1.00  0.00     0.031 C 
ATOM     69  C   UNL     1       1.429  14.321   6.936  1.00  0.00     0.037 A 
BRANCH  56  70
ATOM     70  C   UNL     1       4.744  16.747   2.322  1.00  0.00     0.057 A 
ATOM     71  C   UNL     1       4.890  18.103   2.000  1.00  0.00     0.134 A 
ATOM     72  C   UNL     1       5.882  15.936   2.231  1.00  0.00     0.134 A 
ATOM     73  F   UNL     1       3.837  18.932   2.056  1.00  0.00    -0.206 F 
ATOM     74  C   UNL     1       6.114  18.627   1.579  1.00  0.00     0.040 A 
ATOM     75  C   UNL     1       7.118  16.454   1.836  1.00  0.00     0.040 A 
ATOM     76  F   UNL     1       5.816  14.630   2.531  1.00  0.00    -0.206 F 
ATOM     77  C   UNL     1       7.234  17.802   1.503  1.00  0.00     0.006 A 
ENDBRANCH  56  70
BRANCH  57  78
ATOM     78  C   UNL     1      -4.032  12.739   4.869  1.00  0.00     0.057 A 
ATOM     79  C   UNL     1      -4.917  13.389   5.738  1.00  0.00     0.134 A 
ATOM     80  C   UNL     1      -4.413  11.485   4.379  1.00  0.00     0.134 A 
ATOM     81  F   UNL     1      -4.598  14.584   6.255  1.00  0.00    -0.206 F 
ATOM     82  C   UNL     1      -6.125  12.805   6.122  1.00  0.00     0.040 A 
ATOM     83  C   UNL     1      -5.630  10.900   4.735  1.00  0.00     0.040 A 
ATOM     84  F   UNL     1      -3.612  10.815   3.538  1.00  0.00    -0.206 F 
ATOM     85  C   UNL     1      -6.487  11.559   5.614  1.00  0.00     0.006 A 
ENDBRANCH  57  78
BRANCH  69  86
ATOM     86  C   UNL     1       1.820  14.122   8.370  1.00  0.00     0.057 A 
ATOM     87  C   UNL     1       2.099  12.852   8.890  1.00  0.00     0.134 A 
ATOM     88  C   UNL     1       1.950  15.218   9.232  1.00  0.00     0.134 A 
ATOM     89  F   UNL     1       1.980  11.760   8.120  1.00  0.00    -0.206 F 
ATOM     90  C   UNL     1       2.472  12.677  10.224  1.00  0.00     0.040 A 
ATOM     91  C   UNL     1       2.347  15.059  10.560  1.00  0.00     0.040 A 
ATOM     92  F   UNL     1       1.706  16.462   8.794  1.00  0.00    -0.206 F 
ATOM     93  C   UNL     1       2.603  13.784  11.061  1.00  0.00     0.006 A 
ENDBRANCH  69  86
ENDBRANCH  43  44
ENDBRANCH  35  38
ENDBRANCH  33  34
ENDBRANCH  32  33
ENDBRANCH  31  32
ENDBRANCH  29  31
ENDBRANCH  25  27
ENDBRANCH   4  25
TORSDOF 19
