REMARK SMILES CO[C@@H]1C[C@@H](C(=O)NCCCNC(=O)c2ccc(-c3c4nc(c(-c5c(F)cccc5F)c5ccc([nH]5)c(-c5c(F)cccc5F)c5nc(c(-c6c(F)cccc6F)c6ccc3[nH]6)C=C5)C=C4)cc2)N(S(=O)(=O)c2ccc(Cl)cc2F)C1
REMARK SMILES IDX 10 1 9 2 8 3 6 4 7 5 5 7 3 8 4 9 81 10 69 11 2 12 1 13 70 14
REMARK SMILES IDX 71 15 72 16 73 17 74 18 79 19 75 20 78 21 80 22 76 23 77 24
REMARK SMILES IDX 11 25 12 26 13 27 14 29 15 30 16 31 68 32 17 33 67 34 18 35
REMARK SMILES IDX 19 36 20 37 61 38 21 39 66 40 60 41 62 42 22 43 65 44 59 45
REMARK SMILES IDX 58 46 23 48 49 49 32 50 48 51 33 52 36 53 47 54 63 55 34 56
REMARK SMILES IDX 35 57 46 59 64 60 37 61 24 62 25 63 30 64 26 65 27 66 29 67
REMARK SMILES IDX 31 68 28 69 50 70 51 71 56 72 52 73 53 74 55 75 57 76 54 77
REMARK SMILES IDX 38 78 39 79 44 80 40 81 41 82 43 83 45 84 42 85
REMARK H PARENT 8 6 12 28 62 47 36 58
REMARK Flexibility Score: inf
ROOT
ATOM      1  C   UNL     1       5.280   0.377   2.015  1.00  0.00     0.042 C 
ENDROOT
BRANCH   1   2
ATOM      2  C   UNL     1       4.652   0.795   0.690  1.00  0.00     0.117 C 
BRANCH   2   3
ATOM      3  N   UNL     1       4.727  -0.241  -0.317  1.00  0.00    -0.355 N 
ATOM      4  C   UNL     1       3.894  -1.252  -0.661  1.00  0.00     0.238 C 
ATOM      5  O   UNL     1       4.215  -1.875  -1.682  1.00  0.00    -0.273 OA
ATOM      6  H   UNL     1       5.547  -0.204  -0.860  1.00  0.00     0.163 HD
BRANCH   4   7
ATOM      7  C   UNL     1       2.571  -1.562   0.020  1.00  0.00     0.165 C 
ATOM      8  C   UNL     1       0.790  -1.628   1.601  1.00  0.00     0.135 C 
ATOM      9  C   UNL     1       2.176  -1.028   1.391  1.00  0.00     0.064 C 
ATOM     10  C   UNL     1       0.771  -2.921   0.762  1.00  0.00     0.135 C 
ATOM     11  N   UNL     1       2.115  -3.001   0.067  1.00  0.00    -0.183 NA
BRANCH   8  12
ATOM     12  O   UNL     1      -0.282  -0.717   1.327  1.00  0.00    -0.380 OA
ATOM     13  C   UNL     1      -0.267  -0.001   0.100  1.00  0.00     0.195 C 
ENDBRANCH   8  12
BRANCH  11  14
ATOM     14  S   UNL     1       3.143  -4.186   0.779  1.00  0.00     0.246 S 
ATOM     15  O   UNL     1       3.641  -3.644   2.029  1.00  0.00    -0.207 OA
ATOM     16  O   UNL     1       2.389  -5.422   0.799  1.00  0.00    -0.207 OA
BRANCH  14  17
ATOM     17  C   UNL     1       4.498  -4.459  -0.312  1.00  0.00     0.118 A 
ATOM     18  C   UNL     1       4.408  -5.454  -1.295  1.00  0.00     0.026 A 
ATOM     19  C   UNL     1       5.695  -3.770  -0.140  1.00  0.00     0.144 A 
ATOM     20  C   UNL     1       5.489  -5.684  -2.151  1.00  0.00     0.022 A 
ATOM     21  C   UNL     1       6.761  -3.969  -1.014  1.00  0.00     0.061 A 
ATOM     22  F   UNL     1       5.839  -2.848   0.822  1.00  0.00    -0.205 F 
ATOM     23  C   UNL     1       6.649  -4.919  -2.024  1.00  0.00     0.044 A 
ATOM     24  Cl  UNL     1       7.953  -5.154  -3.121  1.00  0.00    -0.084 Cl
ENDBRANCH  14  17
ENDBRANCH  11  14
ENDBRANCH   4   7
ENDBRANCH   2   3
ENDBRANCH   1   2
BRANCH   1  25
ATOM     25  C   UNL     1       6.790   0.165   1.941  1.00  0.00     0.118 C 
BRANCH  25  26
ATOM     26  N   UNL     1       7.493   1.360   1.500  1.00  0.00    -0.352 N 
ATOM     27  C   UNL     1       8.397   2.163   2.142  1.00  0.00     0.251 C 
ATOM     28  H   UNL     1       7.282   1.640   0.581  1.00  0.00     0.163 HD
ATOM     29  O   UNL     1       8.655   3.263   1.659  1.00  0.00    -0.269 OA
BRANCH  27  30
ATOM     30  C   UNL     1       9.071   1.734   3.387  1.00  0.00     0.039 A 
ATOM     31  C   UNL     1       9.395   2.712   4.333  1.00  0.00     0.014 A 
ATOM     32  C   UNL     1       9.469   0.410   3.596  1.00  0.00     0.014 A 
ATOM     33  C   UNL     1      10.083   2.358   5.494  1.00  0.00     0.010 A 
ATOM     34  C   UNL     1      10.086   0.044   4.792  1.00  0.00     0.010 A 
ATOM     35  C   UNL     1      10.414   1.017   5.746  1.00  0.00    -0.014 A 
BRANCH  35  36
ATOM     36  C   UNL     1      11.104   0.637   7.005  1.00  0.00     0.031 A 
ATOM     37  C   UNL     1      12.496   0.067   6.978  1.00  0.00     0.074 A 
ATOM     38  C   UNL     1      10.460   0.793   8.178  1.00  0.00     0.049 A 
ATOM     39  N   UNL     1      13.255  -0.305   7.979  1.00  0.00    -0.248 NA
ATOM     40  C   UNL     1      13.111  -0.133   5.656  1.00  0.00     0.031 C 
ATOM     41  C   UNL     1       9.087   1.278   8.330  1.00  0.00     0.029 A 
ATOM     42  N   UNL     1      10.875   0.562   9.465  1.00  0.00    -0.354 N 
ATOM     43  C   UNL     1      14.431  -0.779   7.409  1.00  0.00     0.074 A 
ATOM     44  C   UNL     1      14.263  -0.706   5.974  1.00  0.00     0.031 C 
ATOM     45  C   UNL     1       8.783   1.337   9.636  1.00  0.00     0.029 A 
ATOM     46  C   UNL     1       9.927   0.867  10.411  1.00  0.00     0.049 A 
ATOM     47  H   UNL     1      11.767   0.211   9.689  1.00  0.00     0.167 HD
ATOM     48  C   UNL     1      15.558  -1.209   8.025  1.00  0.00     0.037 A 
ATOM     49  C   UNL     1       9.975   0.779  11.753  1.00  0.00     0.037 A 
ATOM     50  C   UNL     1      15.727  -1.272   9.454  1.00  0.00     0.049 A 
ATOM     51  C   UNL     1      11.243   0.313  12.410  1.00  0.00     0.074 A 
ATOM     52  C   UNL     1      16.842  -1.664  10.176  1.00  0.00     0.029 A 
ATOM     53  N   UNL     1      14.753  -0.931  10.380  1.00  0.00    -0.354 N 
ATOM     54  N   UNL     1      12.369  -0.071  11.858  1.00  0.00    -0.248 NA
ATOM     55  C   UNL     1      11.253   0.285  13.878  1.00  0.00     0.031 C 
ATOM     56  C   UNL     1      16.529  -1.594  11.538  1.00  0.00     0.029 A 
ATOM     57  C   UNL     1      15.237  -1.112  11.666  1.00  0.00     0.049 A 
ATOM     58  H   UNL     1      13.850  -0.608  10.157  1.00  0.00     0.167 HD
ATOM     59  C   UNL     1      13.226  -0.365  12.909  1.00  0.00     0.074 A 
ATOM     60  C   UNL     1      12.500  -0.085  14.130  1.00  0.00     0.031 C 
ATOM     61  C   UNL     1      14.499  -0.831  12.870  1.00  0.00     0.037 A 
BRANCH  48  62
ATOM     62  C   UNL     1      16.708  -1.628   7.154  1.00  0.00     0.057 A 
ATOM     63  C   UNL     1      17.449  -0.694   6.417  1.00  0.00     0.134 A 
ATOM     64  C   UNL     1      17.111  -2.968   7.087  1.00  0.00     0.134 A 
ATOM     65  F   UNL     1      17.109   0.604   6.427  1.00  0.00    -0.206 F 
ATOM     66  C   UNL     1      18.535  -1.080   5.629  1.00  0.00     0.040 A 
ATOM     67  C   UNL     1      18.212  -3.362   6.323  1.00  0.00     0.040 A 
ATOM     68  F   UNL     1      16.451  -3.914   7.771  1.00  0.00    -0.206 F 
ATOM     69  C   UNL     1      18.924  -2.417   5.588  1.00  0.00     0.006 A 
ENDBRANCH  48  62
BRANCH  49  70
ATOM     70  C   UNL     1       8.794   1.163  12.568  1.00  0.00     0.057 A 
ATOM     71  C   UNL     1       8.813   2.302  13.382  1.00  0.00     0.134 A 
ATOM     72  C   UNL     1       7.628   0.390  12.568  1.00  0.00     0.134 A 
ATOM     73  F   UNL     1       9.908   3.074  13.437  1.00  0.00    -0.206 F 
ATOM     74  C   UNL     1       7.727   2.640  14.190  1.00  0.00     0.040 A 
ATOM     75  C   UNL     1       6.523   0.733  13.348  1.00  0.00     0.040 A 
ATOM     76  F   UNL     1       7.542  -0.707  11.800  1.00  0.00    -0.206 F 
ATOM     77  C   UNL     1       6.576   1.856  14.172  1.00  0.00     0.006 A 
ENDBRANCH  49  70
BRANCH  61  78
ATOM     78  C   UNL     1      15.186  -1.036  14.190  1.00  0.00     0.057 A 
ATOM     79  C   UNL     1      14.812  -2.062  15.067  1.00  0.00     0.134 A 
ATOM     80  C   UNL     1      16.231  -0.193  14.589  1.00  0.00     0.134 A 
ATOM     81  F   UNL     1      13.809  -2.896  14.751  1.00  0.00    -0.206 F 
ATOM     82  C   UNL     1      15.424  -2.217  16.312  1.00  0.00     0.040 A 
ATOM     83  C   UNL     1      16.871  -0.357  15.818  1.00  0.00     0.040 A 
ATOM     84  F   UNL     1      16.646   0.803  13.792  1.00  0.00    -0.206 F 
ATOM     85  C   UNL     1      16.460  -1.364  16.688  1.00  0.00     0.006 A 
ENDBRANCH  61  78
ENDBRANCH  35  36
ENDBRANCH  27  30
ENDBRANCH  25  26
ENDBRANCH   1  25
TORSDOF 13
