REMARK SMILES C[NH+]1CCC(C(=O)N2C[C@@H](C(=O)NCCCNC(=O)c3ccc(-c4c5nc(c(-c6c(F)cccc6F)c6ccc([nH]6)c(-c6c(F)cccc6F)c6nc(c(-c7c(F)cccc7F)c7ccc4[nH]7)C=C6)C=C5)cc3)[C@H](c3ccc4c(c3)OCO4)C2)CC1
REMARK SMILES IDX 15 1 14 2 13 3 11 4 12 5 10 7 8 8 9 9 84 10 74 11 6 12 7 13
REMARK SMILES IDX 5 14 1 15 2 16 3 17 86 18 4 20 85 21 75 22 76 23 80 24 77 25
REMARK SMILES IDX 79 26 78 27 81 28 83 29 82 30 16 31 17 32 18 33 19 35 20 36
REMARK SMILES IDX 21 37 73 38 22 39 72 40 23 41 24 42 25 43 66 44 26 45 71 46
REMARK SMILES IDX 65 47 67 48 27 49 70 50 64 51 63 52 28 54 54 55 37 56 53 57
REMARK SMILES IDX 38 58 41 59 52 60 68 61 39 62 40 63 51 65 69 66 42 67 29 68
REMARK SMILES IDX 30 69 35 70 31 71 32 72 34 73 36 74 33 75 55 76 56 77 61 78
REMARK SMILES IDX 57 79 58 80 60 81 62 82 59 83 43 84 44 85 49 86 45 87 46 88
REMARK SMILES IDX 48 89 50 90 47 91
REMARK H PARENT 13 6 2 19 17 34 67 53 41 64
REMARK Flexibility Score: inf
ROOT
ATOM      1  C   UNL     1       0.365   0.727   6.934  1.00  0.00     0.042 C 
ENDROOT
BRANCH   1   2
ATOM      2  C   UNL     1       1.734   0.763   6.285  1.00  0.00     0.117 C 
BRANCH   2   3
ATOM      3  N   UNL     1       2.303  -0.551   6.040  1.00  0.00    -0.356 N 
ATOM      4  C   UNL     1       3.058  -0.977   4.988  1.00  0.00     0.225 C 
ATOM      5  O   UNL     1       3.602  -2.078   5.071  1.00  0.00    -0.275 OA
ATOM      6  H   UNL     1       2.118  -1.228   6.730  1.00  0.00     0.163 HD
BRANCH   4   7
ATOM      7  C   UNL     1       3.189  -0.103   3.764  1.00  0.00     0.107 C 
ATOM      8  N   UNL     1       3.681  -0.017   1.522  1.00  0.00    -0.341 N 
ATOM      9  C   UNL     1       3.240  -0.963   2.519  1.00  0.00     0.133 C 
ATOM     10  C   UNL     1       4.689   0.860   2.121  1.00  0.00     0.128 C 
ATOM     11  C   UNL     1       4.516   0.688   3.655  1.00  0.00     0.053 C 
BRANCH   8  12
ATOM     12  C   UNL     1       3.313   0.128   0.210  1.00  0.00     0.226 C 
ATOM     13  O   UNL     1       4.105   0.638  -0.592  1.00  0.00    -0.275 OA
BRANCH  12  14
ATOM     14  C   UNL     1       1.849  -0.040  -0.228  1.00  0.00     0.090 C 
ATOM     15  C   UNL     1      -2.451   0.010  -0.279  1.00  0.00     0.332 C 
ATOM     16  N   UNL     1      -1.046  -0.035   0.119  1.00  0.00    -0.337 N 
ATOM     17  C   UNL     1      -0.358   1.202  -0.271  1.00  0.00     0.262 C 
ATOM     18  C   UNL     1      -0.373  -1.210  -0.456  1.00  0.00     0.262 C 
ATOM     19  H   UNL     1      -1.006  -0.115   1.135  1.00  0.00     0.347 HD
ATOM     20  C   UNL     1       1.079   1.201   0.247  1.00  0.00     0.075 C 
ATOM     21  C   UNL     1       1.055  -1.303   0.095  1.00  0.00     0.075 C 
ENDBRANCH  12  14
ENDBRANCH   8  12
BRANCH  11  22
ATOM     22  C   UNL     1       4.467   1.932   4.529  1.00  0.00    -0.038 A 
ATOM     23  C   UNL     1       3.874   3.144   4.104  1.00  0.00     0.008 A 
ATOM     24  C   UNL     1       4.854   1.803   5.879  1.00  0.00     0.054 A 
ATOM     25  C   UNL     1       3.606   4.178   5.012  1.00  0.00     0.051 A 
ATOM     26  C   UNL     1       4.524   2.814   6.758  1.00  0.00     0.166 A 
ATOM     27  C   UNL     1       3.902   3.964   6.339  1.00  0.00     0.165 A 
ATOM     28  O   UNL     1       4.622   2.745   8.115  1.00  0.00    -0.454 OA
ATOM     29  O   UNL     1       3.556   4.772   7.377  1.00  0.00    -0.454 OA
ATOM     30  C   UNL     1       3.848   3.905   8.495  1.00  0.00     0.468 C 
ENDBRANCH  11  22
ENDBRANCH   4   7
ENDBRANCH   2   3
ENDBRANCH   1   2
BRANCH   1  31
ATOM     31  C   UNL     1       0.367   0.080   8.313  1.00  0.00     0.118 C 
BRANCH  31  32
ATOM     32  N   UNL     1       1.214   0.779   9.278  1.00  0.00    -0.352 N 
ATOM     33  C   UNL     1       0.871   1.513  10.390  1.00  0.00     0.251 C 
ATOM     34  H   UNL     1       2.181   0.714   9.106  1.00  0.00     0.163 HD
ATOM     35  O   UNL     1       1.718   2.183  10.974  1.00  0.00    -0.269 OA
BRANCH  33  36
ATOM     36  C   UNL     1      -0.530   1.523  10.854  1.00  0.00     0.039 A 
ATOM     37  C   UNL     1      -1.133   2.737  11.197  1.00  0.00     0.014 A 
ATOM     38  C   UNL     1      -1.260   0.336  10.909  1.00  0.00     0.014 A 
ATOM     39  C   UNL     1      -2.500   2.773  11.483  1.00  0.00     0.010 A 
ATOM     40  C   UNL     1      -2.634   0.387  11.091  1.00  0.00     0.010 A 
ATOM     41  C   UNL     1      -3.272   1.607  11.371  1.00  0.00    -0.014 A 
BRANCH  41  42
ATOM     42  C   UNL     1      -4.747   1.597  11.537  1.00  0.00     0.031 A 
ATOM     43  C   UNL     1      -5.360   0.714  12.586  1.00  0.00     0.074 A 
ATOM     44  C   UNL     1      -5.533   2.254  10.661  1.00  0.00     0.049 A 
ATOM     45  N   UNL     1      -6.602   0.333  12.729  1.00  0.00    -0.248 NA
ATOM     46  C   UNL     1      -4.435   0.142  13.580  1.00  0.00     0.031 C 
ATOM     47  C   UNL     1      -5.064   3.120   9.577  1.00  0.00     0.029 A 
ATOM     48  N   UNL     1      -6.899   2.264  10.525  1.00  0.00    -0.354 N 
ATOM     49  C   UNL     1      -6.599  -0.562  13.791  1.00  0.00     0.074 A 
ATOM     50  C   UNL     1      -5.228  -0.692  14.235  1.00  0.00     0.031 C 
ATOM     51  C   UNL     1      -6.124   3.580   8.892  1.00  0.00     0.029 A 
ATOM     52  C   UNL     1      -7.340   3.000   9.451  1.00  0.00     0.049 A 
ATOM     53  H   UNL     1      -7.505   1.789  11.138  1.00  0.00     0.167 HD
ATOM     54  C   UNL     1      -7.647  -1.208  14.353  1.00  0.00     0.037 A 
ATOM     55  C   UNL     1      -8.582   3.165   8.957  1.00  0.00     0.037 A 
ATOM     56  C   UNL     1      -9.014  -1.028  13.945  1.00  0.00     0.049 A 
ATOM     57  C   UNL     1      -9.735   2.459   9.615  1.00  0.00     0.074 A 
ATOM     58  C   UNL     1     -10.157  -1.584  14.492  1.00  0.00     0.029 A 
ATOM     59  N   UNL     1      -9.422  -0.219  12.896  1.00  0.00    -0.354 N 
ATOM     60  N   UNL     1      -9.724   1.637  10.635  1.00  0.00    -0.248 NA
ATOM     61  C   UNL     1     -11.072   2.701   9.052  1.00  0.00     0.031 C 
ATOM     62  C   UNL     1     -11.257  -1.129  13.758  1.00  0.00     0.029 A 
ATOM     63  C   UNL     1     -10.800  -0.263  12.777  1.00  0.00     0.049 A 
ATOM     64  H   UNL     1      -8.821   0.308  12.322  1.00  0.00     0.167 HD
ATOM     65  C   UNL     1     -11.050   1.290  10.859  1.00  0.00     0.074 A 
ATOM     66  C   UNL     1     -11.840   1.991   9.867  1.00  0.00     0.031 C 
ATOM     67  C   UNL     1     -11.568   0.468  11.802  1.00  0.00     0.037 A 
BRANCH  54  68
ATOM     68  C   UNL     1      -7.353  -2.163  15.472  1.00  0.00     0.057 A 
ATOM     69  C   UNL     1      -6.944  -1.719  16.735  1.00  0.00     0.134 A 
ATOM     70  C   UNL     1      -7.504  -3.543  15.288  1.00  0.00     0.134 A 
ATOM     71  F   UNL     1      -6.766  -0.410  16.971  1.00  0.00    -0.206 F 
ATOM     72  C   UNL     1      -6.666  -2.615  17.769  1.00  0.00     0.040 A 
ATOM     73  C   UNL     1      -7.256  -4.447  16.322  1.00  0.00     0.040 A 
ATOM     74  F   UNL     1      -7.898  -4.035  14.104  1.00  0.00    -0.206 F 
ATOM     75  C   UNL     1      -6.829  -3.984  17.565  1.00  0.00     0.006 A 
ENDBRANCH  54  68
BRANCH  55  76
ATOM     76  C   UNL     1      -8.803   4.045   7.782  1.00  0.00     0.057 A 
ATOM     77  C   UNL     1      -9.432   5.287   7.928  1.00  0.00     0.134 A 
ATOM     78  C   UNL     1      -8.398   3.673   6.495  1.00  0.00     0.134 A 
ATOM     79  F   UNL     1      -9.859   5.689   9.134  1.00  0.00    -0.206 F 
ATOM     80  C   UNL     1      -9.664   6.122   6.834  1.00  0.00     0.040 A 
ATOM     81  C   UNL     1      -8.604   4.508   5.396  1.00  0.00     0.040 A 
ATOM     82  F   UNL     1      -7.783   2.499   6.292  1.00  0.00    -0.206 F 
ATOM     83  C   UNL     1      -9.245   5.734   5.563  1.00  0.00     0.006 A 
ENDBRANCH  55  76
BRANCH  67  84
ATOM     84  C   UNL     1     -13.058   0.325  11.854  1.00  0.00     0.057 A 
ATOM     85  C   UNL     1     -13.756  -0.467  10.936  1.00  0.00     0.134 A 
ATOM     86  C   UNL     1     -13.790   0.927  12.885  1.00  0.00     0.134 A 
ATOM     87  F   UNL     1     -13.111  -1.060   9.920  1.00  0.00    -0.206 F 
ATOM     88  C   UNL     1     -15.136  -0.651  11.039  1.00  0.00     0.040 A 
ATOM     89  C   UNL     1     -15.165   0.735  13.010  1.00  0.00     0.040 A 
ATOM     90  F   UNL     1     -13.174   1.692  13.800  1.00  0.00    -0.206 F 
ATOM     91  C   UNL     1     -15.842  -0.057  12.084  1.00  0.00     0.006 A 
ENDBRANCH  67  84
ENDBRANCH  41  42
ENDBRANCH  33  36
ENDBRANCH  31  32
ENDBRANCH   1  31
TORSDOF 13
