REMARK SMILES C[C@H]1C[N@H+]2CCCC[C@@H]2CN1C(=O)[C@H]([NH3+])CC(=O)NCCCNC(=O)c1ccc(-c2c3nc(c(-c4c(F)cccc4F)c4ccc([nH]4)c(-c4c(F)cccc4F)c4nc(c(-c5c(F)cccc5F)c5ccc2[nH]5)C=C4)C=C3)cc1
REMARK SMILES IDX 20 1 19 2 17 3 18 4 16 6 14 7 12 8 13 9 11 10 1 11 2 12 3 13
REMARK SMILES IDX 4 14 10 15 5 16 9 17 6 19 8 20 7 21 15 22 21 26 22 27 23 28
REMARK SMILES IDX 24 29 25 31 26 32 27 33 79 34 28 35 78 36 29 37 30 38 31 39
REMARK SMILES IDX 72 40 32 41 77 42 71 43 73 44 33 45 76 46 70 47 69 48 34 50
REMARK SMILES IDX 60 51 43 52 59 53 44 54 47 55 58 56 74 57 45 58 46 59 57 61
REMARK SMILES IDX 75 62 48 63 35 64 36 65 41 66 37 67 38 68 40 69 42 70 39 71
REMARK SMILES IDX 61 72 62 73 67 74 63 75 64 76 66 77 68 78 65 79 49 80 50 81
REMARK SMILES IDX 55 82 51 83 52 84 54 85 56 86 53 87
REMARK H PARENT 19 5 4 18 15 23 15 24 15 25 23 30 73 49 47 60
REMARK Flexibility Score: inf
ROOT
ATOM      1  C   UNL     1      -0.906  -1.721   1.182  1.00  0.00     0.117 C 
ENDROOT
BRANCH   1   2
ATOM      2  N   UNL     1      -2.183  -1.528   1.847  1.00  0.00    -0.356 N 
ATOM      3  C   UNL     1      -3.389  -1.194   1.304  1.00  0.00     0.226 C 
ATOM      4  O   UNL     1      -4.306  -0.899   2.073  1.00  0.00    -0.275 OA
ATOM      5  H   UNL     1      -2.177  -1.655   2.823  1.00  0.00     0.163 HD
BRANCH   3   6
ATOM      6  C   UNL     1      -3.598  -1.208  -0.198  1.00  0.00     0.175 C 
BRANCH   6   7
ATOM      7  C   UNL     1      -3.133   0.081  -0.894  1.00  0.00     0.280 C 
BRANCH   7   8
ATOM      8  C   UNL     1      -3.986   0.392  -2.168  1.00  0.00     0.281 C 
ATOM      9  O   UNL     1      -4.827  -0.425  -2.545  1.00  0.00    -0.268 OA
BRANCH   8  10
ATOM     10  N   UNL     1      -3.688   1.557  -2.899  1.00  0.00    -0.323 N 
ATOM     11  C   UNL     1      -5.298   0.974  -4.814  1.00  0.00     0.037 C 
ATOM     12  C   UNL     1      -3.986   1.630  -4.356  1.00  0.00     0.137 C 
ATOM     13  C   UNL     1      -4.009   3.088  -4.915  1.00  0.00     0.287 C 
ATOM     14  N   UNL     1      -2.973   4.008  -4.407  1.00  0.00    -0.329 N 
ATOM     15  C   UNL     1      -2.716   2.549  -2.425  1.00  0.00     0.185 C 
ATOM     16  C   UNL     1      -3.246   5.373  -4.893  1.00  0.00     0.262 C 
ATOM     17  C   UNL     1      -2.967   3.976  -2.933  1.00  0.00     0.203 C 
ATOM     18  H   UNL     1      -2.056   3.717  -4.746  1.00  0.00     0.348 HD
ATOM     19  C   UNL     1      -2.212   6.380  -4.386  1.00  0.00     0.062 C 
ATOM     20  C   UNL     1      -1.862   4.902  -2.396  1.00  0.00     0.067 C 
ATOM     21  C   UNL     1      -2.072   6.334  -2.869  1.00  0.00     0.012 C 
ENDBRANCH   8  10
ENDBRANCH   7   8
BRANCH   7  22
ATOM     22  N   UNL     1      -1.724  -0.089  -1.325  1.00  0.00    -0.347 N 
ATOM     23  H   UNL     1      -1.661  -0.864  -1.985  1.00  0.00     0.345 HD
ATOM     24  H   UNL     1      -1.141  -0.288  -0.511  1.00  0.00     0.345 HD
ATOM     25  H   UNL     1      -1.399   0.767  -1.774  1.00  0.00     0.345 HD
ENDBRANCH   7  22
ENDBRANCH   6   7
ENDBRANCH   3   6
ENDBRANCH   1   2
BRANCH   1  26
ATOM     26  C   UNL     1      -0.092  -0.426   1.183  1.00  0.00     0.042 C 
BRANCH  26  27
ATOM     27  C   UNL     1       0.641  -0.167   2.489  1.00  0.00     0.118 C 
BRANCH  27  28
ATOM     28  N   UNL     1       1.816  -1.013   2.629  1.00  0.00    -0.352 N 
ATOM     29  C   UNL     1       3.141  -0.679   2.729  1.00  0.00     0.251 C 
ATOM     30  H   UNL     1       1.629  -1.979   2.657  1.00  0.00     0.163 HD
ATOM     31  O   UNL     1       3.991  -1.565   2.613  1.00  0.00    -0.269 OA
BRANCH  29  32
ATOM     32  C   UNL     1       3.575   0.718   2.965  1.00  0.00     0.039 A 
ATOM     33  C   UNL     1       4.768   1.157   2.379  1.00  0.00     0.014 A 
ATOM     34  C   UNL     1       2.865   1.578   3.807  1.00  0.00     0.014 A 
ATOM     35  C   UNL     1       5.227   2.456   2.611  1.00  0.00     0.010 A 
ATOM     36  C   UNL     1       3.274   2.900   3.965  1.00  0.00     0.010 A 
ATOM     37  C   UNL     1       4.474   3.346   3.392  1.00  0.00    -0.014 A 
BRANCH  37  38
ATOM     38  C   UNL     1       4.950   4.727   3.664  1.00  0.00     0.031 A 
ATOM     39  C   UNL     1       5.274   5.146   5.074  1.00  0.00     0.074 A 
ATOM     40  C   UNL     1       5.044   5.617   2.659  1.00  0.00     0.049 A 
ATOM     41  N   UNL     1       5.642   6.318   5.527  1.00  0.00    -0.248 NA
ATOM     42  C   UNL     1       5.137   4.118   6.118  1.00  0.00     0.031 C 
ATOM     43  C   UNL     1       4.724   5.349   1.256  1.00  0.00     0.029 A 
ATOM     44  N   UNL     1       5.433   6.934   2.665  1.00  0.00    -0.354 N 
ATOM     45  C   UNL     1       5.755   6.173   6.904  1.00  0.00     0.074 A 
ATOM     46  C   UNL     1       5.365   4.816   7.219  1.00  0.00     0.031 C 
ATOM     47  C   UNL     1       4.955   6.457   0.533  1.00  0.00     0.029 A 
ATOM     48  C   UNL     1       5.405   7.522   1.425  1.00  0.00     0.049 A 
ATOM     49  H   UNL     1       5.705   7.411   3.482  1.00  0.00     0.167 HD
ATOM     50  C   UNL     1       6.168   7.079   7.822  1.00  0.00     0.037 A 
ATOM     51  C   UNL     1       5.707   8.779   1.049  1.00  0.00     0.037 A 
ATOM     52  C   UNL     1       6.591   8.417   7.503  1.00  0.00     0.049 A 
ATOM     53  C   UNL     1       6.170   9.766   2.084  1.00  0.00     0.074 A 
ATOM     54  C   UNL     1       7.089   9.390   8.351  1.00  0.00     0.029 A 
ATOM     55  N   UNL     1       6.566   8.969   6.231  1.00  0.00    -0.354 N 
ATOM     56  N   UNL     1       6.332   9.597   3.374  1.00  0.00    -0.248 NA
ATOM     57  C   UNL     1       6.502  11.116   1.609  1.00  0.00     0.031 C 
ATOM     58  C   UNL     1       7.326  10.546   7.598  1.00  0.00     0.029 A 
ATOM     59  C   UNL     1       7.021  10.276   6.274  1.00  0.00     0.049 A 
ATOM     60  H   UNL     1       6.268   8.500   5.418  1.00  0.00     0.167 HD
ATOM     61  C   UNL     1       6.814  10.805   3.859  1.00  0.00     0.074 A 
ATOM     62  C   UNL     1       6.927  11.696   2.723  1.00  0.00     0.031 C 
ATOM     63  C   UNL     1       7.138  11.146   5.131  1.00  0.00     0.037 A 
BRANCH  50  64
ATOM     64  C   UNL     1       6.181   6.647   9.261  1.00  0.00     0.057 A 
ATOM     65  C   UNL     1       7.094   5.699   9.744  1.00  0.00     0.134 A 
ATOM     66  C   UNL     1       5.277   7.197  10.180  1.00  0.00     0.134 A 
ATOM     67  F   UNL     1       7.978   5.124   8.915  1.00  0.00    -0.206 F 
ATOM     68  C   UNL     1       7.085   5.289  11.078  1.00  0.00     0.040 A 
ATOM     69  C   UNL     1       5.278   6.816  11.523  1.00  0.00     0.040 A 
ATOM     70  F   UNL     1       4.381   8.115   9.788  1.00  0.00    -0.206 F 
ATOM     71  C   UNL     1       6.178   5.852  11.973  1.00  0.00     0.006 A 
ENDBRANCH  50  64
BRANCH  51  72
ATOM     72  C   UNL     1       5.617   9.166  -0.382  1.00  0.00     0.057 A 
ATOM     73  C   UNL     1       6.772   9.405  -1.135  1.00  0.00     0.134 A 
ATOM     74  C   UNL     1       4.383   9.304  -1.029  1.00  0.00     0.134 A 
ATOM     75  F   UNL     1       7.981   9.306  -0.565  1.00  0.00    -0.206 F 
ATOM     76  C   UNL     1       6.705   9.784  -2.477  1.00  0.00     0.040 A 
ATOM     77  C   UNL     1       4.302   9.659  -2.377  1.00  0.00     0.040 A 
ATOM     78  F   UNL     1       3.240   9.079  -0.365  1.00  0.00    -0.206 F 
ATOM     79  C   UNL     1       5.466   9.906  -3.103  1.00  0.00     0.006 A 
ENDBRANCH  51  72
BRANCH  63  80
ATOM     80  C   UNL     1       7.685  12.525   5.354  1.00  0.00     0.057 A 
ATOM     81  C   UNL     1       6.876  13.665   5.283  1.00  0.00     0.134 A 
ATOM     82  C   UNL     1       9.035  12.708   5.680  1.00  0.00     0.134 A 
ATOM     83  F   UNL     1       5.577  13.559   4.962  1.00  0.00    -0.206 F 
ATOM     84  C   UNL     1       7.395  14.942   5.506  1.00  0.00     0.040 A 
ATOM     85  C   UNL     1       9.560  13.977   5.931  1.00  0.00     0.040 A 
ATOM     86  F   UNL     1       9.863  11.657   5.773  1.00  0.00    -0.206 F 
ATOM     87  C   UNL     1       8.739  15.099   5.838  1.00  0.00     0.006 A 
ENDBRANCH  63  80
ENDBRANCH  37  38
ENDBRANCH  29  32
ENDBRANCH  27  28
ENDBRANCH  26  27
ENDBRANCH   1  26
TORSDOF 14
