REMARK SMILES C[NH+](C)CCNC(=O)NC1(CC(=O)NCCCNC(=O)c2ccc(-c3c4nc(c(-c5c(F)cccc5F)c5ccc([nH]5)c(-c5c(F)cccc5F)c5nc(c(-c6c(F)cccc6F)c6ccc3[nH]6)C=C5)C=C4)cc2)CCC1
REMARK SMILES IDX 12 1 13 2 14 3 11 5 10 6 75 7 77 8 76 9 9 10 6 11 7 12 8 14
REMARK SMILES IDX 5 16 4 17 2 18 1 19 3 20 15 22 16 23 17 24 18 25 19 26 20 28
REMARK SMILES IDX 21 29 22 30 74 31 23 32 73 33 24 34 25 35 26 36 67 37 27 38
REMARK SMILES IDX 72 39 66 40 68 41 28 42 71 43 65 44 64 45 29 47 55 48 38 49
REMARK SMILES IDX 54 50 39 51 42 52 53 53 69 54 40 55 41 56 52 58 70 59 43 60
REMARK SMILES IDX 30 61 31 62 36 63 32 64 33 65 35 66 37 67 34 68 56 69 57 70
REMARK SMILES IDX 62 71 58 72 59 73 61 74 63 75 60 76 44 77 45 78 50 79 46 80
REMARK SMILES IDX 47 81 49 82 51 83 48 84
REMARK H PARENT 14 4 6 13 9 15 2 21 18 27 68 46 42 57
REMARK Flexibility Score: inf
ROOT
ATOM      1  C   UNL     1       1.403   3.865  -6.356  1.00  0.00     0.222 C 
ATOM      2  O   UNL     1       2.136   4.804  -6.035  1.00  0.00    -0.275 OA
ATOM      3  N   UNL     1       0.096   4.136  -6.611  1.00  0.00    -0.356 N 
ATOM      4  H   UNL     1      -0.139   5.092  -6.617  1.00  0.00     0.163 HD
ENDROOT
BRANCH   1   5
ATOM      5  C   UNL     1       1.961   2.457  -6.426  1.00  0.00     0.128 C 
BRANCH   5   6
ATOM      6  C   UNL     1       1.791   1.590  -5.151  1.00  0.00     0.051 C 
ATOM      7  C   UNL     1       2.752   0.368  -5.135  1.00  0.00     0.029 C 
ATOM      8  C   UNL     1       0.606   0.612  -5.315  1.00  0.00     0.029 C 
ATOM      9  C   UNL     1       1.589  -0.547  -5.542  1.00  0.00     0.005 C 
BRANCH   6  10
ATOM     10  N   UNL     1       1.924   2.452  -3.947  1.00  0.00    -0.332 N 
ATOM     11  N   UNL     1       1.380   1.401  -1.868  1.00  0.00    -0.332 N 
ATOM     12  C   UNL     1       1.806   2.418  -2.613  1.00  0.00     0.315 C 
ATOM     13  H   UNL     1       1.460   1.572  -0.902  1.00  0.00     0.165 HD
ATOM     14  O   UNL     1       2.127   3.446  -2.006  1.00  0.00    -0.249 OA
ATOM     15  H   UNL     1       2.191   3.358  -4.226  1.00  0.00     0.165 HD
BRANCH  11  16
ATOM     16  C   UNL     1       0.828   0.106  -2.166  1.00  0.00     0.179 C 
BRANCH  16  17
ATOM     17  C   UNL     1       1.177  -1.018  -1.177  1.00  0.00     0.283 C 
BRANCH  17  18
ATOM     18  N   UNL     1       0.417  -1.148   0.070  1.00  0.00    -0.338 N 
ATOM     19  C   UNL     1       0.756  -0.144   1.067  1.00  0.00     0.332 C 
ATOM     20  C   UNL     1      -1.025  -1.242  -0.132  1.00  0.00     0.332 C 
ATOM     21  H   UNL     1       0.715  -2.046   0.451  1.00  0.00     0.347 HD
ENDBRANCH  17  18
ENDBRANCH  16  17
ENDBRANCH  11  16
ENDBRANCH   6  10
ENDBRANCH   5   6
ENDBRANCH   1   5
BRANCH   3  22
ATOM     22  C   UNL     1      -1.002   3.232  -6.877  1.00  0.00     0.117 C 
BRANCH  22  23
ATOM     23  C   UNL     1      -1.736   2.842  -5.592  1.00  0.00     0.042 C 
BRANCH  23  24
ATOM     24  C   UNL     1      -2.813   3.835  -5.169  1.00  0.00     0.118 C 
BRANCH  24  25
ATOM     25  N   UNL     1      -3.961   3.799  -6.064  1.00  0.00    -0.352 N 
ATOM     26  C   UNL     1      -5.292   3.615  -5.800  1.00  0.00     0.251 C 
ATOM     27  H   UNL     1      -3.744   3.928  -7.016  1.00  0.00     0.163 HD
ATOM     28  O   UNL     1      -6.061   3.409  -6.743  1.00  0.00    -0.269 OA
BRANCH  26  29
ATOM     29  C   UNL     1      -5.827   3.649  -4.420  1.00  0.00     0.039 A 
ATOM     30  C   UNL     1      -6.903   2.811  -4.103  1.00  0.00     0.014 A 
ATOM     31  C   UNL     1      -5.341   4.539  -3.458  1.00  0.00     0.014 A 
ATOM     32  C   UNL     1      -7.462   2.838  -2.823  1.00  0.00     0.010 A 
ATOM     33  C   UNL     1      -5.850   4.515  -2.160  1.00  0.00     0.010 A 
ATOM     34  C   UNL     1      -6.925   3.675  -1.832  1.00  0.00    -0.014 A 
BRANCH  34  35
ATOM     35  C   UNL     1      -7.488   3.696  -0.458  1.00  0.00     0.031 A 
ATOM     36  C   UNL     1      -8.145   4.941   0.074  1.00  0.00     0.074 A 
ATOM     37  C   UNL     1      -7.366   2.610   0.329  1.00  0.00     0.049 A 
ATOM     38  N   UNL     1      -8.639   5.173   1.264  1.00  0.00    -0.248 NA
ATOM     39  C   UNL     1      -8.238   6.085  -0.847  1.00  0.00     0.031 C 
ATOM     40  C   UNL     1      -6.720   1.354  -0.057  1.00  0.00     0.029 A 
ATOM     41  N   UNL     1      -7.773   2.391   1.621  1.00  0.00    -0.354 N 
ATOM     42  C   UNL     1      -9.085   6.489   1.240  1.00  0.00     0.074 A 
ATOM     43  C   UNL     1      -8.760   7.020  -0.066  1.00  0.00     0.031 C 
ATOM     44  C   UNL     1      -6.793   0.490   0.968  1.00  0.00     0.029 A 
ATOM     45  C   UNL     1      -7.455   1.141   2.094  1.00  0.00     0.049 A 
ATOM     46  H   UNL     1      -8.248   3.066   2.158  1.00  0.00     0.167 HD
ATOM     47  C   UNL     1      -9.727   7.184   2.209  1.00  0.00     0.037 A 
ATOM     48  C   UNL     1      -7.666   0.585   3.302  1.00  0.00     0.037 A 
ATOM     49  C   UNL     1     -10.071   6.646   3.499  1.00  0.00     0.049 A 
ATOM     50  C   UNL     1      -8.373   1.381   4.364  1.00  0.00     0.074 A 
ATOM     51  C   UNL     1     -10.768   7.253   4.530  1.00  0.00     0.029 A 
ATOM     52  N   UNL     1      -9.742   5.371   3.935  1.00  0.00    -0.354 N 
ATOM     53  N   UNL     1      -8.842   2.604   4.306  1.00  0.00    -0.248 NA
ATOM     54  C   UNL     1      -8.585   0.717   5.658  1.00  0.00     0.031 C 
ATOM     55  C   UNL     1     -10.825   6.360   5.605  1.00  0.00     0.029 A 
ATOM     56  C   UNL     1     -10.205   5.180   5.227  1.00  0.00     0.049 A 
ATOM     57  H   UNL     1      -9.252   4.701   3.405  1.00  0.00     0.167 HD
ATOM     58  C   UNL     1      -9.428   2.846   5.542  1.00  0.00     0.074 A 
ATOM     59  C   UNL     1      -9.268   1.637   6.324  1.00  0.00     0.031 C 
ATOM     60  C   UNL     1     -10.044   3.967   5.989  1.00  0.00     0.037 A 
BRANCH  47  61
ATOM     61  C   UNL     1     -10.103   8.607   1.907  1.00  0.00     0.057 A 
ATOM     62  C   UNL     1     -11.115   8.925   0.991  1.00  0.00     0.134 A 
ATOM     63  C   UNL     1      -9.471   9.670   2.564  1.00  0.00     0.134 A 
ATOM     64  F   UNL     1     -11.753   7.955   0.320  1.00  0.00    -0.206 F 
ATOM     65  C   UNL     1     -11.464  10.249   0.719  1.00  0.00     0.040 A 
ATOM     66  C   UNL     1      -9.830  10.997   2.320  1.00  0.00     0.040 A 
ATOM     67  F   UNL     1      -8.499   9.437   3.459  1.00  0.00    -0.206 F 
ATOM     68  C   UNL     1     -10.825  11.289   1.389  1.00  0.00     0.006 A 
ENDBRANCH  47  61
BRANCH  48  69
ATOM     69  C   UNL     1      -7.224  -0.807   3.567  1.00  0.00     0.057 A 
ATOM     70  C   UNL     1      -8.153  -1.841   3.725  1.00  0.00     0.134 A 
ATOM     71  C   UNL     1      -5.867  -1.137   3.674  1.00  0.00     0.134 A 
ATOM     72  F   UNL     1      -9.467  -1.584   3.650  1.00  0.00    -0.206 F 
ATOM     73  C   UNL     1      -7.753  -3.149   4.001  1.00  0.00     0.040 A 
ATOM     74  C   UNL     1      -5.451  -2.445   3.925  1.00  0.00     0.040 A 
ATOM     75  F   UNL     1      -4.926  -0.193   3.522  1.00  0.00    -0.206 F 
ATOM     76  C   UNL     1      -6.396  -3.454   4.098  1.00  0.00     0.006 A 
ENDBRANCH  48  69
BRANCH  60  77
ATOM     77  C   UNL     1     -10.621   3.927   7.373  1.00  0.00     0.057 A 
ATOM     78  C   UNL     1      -9.810   3.950   8.514  1.00  0.00     0.134 A 
ATOM     79  C   UNL     1     -12.009   3.902   7.565  1.00  0.00     0.134 A 
ATOM     80  F   UNL     1      -8.473   3.961   8.398  1.00  0.00    -0.206 F 
ATOM     81  C   UNL     1     -10.357   3.926   9.798  1.00  0.00     0.040 A 
ATOM     82  C   UNL     1     -12.568   3.904   8.843  1.00  0.00     0.040 A 
ATOM     83  F   UNL     1     -12.842   3.887   6.514  1.00  0.00    -0.206 F 
ATOM     84  C   UNL     1     -11.741   3.910   9.964  1.00  0.00     0.006 A 
ENDBRANCH  60  77
ENDBRANCH  34  35
ENDBRANCH  26  29
ENDBRANCH  24  25
ENDBRANCH  23  24
ENDBRANCH  22  23
ENDBRANCH   3  22
TORSDOF 15
