REMARK SMILES O=C(NCCCNC(=O)[C@@]1(Cl)C=CC=C(c2ccccc2)[C@H]1Cl)c1ccc(-c2c3nc(c(-c4c(F)cccc4F)c4ccc([nH]4)c(-c4c(F)cccc4F)c4nc(c(-c5c(F)cccc5F)c5ccc2[nH]5)C=C4)C=C3)cc1
REMARK SMILES IDX 4 1 3 2 1 3 2 4 24 6 25 7 77 8 26 9 76 10 27 11 28 12 29 13
REMARK SMILES IDX 70 14 30 15 75 16 69 17 71 18 31 19 74 20 68 21 67 22 32 24
REMARK SMILES IDX 58 25 41 26 57 27 42 28 45 29 56 30 72 31 43 32 44 33 55 35
REMARK SMILES IDX 73 36 46 37 33 38 34 39 39 40 35 41 36 42 38 43 40 44 37 45
REMARK SMILES IDX 59 46 60 47 65 48 61 49 62 50 64 51 66 52 63 53 47 54 48 55
REMARK SMILES IDX 53 56 49 57 50 58 52 59 54 60 51 61 5 62 6 63 7 64 8 65 9 67
REMARK SMILES IDX 10 68 11 69 12 70 22 71 13 72 15 73 23 74 14 75 16 76 17 77
REMARK SMILES IDX 21 78 18 79 20 80 19 81
REMARK H PARENT 3 5 71 23 45 34 7 66
REMARK Flexibility Score: inf
ROOT
ATOM      1  C   UNL     1       4.464   1.247   0.406  1.00  0.00     0.118 C 
ENDROOT
BRANCH   1   2
ATOM      2  N   UNL     1       3.027   1.014   0.498  1.00  0.00    -0.352 N 
ATOM      3  O   UNL     1       1.069  -0.020   0.059  1.00  0.00    -0.269 OA
ATOM      4  C   UNL     1       2.295  -0.072   0.088  1.00  0.00     0.251 C 
ATOM      5  H   UNL     1       2.508   1.741   0.913  1.00  0.00     0.163 HD
BRANCH   4   6
ATOM      6  C   UNL     1       2.998  -1.300  -0.333  1.00  0.00     0.039 A 
ATOM      7  C   UNL     1       4.078  -1.774   0.413  1.00  0.00     0.014 A 
ATOM      8  C   UNL     1       2.579  -1.979  -1.480  1.00  0.00     0.014 A 
ATOM      9  C   UNL     1       4.843  -2.821  -0.074  1.00  0.00     0.010 A 
ATOM     10  C   UNL     1       3.281  -3.110  -1.905  1.00  0.00     0.010 A 
ATOM     11  C   UNL     1       4.432  -3.525  -1.217  1.00  0.00    -0.014 A 
BRANCH  11  12
ATOM     12  C   UNL     1       5.166  -4.757  -1.590  1.00  0.00     0.031 A 
ATOM     13  C   UNL     1       5.902  -4.872  -2.893  1.00  0.00     0.074 A 
ATOM     14  C   UNL     1       5.183  -5.770  -0.701  1.00  0.00     0.049 A 
ATOM     15  N   UNL     1       6.596  -5.881  -3.354  1.00  0.00    -0.248 NA
ATOM     16  C   UNL     1       5.851  -3.715  -3.801  1.00  0.00     0.031 C 
ATOM     17  C   UNL     1       4.486  -5.767   0.591  1.00  0.00     0.029 A 
ATOM     18  N   UNL     1       5.819  -6.982  -0.728  1.00  0.00    -0.354 N 
ATOM     19  C   UNL     1       7.042  -5.496  -4.611  1.00  0.00     0.074 A 
ATOM     20  C   UNL     1       6.531  -4.163  -4.849  1.00  0.00     0.031 C 
ATOM     21  C   UNL     1       4.778  -6.893   1.253  1.00  0.00     0.029 A 
ATOM     22  C   UNL     1       5.614  -7.731   0.405  1.00  0.00     0.049 A 
ATOM     23  H   UNL     1       6.370  -7.286  -1.485  1.00  0.00     0.167 HD
ATOM     24  C   UNL     1       7.809  -6.197  -5.480  1.00  0.00     0.037 A 
ATOM     25  C   UNL     1       6.029  -8.971   0.719  1.00  0.00     0.037 A 
ATOM     26  C   UNL     1       8.332  -7.514  -5.218  1.00  0.00     0.049 A 
ATOM     27  C   UNL     1       6.865  -9.721  -0.272  1.00  0.00     0.074 A 
ATOM     28  C   UNL     1       9.159  -8.286  -6.016  1.00  0.00     0.029 A 
ATOM     29  N   UNL     1       8.078  -8.253  -4.072  1.00  0.00    -0.354 N 
ATOM     30  N   UNL     1       7.305  -9.330  -1.443  1.00  0.00    -0.248 NA
ATOM     31  C   UNL     1       7.253 -11.088   0.095  1.00  0.00     0.031 C 
ATOM     32  C   UNL     1       9.369  -9.511  -5.373  1.00  0.00     0.029 A 
ATOM     33  C   UNL     1       8.710  -9.484  -4.155  1.00  0.00     0.049 A 
ATOM     34  H   UNL     1       7.530  -7.949  -3.313  1.00  0.00     0.167 HD
ATOM     35  C   UNL     1       8.028 -10.398  -1.951  1.00  0.00     0.074 A 
ATOM     36  C   UNL     1       7.992 -11.442  -0.947  1.00  0.00     0.031 C 
ATOM     37  C   UNL     1       8.658 -10.509  -3.145  1.00  0.00     0.037 A 
BRANCH  24  38
ATOM     38  C   UNL     1       8.123  -5.571  -6.808  1.00  0.00     0.057 A 
ATOM     39  C   UNL     1       9.056  -4.536  -6.938  1.00  0.00     0.134 A 
ATOM     40  C   UNL     1       7.546  -6.073  -7.982  1.00  0.00     0.134 A 
ATOM     41  F   UNL     1       9.637  -4.004  -5.852  1.00  0.00    -0.206 F 
ATOM     42  C   UNL     1       9.400  -4.017  -8.188  1.00  0.00     0.040 A 
ATOM     43  C   UNL     1       7.897  -5.577  -9.239  1.00  0.00     0.040 A 
ATOM     44  F   UNL     1       6.649  -7.070  -7.929  1.00  0.00    -0.206 F 
ATOM     45  C   UNL     1       8.827  -4.545  -9.344  1.00  0.00     0.006 A 
ENDBRANCH  24  38
BRANCH  25  46
ATOM     46  C   UNL     1       5.629  -9.582   2.010  1.00  0.00     0.057 A 
ATOM     47  C   UNL     1       6.569  -9.842   3.013  1.00  0.00     0.134 A 
ATOM     48  C   UNL     1       4.294  -9.917   2.273  1.00  0.00     0.134 A 
ATOM     49  F   UNL     1       7.864  -9.556   2.816  1.00  0.00    -0.206 F 
ATOM     50  C   UNL     1       6.199 -10.431   4.223  1.00  0.00     0.040 A 
ATOM     51  C   UNL     1       3.906 -10.477   3.489  1.00  0.00     0.040 A 
ATOM     52  F   UNL     1       3.344  -9.682   1.355  1.00  0.00    -0.206 F 
ATOM     53  C   UNL     1       4.863 -10.745   4.466  1.00  0.00     0.006 A 
ENDBRANCH  25  46
BRANCH  37  54
ATOM     54  C   UNL     1       9.369 -11.800  -3.412  1.00  0.00     0.057 A 
ATOM     55  C   UNL     1       8.668 -12.979  -3.695  1.00  0.00     0.134 A 
ATOM     56  C   UNL     1      10.768 -11.862  -3.397  1.00  0.00     0.134 A 
ATOM     57  F   UNL     1       7.327 -12.987  -3.705  1.00  0.00    -0.206 F 
ATOM     58  C   UNL     1       9.335 -14.182  -3.930  1.00  0.00     0.040 A 
ATOM     59  C   UNL     1      11.445 -13.053  -3.656  1.00  0.00     0.040 A 
ATOM     60  F   UNL     1      11.495 -10.765  -3.138  1.00  0.00    -0.206 F 
ATOM     61  C   UNL     1      10.728 -14.219  -3.916  1.00  0.00     0.006 A 
ENDBRANCH  37  54
ENDBRANCH  11  12
ENDBRANCH   4   6
ENDBRANCH   1   2
BRANCH   1  62
ATOM     62  C   UNL     1       4.817   2.367  -0.561  1.00  0.00     0.042 C 
BRANCH  62  63
ATOM     63  C   UNL     1       4.264   3.723  -0.149  1.00  0.00     0.117 C 
BRANCH  63  64
ATOM     64  N   UNL     1       4.741   4.098   1.172  1.00  0.00    -0.354 N 
ATOM     65  C   UNL     1       5.720   4.988   1.516  1.00  0.00     0.247 C 
ATOM     66  H   UNL     1       4.296   3.647   1.926  1.00  0.00     0.163 HD
ATOM     67  O   UNL     1       6.435   4.642   2.462  1.00  0.00    -0.273 OA
BRANCH  65  68
ATOM     68  C   UNL     1       5.934   6.319   0.742  1.00  0.00     0.161 C 
ATOM     69  Cl  UNL     1       7.030   5.874  -0.652  1.00  0.00    -0.102 Cl
ATOM     70  C   UNL     1       4.669   6.902   0.122  1.00  0.00     0.008 C 
ATOM     71  C   UNL     1       6.674   7.374   1.642  1.00  0.00     0.146 C 
ATOM     72  C   UNL     1       4.505   8.217  -0.078  1.00  0.00    -0.002 C 
ATOM     73  C   UNL     1       6.523   8.803   1.128  1.00  0.00    -0.020 C 
ATOM     74  Cl  UNL     1       5.994   7.434   3.339  1.00  0.00    -0.115 Cl
ATOM     75  C   UNL     1       5.519   9.160   0.307  1.00  0.00     0.006 C 
BRANCH  73  76
ATOM     76  C   UNL     1       7.424   9.845   1.636  1.00  0.00    -0.021 A 
ATOM     77  C   UNL     1       6.918  10.795   2.538  1.00  0.00     0.008 A 
ATOM     78  C   UNL     1       8.760   9.922   1.238  1.00  0.00     0.008 A 
ATOM     79  C   UNL     1       7.733  11.808   3.035  1.00  0.00     0.001 A 
ATOM     80  C   UNL     1       9.575  10.944   1.734  1.00  0.00     0.001 A 
ATOM     81  C   UNL     1       9.063  11.884   2.630  1.00  0.00     0.000 A 
ENDBRANCH  73  76
ENDBRANCH  65  68
ENDBRANCH  63  64
ENDBRANCH  62  63
ENDBRANCH   1  62
TORSDOF 11
