REMARK SMILES O=C(NCCCNC(=O)c1nn(-c2ccc(Br)cc2F)cc1CCCO)c1ccc(-c2c3nc(c(-c4c(F)cccc4F)c4ccc([nH]4)c(-c4c(F)cccc4F)c4nc(c(-c5c(F)cccc5F)c5ccc2[nH]5)C=C4)C=C3)cc1
REMARK SMILES IDX 6 1 5 2 4 3 3 4 1 5 2 6 27 8 28 9 80 10 29 11 79 12 30 13
REMARK SMILES IDX 31 14 32 15 73 16 33 17 78 18 72 19 74 20 34 21 77 22 71 23
REMARK SMILES IDX 70 24 35 26 61 27 44 28 60 29 45 30 48 31 59 32 75 33 46 34
REMARK SMILES IDX 47 35 58 37 76 38 49 39 36 40 37 41 42 42 38 43 39 44 41 45
REMARK SMILES IDX 43 46 40 47 62 48 63 49 68 50 64 51 65 52 67 53 69 54 66 55
REMARK SMILES IDX 50 56 51 57 56 58 52 59 53 60 55 61 57 62 54 63 7 64 8 65
REMARK SMILES IDX 9 67 10 68 11 69 22 70 12 71 21 72 23 73 24 74 25 75 26 76
REMARK SMILES IDX 13 78 14 79 19 80 15 81 18 82 20 83 16 84 17 85
REMARK H PARENT 3 7 74 25 48 36 7 66 26 77
REMARK Flexibility Score: inf
ROOT
ATOM      1  C   UNL     1       4.233  -3.164  -1.730  1.00  0.00     0.118 C 
ENDROOT
BRANCH   1   2
ATOM      2  C   UNL     1       4.888  -2.198  -0.742  1.00  0.00     0.042 C 
BRANCH   2   3
ATOM      3  C   UNL     1       4.645  -0.705  -0.991  1.00  0.00     0.118 C 
BRANCH   3   4
ATOM      4  N   UNL     1       3.272  -0.308  -1.241  1.00  0.00    -0.352 N 
ATOM      5  O   UNL     1       1.211   0.457  -1.047  1.00  0.00    -0.269 OA
ATOM      6  C   UNL     1       2.185  -0.024  -0.462  1.00  0.00     0.251 C 
ATOM      7  H   UNL     1       3.076  -0.222  -2.202  1.00  0.00     0.163 HD
BRANCH   6   8
ATOM      8  C   UNL     1       2.074  -0.303   0.995  1.00  0.00     0.039 A 
ATOM      9  C   UNL     1       3.116  -0.723   1.819  1.00  0.00     0.014 A 
ATOM     10  C   UNL     1       0.792  -0.162   1.560  1.00  0.00     0.014 A 
ATOM     11  C   UNL     1       2.871  -1.101   3.137  1.00  0.00     0.010 A 
ATOM     12  C   UNL     1       0.547  -0.502   2.888  1.00  0.00     0.010 A 
ATOM     13  C   UNL     1       1.581  -1.019   3.665  1.00  0.00    -0.014 A 
BRANCH  13  14
ATOM     14  C   UNL     1       1.387  -1.436   5.053  1.00  0.00     0.031 A 
ATOM     15  C   UNL     1       2.076  -0.635   6.109  1.00  0.00     0.074 A 
ATOM     16  C   UNL     1       0.520  -2.399   5.424  1.00  0.00     0.049 A 
ATOM     17  N   UNL     1       2.873  -1.044   7.047  1.00  0.00    -0.248 NA
ATOM     18  C   UNL     1       1.851   0.818   6.105  1.00  0.00     0.031 C 
ATOM     19  C   UNL     1      -0.482  -3.075   4.598  1.00  0.00     0.029 A 
ATOM     20  N   UNL     1       0.287  -2.897   6.674  1.00  0.00    -0.354 N 
ATOM     21  C   UNL     1       3.124   0.067   7.853  1.00  0.00     0.074 A 
ATOM     22  C   UNL     1       2.539   1.200   7.181  1.00  0.00     0.031 C 
ATOM     23  C   UNL     1      -1.349  -3.727   5.404  1.00  0.00     0.029 A 
ATOM     24  C   UNL     1      -0.888  -3.620   6.779  1.00  0.00     0.049 A 
ATOM     25  H   UNL     1       0.900  -2.756   7.431  1.00  0.00     0.167 HD
ATOM     26  C   UNL     1       3.654  -0.034   9.103  1.00  0.00     0.037 A 
ATOM     27  C   UNL     1      -1.485  -4.041   7.918  1.00  0.00     0.037 A 
ATOM     28  C   UNL     1       4.337  -1.280   9.312  1.00  0.00     0.049 A 
ATOM     29  C   UNL     1      -0.484  -4.027   9.008  1.00  0.00     0.074 A 
ATOM     30  C   UNL     1       5.401  -1.929   8.716  1.00  0.00     0.029 A 
ATOM     31  N   UNL     1       3.770  -2.210  10.145  1.00  0.00    -0.354 N 
ATOM     32  N   UNL     1       0.512  -4.860   9.115  1.00  0.00    -0.248 NA
ATOM     33  C   UNL     1      -0.395  -2.838   9.843  1.00  0.00     0.031 C 
ATOM     34  C   UNL     1       5.112  -3.320   8.846  1.00  0.00     0.029 A 
ATOM     35  C   UNL     1       3.890  -3.418   9.511  1.00  0.00     0.049 A 
ATOM     36  H   UNL     1       3.360  -2.043  11.024  1.00  0.00     0.167 HD
ATOM     37  C   UNL     1       1.527  -4.124   9.706  1.00  0.00     0.074 A 
ATOM     38  C   UNL     1       0.873  -2.938  10.245  1.00  0.00     0.031 C 
ATOM     39  C   UNL     1       2.840  -4.406   9.463  1.00  0.00     0.037 A 
BRANCH  26  40
ATOM     40  C   UNL     1       3.307   0.885  10.249  1.00  0.00     0.057 A 
ATOM     41  C   UNL     1       4.066   0.848  11.434  1.00  0.00     0.134 A 
ATOM     42  C   UNL     1       2.089   1.588  10.339  1.00  0.00     0.134 A 
ATOM     43  F   UNL     1       5.232   0.186  11.485  1.00  0.00    -0.206 F 
ATOM     44  C   UNL     1       3.617   1.417  12.633  1.00  0.00     0.040 A 
ATOM     45  C   UNL     1       1.656   2.204  11.518  1.00  0.00     0.040 A 
ATOM     46  F   UNL     1       1.216   1.631   9.324  1.00  0.00    -0.206 F 
ATOM     47  C   UNL     1       2.406   2.095  12.678  1.00  0.00     0.006 A 
ENDBRANCH  26  40
BRANCH  27  48
ATOM     48  C   UNL     1      -2.928  -4.228   8.172  1.00  0.00     0.057 A 
ATOM     49  C   UNL     1      -3.388  -5.030   9.223  1.00  0.00     0.134 A 
ATOM     50  C   UNL     1      -3.893  -3.427   7.535  1.00  0.00     0.134 A 
ATOM     51  F   UNL     1      -2.534  -5.789   9.925  1.00  0.00    -0.206 F 
ATOM     52  C   UNL     1      -4.731  -5.035   9.621  1.00  0.00     0.040 A 
ATOM     53  C   UNL     1      -5.238  -3.432   7.912  1.00  0.00     0.040 A 
ATOM     54  F   UNL     1      -3.547  -2.551   6.580  1.00  0.00    -0.206 F 
ATOM     55  C   UNL     1      -5.660  -4.231   8.967  1.00  0.00     0.006 A 
ENDBRANCH  27  48
BRANCH  39  56
ATOM     56  C   UNL     1       3.166  -5.708   8.794  1.00  0.00     0.057 A 
ATOM     57  C   UNL     1       2.766  -6.026   7.489  1.00  0.00     0.134 A 
ATOM     58  C   UNL     1       4.031  -6.605   9.432  1.00  0.00     0.134 A 
ATOM     59  F   UNL     1       2.030  -5.173   6.763  1.00  0.00    -0.206 F 
ATOM     60  C   UNL     1       3.165  -7.212   6.866  1.00  0.00     0.040 A 
ATOM     61  C   UNL     1       4.463  -7.778   8.808  1.00  0.00     0.040 A 
ATOM     62  F   UNL     1       4.507  -6.332  10.657  1.00  0.00    -0.206 F 
ATOM     63  C   UNL     1       4.020  -8.090   7.525  1.00  0.00     0.006 A 
ENDBRANCH  39  56
ENDBRANCH  13  14
ENDBRANCH   6   8
ENDBRANCH   3   4
ENDBRANCH   2   3
ENDBRANCH   1   2
BRANCH   1  64
ATOM     64  N   UNL     1       4.439  -2.771  -3.108  1.00  0.00    -0.351 N 
ATOM     65  C   UNL     1       5.147  -3.388  -4.100  1.00  0.00     0.272 C 
ATOM     66  H   UNL     1       4.002  -1.929  -3.371  1.00  0.00     0.163 HD
ATOM     67  O   UNL     1       5.293  -2.760  -5.161  1.00  0.00    -0.267 OA
BRANCH  65  68
ATOM     68  C   UNL     1       5.743  -4.705  -3.868  1.00  0.00     0.153 A 
ATOM     69  N   UNL     1       4.975  -5.773  -3.571  1.00  0.00    -0.162 NA
ATOM     70  C   UNL     1       7.121  -5.069  -3.943  1.00  0.00     0.004 A 
ATOM     71  N   UNL     1       5.848  -6.766  -3.281  1.00  0.00    -0.237 N 
ATOM     72  C   UNL     1       7.146  -6.373  -3.489  1.00  0.00     0.119 A 
BRANCH  70  73
ATOM     73  C   UNL     1       8.311  -4.236  -4.299  1.00  0.00     0.042 C 
BRANCH  73  74
ATOM     74  C   UNL     1       8.600  -4.104  -5.799  1.00  0.00     0.033 C 
BRANCH  74  75
ATOM     75  C   UNL     1       7.858  -2.996  -6.538  1.00  0.00     0.156 C 
BRANCH  75  76
ATOM     76  O   UNL     1       7.754  -1.822  -5.746  1.00  0.00    -0.396 OA
ATOM     77  H   UNL     1       7.257  -2.020  -4.936  1.00  0.00     0.210 HD
ENDBRANCH  75  76
ENDBRANCH  74  75
ENDBRANCH  73  74
ENDBRANCH  70  73
BRANCH  71  78
ATOM     78  C   UNL     1       5.388  -8.027  -2.840  1.00  0.00     0.100 A 
ATOM     79  C   UNL     1       4.163  -8.520  -3.311  1.00  0.00     0.032 A 
ATOM     80  C   UNL     1       6.138  -8.787  -1.941  1.00  0.00     0.149 A 
ATOM     81  C   UNL     1       3.722  -9.785  -2.908  1.00  0.00     0.018 A 
ATOM     82  C   UNL     1       5.677 -10.026  -1.500  1.00  0.00     0.057 A 
ATOM     83  F   UNL     1       7.279  -8.318  -1.416  1.00  0.00    -0.205 F 
ATOM     84  C   UNL     1       4.476 -10.526  -1.998  1.00  0.00     0.021 A 
ATOM     85  Br  UNL     1       3.861 -12.221  -1.430  1.00  0.00    -0.051 Br
ENDBRANCH  71  78
ENDBRANCH  65  68
ENDBRANCH   1  64
TORSDOF 15
