REMARK SMILES Cc1nc2nc(CNC(=O)OC(C)(C)C)nn2c(C)c1CCC(=O)NCCCNC(=O)c1ccc(-c2c3nc(c(-c4c(F)cccc4F)c4ccc([nH]4)c(-c4c(F)cccc4F)c4nc(c(-c5c(F)cccc5F)c5ccc2[nH]5)C=C4)C=C3)cc1
REMARK SMILES IDX 23 1 24 2 25 3 22 5 21 6 20 7 1 8 2 9 3 10 4 11 18 12 5 13
REMARK SMILES IDX 17 14 19 15 6 16 16 17 7 18 8 19 9 20 10 22 11 23 12 24
REMARK SMILES IDX 13 25 14 26 15 27 26 28 27 29 28 30 29 31 30 32 31 34 32 35
REMARK SMILES IDX 33 36 85 37 34 38 84 39 35 40 36 41 37 42 78 43 38 44 83 45
REMARK SMILES IDX 77 46 79 47 39 48 82 49 76 50 75 51 40 53 66 54 49 55 65 56
REMARK SMILES IDX 50 57 53 58 64 59 80 60 51 61 52 62 63 64 81 65 54 66 41 67
REMARK SMILES IDX 42 68 47 69 43 70 44 71 46 72 48 73 45 74 67 75 68 76 73 77
REMARK SMILES IDX 69 78 70 79 72 80 74 81 71 82 55 83 56 84 61 85 57 86 58 87
REMARK SMILES IDX 60 88 62 89 59 90
REMARK H PARENT 25 4 8 21 29 33 79 52 53 63
REMARK Flexibility Score: inf
ROOT
ATOM      1  C   UNL     1      -2.930   0.535  -3.034  1.00  0.00     0.220 C 
ATOM      2  O   UNL     1      -3.243  -0.003  -4.103  1.00  0.00    -0.275 OA
ATOM      3  N   UNL     1      -3.283   1.848  -2.850  1.00  0.00    -0.356 N 
ATOM      4  H   UNL     1      -3.627   2.262  -3.674  1.00  0.00     0.163 HD
ENDROOT
BRANCH   1   5
ATOM      5  C   UNL     1      -2.121  -0.262  -2.020  1.00  0.00     0.105 C 
BRANCH   5   6
ATOM      6  C   UNL     1      -0.746  -0.704  -2.595  1.00  0.00     0.049 C 
BRANCH   6   7
ATOM      7  C   UNL     1       0.034   0.513  -3.018  1.00  0.00    -0.005 A 
ATOM      8  C   UNL     1       1.032   0.795  -0.581  1.00  0.00     0.067 C 
ATOM      9  C   UNL     1       0.687   1.372  -1.955  1.00  0.00     0.046 A 
ATOM     10  N   UNL     1       0.994   2.619  -2.159  1.00  0.00    -0.216 NA
ATOM     11  C   UNL     1       0.448   3.180  -3.282  1.00  0.00     0.252 A 
ATOM     12  C   UNL     1      -0.070   1.068  -4.263  1.00  0.00     0.048 A 
ATOM     13  N   UNL     1      -0.035   4.385  -3.388  1.00  0.00    -0.192 NA
ATOM     14  N   UNL     1      -0.058   2.475  -4.352  1.00  0.00    -0.201 N 
ATOM     15  C   UNL     1      -0.406   0.337  -5.516  1.00  0.00     0.067 C 
ATOM     16  C   UNL     1      -0.789   4.531  -4.512  1.00  0.00     0.172 A 
ATOM     17  N   UNL     1      -0.764   3.362  -5.211  1.00  0.00    -0.148 NA
BRANCH  16  18
ATOM     18  C   UNL     1      -1.459   5.978  -4.941  1.00  0.00     0.199 C 
BRANCH  18  19
ATOM     19  N   UNL     1      -1.777   7.242  -3.979  1.00  0.00    -0.314 N 
ATOM     20  C   UNL     1      -1.408   8.483  -3.412  1.00  0.00     0.408 C 
ATOM     21  H   UNL     1      -2.667   7.052  -3.605  1.00  0.00     0.167 HD
ATOM     22  O   UNL     1      -2.305   9.095  -2.806  1.00  0.00    -0.225 OA
BRANCH  20  23
ATOM     23  O   UNL     1      -0.156   9.015  -3.494  1.00  0.00    -0.444 OA
BRANCH  23  24
ATOM     24  C   UNL     1       0.445  10.269  -2.884  1.00  0.00     0.106 C 
ATOM     25  C   UNL     1      -0.228  11.540  -3.410  1.00  0.00     0.056 C 
ATOM     26  C   UNL     1       0.456  10.251  -1.351  1.00  0.00     0.056 C 
ATOM     27  C   UNL     1       1.952  10.400  -3.299  1.00  0.00     0.056 C 
ENDBRANCH  23  24
ENDBRANCH  20  23
ENDBRANCH  18  19
ENDBRANCH  16  18
ENDBRANCH   6   7
ENDBRANCH   5   6
ENDBRANCH   1   5
BRANCH   3  28
ATOM     28  C   UNL     1      -3.270   2.806  -1.692  1.00  0.00     0.117 C 
BRANCH  28  29
ATOM     29  C   UNL     1      -1.957   3.643  -1.514  1.00  0.00     0.042 C 
BRANCH  29  30
ATOM     30  C   UNL     1      -1.835   5.223  -1.786  1.00  0.00     0.118 C 
BRANCH  30  31
ATOM     31  N   UNL     1      -0.376   6.023  -1.699  1.00  0.00    -0.352 N 
ATOM     32  C   UNL     1       0.842   6.522  -2.410  1.00  0.00     0.251 C 
ATOM     33  H   UNL     1      -0.266   6.285  -0.756  1.00  0.00     0.163 HD
ATOM     34  O   UNL     1       1.627   7.137  -1.669  1.00  0.00    -0.269 OA
BRANCH  32  35
ATOM     35  C   UNL     1       1.344   6.458  -3.955  1.00  0.00     0.039 A 
ATOM     36  C   UNL     1       1.325   7.513  -4.868  1.00  0.00     0.014 A 
ATOM     37  C   UNL     1       1.958   5.367  -4.559  1.00  0.00     0.014 A 
ATOM     38  C   UNL     1       1.194   7.361  -6.260  1.00  0.00     0.010 A 
ATOM     39  C   UNL     1       1.787   5.128  -5.958  1.00  0.00     0.010 A 
ATOM     40  C   UNL     1       1.234   6.093  -6.805  1.00  0.00    -0.014 A 
BRANCH  40  41
ATOM     41  C   UNL     1       1.104   5.977  -8.273  1.00  0.00     0.031 A 
ATOM     42  C   UNL     1       2.399   6.324  -8.895  1.00  0.00     0.074 A 
ATOM     43  C   UNL     1       0.107   5.599  -9.113  1.00  0.00     0.049 A 
ATOM     44  N   UNL     1       2.712   7.411  -9.518  1.00  0.00    -0.248 NA
ATOM     45  C   UNL     1       3.520   5.430  -8.585  1.00  0.00     0.031 C 
ATOM     46  C   UNL     1      -1.188   4.981  -8.833  1.00  0.00     0.029 A 
ATOM     47  N   UNL     1       0.119   5.637 -10.493  1.00  0.00    -0.354 N 
ATOM     48  C   UNL     1       4.064   7.275  -9.785  1.00  0.00     0.074 A 
ATOM     49  C   UNL     1       4.542   6.174  -8.991  1.00  0.00     0.031 C 
ATOM     50  C   UNL     1      -1.721   4.506  -9.990  1.00  0.00     0.029 A 
ATOM     51  C   UNL     1      -0.870   4.876 -11.113  1.00  0.00     0.049 A 
ATOM     52  H   UNL     1       0.777   6.164 -11.002  1.00  0.00     0.167 HD
ATOM     53  C   UNL     1       4.674   7.898 -10.823  1.00  0.00     0.037 A 
ATOM     54  C   UNL     1      -0.931   4.529 -12.430  1.00  0.00     0.037 A 
ATOM     55  C   UNL     1       3.903   8.983 -11.359  1.00  0.00     0.049 A 
ATOM     56  C   UNL     1      -0.071   5.466 -13.194  1.00  0.00     0.074 A 
ATOM     57  C   UNL     1       3.355  10.138 -10.832  1.00  0.00     0.029 A 
ATOM     58  N   UNL     1       3.298   8.811 -12.579  1.00  0.00    -0.354 N 
ATOM     59  N   UNL     1      -0.386   6.694 -13.482  1.00  0.00    -0.248 NA
ATOM     60  C   UNL     1       1.331   5.120 -13.375  1.00  0.00     0.031 C 
ATOM     61  C   UNL     1       2.132  10.331 -11.536  1.00  0.00     0.029 A 
ATOM     62  C   UNL     1       2.019   9.293 -12.458  1.00  0.00     0.049 A 
ATOM     63  H   UNL     1       3.704   8.418 -13.385  1.00  0.00     0.167 HD
ATOM     64  C   UNL     1       0.818   7.376 -13.444  1.00  0.00     0.074 A 
ATOM     65  C   UNL     1       1.847   6.344 -13.494  1.00  0.00     0.031 C 
ATOM     66  C   UNL     1       0.869   8.691 -13.085  1.00  0.00     0.037 A 
BRANCH  53  67
ATOM     67  C   UNL     1       5.840   7.271 -11.525  1.00  0.00     0.057 A 
ATOM     68  C   UNL     1       6.694   8.058 -12.304  1.00  0.00     0.134 A 
ATOM     69  C   UNL     1       6.034   5.875 -11.626  1.00  0.00     0.134 A 
ATOM     70  F   UNL     1       6.557   9.392 -12.336  1.00  0.00    -0.206 F 
ATOM     71  C   UNL     1       7.675   7.493 -13.124  1.00  0.00     0.040 A 
ATOM     72  C   UNL     1       7.056   5.304 -12.380  1.00  0.00     0.040 A 
ATOM     73  F   UNL     1       5.187   4.994 -11.074  1.00  0.00    -0.206 F 
ATOM     74  C   UNL     1       7.869   6.114 -13.152  1.00  0.00     0.006 A 
ENDBRANCH  53  67
BRANCH  54  75
ATOM     75  C   UNL     1      -1.500   3.332 -13.113  1.00  0.00     0.057 A 
ATOM     76  C   UNL     1      -1.629   3.283 -14.517  1.00  0.00     0.134 A 
ATOM     77  C   UNL     1      -1.646   2.104 -12.452  1.00  0.00     0.134 A 
ATOM     78  F   UNL     1      -1.480   4.389 -15.260  1.00  0.00    -0.206 F 
ATOM     79  C   UNL     1      -1.841   2.084 -15.215  1.00  0.00     0.040 A 
ATOM     80  C   UNL     1      -1.868   0.901 -13.137  1.00  0.00     0.040 A 
ATOM     81  F   UNL     1      -1.486   2.009 -11.126  1.00  0.00    -0.206 F 
ATOM     82  C   UNL     1      -1.946   0.883 -14.524  1.00  0.00     0.006 A 
ENDBRANCH  54  75
BRANCH  66  83
ATOM     83  C   UNL     1      -0.416   9.468 -13.049  1.00  0.00     0.057 A 
ATOM     84  C   UNL     1      -1.507   9.147 -12.225  1.00  0.00     0.134 A 
ATOM     85  C   UNL     1      -0.495  10.668 -13.766  1.00  0.00     0.134 A 
ATOM     86  F   UNL     1      -1.483   8.072 -11.425  1.00  0.00    -0.206 F 
ATOM     87  C   UNL     1      -2.639   9.964 -12.155  1.00  0.00     0.040 A 
ATOM     88  C   UNL     1      -1.604  11.511 -13.675  1.00  0.00     0.040 A 
ATOM     89  F   UNL     1       0.531  11.065 -14.537  1.00  0.00    -0.206 F 
ATOM     90  C   UNL     1      -2.686  11.155 -12.874  1.00  0.00     0.006 A 
ENDBRANCH  66  83
ENDBRANCH  40  41
ENDBRANCH  32  35
ENDBRANCH  30  31
ENDBRANCH  29  30
ENDBRANCH  28  29
ENDBRANCH   3  28
TORSDOF 16
