REMARK SMILES C[C@H]1N=c2ccc(OC(F)(F)F)cc2=C1CCN1C(=O)c2ccc(C(=O)NCCCNC(=O)c3ccc(-c4c5nc(c(-c6c(F)cccc6F)c6ccc([nH]6)c(-c6c(F)cccc6F)c6nc(c(-c7c(F)cccc7F)c7ccc4[nH]7)C=C6)C=C5)cc3)cc2C1=O
REMARK SMILES IDX 25 1 26 2 27 3 24 5 18 6 19 7 90 8 20 9 21 10 89 11 91 12
REMARK SMILES IDX 22 13 88 14 23 15 17 16 16 17 15 18 1 19 2 20 3 21 4 22
REMARK SMILES IDX 14 23 5 24 13 25 6 26 7 27 8 28 9 29 10 30 11 31 12 32 28 33
REMARK SMILES IDX 29 34 30 35 31 36 32 37 33 39 34 40 35 41 87 42 36 43 86 44
REMARK SMILES IDX 37 45 38 46 39 47 80 48 40 49 85 50 79 51 81 52 41 53 84 54
REMARK SMILES IDX 78 55 77 56 42 58 68 59 51 60 67 61 52 62 55 63 66 64 82 65
REMARK SMILES IDX 53 66 54 67 65 69 83 70 56 71 43 72 44 73 49 74 45 75 46 76
REMARK SMILES IDX 48 77 50 78 47 79 69 80 70 81 75 82 71 83 72 84 74 85 76 86
REMARK SMILES IDX 73 87 57 88 58 89 63 90 59 91 60 92 62 93 64 94 61 95
REMARK H PARENT 27 4 31 38 81 57 55 68
REMARK Flexibility Score: inf
ROOT
ATOM      1  C   UNL     1       2.161   4.152  -3.481  1.00  0.00     0.251 C 
ATOM      2  O   UNL     1       2.638   5.283  -3.476  1.00  0.00    -0.269 OA
ATOM      3  N   UNL     1       1.501   3.692  -4.589  1.00  0.00    -0.352 N 
ATOM      4  H   UNL     1       1.319   4.378  -5.271  1.00  0.00     0.163 HD
ENDROOT
BRANCH   1   5
ATOM      5  C   UNL     1       2.356   3.301  -2.292  1.00  0.00     0.040 A 
ATOM      6  N   UNL     1       1.446   0.720   1.382  1.00  0.00    -0.274 N 
ATOM      7  C   UNL     1       2.778   0.857   1.084  1.00  0.00     0.261 C 
ATOM      8  C   UNL     1       0.691   1.610   0.669  1.00  0.00     0.261 C 
ATOM      9  O   UNL     1       3.743   0.351   1.615  1.00  0.00    -0.269 OA
ATOM     10  C   UNL     1       2.858   1.773  -0.057  1.00  0.00     0.053 A 
ATOM     11  C   UNL     1       1.571   2.190  -0.350  1.00  0.00     0.054 A 
ATOM     12  O   UNL     1      -0.487   1.894   0.789  1.00  0.00    -0.269 OA
ATOM     13  C   UNL     1       3.943   2.162  -0.818  1.00  0.00     0.015 A 
ATOM     14  C   UNL     1       1.276   2.945  -1.474  1.00  0.00     0.028 A 
ATOM     15  C   UNL     1       3.683   2.950  -1.945  1.00  0.00     0.015 A 
BRANCH   6  16
ATOM     16  C   UNL     1       0.945  -0.151   2.435  1.00  0.00     0.134 C 
BRANCH  16  17
ATOM     17  C   UNL     1      -0.286  -1.022   2.082  1.00  0.00     0.056 C 
BRANCH  17  18
ATOM     18  C   UNL     1      -0.111  -2.118   1.059  1.00  0.00    -0.035 C 
ATOM     19  C   UNL     1       0.169  -0.874  -1.226  1.00  0.00     0.038 C 
ATOM     20  C   UNL     1      -0.522  -1.933  -0.392  1.00  0.00     0.129 C 
ATOM     21  N   UNL     1      -0.252  -3.232  -1.054  1.00  0.00    -0.277 NA
ATOM     22  C   UNL     1       0.091  -3.999  -0.072  1.00  0.00     0.066 A 
ATOM     23  C   UNL     1       0.128  -3.419   1.280  1.00  0.00     0.005 A 
ATOM     24  C   UNL     1       0.469  -5.415  -0.205  1.00  0.00     0.032 A 
ATOM     25  C   UNL     1       0.282  -4.271   2.428  1.00  0.00     0.057 A 
ATOM     26  C   UNL     1       0.655  -6.142   0.907  1.00  0.00     0.049 A 
ATOM     27  C   UNL     1       0.457  -5.597   2.247  1.00  0.00     0.130 A 
BRANCH  27  28
ATOM     28  O   UNL     1       0.468  -6.442   3.339  1.00  0.00    -0.406 OA
BRANCH  28  29
ATOM     29  C   UNL     1       0.023  -7.784   3.153  1.00  0.00     0.573 C 
ATOM     30  F   UNL     1      -1.047  -7.856   2.332  1.00  0.00    -0.132 F 
ATOM     31  F   UNL     1       1.024  -8.538   2.647  1.00  0.00    -0.132 F 
ATOM     32  F   UNL     1      -0.330  -8.303   4.349  1.00  0.00    -0.132 F 
ENDBRANCH  28  29
ENDBRANCH  27  28
ENDBRANCH  17  18
ENDBRANCH  16  17
ENDBRANCH   6  16
ENDBRANCH   1   5
BRANCH   3  33
ATOM     33  C   UNL     1       1.022   2.360  -4.929  1.00  0.00     0.118 C 
BRANCH  33  34
ATOM     34  C   UNL     1      -0.466   2.340  -5.276  1.00  0.00     0.042 C 
BRANCH  34  35
ATOM     35  C   UNL     1      -0.890   3.233  -6.444  1.00  0.00     0.118 C 
BRANCH  35  36
ATOM     36  N   UNL     1      -0.499   2.739  -7.758  1.00  0.00    -0.352 N 
ATOM     37  C   UNL     1      -1.255   2.541  -8.896  1.00  0.00     0.251 C 
ATOM     38  H   UNL     1       0.455   2.509  -7.849  1.00  0.00     0.163 HD
ATOM     39  O   UNL     1      -0.733   2.045  -9.891  1.00  0.00    -0.269 OA
BRANCH  37  40
ATOM     40  C   UNL     1      -2.702   2.869  -8.919  1.00  0.00     0.039 A 
ATOM     41  C   UNL     1      -3.195   4.050  -8.364  1.00  0.00     0.014 A 
ATOM     42  C   UNL     1      -3.592   1.959  -9.502  1.00  0.00     0.014 A 
ATOM     43  C   UNL     1      -4.570   4.223  -8.207  1.00  0.00     0.010 A 
ATOM     44  C   UNL     1      -4.974   2.175  -9.419  1.00  0.00     0.010 A 
ATOM     45  C   UNL     1      -5.477   3.275  -8.707  1.00  0.00    -0.014 A 
BRANCH  45  46
ATOM     46  C   UNL     1      -6.933   3.424  -8.425  1.00  0.00     0.031 A 
ATOM     47  C   UNL     1      -7.655   2.416  -7.563  1.00  0.00     0.074 A 
ATOM     48  C   UNL     1      -7.601   4.502  -8.880  1.00  0.00     0.049 A 
ATOM     49  N   UNL     1      -8.906   2.405  -7.170  1.00  0.00    -0.248 NA
ATOM     50  C   UNL     1      -6.871   1.267  -7.083  1.00  0.00     0.031 C 
ATOM     51  C   UNL     1      -7.029   5.559  -9.715  1.00  0.00     0.029 A 
ATOM     52  N   UNL     1      -8.901   4.899  -8.685  1.00  0.00    -0.354 N 
ATOM     53  C   UNL     1      -9.060   1.250  -6.412  1.00  0.00     0.074 A 
ATOM     54  C   UNL     1      -7.786   0.564  -6.431  1.00  0.00     0.031 C 
ATOM     55  C   UNL     1      -7.957   6.507  -9.920  1.00  0.00     0.029 A 
ATOM     56  C   UNL     1      -9.203   6.101  -9.277  1.00  0.00     0.049 A 
ATOM     57  H   UNL     1      -9.554   4.372  -8.170  1.00  0.00     0.167 HD
ATOM     58  C   UNL     1     -10.153   0.806  -5.744  1.00  0.00     0.037 A 
ATOM     59  C   UNL     1     -10.356   6.796  -9.309  1.00  0.00     0.037 A 
ATOM     60  C   UNL     1     -11.420   1.490  -5.704  1.00  0.00     0.049 A 
ATOM     61  C   UNL     1     -11.568   6.253  -8.606  1.00  0.00     0.074 A 
ATOM     62  C   UNL     1     -12.575   1.130  -5.030  1.00  0.00     0.029 A 
ATOM     63  N   UNL     1     -11.700   2.674  -6.368  1.00  0.00    -0.354 N 
ATOM     64  N   UNL     1     -11.687   5.173  -7.873  1.00  0.00    -0.248 NA
ATOM     65  C   UNL     1     -12.811   7.027  -8.743  1.00  0.00     0.031 C 
ATOM     66  C   UNL     1     -13.567   2.073  -5.322  1.00  0.00     0.029 A 
ATOM     67  C   UNL     1     -13.016   3.045  -6.141  1.00  0.00     0.049 A 
ATOM     68  H   UNL     1     -11.058   3.177  -6.919  1.00  0.00     0.167 HD
ATOM     69  C   UNL     1     -13.009   5.147  -7.448  1.00  0.00     0.074 A 
ATOM     70  C   UNL     1     -13.646   6.331  -7.986  1.00  0.00     0.031 C 
ATOM     71  C   UNL     1     -13.640   4.223  -6.683  1.00  0.00     0.037 A 
BRANCH  58  72
ATOM     72  C   UNL     1     -10.030  -0.498  -5.008  1.00  0.00     0.057 A 
ATOM     73  C   UNL     1     -10.693  -1.644  -5.468  1.00  0.00     0.134 A 
ATOM     74  C   UNL     1      -9.280  -0.616  -3.830  1.00  0.00     0.134 A 
ATOM     75  F   UNL     1     -11.435  -1.599  -6.584  1.00  0.00    -0.206 F 
ATOM     76  C   UNL     1     -10.613  -2.858  -4.784  1.00  0.00     0.040 A 
ATOM     77  C   UNL     1      -9.172  -1.832  -3.152  1.00  0.00     0.040 A 
ATOM     78  F   UNL     1      -8.611   0.439  -3.342  1.00  0.00    -0.206 F 
ATOM     79  C   UNL     1      -9.844  -2.957  -3.626  1.00  0.00     0.006 A 
ENDBRANCH  58  72
BRANCH  59  80
ATOM     80  C   UNL     1     -10.429   8.086 -10.040  1.00  0.00     0.057 A 
ATOM     81  C   UNL     1     -10.360   8.136 -11.438  1.00  0.00     0.134 A 
ATOM     82  C   UNL     1     -10.599   9.296  -9.359  1.00  0.00     0.134 A 
ATOM     83  F   UNL     1     -10.197   7.010 -12.149  1.00  0.00    -0.206 F 
ATOM     84  C   UNL     1     -10.450   9.343 -12.131  1.00  0.00     0.040 A 
ATOM     85  C   UNL     1     -10.718  10.508 -10.040  1.00  0.00     0.040 A 
ATOM     86  F   UNL     1     -10.696   9.310  -8.021  1.00  0.00    -0.206 F 
ATOM     87  C   UNL     1     -10.639  10.533 -11.432  1.00  0.00     0.006 A 
ENDBRANCH  59  80
BRANCH  71  88
ATOM     88  C   UNL     1     -15.086   4.474  -6.367  1.00  0.00     0.057 A 
ATOM     89  C   UNL     1     -15.481   4.847  -5.076  1.00  0.00     0.134 A 
ATOM     90  C   UNL     1     -16.088   4.339  -7.336  1.00  0.00     0.134 A 
ATOM     91  F   UNL     1     -14.573   4.988  -4.099  1.00  0.00    -0.206 F 
ATOM     92  C   UNL     1     -16.821   5.081  -4.762  1.00  0.00     0.040 A 
ATOM     93  C   UNL     1     -17.428   4.595  -7.041  1.00  0.00     0.040 A 
ATOM     94  F   UNL     1     -15.774   3.999  -8.596  1.00  0.00    -0.206 F 
ATOM     95  C   UNL     1     -17.798   4.963  -5.749  1.00  0.00     0.006 A 
ENDBRANCH  71  88
ENDBRANCH  45  46
ENDBRANCH  37  40
ENDBRANCH  35  36
ENDBRANCH  34  35
ENDBRANCH  33  34
ENDBRANCH   3  33
TORSDOF 15
