REMARK SMILES CC(=O)c1cc2c(cc1NC(=O)/C=C/C(=O)NCCCNC(=O)c1ccc(-c3c4nc(c(-c5c(F)cccc5F)c5ccc([nH]5)c(-c5c(F)cccc5F)c5nc(c(-c6c(F)cccc6F)c6ccc3[nH]6)C=C5)C=C4)cc1)OCO2
REMARK SMILES IDX 18 1 17 2 15 3 16 4 14 6 13 7 11 8 10 9 12 11 9 12 4 13 5 14
REMARK SMILES IDX 6 15 8 16 7 17 80 18 78 19 79 20 2 21 1 22 3 23 19 24 20 25
REMARK SMILES IDX 21 26 22 27 23 29 24 30 25 31 77 32 26 33 76 34 27 35 28 36
REMARK SMILES IDX 29 37 70 38 30 39 75 40 69 41 71 42 31 43 74 44 68 45 67 46
REMARK SMILES IDX 32 48 58 49 41 50 57 51 42 52 45 53 56 54 72 55 43 56 44 57
REMARK SMILES IDX 55 59 73 60 46 61 33 62 34 63 39 64 35 65 36 66 38 67 40 68
REMARK SMILES IDX 37 69 59 70 60 71 65 72 61 73 62 74 64 75 66 76 63 77 47 78
REMARK SMILES IDX 48 79 53 80 49 81 50 82 52 83 54 84 51 85
REMARK H PARENT 17 5 10 10 21 28 71 47 45 58
REMARK Flexibility Score: inf
ROOT
ATOM      1  C   UNL     1      -3.546   5.656   5.866  1.00  0.00     0.118 C 
ENDROOT
BRANCH   1   2
ATOM      2  N   UNL     1      -2.127   5.544   6.150  1.00  0.00    -0.352 N 
ATOM      3  C   UNL     1      -1.108   5.228   5.314  1.00  0.00     0.244 C 
ATOM      4  O   UNL     1       0.058   5.349   5.681  1.00  0.00    -0.270 OA
ATOM      5  H   UNL     1      -1.867   5.722   7.083  1.00  0.00     0.163 HD
BRANCH   3   6
ATOM      6  C   UNL     1      -1.399   4.748   3.954  1.00  0.00     0.077 C 
ATOM      7  C   UNL     1      -2.148   3.650   3.776  1.00  0.00     0.077 C 
BRANCH   7   8
ATOM      8  C   UNL     1      -2.242   3.038   2.444  1.00  0.00     0.248 C 
ATOM      9  N   UNL     1      -1.146   2.450   1.878  1.00  0.00    -0.322 N 
ATOM     10  H   UNL     1      -1.301   2.124   0.963  1.00  0.00     0.170 HD
ATOM     11  O   UNL     1      -3.321   3.072   1.857  1.00  0.00    -0.270 OA
BRANCH   9  12
ATOM     12  C   UNL     1       0.173   2.218   2.348  1.00  0.00     0.056 A 
ATOM     13  C   UNL     1       1.187   1.882   1.410  1.00  0.00     0.045 A 
ATOM     14  C   UNL     1       2.546   1.887   1.762  1.00  0.00     0.064 A 
ATOM     15  C   UNL     1       2.859   2.176   3.069  1.00  0.00     0.166 A 
ATOM     16  C   UNL     1       0.540   2.330   3.692  1.00  0.00     0.077 A 
ATOM     17  C   UNL     1       1.880   2.349   4.013  1.00  0.00     0.167 A 
ATOM     18  O   UNL     1       4.105   2.299   3.595  1.00  0.00    -0.454 OA
ATOM     19  O   UNL     1       2.387   2.564   5.256  1.00  0.00    -0.454 OA
ATOM     20  C   UNL     1       3.786   2.709   4.945  1.00  0.00     0.468 C 
BRANCH  13  21
ATOM     21  C   UNL     1       0.812   1.463   0.040  1.00  0.00     0.162 C 
ATOM     22  C   UNL     1       1.321   0.123  -0.423  1.00  0.00     0.093 C 
ATOM     23  O   UNL     1       0.026   2.140  -0.615  1.00  0.00    -0.294 OA
ENDBRANCH  13  21
ENDBRANCH   9  12
ENDBRANCH   7   8
ENDBRANCH   3   6
ENDBRANCH   1   2
BRANCH   1  24
ATOM     24  C   UNL     1      -4.370   4.680   6.696  1.00  0.00     0.042 C 
BRANCH  24  25
ATOM     25  C   UNL     1      -4.267   4.914   8.199  1.00  0.00     0.118 C 
BRANCH  25  26
ATOM     26  N   UNL     1      -4.668   6.262   8.573  1.00  0.00    -0.352 N 
ATOM     27  C   UNL     1      -5.733   6.690   9.318  1.00  0.00     0.251 C 
ATOM     28  H   UNL     1      -4.082   6.978   8.237  1.00  0.00     0.163 HD
ATOM     29  O   UNL     1      -6.054   7.877   9.291  1.00  0.00    -0.269 OA
BRANCH  27  30
ATOM     30  C   UNL     1      -6.485   5.745  10.165  1.00  0.00     0.039 A 
ATOM     31  C   UNL     1      -7.869   5.901  10.289  1.00  0.00     0.014 A 
ATOM     32  C   UNL     1      -5.821   4.760  10.902  1.00  0.00     0.014 A 
ATOM     33  C   UNL     1      -8.586   5.061  11.141  1.00  0.00     0.010 A 
ATOM     34  C   UNL     1      -6.546   3.870  11.685  1.00  0.00     0.010 A 
ATOM     35  C   UNL     1      -7.929   4.036  11.841  1.00  0.00    -0.014 A 
BRANCH  35  36
ATOM     36  C   UNL     1      -8.660   3.176  12.801  1.00  0.00     0.031 A 
ATOM     37  C   UNL     1      -8.325   3.244  14.267  1.00  0.00     0.074 A 
ATOM     38  C   UNL     1      -9.580   2.304  12.352  1.00  0.00     0.049 A 
ATOM     39  N   UNL     1      -8.811   2.547  15.261  1.00  0.00    -0.248 NA
ATOM     40  C   UNL     1      -7.276   4.198  14.661  1.00  0.00     0.031 C 
ATOM     41  C   UNL     1      -9.944   2.106  10.949  1.00  0.00     0.029 A 
ATOM     42  N   UNL     1     -10.370   1.415  13.033  1.00  0.00    -0.354 N 
ATOM     43  C   UNL     1      -8.108   2.956  16.387  1.00  0.00     0.074 A 
ATOM     44  C   UNL     1      -7.125   3.920  15.947  1.00  0.00     0.031 C 
ATOM     45  C   UNL     1     -10.905   1.170  10.875  1.00  0.00     0.029 A 
ATOM     46  C   UNL     1     -11.205   0.690  12.220  1.00  0.00     0.049 A 
ATOM     47  H   UNL     1     -10.341   1.307  14.011  1.00  0.00     0.167 HD
ATOM     48  C   UNL     1      -8.284   2.584  17.678  1.00  0.00     0.037 A 
ATOM     49  C   UNL     1     -12.116  -0.251  12.530  1.00  0.00     0.037 A 
ATOM     50  C   UNL     1      -9.295   1.658  18.114  1.00  0.00     0.049 A 
ATOM     51  C   UNL     1     -12.338  -0.605  13.973  1.00  0.00     0.074 A 
ATOM     52  C   UNL     1      -9.608   1.263  19.402  1.00  0.00     0.029 A 
ATOM     53  N   UNL     1     -10.164   0.987  17.265  1.00  0.00    -0.354 N 
ATOM     54  N   UNL     1     -11.717  -0.158  15.039  1.00  0.00    -0.248 NA
ATOM     55  C   UNL     1     -13.401  -1.577  14.259  1.00  0.00     0.031 C 
ATOM     56  C   UNL     1     -10.647   0.328  19.330  1.00  0.00     0.029 A 
ATOM     57  C   UNL     1     -11.009   0.173  18.001  1.00  0.00     0.049 A 
ATOM     58  H   UNL     1     -10.177   1.076  16.285  1.00  0.00     0.167 HD
ATOM     59  C   UNL     1     -12.331  -0.771  16.123  1.00  0.00     0.074 A 
ATOM     60  C   UNL     1     -13.382  -1.612  15.585  1.00  0.00     0.031 C 
ATOM     61  C   UNL     1     -12.053  -0.649  17.444  1.00  0.00     0.037 A 
BRANCH  48  62
ATOM     62  C   UNL     1      -7.361   3.185  18.699  1.00  0.00     0.057 A 
ATOM     63  C   UNL     1      -7.418   4.543  19.042  1.00  0.00     0.134 A 
ATOM     64  C   UNL     1      -6.399   2.398  19.345  1.00  0.00     0.134 A 
ATOM     65  F   UNL     1      -8.306   5.357  18.450  1.00  0.00    -0.206 F 
ATOM     66  C   UNL     1      -6.528   5.104  19.960  1.00  0.00     0.040 A 
ATOM     67  C   UNL     1      -5.523   2.941  20.286  1.00  0.00     0.040 A 
ATOM     68  F   UNL     1      -6.292   1.089  19.069  1.00  0.00    -0.206 F 
ATOM     69  C   UNL     1      -5.579   4.300  20.588  1.00  0.00     0.006 A 
ENDBRANCH  48  62
BRANCH  49  70
ATOM     70  C   UNL     1     -12.922  -0.876  11.454  1.00  0.00     0.057 A 
ATOM     71  C   UNL     1     -14.274  -0.552  11.286  1.00  0.00     0.134 A 
ATOM     72  C   UNL     1     -12.360  -1.788  10.554  1.00  0.00     0.134 A 
ATOM     73  F   UNL     1     -14.871   0.306  12.126  1.00  0.00    -0.206 F 
ATOM     74  C   UNL     1     -15.042  -1.125  10.272  1.00  0.00     0.040 A 
ATOM     75  C   UNL     1     -13.110  -2.352   9.521  1.00  0.00     0.040 A 
ATOM     76  F   UNL     1     -11.066  -2.128  10.655  1.00  0.00    -0.206 F 
ATOM     77  C   UNL     1     -14.458  -2.024   9.382  1.00  0.00     0.006 A 
ENDBRANCH  49  70
BRANCH  61  78
ATOM     78  C   UNL     1     -12.924  -1.412  18.397  1.00  0.00     0.057 A 
ATOM     79  C   UNL     1     -12.832  -2.802  18.534  1.00  0.00     0.134 A 
ATOM     80  C   UNL     1     -13.848  -0.739  19.208  1.00  0.00     0.134 A 
ATOM     81  F   UNL     1     -11.975  -3.505  17.778  1.00  0.00    -0.206 F 
ATOM     82  C   UNL     1     -13.646  -3.501  19.426  1.00  0.00     0.040 A 
ATOM     83  C   UNL     1     -14.649  -1.424  20.121  1.00  0.00     0.040 A 
ATOM     84  F   UNL     1     -13.978   0.594  19.131  1.00  0.00    -0.206 F 
ATOM     85  C   UNL     1     -14.555  -2.810  20.227  1.00  0.00     0.006 A 
ENDBRANCH  61  78
ENDBRANCH  35  36
ENDBRANCH  27  30
ENDBRANCH  25  26
ENDBRANCH  24  25
ENDBRANCH   1  24
TORSDOF 13
