REMARK SMILES O=C(NCCCNC(=O)[C@@H]1C[NH2+]CCN1C(=O)N[C@@H]1CCOC1)c1ccc(-c2c3nc(c(-c4c(F)cccc4F)c4ccc([nH]4)c(-c4c(F)cccc4F)c4nc(c(-c5c(F)cccc5F)c5ccc2[nH]5)C=C4)C=C3)cc1
REMARK SMILES IDX 5 1 4 2 3 3 1 4 2 5 24 7 25 8 77 9 26 10 76 11 27 12 28 13
REMARK SMILES IDX 29 14 70 15 30 16 75 17 69 18 71 19 31 20 74 21 68 22 67 23
REMARK SMILES IDX 32 25 58 26 41 27 57 28 42 29 45 30 56 31 72 32 43 33 44 34
REMARK SMILES IDX 55 36 73 37 46 38 33 39 34 40 39 41 35 42 36 43 38 44 40 45
REMARK SMILES IDX 37 46 59 47 60 48 65 49 61 50 62 51 64 52 66 53 63 54 47 55
REMARK SMILES IDX 48 56 53 57 49 58 50 59 52 60 54 61 51 62 6 63 7 64 8 65
REMARK SMILES IDX 9 67 10 68 11 69 15 70 12 71 14 72 13 73 16 76 17 77 18 78
REMARK SMILES IDX 19 80 20 81 23 82 21 83 22 84
REMARK H PARENT 3 6 71 24 45 35 7 66 12 74 12 75 18 79
REMARK Flexibility Score: inf
ROOT
ATOM      1  C   UNL     1       4.838  -0.193   2.024  1.00  0.00     0.042 C 
ENDROOT
BRANCH   1   2
ATOM      2  C   UNL     1       4.545  -1.029   0.780  1.00  0.00     0.118 C 
BRANCH   2   3
ATOM      3  N   UNL     1       3.132  -1.044   0.417  1.00  0.00    -0.352 N 
ATOM      4  O   UNL     1       1.152  -0.236  -0.280  1.00  0.00    -0.269 OA
ATOM      5  C   UNL     1       2.390  -0.167  -0.323  1.00  0.00     0.251 C 
ATOM      6  H   UNL     1       2.628  -1.815   0.765  1.00  0.00     0.163 HD
BRANCH   5   7
ATOM      7  C   UNL     1       3.026   0.864  -1.162  1.00  0.00     0.039 A 
ATOM      8  C   UNL     1       4.115   0.550  -1.977  1.00  0.00     0.014 A 
ATOM      9  C   UNL     1       2.468   2.147  -1.206  1.00  0.00     0.014 A 
ATOM     10  C   UNL     1       4.723   1.543  -2.741  1.00  0.00     0.010 A 
ATOM     11  C   UNL     1       3.031   3.123  -2.031  1.00  0.00     0.010 A 
ATOM     12  C   UNL     1       4.176   2.833  -2.790  1.00  0.00    -0.014 A 
BRANCH  12  13
ATOM     13  C   UNL     1       4.767   3.857  -3.685  1.00  0.00     0.031 A 
ATOM     14  C   UNL     1       5.389   5.100  -3.120  1.00  0.00     0.074 A 
ATOM     15  C   UNL     1       4.713   3.671  -5.018  1.00  0.00     0.049 A 
ATOM     16  N   UNL     1       5.872   6.141  -3.748  1.00  0.00    -0.248 NA
ATOM     17  C   UNL     1       5.469   5.189  -1.655  1.00  0.00     0.031 C 
ATOM     18  C   UNL     1       4.130   2.502  -5.680  1.00  0.00     0.029 A 
ATOM     19  N   UNL     1       5.142   4.461  -6.053  1.00  0.00    -0.354 N 
ATOM     20  C   UNL     1       6.289   7.021  -2.757  1.00  0.00     0.074 A 
ATOM     21  C   UNL     1       5.982   6.399  -1.486  1.00  0.00     0.031 C 
ATOM     22  C   UNL     1       4.246   2.647  -7.008  1.00  0.00     0.029 A 
ATOM     23  C   UNL     1       4.850   3.944  -7.291  1.00  0.00     0.049 A 
ATOM     24  H   UNL     1       5.612   5.316  -5.921  1.00  0.00     0.167 HD
ATOM     25  C   UNL     1       6.873   8.235  -2.899  1.00  0.00     0.037 A 
ATOM     26  C   UNL     1       5.011   4.470  -8.519  1.00  0.00     0.037 A 
ATOM     27  C   UNL     1       7.178   8.838  -4.172  1.00  0.00     0.049 A 
ATOM     28  C   UNL     1       5.628   5.830  -8.654  1.00  0.00     0.074 A 
ATOM     29  C   UNL     1       7.804  10.046  -4.427  1.00  0.00     0.029 A 
ATOM     30  N   UNL     1       6.866   8.281  -5.405  1.00  0.00    -0.354 N 
ATOM     31  N   UNL     1       6.046   6.640  -7.712  1.00  0.00    -0.248 NA
ATOM     32  C   UNL     1       5.794   6.353 -10.016  1.00  0.00     0.031 C 
ATOM     33  C   UNL     1       7.823  10.243  -5.812  1.00  0.00     0.029 A 
ATOM     34  C   UNL     1       7.262   9.133  -6.423  1.00  0.00     0.049 A 
ATOM     35  H   UNL     1       6.428   7.410  -5.536  1.00  0.00     0.167 HD
ATOM     36  C   UNL     1       6.546   7.758  -8.364  1.00  0.00     0.074 A 
ATOM     37  C   UNL     1       6.382   7.519  -9.785  1.00  0.00     0.031 C 
ATOM     38  C   UNL     1       7.097   8.876  -7.833  1.00  0.00     0.037 A 
BRANCH  25  39
ATOM     39  C   UNL     1       7.183   9.004  -1.646  1.00  0.00     0.057 A 
ATOM     40  C   UNL     1       8.187   8.606  -0.754  1.00  0.00     0.134 A 
ATOM     41  C   UNL     1       6.466  10.166  -1.331  1.00  0.00     0.134 A 
ATOM     42  F   UNL     1       8.904   7.497  -0.989  1.00  0.00    -0.206 F 
ATOM     43  C   UNL     1       8.442   9.314   0.423  1.00  0.00     0.040 A 
ATOM     44  C   UNL     1       6.731  10.898  -0.172  1.00  0.00     0.040 A 
ATOM     45  F   UNL     1       5.496  10.611  -2.144  1.00  0.00    -0.206 F 
ATOM     46  C   UNL     1       7.715  10.466   0.715  1.00  0.00     0.006 A 
ENDBRANCH  25  39
BRANCH  26  47
ATOM     47  C   UNL     1       4.559   3.696  -9.701  1.00  0.00     0.057 A 
ATOM     48  C   UNL     1       5.476   3.097 -10.571  1.00  0.00     0.134 A 
ATOM     49  C   UNL     1       3.197   3.482  -9.949  1.00  0.00     0.134 A 
ATOM     50  F   UNL     1       6.792   3.276 -10.392  1.00  0.00    -0.206 F 
ATOM     51  C   UNL     1       5.054   2.311 -11.644  1.00  0.00     0.040 A 
ATOM     52  C   UNL     1       2.763   2.679 -11.003  1.00  0.00     0.040 A 
ATOM     53  F   UNL     1       2.270   4.020  -9.142  1.00  0.00    -0.206 F 
ATOM     54  C   UNL     1       3.694   2.091 -11.856  1.00  0.00     0.006 A 
ENDBRANCH  26  47
BRANCH  38  55
ATOM     55  C   UNL     1       7.605   9.914  -8.788  1.00  0.00     0.057 A 
ATOM     56  C   UNL     1       6.741  10.762  -9.490  1.00  0.00     0.134 A 
ATOM     57  C   UNL     1       8.983  10.112  -8.949  1.00  0.00     0.134 A 
ATOM     58  F   UNL     1       5.411  10.614  -9.389  1.00  0.00    -0.206 F 
ATOM     59  C   UNL     1       7.229  11.768 -10.325  1.00  0.00     0.040 A 
ATOM     60  C   UNL     1       9.482  11.129  -9.763  1.00  0.00     0.040 A 
ATOM     61  F   UNL     1       9.863   9.336  -8.300  1.00  0.00    -0.206 F 
ATOM     62  C   UNL     1       8.604  11.960 -10.455  1.00  0.00     0.006 A 
ENDBRANCH  38  55
ENDBRANCH  12  13
ENDBRANCH   5   7
ENDBRANCH   2   3
ENDBRANCH   1   2
BRANCH   1  63
ATOM     63  C   UNL     1       4.037  -0.597   3.254  1.00  0.00     0.117 C 
BRANCH  63  64
ATOM     64  N   UNL     1       4.169  -1.993   3.628  1.00  0.00    -0.354 N 
ATOM     65  C   UNL     1       4.641  -2.606   4.745  1.00  0.00     0.248 C 
ATOM     66  H   UNL     1       3.855  -2.619   2.937  1.00  0.00     0.163 HD
ATOM     67  O   UNL     1       3.971  -3.589   5.097  1.00  0.00    -0.272 OA
BRANCH  65  68
ATOM     68  C   UNL     1       5.938  -2.255   5.519  1.00  0.00     0.231 C 
ATOM     69  C   UNL     1       6.330  -0.764   5.579  1.00  0.00     0.296 C 
ATOM     70  N   UNL     1       7.167  -3.138   5.683  1.00  0.00    -0.302 N 
ATOM     71  N   UNL     1       7.043  -0.392   6.827  1.00  0.00    -0.343 N 
ATOM     72  C   UNL     1       7.780  -2.812   6.996  1.00  0.00     0.183 C 
ATOM     73  C   UNL     1       8.177  -1.309   7.064  1.00  0.00     0.282 C 
ATOM     74  H   UNL     1       6.396  -0.448   7.613  1.00  0.00     0.346 HD
ATOM     75  H   UNL     1       7.400   0.558   6.733  1.00  0.00     0.346 HD
BRANCH  70  76
ATOM     76  C   UNL     1       8.139  -3.443   4.767  1.00  0.00     0.318 C 
ATOM     77  O   UNL     1       9.316  -3.090   4.948  1.00  0.00    -0.249 OA
ATOM     78  N   UNL     1       8.033  -4.218   3.688  1.00  0.00    -0.333 N 
ATOM     79  H   UNL     1       8.873  -4.123   3.184  1.00  0.00     0.165 HD
BRANCH  78  80
ATOM     80  C   UNL     1       7.188  -5.157   2.934  1.00  0.00     0.112 C 
ATOM     81  C   UNL     1       5.720  -5.004   3.100  1.00  0.00     0.056 C 
ATOM     82  C   UNL     1       7.358  -6.639   3.272  1.00  0.00     0.185 C 
ATOM     83  C   UNL     1       5.459  -5.852   4.326  1.00  0.00     0.162 C 
ATOM     84  O   UNL     1       6.322  -6.992   4.202  1.00  0.00    -0.379 OA
ENDBRANCH  78  80
ENDBRANCH  70  76
ENDBRANCH  65  68
ENDBRANCH  63  64
ENDBRANCH   1  63
TORSDOF 12
