REMARK SMILES O=C(NCCCNC(=O)c1cncc(C(=O)c2ccsc2)c1)c1ccc(-c2c3nc(c(-c4c(F)cccc4F)c4ccc([nH]4)c(-c4c(F)cccc4F)c4nc(c(-c5c(F)cccc5F)c5ccc2[nH]5)C=C4)C=C3)cc1
REMARK SMILES IDX 5 1 4 2 3 3 1 4 2 5 23 7 24 8 76 9 25 10 75 11 26 12 27 13
REMARK SMILES IDX 28 14 69 15 29 16 74 17 68 18 70 19 30 20 73 21 67 22 66 23
REMARK SMILES IDX 31 25 57 26 40 27 56 28 41 29 44 30 55 31 71 32 42 33 43 34
REMARK SMILES IDX 54 36 72 37 45 38 32 39 33 40 38 41 34 42 35 43 37 44 39 45
REMARK SMILES IDX 36 46 58 47 59 48 64 49 60 50 61 51 63 52 65 53 62 54 46 55
REMARK SMILES IDX 47 56 52 57 48 58 49 59 51 60 53 61 50 62 6 63 7 64 8 65
REMARK SMILES IDX 9 67 10 68 11 69 22 70 12 71 14 72 13 73 15 74 16 75 17 76
REMARK SMILES IDX 18 77 21 78 19 79 20 80
REMARK H PARENT 3 6 70 24 44 35 7 66
REMARK Flexibility Score: inf
ROOT
ATOM      1  C   UNL     1       4.850   2.438   0.146  1.00  0.00     0.042 C 
ENDROOT
BRANCH   1   2
ATOM      2  C   UNL     1       4.476   1.097   0.751  1.00  0.00     0.118 C 
BRANCH   2   3
ATOM      3  N   UNL     1       3.046   0.834   0.671  1.00  0.00    -0.352 N 
ATOM      4  O   UNL     1       1.138  -0.029  -0.152  1.00  0.00    -0.269 OA
ATOM      5  C   UNL     1       2.360  -0.103  -0.060  1.00  0.00     0.251 C 
ATOM      6  H   UNL     1       2.484   1.419   1.229  1.00  0.00     0.163 HD
BRANCH   5   7
ATOM      7  C   UNL     1       3.086  -1.197  -0.740  1.00  0.00     0.039 A 
ATOM      8  C   UNL     1       4.151  -1.844  -0.109  1.00  0.00     0.014 A 
ATOM      9  C   UNL     1       2.663  -1.618  -2.005  1.00  0.00     0.014 A 
ATOM     10  C   UNL     1       4.876  -2.812  -0.789  1.00  0.00     0.010 A 
ATOM     11  C   UNL     1       3.330  -2.664  -2.648  1.00  0.00     0.010 A 
ATOM     12  C   UNL     1       4.449  -3.260  -2.049  1.00  0.00    -0.014 A 
BRANCH  12  13
ATOM     13  C   UNL     1       5.115  -4.441  -2.648  1.00  0.00     0.031 A 
ATOM     14  C   UNL     1       5.894  -4.340  -3.926  1.00  0.00     0.074 A 
ATOM     15  C   UNL     1       5.015  -5.617  -1.997  1.00  0.00     0.049 A 
ATOM     16  N   UNL     1       6.537  -5.283  -4.567  1.00  0.00    -0.248 NA
ATOM     17  C   UNL     1       5.955  -3.022  -4.575  1.00  0.00     0.031 C 
ATOM     18  C   UNL     1       4.260  -5.830  -0.757  1.00  0.00     0.029 A 
ATOM     19  N   UNL     1       5.553  -6.846  -2.271  1.00  0.00    -0.354 N 
ATOM     20  C   UNL     1       7.062  -4.681  -5.702  1.00  0.00     0.074 A 
ATOM     21  C   UNL     1       6.652  -3.293  -5.672  1.00  0.00     0.031 C 
ATOM     22  C   UNL     1       4.415  -7.100  -0.359  1.00  0.00     0.029 A 
ATOM     23  C   UNL     1       5.222  -7.806  -1.345  1.00  0.00     0.049 A 
ATOM     24  H   UNL     1       6.120  -7.025  -3.055  1.00  0.00     0.167 HD
ATOM     25  C   UNL     1       7.819  -5.242  -6.675  1.00  0.00     0.037 A 
ATOM     26  C   UNL     1       5.513  -9.118  -1.306  1.00  0.00     0.037 A 
ATOM     27  C   UNL     1       8.243  -6.619  -6.680  1.00  0.00     0.049 A 
ATOM     28  C   UNL     1       6.338  -9.709  -2.409  1.00  0.00     0.074 A 
ATOM     29  C   UNL     1       9.073  -7.261  -7.583  1.00  0.00     0.029 A 
ATOM     30  N   UNL     1       7.863  -7.568  -5.743  1.00  0.00    -0.354 N 
ATOM     31  N   UNL     1       6.875  -9.113  -3.445  1.00  0.00    -0.248 NA
ATOM     32  C   UNL     1       6.588 -11.154  -2.345  1.00  0.00     0.031 C 
ATOM     33  C   UNL     1       9.158  -8.608  -7.219  1.00  0.00     0.029 A 
ATOM     34  C   UNL     1       8.413  -8.798  -6.067  1.00  0.00     0.049 A 
ATOM     35  H   UNL     1       7.288  -7.394  -4.963  1.00  0.00     0.167 HD
ATOM     36  C   UNL     1       7.528 -10.108  -4.156  1.00  0.00     0.074 A 
ATOM     37  C   UNL     1       7.346 -11.341  -3.416  1.00  0.00     0.031 C 
ATOM     38  C   UNL     1       8.209 -10.013  -5.323  1.00  0.00     0.037 A 
BRANCH  25  39
ATOM     39  C   UNL     1       8.236  -4.382  -7.830  1.00  0.00     0.057 A 
ATOM     40  C   UNL     1       9.261  -3.436  -7.715  1.00  0.00     0.134 A 
ATOM     41  C   UNL     1       7.668  -4.572  -9.097  1.00  0.00     0.134 A 
ATOM     42  F   UNL     1       9.840  -3.202  -6.528  1.00  0.00    -0.206 F 
ATOM     43  C   UNL     1       9.706  -2.706  -8.819  1.00  0.00     0.040 A 
ATOM     44  C   UNL     1       8.116  -3.861 -10.211  1.00  0.00     0.040 A 
ATOM     45  F   UNL     1       6.686  -5.468  -9.275  1.00  0.00    -0.206 F 
ATOM     46  C   UNL     1       9.139  -2.925 -10.074  1.00  0.00     0.006 A 
ENDBRANCH  25  39
BRANCH  26  47
ATOM     47  C   UNL     1       4.985  -9.962  -0.206  1.00  0.00     0.057 A 
ATOM     48  C   UNL     1       5.834 -10.514   0.758  1.00  0.00     0.134 A 
ATOM     49  C   UNL     1       3.615 -10.235  -0.096  1.00  0.00     0.134 A 
ATOM     50  F   UNL     1       7.156 -10.301   0.695  1.00  0.00    -0.206 F 
ATOM     51  C   UNL     1       5.343 -11.323   1.784  1.00  0.00     0.040 A 
ATOM     52  C   UNL     1       3.107 -11.018   0.940  1.00  0.00     0.040 A 
ATOM     53  F   UNL     1       2.749  -9.726  -0.985  1.00  0.00    -0.206 F 
ATOM     54  C   UNL     1       3.974 -11.572   1.880  1.00  0.00     0.006 A 
ENDBRANCH  26  47
BRANCH  38  55
ATOM     55  C   UNL     1       8.800 -11.280  -5.862  1.00  0.00     0.057 A 
ATOM     56  C   UNL     1       7.999 -12.267  -6.449  1.00  0.00     0.134 A 
ATOM     57  C   UNL     1      10.180 -11.507  -5.810  1.00  0.00     0.134 A 
ATOM     58  F   UNL     1       6.667 -12.114  -6.512  1.00  0.00    -0.206 F 
ATOM     59  C   UNL     1       8.549 -13.448  -6.947  1.00  0.00     0.040 A 
ATOM     60  C   UNL     1      10.744 -12.673  -6.325  1.00  0.00     0.040 A 
ATOM     61  F   UNL     1      11.000 -10.596  -5.264  1.00  0.00    -0.206 F 
ATOM     62  C   UNL     1       9.927 -13.651  -6.890  1.00  0.00     0.006 A 
ENDBRANCH  38  55
ENDBRANCH  12  13
ENDBRANCH   5   7
ENDBRANCH   2   3
ENDBRANCH   1   2
BRANCH   1  63
ATOM     63  C   UNL     1       4.297   3.620   0.923  1.00  0.00     0.118 C 
BRANCH  63  64
ATOM     64  N   UNL     1       4.910   3.752   2.242  1.00  0.00    -0.352 N 
ATOM     65  C   UNL     1       5.817   4.674   2.705  1.00  0.00     0.252 C 
ATOM     66  H   UNL     1       4.630   3.076   2.900  1.00  0.00     0.163 HD
ATOM     67  O   UNL     1       6.390   4.500   3.776  1.00  0.00    -0.269 OA
BRANCH  65  68
ATOM     68  C   UNL     1       6.104   5.878   1.913  1.00  0.00     0.058 A 
ATOM     69  C   UNL     1       7.410   6.289   1.718  1.00  0.00     0.124 A 
ATOM     70  C   UNL     1       5.074   6.605   1.316  1.00  0.00     0.029 A 
ATOM     71  N   UNL     1       7.741   7.322   0.905  1.00  0.00    -0.263 NA
ATOM     72  C   UNL     1       5.379   7.627   0.420  1.00  0.00     0.042 A 
ATOM     73  C   UNL     1       6.723   7.948   0.255  1.00  0.00     0.123 A 
BRANCH  72  74
ATOM     74  C   UNL     1       4.362   8.260  -0.463  1.00  0.00     0.195 C 
ATOM     75  O   UNL     1       4.730   9.031  -1.342  1.00  0.00    -0.289 OA
BRANCH  74  76
ATOM     76  C   UNL     1       2.964   7.839  -0.354  1.00  0.00     0.033 A 
ATOM     77  C   UNL     1       2.122   7.889   0.809  1.00  0.00     0.024 A 
ATOM     78  C   UNL     1       2.268   7.331  -1.437  1.00  0.00     0.077 A 
ATOM     79  C   UNL     1       0.871   7.358   0.581  1.00  0.00     0.065 A 
ATOM     80  S   UNL     1       0.681   6.838  -1.035  1.00  0.00    -0.152 S 
ENDBRANCH  74  76
ENDBRANCH  72  74
ENDBRANCH  65  68
ENDBRANCH  63  64
ENDBRANCH   1  63
TORSDOF 12
