REMARK SMILES CCc1cc(OCC(=O)NCCCNC(=O)c2ccc(-c3c4nc(c(-c5c(F)cccc5F)c5ccc([nH]5)c(-c5c(F)cccc5F)c5nc(c(-c6c(F)cccc6F)c6ccc3[nH]6)C=C5)C=C4)cc2)nc(Nc2ccc(C)c(F)c2)n1
REMARK SMILES IDX 11 1 10 2 8 3 9 4 7 6 6 7 5 8 3 9 4 10 82 11 72 12 71 13
REMARK SMILES IDX 2 14 1 15 73 16 74 18 75 19 81 20 76 21 79 22 77 23 80 24
REMARK SMILES IDX 78 25 12 26 13 27 14 28 15 29 16 31 17 32 18 33 70 34 19 35
REMARK SMILES IDX 69 36 20 37 21 38 22 39 63 40 23 41 68 42 62 43 64 44 24 45
REMARK SMILES IDX 67 46 61 47 60 48 25 50 51 51 34 52 50 53 35 54 38 55 49 56
REMARK SMILES IDX 65 57 36 58 37 59 48 61 66 62 39 63 26 64 27 65 32 66 28 67
REMARK SMILES IDX 29 68 31 69 33 70 30 71 52 72 53 73 58 74 54 75 55 76 57 77
REMARK SMILES IDX 59 78 56 79 40 80 41 81 46 82 42 83 43 84 45 85 47 86 44 87
REMARK H PARENT 10 5 73 17 14 30 64 49 38 60
REMARK Flexibility Score: inf
ROOT
ATOM      1  C   UNL     1       2.772  -3.013  -6.996  1.00  0.00     0.117 C 
ENDROOT
BRANCH   1   2
ATOM      2  N   UNL     1       2.738  -1.642  -6.524  1.00  0.00    -0.353 N 
ATOM      3  C   UNL     1       3.297  -1.118  -5.396  1.00  0.00     0.258 C 
ATOM      4  O   UNL     1       3.175   0.090  -5.181  1.00  0.00    -0.271 OA
ATOM      5  H   UNL     1       2.247  -1.006  -7.092  1.00  0.00     0.163 HD
BRANCH   3   6
ATOM      6  C   UNL     1       4.069  -2.024  -4.430  1.00  0.00     0.331 C 
BRANCH   6   7
ATOM      7  O   UNL     1       3.342  -3.087  -3.842  1.00  0.00    -0.467 OA
BRANCH   7   8
ATOM      8  C   UNL     1       2.331  -2.779  -2.975  1.00  0.00     0.218 A 
ATOM      9  C   UNL     1       0.886  -1.399  -1.764  1.00  0.00     0.050 A 
ATOM     10  C   UNL     1       1.997  -1.508  -2.565  1.00  0.00     0.092 A 
ATOM     11  N   UNL     1       0.191  -2.475  -1.369  1.00  0.00    -0.218 NA
ATOM     12  C   UNL     1       0.617  -3.687  -1.752  1.00  0.00     0.230 A 
ATOM     13  N   UNL     1       1.670  -3.874  -2.557  1.00  0.00    -0.177 NA
BRANCH   9  14
ATOM     14  C   UNL     1       0.415  -0.066  -1.252  1.00  0.00     0.053 C 
ATOM     15  C   UNL     1       0.942   0.203   0.149  1.00  0.00     0.011 C 
ENDBRANCH   9  14
BRANCH  12  16
ATOM     16  N   UNL     1       0.000  -4.821  -1.227  1.00  0.00    -0.324 N 
ATOM     17  H   UNL     1       0.420  -5.683  -1.449  1.00  0.00     0.170 HD
BRANCH  16  18
ATOM     18  C   UNL     1      -1.143  -4.884  -0.422  1.00  0.00     0.044 A 
ATOM     19  C   UNL     1      -1.137  -5.655   0.747  1.00  0.00     0.026 A 
ATOM     20  C   UNL     1      -2.262  -4.084  -0.680  1.00  0.00     0.065 A 
ATOM     21  C   UNL     1      -2.212  -5.610   1.644  1.00  0.00     0.008 A 
ATOM     22  C   UNL     1      -3.336  -4.055   0.203  1.00  0.00     0.128 A 
ATOM     23  C   UNL     1      -3.325  -4.803   1.378  1.00  0.00    -0.015 A 
ATOM     24  F   UNL     1      -4.386  -3.272  -0.087  1.00  0.00    -0.207 F 
ATOM     25  C   UNL     1      -4.452  -4.713   2.360  1.00  0.00     0.047 C 
ENDBRANCH  16  18
ENDBRANCH  12  16
ENDBRANCH   7   8
ENDBRANCH   6   7
ENDBRANCH   3   6
ENDBRANCH   1   2
BRANCH   1  26
ATOM     26  C   UNL     1       1.441  -3.733  -6.814  1.00  0.00     0.042 C 
BRANCH  26  27
ATOM     27  C   UNL     1       0.260  -3.095  -7.542  1.00  0.00     0.118 C 
BRANCH  27  28
ATOM     28  N   UNL     1       0.441  -3.031  -8.987  1.00  0.00    -0.352 N 
ATOM     29  C   UNL     1      -0.323  -3.540 -10.007  1.00  0.00     0.251 C 
ATOM     30  H   UNL     1       1.244  -2.542  -9.279  1.00  0.00     0.163 HD
ATOM     31  O   UNL     1       0.105  -3.486 -11.161  1.00  0.00    -0.269 OA
BRANCH  29  32
ATOM     32  C   UNL     1      -1.635  -4.170  -9.746  1.00  0.00     0.039 A 
ATOM     33  C   UNL     1      -1.972  -5.331 -10.450  1.00  0.00     0.014 A 
ATOM     34  C   UNL     1      -2.550  -3.613  -8.850  1.00  0.00     0.014 A 
ATOM     35  C   UNL     1      -3.191  -5.969 -10.205  1.00  0.00     0.010 A 
ATOM     36  C   UNL     1      -3.735  -4.288  -8.554  1.00  0.00     0.010 A 
ATOM     37  C   UNL     1      -4.067  -5.473  -9.227  1.00  0.00    -0.014 A 
BRANCH  37  38
ATOM     38  C   UNL     1      -5.331  -6.180  -8.893  1.00  0.00     0.031 A 
ATOM     39  C   UNL     1      -6.660  -5.523  -9.149  1.00  0.00     0.074 A 
ATOM     40  C   UNL     1      -5.284  -7.392  -8.306  1.00  0.00     0.049 A 
ATOM     41  N   UNL     1      -7.863  -5.944  -8.851  1.00  0.00    -0.248 NA
ATOM     42  C   UNL     1      -6.631  -4.209  -9.810  1.00  0.00     0.031 C 
ATOM     43  C   UNL     1      -4.061  -8.125  -7.974  1.00  0.00     0.029 A 
ATOM     44  N   UNL     1      -6.292  -8.216  -7.873  1.00  0.00    -0.354 N 
ATOM     45  C   UNL     1      -8.731  -4.946  -9.276  1.00  0.00     0.074 A 
ATOM     46  C   UNL     1      -7.914  -3.876  -9.808  1.00  0.00     0.031 C 
ATOM     47  C   UNL     1      -4.391  -9.298  -7.410  1.00  0.00     0.029 A 
ATOM     48  C   UNL     1      -5.844  -9.383  -7.303  1.00  0.00     0.049 A 
ATOM     49  H   UNL     1      -7.247  -7.993  -7.963  1.00  0.00     0.167 HD
ATOM     50  C   UNL     1     -10.085  -4.931  -9.249  1.00  0.00     0.037 A 
ATOM     51  C   UNL     1      -6.526 -10.402  -6.747  1.00  0.00     0.037 A 
ATOM     52  C   UNL     1     -10.900  -6.001  -8.736  1.00  0.00     0.049 A 
ATOM     53  C   UNL     1      -8.028 -10.347  -6.705  1.00  0.00     0.074 A 
ATOM     54  C   UNL     1     -12.281  -6.090  -8.694  1.00  0.00     0.029 A 
ATOM     55  N   UNL     1     -10.407  -7.169  -8.176  1.00  0.00    -0.354 N 
ATOM     56  N   UNL     1      -8.836  -9.418  -7.154  1.00  0.00    -0.248 NA
ATOM     57  C   UNL     1      -8.714 -11.488  -6.079  1.00  0.00     0.031 C 
ATOM     58  C   UNL     1     -12.623  -7.299  -8.079  1.00  0.00     0.029 A 
ATOM     59  C   UNL     1     -11.456  -7.981  -7.776  1.00  0.00     0.049 A 
ATOM     60  H   UNL     1      -9.452  -7.390  -8.077  1.00  0.00     0.167 HD
ATOM     61  C   UNL     1     -10.122  -9.875  -6.897  1.00  0.00     0.074 A 
ATOM     62  C   UNL     1      -9.988 -11.170  -6.263  1.00  0.00     0.031 C 
ATOM     63  C   UNL     1     -11.308  -9.276  -7.163  1.00  0.00     0.037 A 
BRANCH  50  64
ATOM     64  C   UNL     1     -10.773  -3.717  -9.803  1.00  0.00     0.057 A 
ATOM     65  C   UNL     1     -10.793  -3.448 -11.178  1.00  0.00     0.134 A 
ATOM     66  C   UNL     1     -11.453  -2.829  -8.961  1.00  0.00     0.134 A 
ATOM     67  F   UNL     1     -10.150  -4.253 -12.037  1.00  0.00    -0.206 F 
ATOM     68  C   UNL     1     -11.443  -2.326 -11.693  1.00  0.00     0.040 A 
ATOM     69  C   UNL     1     -12.130  -1.717  -9.467  1.00  0.00     0.040 A 
ATOM     70  F   UNL     1     -11.481  -3.031  -7.635  1.00  0.00    -0.206 F 
ATOM     71  C   UNL     1     -12.121  -1.460 -10.837  1.00  0.00     0.006 A 
ENDBRANCH  50  64
BRANCH  51  72
ATOM     72  C   UNL     1      -5.803 -11.578  -6.202  1.00  0.00     0.057 A 
ATOM     73  C   UNL     1      -5.881 -12.826  -6.831  1.00  0.00     0.134 A 
ATOM     74  C   UNL     1      -5.041 -11.493  -5.030  1.00  0.00     0.134 A 
ATOM     75  F   UNL     1      -6.612 -12.975  -7.946  1.00  0.00    -0.206 F 
ATOM     76  C   UNL     1      -5.248 -13.953  -6.304  1.00  0.00     0.040 A 
ATOM     77  C   UNL     1      -4.383 -12.606  -4.505  1.00  0.00     0.040 A 
ATOM     78  F   UNL     1      -4.922 -10.325  -4.383  1.00  0.00    -0.206 F 
ATOM     79  C   UNL     1      -4.494 -13.843  -5.138  1.00  0.00     0.006 A 
ENDBRANCH  51  72
BRANCH  63  80
ATOM     80  C   UNL     1     -12.554 -10.036  -6.817  1.00  0.00     0.057 A 
ATOM     81  C   UNL     1     -12.976 -10.203  -5.492  1.00  0.00     0.134 A 
ATOM     82  C   UNL     1     -13.359 -10.579  -7.827  1.00  0.00     0.134 A 
ATOM     83  F   UNL     1     -12.242  -9.720  -4.478  1.00  0.00    -0.206 F 
ATOM     84  C   UNL     1     -14.143 -10.903  -5.182  1.00  0.00     0.040 A 
ATOM     85  C   UNL     1     -14.541 -11.258  -7.531  1.00  0.00     0.040 A 
ATOM     86  F   UNL     1     -13.015 -10.447  -9.117  1.00  0.00    -0.206 F 
ATOM     87  C   UNL     1     -14.933 -11.427  -6.205  1.00  0.00     0.006 A 
ENDBRANCH  63  80
ENDBRANCH  37  38
ENDBRANCH  29  32
ENDBRANCH  27  28
ENDBRANCH  26  27
ENDBRANCH   1  26
TORSDOF 15
