REMARK SMILES O=C(CCCNC(=O)N1CC[C@@H](C(=O)NCCCNC(=O)c2ccc(-c3c4nc(c(-c5c(F)cccc5F)c5ccc([nH]5)c(-c5c(F)cccc5F)c5nc(c(-c6c(F)cccc6F)c6ccc3[nH]6)C=C5)C=C4)cc2)C1)NC1CC1
REMARK SMILES IDX 13 1 14 2 15 3 12 5 9 6 10 7 76 8 11 9 7 10 6 11 8 13 5 14
REMARK SMILES IDX 4 15 3 16 2 17 1 18 77 19 78 21 79 22 80 23 16 24 17 25
REMARK SMILES IDX 18 26 19 27 20 28 21 30 22 31 23 32 75 33 24 34 74 35 25 36
REMARK SMILES IDX 26 37 27 38 68 39 28 40 73 41 67 42 69 43 29 44 72 45 66 46
REMARK SMILES IDX 65 47 30 49 56 50 39 51 55 52 40 53 43 54 54 55 70 56 41 57
REMARK SMILES IDX 42 58 53 60 71 61 44 62 31 63 32 64 37 65 33 66 34 67 36 68
REMARK SMILES IDX 38 69 35 70 57 71 58 72 63 73 59 74 60 75 62 76 64 77 61 78
REMARK SMILES IDX 45 79 46 80 51 81 47 82 48 83 50 84 52 85 49 86
REMARK H PARENT 15 4 6 12 77 20 19 29 69 48 43 59
REMARK Flexibility Score: inf
ROOT
ATOM      1  C   UNL     1      10.201  -1.236  -3.650  1.00  0.00     0.224 C 
ATOM      2  O   UNL     1      10.224  -0.265  -4.405  1.00  0.00    -0.275 OA
ATOM      3  N   UNL     1      11.386  -1.781  -3.260  1.00  0.00    -0.356 N 
ATOM      4  H   UNL     1      12.191  -1.306  -3.571  1.00  0.00     0.163 HD
ENDROOT
BRANCH   1   5
ATOM      5  C   UNL     1       8.914  -1.857  -3.145  1.00  0.00     0.100 C 
ATOM      6  N   UNL     1       7.630  -0.741  -1.500  1.00  0.00    -0.324 N 
ATOM      7  C   UNL     1       7.370  -0.079  -2.764  1.00  0.00     0.122 C 
ATOM      8  C   UNL     1       8.768  -1.623  -1.635  1.00  0.00     0.134 C 
ATOM      9  C   UNL     1       7.672  -1.186  -3.756  1.00  0.00     0.037 C 
BRANCH   6  10
ATOM     10  C   UNL     1       7.045  -0.547  -0.293  1.00  0.00     0.317 C 
ATOM     11  N   UNL     1       5.725  -0.244  -0.246  1.00  0.00    -0.338 N 
ATOM     12  H   UNL     1       5.424   0.286   0.527  1.00  0.00     0.165 HD
ATOM     13  O   UNL     1       7.643  -0.706   0.770  1.00  0.00    -0.249 OA
BRANCH  11  14
ATOM     14  C   UNL     1       4.704  -0.617  -1.211  1.00  0.00     0.118 C 
BRANCH  14  15
ATOM     15  C   UNL     1       3.656  -1.561  -0.625  1.00  0.00     0.031 C 
BRANCH  15  16
ATOM     16  C   UNL     1       2.847  -0.989   0.534  1.00  0.00     0.102 C 
BRANCH  16  17
ATOM     17  C   UNL     1       1.904   0.104   0.082  1.00  0.00     0.220 C 
ATOM     18  O   UNL     1       0.744  -0.134  -0.238  1.00  0.00    -0.275 OA
ATOM     19  N   UNL     1       2.477   1.359   0.047  1.00  0.00    -0.353 N 
ATOM     20  H   UNL     1       3.426   1.452   0.293  1.00  0.00     0.163 HD
BRANCH  19  21
ATOM     21  C   UNL     1       1.751   2.530  -0.330  1.00  0.00     0.082 C 
ATOM     22  C   UNL     1       2.287   3.891   0.021  1.00  0.00     0.027 C 
ATOM     23  C   UNL     1       2.261   3.442  -1.411  1.00  0.00     0.027 C 
ENDBRANCH  19  21
ENDBRANCH  16  17
ENDBRANCH  15  16
ENDBRANCH  14  15
ENDBRANCH  11  14
ENDBRANCH   6  10
ENDBRANCH   1   5
BRANCH   3  24
ATOM     24  C   UNL     1      11.635  -2.960  -2.451  1.00  0.00     0.117 C 
BRANCH  24  25
ATOM     25  C   UNL     1      12.254  -4.085  -3.268  1.00  0.00     0.042 C 
BRANCH  25  26
ATOM     26  C   UNL     1      13.585  -3.720  -3.912  1.00  0.00     0.118 C 
BRANCH  26  27
ATOM     27  N   UNL     1      14.607  -3.360  -2.938  1.00  0.00    -0.352 N 
ATOM     28  C   UNL     1      15.853  -3.893  -2.732  1.00  0.00     0.251 C 
ATOM     29  H   UNL     1      14.365  -2.620  -2.336  1.00  0.00     0.163 HD
ATOM     30  O   UNL     1      16.504  -3.558  -1.744  1.00  0.00    -0.269 OA
BRANCH  28  31
ATOM     31  C   UNL     1      16.404  -4.889  -3.673  1.00  0.00     0.039 A 
ATOM     32  C   UNL     1      17.068  -6.006  -3.159  1.00  0.00     0.014 A 
ATOM     33  C   UNL     1      16.276  -4.726  -5.055  1.00  0.00     0.014 A 
ATOM     34  C   UNL     1      17.536  -6.994  -4.027  1.00  0.00     0.010 A 
ATOM     35  C   UNL     1      16.665  -5.751  -5.912  1.00  0.00     0.010 A 
ATOM     36  C   UNL     1      17.301  -6.895  -5.408  1.00  0.00    -0.014 A 
BRANCH  36  37
ATOM     37  C   UNL     1      17.709  -7.978  -6.339  1.00  0.00     0.031 A 
ATOM     38  C   UNL     1      18.722  -7.709  -7.417  1.00  0.00     0.074 A 
ATOM     39  C   UNL     1      17.126  -9.190  -6.248  1.00  0.00     0.049 A 
ATOM     40  N   UNL     1      19.151  -8.502  -8.367  1.00  0.00    -0.248 NA
ATOM     41  C   UNL     1      19.316  -6.362  -7.447  1.00  0.00     0.031 C 
ATOM     42  C   UNL     1      16.103  -9.568  -5.271  1.00  0.00     0.029 A 
ATOM     43  N   UNL     1      17.305 -10.327  -6.996  1.00  0.00    -0.354 N 
ATOM     44  C   UNL     1      20.059  -7.753  -9.104  1.00  0.00     0.074 A 
ATOM     45  C   UNL     1      20.071  -6.423  -8.534  1.00  0.00     0.031 C 
ATOM     46  C   UNL     1      15.764 -10.853  -5.463  1.00  0.00     0.029 A 
ATOM     47  C   UNL     1      16.509 -11.377  -6.602  1.00  0.00     0.049 A 
ATOM     48  H   UNL     1      17.943 -10.386  -7.743  1.00  0.00     0.167 HD
ATOM     49  C   UNL     1      20.835  -8.144 -10.143  1.00  0.00     0.037 A 
ATOM     50  C   UNL     1      16.386 -12.618  -7.111  1.00  0.00     0.037 A 
ATOM     51  C   UNL     1      20.828  -9.469 -10.704  1.00  0.00     0.049 A 
ATOM     52  C   UNL     1      17.227 -13.011  -8.296  1.00  0.00     0.074 A 
ATOM     53  C   UNL     1      21.597  -9.971 -11.739  1.00  0.00     0.029 A 
ATOM     54  N   UNL     1      20.010 -10.504 -10.276  1.00  0.00    -0.354 N 
ATOM     55  N   UNL     1      18.122 -12.309  -8.946  1.00  0.00    -0.248 NA
ATOM     56  C   UNL     1      17.042 -14.374  -8.814  1.00  0.00     0.031 C 
ATOM     57  C   UNL     1      21.212 -11.296 -11.969  1.00  0.00     0.029 A 
ATOM     58  C   UNL     1      20.243 -11.636 -11.040  1.00  0.00     0.049 A 
ATOM     59  H   UNL     1      19.360 -10.443  -9.539  1.00  0.00     0.167 HD
ATOM     60  C   UNL     1      18.633 -13.154  -9.923  1.00  0.00     0.074 A 
ATOM     61  C   UNL     1      17.958 -14.426  -9.770  1.00  0.00     0.031 C 
ATOM     62  C   UNL     1      19.576 -12.901 -10.864  1.00  0.00     0.037 A 
BRANCH  49  63
ATOM     63  C   UNL     1      21.767  -7.124 -10.733  1.00  0.00     0.057 A 
ATOM     64  C   UNL     1      22.886  -6.657 -10.030  1.00  0.00     0.134 A 
ATOM     65  C   UNL     1      21.570  -6.634 -12.030  1.00  0.00     0.134 A 
ATOM     66  F   UNL     1      23.127  -7.077  -8.778  1.00  0.00    -0.206 F 
ATOM     67  C   UNL     1      23.759  -5.721 -10.585  1.00  0.00     0.040 A 
ATOM     68  C   UNL     1      22.453  -5.720 -12.607  1.00  0.00     0.040 A 
ATOM     69  F   UNL     1      20.523  -7.044 -12.762  1.00  0.00    -0.206 F 
ATOM     70  C   UNL     1      23.548  -5.255 -11.881  1.00  0.00     0.006 A 
ENDBRANCH  49  63
BRANCH  50  71
ATOM     71  C   UNL     1      15.439 -13.589  -6.505  1.00  0.00     0.057 A 
ATOM     72  C   UNL     1      15.902 -14.741  -5.857  1.00  0.00     0.134 A 
ATOM     73  C   UNL     1      14.053 -13.415  -6.593  1.00  0.00     0.134 A 
ATOM     74  F   UNL     1      17.219 -14.975  -5.756  1.00  0.00    -0.206 F 
ATOM     75  C   UNL     1      15.024 -15.699  -5.349  1.00  0.00     0.040 A 
ATOM     76  C   UNL     1      13.162 -14.349  -6.062  1.00  0.00     0.040 A 
ATOM     77  F   UNL     1      13.543 -12.329  -7.193  1.00  0.00    -0.206 F 
ATOM     78  C   UNL     1      13.648 -15.502  -5.449  1.00  0.00     0.006 A 
ENDBRANCH  50  71
BRANCH  62  79
ATOM     79  C   UNL     1      19.970 -14.035 -11.766  1.00  0.00     0.057 A 
ATOM     80  C   UNL     1      19.115 -14.528 -12.759  1.00  0.00     0.134 A 
ATOM     81  C   UNL     1      21.240 -14.618 -11.659  1.00  0.00     0.134 A 
ATOM     82  F   UNL     1      17.880 -14.023 -12.906  1.00  0.00    -0.206 F 
ATOM     83  C   UNL     1      19.497 -15.578 -13.596  1.00  0.00     0.040 A 
ATOM     84  C   UNL     1      21.645 -15.648 -12.509  1.00  0.00     0.040 A 
ATOM     85  F   UNL     1      22.112 -14.188 -10.735  1.00  0.00    -0.206 F 
ATOM     86  C   UNL     1      20.769 -16.135 -13.477  1.00  0.00     0.006 A 
ENDBRANCH  62  79
ENDBRANCH  36  37
ENDBRANCH  28  31
ENDBRANCH  26  27
ENDBRANCH  25  26
ENDBRANCH  24  25
ENDBRANCH   3  24
TORSDOF 16
