REMARK SMILES O=C(NCCCNC(=O)[C@]1([NH2+]C2CC2)CCC[C@H](SC[C@H](O)CO)C1)c1ccc(-c2c3nc(c(-c4c(F)cccc4F)c4ccc([nH]4)c(-c4c(F)cccc4F)c4nc(c(-c5c(F)cccc5F)c5ccc2[nH]5)C=C4)C=C3)cc1
REMARK SMILES IDX 7 1 8 2 9 3 6 5 5 6 4 7 3 8 1 9 2 10 26 12 27 13 79 14 28 15
REMARK SMILES IDX 78 16 29 17 30 18 31 19 72 20 32 21 77 22 71 23 73 24 33 25
REMARK SMILES IDX 76 26 70 27 69 28 34 30 60 31 43 32 59 33 44 34 47 35 58 36
REMARK SMILES IDX 74 37 45 38 46 39 57 41 75 42 48 43 35 44 36 45 41 46 37 47
REMARK SMILES IDX 38 48 40 49 42 50 39 51 61 52 62 53 67 54 63 55 64 56 66 57
REMARK SMILES IDX 68 58 65 59 49 60 50 61 55 62 51 63 52 64 54 65 56 66 53 67
REMARK SMILES IDX 10 68 15 69 25 70 16 71 18 72 17 73 11 74 12 77 13 78 14 79
REMARK SMILES IDX 19 80 20 81 21 82 23 83 24 84 22 86
REMARK H PARENT 7 4 3 11 73 29 47 40 11 75 11 76 24 85 22 87
REMARK Flexibility Score: inf
ROOT
ATOM      1  N   UNL     1       6.168  -0.985  -4.017  1.00  0.00    -0.351 N 
ATOM      2  C   UNL     1       6.186  -2.318  -3.725  1.00  0.00     0.281 C 
ATOM      3  O   UNL     1       7.318  -2.805  -3.604  1.00  0.00    -0.268 OA
ATOM      4  H   UNL     1       7.065  -0.585  -4.085  1.00  0.00     0.163 HD
ENDROOT
BRANCH   1   5
ATOM      5  C   UNL     1       5.092  -0.040  -4.247  1.00  0.00     0.118 C 
BRANCH   5   6
ATOM      6  C   UNL     1       5.499   1.344  -4.784  1.00  0.00     0.042 C 
BRANCH   6   7
ATOM      7  C   UNL     1       6.887   1.510  -5.406  1.00  0.00     0.118 C 
BRANCH   7   8
ATOM      8  N   UNL     1       7.072   1.018  -6.769  1.00  0.00    -0.352 N 
ATOM      9  O   UNL     1       7.119   0.837  -9.005  1.00  0.00    -0.269 OA
ATOM     10  C   UNL     1       6.807   1.519  -8.025  1.00  0.00     0.251 C 
ATOM     11  H   UNL     1       7.481   0.123  -6.797  1.00  0.00     0.163 HD
BRANCH  10  12
ATOM     12  C   UNL     1       6.112   2.809  -8.264  1.00  0.00     0.039 A 
ATOM     13  C   UNL     1       6.188   3.861  -7.368  1.00  0.00     0.014 A 
ATOM     14  C   UNL     1       5.378   2.996  -9.453  1.00  0.00     0.014 A 
ATOM     15  C   UNL     1       5.398   4.985  -7.534  1.00  0.00     0.010 A 
ATOM     16  C   UNL     1       4.681   4.192  -9.693  1.00  0.00     0.010 A 
ATOM     17  C   UNL     1       4.669   5.190  -8.715  1.00  0.00    -0.014 A 
BRANCH  17  18
ATOM     18  C   UNL     1       4.048   6.530  -8.874  1.00  0.00     0.031 A 
ATOM     19  C   UNL     1       2.562   6.720  -8.864  1.00  0.00     0.074 A 
ATOM     20  C   UNL     1       4.878   7.592  -8.810  1.00  0.00     0.049 A 
ATOM     21  N   UNL     1       1.884   7.827  -8.702  1.00  0.00    -0.248 NA
ATOM     22  C   UNL     1       1.728   5.527  -9.067  1.00  0.00     0.031 C 
ATOM     23  C   UNL     1       6.343   7.505  -8.836  1.00  0.00     0.029 A 
ATOM     24  N   UNL     1       4.631   8.923  -8.601  1.00  0.00    -0.354 N 
ATOM     25  C   UNL     1       0.545   7.471  -8.789  1.00  0.00     0.074 A 
ATOM     26  C   UNL     1       0.505   6.045  -9.040  1.00  0.00     0.031 C 
ATOM     27  C   UNL     1       6.860   8.697  -8.512  1.00  0.00     0.029 A 
ATOM     28  C   UNL     1       5.771   9.651  -8.347  1.00  0.00     0.049 A 
ATOM     29  H   UNL     1       3.730   9.319  -8.629  1.00  0.00     0.167 HD
ATOM     30  C   UNL     1      -0.544   8.267  -8.666  1.00  0.00     0.037 A 
ATOM     31  C   UNL     1       5.927  10.944  -8.007  1.00  0.00     0.037 A 
ATOM     32  C   UNL     1      -0.484   9.686  -8.415  1.00  0.00     0.049 A 
ATOM     33  C   UNL     1       4.700  11.792  -7.858  1.00  0.00     0.074 A 
ATOM     34  C   UNL     1      -1.528  10.587  -8.291  1.00  0.00     0.029 A 
ATOM     35  N   UNL     1       0.688  10.410  -8.246  1.00  0.00    -0.354 N 
ATOM     36  N   UNL     1       3.440  11.437  -7.936  1.00  0.00    -0.248 NA
ATOM     37  C   UNL     1       4.913  13.219  -7.592  1.00  0.00     0.031 C 
ATOM     38  C   UNL     1      -0.986  11.861  -8.084  1.00  0.00     0.029 A 
ATOM     39  C   UNL     1       0.394  11.748  -8.033  1.00  0.00     0.049 A 
ATOM     40  H   UNL     1       1.596  10.029  -8.273  1.00  0.00     0.167 HD
ATOM     41  C   UNL     1       2.709  12.600  -7.747  1.00  0.00     0.074 A 
ATOM     42  C   UNL     1       3.667  13.658  -7.495  1.00  0.00     0.031 C 
ATOM     43  C   UNL     1       1.368  12.783  -7.802  1.00  0.00     0.037 A 
BRANCH  30  44
ATOM     44  C   UNL     1      -1.896   7.632  -8.821  1.00  0.00     0.057 A 
ATOM     45  C   UNL     1      -2.448   6.815  -7.826  1.00  0.00     0.134 A 
ATOM     46  C   UNL     1      -2.681   7.891  -9.952  1.00  0.00     0.134 A 
ATOM     47  F   UNL     1      -1.745   6.517  -6.724  1.00  0.00    -0.206 F 
ATOM     48  C   UNL     1      -3.729   6.272  -7.955  1.00  0.00     0.040 A 
ATOM     49  C   UNL     1      -3.971   7.372 -10.082  1.00  0.00     0.040 A 
ATOM     50  F   UNL     1      -2.215   8.669 -10.941  1.00  0.00    -0.206 F 
ATOM     51  C   UNL     1      -4.497   6.558  -9.082  1.00  0.00     0.006 A 
ENDBRANCH  30  44
BRANCH  31  52
ATOM     52  C   UNL     1       7.289  11.509  -7.823  1.00  0.00     0.057 A 
ATOM     53  C   UNL     1       7.727  11.992  -6.585  1.00  0.00     0.134 A 
ATOM     54  C   UNL     1       8.190  11.580  -8.894  1.00  0.00     0.134 A 
ATOM     55  F   UNL     1       6.909  11.970  -5.522  1.00  0.00    -0.206 F 
ATOM     56  C   UNL     1       9.003  12.537  -6.423  1.00  0.00     0.040 A 
ATOM     57  C   UNL     1       9.479  12.088  -8.739  1.00  0.00     0.040 A 
ATOM     58  F   UNL     1       7.836  11.130 -10.107  1.00  0.00    -0.206 F 
ATOM     59  C   UNL     1       9.886  12.578  -7.501  1.00  0.00     0.006 A 
ENDBRANCH  31  52
BRANCH  43  60
ATOM     60  C   UNL     1       0.879  14.185  -7.592  1.00  0.00     0.057 A 
ATOM     61  C   UNL     1       1.066  15.178  -8.563  1.00  0.00     0.134 A 
ATOM     62  C   UNL     1       0.228  14.548  -6.408  1.00  0.00     0.134 A 
ATOM     63  F   UNL     1       1.698  14.895  -9.712  1.00  0.00    -0.206 F 
ATOM     64  C   UNL     1       0.653  16.493  -8.348  1.00  0.00     0.040 A 
ATOM     65  C   UNL     1      -0.213  15.854  -6.192  1.00  0.00     0.040 A 
ATOM     66  F   UNL     1       0.014  13.642  -5.442  1.00  0.00    -0.206 F 
ATOM     67  C   UNL     1       0.008  16.832  -7.160  1.00  0.00     0.006 A 
ENDBRANCH  43  60
ENDBRANCH  17  18
ENDBRANCH  10  12
ENDBRANCH   7   8
ENDBRANCH   6   7
ENDBRANCH   5   6
ENDBRANCH   1   5
BRANCH   2  68
ATOM     68  C   UNL     1       4.902  -3.172  -3.455  1.00  0.00     0.176 C 
ATOM     69  C   UNL     1       5.269  -4.681  -3.308  1.00  0.00     0.079 C 
ATOM     70  C   UNL     1       3.800  -3.051  -4.541  1.00  0.00     0.093 C 
ATOM     71  C   UNL     1       5.514  -5.406  -4.627  1.00  0.00     0.008 C 
ATOM     72  C   UNL     1       4.002  -3.794  -5.877  1.00  0.00     0.053 C 
ATOM     73  C   UNL     1       4.317  -5.267  -5.562  1.00  0.00     0.015 C 
BRANCH  68  74
ATOM     74  N   UNL     1       4.312  -2.679  -2.151  1.00  0.00    -0.331 N 
ATOM     75  H   UNL     1       3.377  -3.076  -2.060  1.00  0.00     0.347 HD
ATOM     76  H   UNL     1       4.322  -1.660  -2.207  1.00  0.00     0.347 HD
BRANCH  74  77
ATOM     77  C   UNL     1       5.077  -3.028  -0.932  1.00  0.00     0.183 C 
ATOM     78  C   UNL     1       5.990  -2.030  -0.286  1.00  0.00     0.071 C 
ATOM     79  C   UNL     1       4.687  -2.382   0.370  1.00  0.00     0.071 C 
ENDBRANCH  74  77
ENDBRANCH  68  74
BRANCH  72  80
ATOM     80  S   UNL     1       5.248  -3.293  -7.137  1.00  0.00    -0.156 SA
BRANCH  80  81
ATOM     81  C   UNL     1       5.001  -1.535  -7.506  1.00  0.00     0.104 C 
BRANCH  81  82
ATOM     82  C   UNL     1       3.733  -0.937  -8.125  1.00  0.00     0.149 C 
BRANCH  82  83
ATOM     83  C   UNL     1       2.405  -1.307  -7.486  1.00  0.00     0.188 C 
BRANCH  83  84
ATOM     84  O   UNL     1       1.383  -0.434  -7.982  1.00  0.00    -0.394 OA
ATOM     85  H   UNL     1       1.607   0.484  -7.763  1.00  0.00     0.210 HD
ENDBRANCH  83  84
ENDBRANCH  82  83
BRANCH  82  86
ATOM     86  O   UNL     1       3.828   0.503  -8.010  1.00  0.00    -0.390 OA
ATOM     87  H   UNL     1       3.838   0.752  -7.072  1.00  0.00     0.211 HD
ENDBRANCH  82  86
ENDBRANCH  81  82
ENDBRANCH  80  81
ENDBRANCH  72  80
ENDBRANCH   2  68
TORSDOF 18
