REMARK SMILES COc1c(C(=O)NCCCNC(=O)c2ccc(-c3c4nc(c(-c5c(F)cccc5F)c5ccc([nH]5)c(-c5c(F)cccc5F)c5nc(c(-c6c(F)cccc6F)c6ccc3[nH]6)C=C5)C=C4)cc2)cccc1-c1cc(C)ccc1C
REMARK SMILES IDX 9 1 8 2 7 3 5 4 6 5 4 7 3 8 71 9 68 10 70 11 69 12 2 13 1 14
REMARK SMILES IDX 72 15 73 16 78 17 74 18 77 19 79 20 75 21 76 22 10 23 11 24
REMARK SMILES IDX 12 25 13 27 14 28 15 29 67 30 16 31 66 32 17 33 18 34 19 35
REMARK SMILES IDX 60 36 20 37 65 38 59 39 61 40 21 41 64 42 58 43 57 44 22 46
REMARK SMILES IDX 48 47 31 48 47 49 32 50 35 51 46 52 62 53 33 54 34 55 45 57
REMARK SMILES IDX 63 58 36 59 23 60 24 61 29 62 25 63 26 64 28 65 30 66 27 67
REMARK SMILES IDX 49 68 50 69 55 70 51 71 52 72 54 73 56 74 53 75 37 76 38 77
REMARK SMILES IDX 43 78 39 79 40 80 42 81 44 82 41 83
REMARK H PARENT 7 6 11 26 61 45 35 56
REMARK Flexibility Score: inf
ROOT
ATOM      1  C   UNL     1      -2.205   0.142   0.973  1.00  0.00     0.042 C 
ENDROOT
BRANCH   1   2
ATOM      2  C   UNL     1      -1.418   0.645  -0.209  1.00  0.00     0.118 C 
BRANCH   2   3
ATOM      3  N   UNL     1      -1.979   1.643  -1.062  1.00  0.00    -0.352 N 
ATOM      4  C   UNL     1      -1.283   2.596  -1.775  1.00  0.00     0.255 C 
ATOM      5  O   UNL     1      -1.948   3.281  -2.559  1.00  0.00    -0.269 OA
ATOM      6  H   UNL     1      -2.960   1.652  -1.149  1.00  0.00     0.163 HD
BRANCH   4   7
ATOM      7  C   UNL     1       0.180   2.925  -1.580  1.00  0.00     0.082 A 
ATOM      8  C   UNL     1       1.275   2.065  -1.291  1.00  0.00     0.139 A 
ATOM      9  C   UNL     1       2.598   2.593  -1.191  1.00  0.00     0.025 A 
ATOM     10  C   UNL     1       0.441   4.304  -1.742  1.00  0.00     0.018 A 
ATOM     11  C   UNL     1       2.790   3.978  -1.366  1.00  0.00     0.012 A 
ATOM     12  C   UNL     1       1.726   4.827  -1.637  1.00  0.00     0.002 A 
BRANCH   8  13
ATOM     13  O   UNL     1       1.085   0.698  -1.232  1.00  0.00    -0.495 OA
ATOM     14  C   UNL     1       1.515   0.070  -0.006  1.00  0.00     0.278 C 
ENDBRANCH   8  13
BRANCH   9  15
ATOM     15  C   UNL     1       3.784   1.768  -0.856  1.00  0.00    -0.011 A 
ATOM     16  C   UNL     1       4.445   2.041   0.363  1.00  0.00     0.012 A 
ATOM     17  C   UNL     1       4.220   0.661  -1.621  1.00  0.00    -0.043 A 
ATOM     18  C   UNL     1       5.459   1.216   0.862  1.00  0.00    -0.050 A 
ATOM     19  C   UNL     1       5.219  -0.181  -1.099  1.00  0.00     0.004 A 
ATOM     20  C   UNL     1       3.566   0.241  -2.913  1.00  0.00     0.045 C 
ATOM     21  C   UNL     1       6.101   1.534   2.179  1.00  0.00     0.044 C 
ATOM     22  C   UNL     1       5.824   0.087   0.131  1.00  0.00     0.004 A 
ENDBRANCH   9  15
ENDBRANCH   4   7
ENDBRANCH   2   3
ENDBRANCH   1   2
BRANCH   1  23
ATOM     23  C   UNL     1      -3.501  -0.551   0.634  1.00  0.00     0.118 C 
BRANCH  23  24
ATOM     24  N   UNL     1      -3.333  -1.837  -0.032  1.00  0.00    -0.352 N 
ATOM     25  C   UNL     1      -3.346  -3.139   0.420  1.00  0.00     0.251 C 
ATOM     26  H   UNL     1      -3.180  -1.760  -1.002  1.00  0.00     0.163 HD
ATOM     27  O   UNL     1      -3.078  -4.041  -0.365  1.00  0.00    -0.269 OA
BRANCH  25  28
ATOM     28  C   UNL     1      -3.622  -3.475   1.840  1.00  0.00     0.039 A 
ATOM     29  C   UNL     1      -2.998  -4.591   2.410  1.00  0.00     0.014 A 
ATOM     30  C   UNL     1      -4.498  -2.728   2.619  1.00  0.00     0.014 A 
ATOM     31  C   UNL     1      -3.189  -4.887   3.766  1.00  0.00     0.010 A 
ATOM     32  C   UNL     1      -4.552  -2.915   3.993  1.00  0.00     0.010 A 
ATOM     33  C   UNL     1      -3.926  -4.017   4.584  1.00  0.00    -0.014 A 
BRANCH  33  34
ATOM     34  C   UNL     1      -4.106  -4.257   6.040  1.00  0.00     0.031 A 
ATOM     35  C   UNL     1      -5.495  -4.359   6.623  1.00  0.00     0.074 A 
ATOM     36  C   UNL     1      -3.031  -4.306   6.852  1.00  0.00     0.049 A 
ATOM     37  N   UNL     1      -5.863  -4.472   7.875  1.00  0.00    -0.248 NA
ATOM     38  C   UNL     1      -6.623  -4.277   5.679  1.00  0.00     0.031 C 
ATOM     39  C   UNL     1      -1.637  -4.154   6.427  1.00  0.00     0.029 A 
ATOM     40  N   UNL     1      -2.943  -4.492   8.209  1.00  0.00    -0.354 N 
ATOM     41  C   UNL     1      -7.253  -4.448   7.864  1.00  0.00     0.074 A 
ATOM     42  C   UNL     1      -7.663  -4.228   6.497  1.00  0.00     0.031 C 
ATOM     43  C   UNL     1      -0.834  -4.296   7.493  1.00  0.00     0.029 A 
ATOM     44  C   UNL     1      -1.653  -4.501   8.682  1.00  0.00     0.049 A 
ATOM     45  H   UNL     1      -3.730  -4.608   8.789  1.00  0.00     0.167 HD
ATOM     46  C   UNL     1      -8.116  -4.630   8.892  1.00  0.00     0.037 A 
ATOM     47  C   UNL     1      -1.184  -4.654   9.935  1.00  0.00     0.037 A 
ATOM     48  C   UNL     1      -7.707  -4.892  10.245  1.00  0.00     0.049 A 
ATOM     49  C   UNL     1      -2.160  -4.867  11.059  1.00  0.00     0.074 A 
ATOM     50  C   UNL     1      -8.496  -5.158  11.349  1.00  0.00     0.029 A 
ATOM     51  N   UNL     1      -6.389  -4.923  10.677  1.00  0.00    -0.354 N 
ATOM     52  N   UNL     1      -3.470  -4.915  11.021  1.00  0.00    -0.248 NA
ATOM     53  C   UNL     1      -1.591  -5.059  12.400  1.00  0.00     0.031 C 
ATOM     54  C   UNL     1      -7.659  -5.300  12.460  1.00  0.00     0.029 A 
ATOM     55  C   UNL     1      -6.345  -5.183  12.036  1.00  0.00     0.049 A 
ATOM     56  H   UNL     1      -5.602  -4.781  10.102  1.00  0.00     0.167 HD
ATOM     57  C   UNL     1      -3.880  -5.173  12.322  1.00  0.00     0.074 A 
ATOM     58  C   UNL     1      -2.678  -5.290  13.122  1.00  0.00     0.031 C 
ATOM     59  C   UNL     1      -5.137  -5.302  12.814  1.00  0.00     0.037 A 
BRANCH  46  60
ATOM     60  C   UNL     1      -9.586  -4.566   8.584  1.00  0.00     0.057 A 
ATOM     61  C   UNL     1     -10.225  -5.539   7.802  1.00  0.00     0.134 A 
ATOM     62  C   UNL     1     -10.379  -3.530   9.094  1.00  0.00     0.134 A 
ATOM     63  F   UNL     1      -9.524  -6.551   7.269  1.00  0.00    -0.206 F 
ATOM     64  C   UNL     1     -11.588  -5.466   7.510  1.00  0.00     0.040 A 
ATOM     65  C   UNL     1     -11.750  -3.464   8.837  1.00  0.00     0.040 A 
ATOM     66  F   UNL     1      -9.837  -2.567   9.854  1.00  0.00    -0.206 F 
ATOM     67  C   UNL     1     -12.357  -4.429   8.036  1.00  0.00     0.006 A 
ENDBRANCH  46  60
BRANCH  47  68
ATOM     68  C   UNL     1       0.280  -4.646  10.191  1.00  0.00     0.057 A 
ATOM     69  C   UNL     1       0.950  -5.810  10.587  1.00  0.00     0.134 A 
ATOM     70  C   UNL     1       1.042  -3.480  10.058  1.00  0.00     0.134 A 
ATOM     71  F   UNL     1       0.273  -6.957  10.748  1.00  0.00    -0.206 F 
ATOM     72  C   UNL     1       2.317  -5.810  10.867  1.00  0.00     0.040 A 
ATOM     73  C   UNL     1       2.416  -3.471  10.307  1.00  0.00     0.040 A 
ATOM     74  F   UNL     1       0.464  -2.333   9.671  1.00  0.00    -0.206 F 
ATOM     75  C   UNL     1       3.055  -4.637  10.722  1.00  0.00     0.006 A 
ENDBRANCH  47  68
BRANCH  59  76
ATOM     76  C   UNL     1      -5.272  -5.629  14.273  1.00  0.00     0.057 A 
ATOM     77  C   UNL     1      -4.963  -4.700  15.275  1.00  0.00     0.134 A 
ATOM     78  C   UNL     1      -5.746  -6.883  14.679  1.00  0.00     0.134 A 
ATOM     79  F   UNL     1      -4.494  -3.484  14.954  1.00  0.00    -0.206 F 
ATOM     80  C   UNL     1      -5.086  -5.019  16.628  1.00  0.00     0.040 A 
ATOM     81  C   UNL     1      -5.905  -7.203  16.027  1.00  0.00     0.040 A 
ATOM     82  F   UNL     1      -6.073  -7.815  13.770  1.00  0.00    -0.206 F 
ATOM     83  C   UNL     1      -5.565  -6.272  17.006  1.00  0.00     0.006 A 
ENDBRANCH  59  76
ENDBRANCH  33  34
ENDBRANCH  25  28
ENDBRANCH  23  24
ENDBRANCH   1  23
TORSDOF 12
