REMARK SMILES O=C(/C=C/c1ccccc1Oc1cccc(Cl)c1)NCCCNC(=O)c1ccc(-c2c3nc(c(-c4c(F)cccc4F)c4ccc([nH]4)c(-c4c(F)cccc4F)c4nc(c(-c5c(F)cccc5F)c5ccc2[nH]5)C=C4)C=C3)cc1
REMARK SMILES IDX 20 1 19 2 1 3 2 4 3 6 4 7 5 8 6 9 10 10 7 11 9 12 8 13 11 14
REMARK SMILES IDX 12 15 13 16 18 17 14 18 16 19 15 20 17 21 21 22 22 23 23 24
REMARK SMILES IDX 24 25 25 27 26 28 27 29 79 30 28 31 78 32 29 33 30 34 31 35
REMARK SMILES IDX 72 36 32 37 77 38 71 39 73 40 33 41 76 42 70 43 69 44 34 46
REMARK SMILES IDX 60 47 43 48 59 49 44 50 47 51 58 52 74 53 45 54 46 55 57 57
REMARK SMILES IDX 75 58 48 59 35 60 36 61 41 62 37 63 38 64 40 65 42 66 39 67
REMARK SMILES IDX 61 68 62 69 67 70 63 71 64 72 66 73 68 74 65 75 49 76 50 77
REMARK SMILES IDX 55 78 51 79 52 80 54 81 56 82 53 83
REMARK H PARENT 19 5 23 26 73 45 47 56
REMARK Flexibility Score: inf
ROOT
ATOM      1  C   UNL     1       1.948   2.005  -1.265  1.00  0.00     0.118 C 
ENDROOT
BRANCH   1   2
ATOM      2  N   UNL     1       2.718   1.062  -0.482  1.00  0.00    -0.352 N 
ATOM      3  O   UNL     1       1.673   1.464   1.520  1.00  0.00    -0.270 OA
ATOM      4  C   UNL     1       2.488   0.843   0.854  1.00  0.00     0.244 C 
ATOM      5  H   UNL     1       3.437   0.557  -0.926  1.00  0.00     0.163 HD
BRANCH   4   6
ATOM      6  C   UNL     1       3.250  -0.279   1.469  1.00  0.00     0.072 C 
ATOM      7  C   UNL     1       4.349  -0.839   0.945  1.00  0.00     0.017 C 
BRANCH   7   8
ATOM      8  C   UNL     1       5.032  -1.996   1.536  1.00  0.00     0.017 A 
ATOM      9  C   UNL     1       6.247  -1.689   2.183  1.00  0.00     0.012 A 
ATOM     10  C   UNL     1       4.626  -3.343   1.458  1.00  0.00     0.134 A 
ATOM     11  C   UNL     1       7.050  -2.687   2.738  1.00  0.00     0.001 A 
ATOM     12  C   UNL     1       5.450  -4.333   2.028  1.00  0.00     0.048 A 
ATOM     13  C   UNL     1       6.652  -4.013   2.657  1.00  0.00     0.004 A 
BRANCH  10  14
ATOM     14  O   UNL     1       3.500  -3.910   0.895  1.00  0.00    -0.457 OA
BRANCH  14  15
ATOM     15  C   UNL     1       2.582  -3.168   0.208  1.00  0.00     0.128 A 
ATOM     16  C   UNL     1       1.331  -2.967   0.796  1.00  0.00     0.047 A 
ATOM     17  C   UNL     1       2.832  -2.739  -1.094  1.00  0.00     0.067 A 
ATOM     18  C   UNL     1       0.345  -2.261   0.107  1.00  0.00     0.005 A 
ATOM     19  C   UNL     1       1.845  -2.027  -1.772  1.00  0.00     0.044 A 
ATOM     20  C   UNL     1       0.606  -1.781  -1.177  1.00  0.00     0.021 A 
ATOM     21  Cl  UNL     1       2.171  -1.408  -3.344  1.00  0.00    -0.084 Cl
ENDBRANCH  14  15
ENDBRANCH  10  14
ENDBRANCH   7   8
ENDBRANCH   4   6
ENDBRANCH   1   2
BRANCH   1  22
ATOM     22  C   UNL     1       2.216   3.467  -0.931  1.00  0.00     0.042 C 
BRANCH  22  23
ATOM     23  C   UNL     1       3.681   3.881  -1.000  1.00  0.00     0.118 C 
BRANCH  23  24
ATOM     24  N   UNL     1       4.246   3.809  -2.340  1.00  0.00    -0.352 N 
ATOM     25  C   UNL     1       5.014   4.719  -3.025  1.00  0.00     0.251 C 
ATOM     26  H   UNL     1       4.046   2.980  -2.831  1.00  0.00     0.163 HD
ATOM     27  O   UNL     1       5.313   4.496  -4.195  1.00  0.00    -0.269 OA
BRANCH  25  28
ATOM     28  C   UNL     1       5.466   5.978  -2.384  1.00  0.00     0.039 A 
ATOM     29  C   UNL     1       5.453   7.152  -3.145  1.00  0.00     0.014 A 
ATOM     30  C   UNL     1       5.937   6.012  -1.069  1.00  0.00     0.014 A 
ATOM     31  C   UNL     1       5.863   8.361  -2.575  1.00  0.00     0.010 A 
ATOM     32  C   UNL     1       6.277   7.229  -0.479  1.00  0.00     0.010 A 
ATOM     33  C   UNL     1       6.257   8.415  -1.229  1.00  0.00    -0.014 A 
BRANCH  33  34
ATOM     34  C   UNL     1       6.683   9.695  -0.608  1.00  0.00     0.031 A 
ATOM     35  C   UNL     1       8.105   9.880  -0.152  1.00  0.00     0.074 A 
ATOM     36  C   UNL     1       5.785  10.681  -0.416  1.00  0.00     0.049 A 
ATOM     37  N   UNL     1       8.660  10.911   0.435  1.00  0.00    -0.248 NA
ATOM     38  C   UNL     1       9.019   8.746  -0.360  1.00  0.00     0.031 C 
ATOM     39  C   UNL     1       4.365  10.613  -0.763  1.00  0.00     0.029 A 
ATOM     40  N   UNL     1       5.936  11.934   0.124  1.00  0.00    -0.354 N 
ATOM     41  C   UNL     1       9.976  10.543   0.683  1.00  0.00     0.074 A 
ATOM     42  C   UNL     1      10.126   9.178   0.227  1.00  0.00     0.031 C 
ATOM     43  C   UNL     1       3.781  11.782  -0.451  1.00  0.00     0.029 A 
ATOM     44  C   UNL     1       4.777  12.671   0.138  1.00  0.00     0.049 A 
ATOM     45  H   UNL     1       6.794  12.272   0.469  1.00  0.00     0.167 HD
ATOM     46  C   UNL     1      10.978  11.280   1.219  1.00  0.00     0.037 A 
ATOM     47  C   UNL     1       4.546  13.926   0.570  1.00  0.00     0.037 A 
ATOM     48  C   UNL     1      10.843  12.649   1.640  1.00  0.00     0.049 A 
ATOM     49  C   UNL     1       5.683  14.738   1.125  1.00  0.00     0.074 A 
ATOM     50  C   UNL     1      11.813  13.496   2.148  1.00  0.00     0.029 A 
ATOM     51  N   UNL     1       9.663  13.374   1.595  1.00  0.00    -0.354 N 
ATOM     52  N   UNL     1       6.937  14.397   1.295  1.00  0.00    -0.248 NA
ATOM     53  C   UNL     1       5.374  16.116   1.534  1.00  0.00     0.031 C 
ATOM     54  C   UNL     1      11.213  14.728   2.432  1.00  0.00     0.029 A 
ATOM     55  C   UNL     1       9.879  14.658   2.069  1.00  0.00     0.049 A 
ATOM     56  H   UNL     1       8.799  13.028   1.273  1.00  0.00     0.167 HD
ATOM     57  C   UNL     1       7.573  15.524   1.798  1.00  0.00     0.074 A 
ATOM     58  C   UNL     1       6.568  16.562   1.898  1.00  0.00     0.031 C 
ATOM     59  C   UNL     1       8.873  15.685   2.144  1.00  0.00     0.037 A 
BRANCH  46  60
ATOM     60  C   UNL     1      12.315  10.616   1.369  1.00  0.00     0.057 A 
ATOM     61  C   UNL     1      13.123  10.331   0.260  1.00  0.00     0.134 A 
ATOM     62  C   UNL     1      12.811  10.279   2.634  1.00  0.00     0.134 A 
ATOM     63  F   UNL     1      12.700  10.617  -0.981  1.00  0.00    -0.206 F 
ATOM     64  C   UNL     1      14.364   9.708   0.403  1.00  0.00     0.040 A 
ATOM     65  C   UNL     1      14.061   9.678   2.791  1.00  0.00     0.040 A 
ATOM     66  F   UNL     1      12.090  10.530   3.738  1.00  0.00    -0.206 F 
ATOM     67  C   UNL     1      14.838   9.385   1.672  1.00  0.00     0.006 A 
ENDBRANCH  46  60
BRANCH  47  68
ATOM     68  C   UNL     1       3.189  14.513   0.450  1.00  0.00     0.057 A 
ATOM     69  C   UNL     1       2.917  15.505  -0.499  1.00  0.00     0.134 A 
ATOM     70  C   UNL     1       2.140  14.108   1.282  1.00  0.00     0.134 A 
ATOM     71  F   UNL     1       3.889  15.946  -1.312  1.00  0.00    -0.206 F 
ATOM     72  C   UNL     1       1.653  16.087  -0.606  1.00  0.00     0.040 A 
ATOM     73  C   UNL     1       0.866  14.667   1.173  1.00  0.00     0.040 A 
ATOM     74  F   UNL     1       2.338  13.158   2.207  1.00  0.00    -0.206 F 
ATOM     75  C   UNL     1       0.622  15.665   0.231  1.00  0.00     0.006 A 
ENDBRANCH  47  68
BRANCH  59  76
ATOM     76  C   UNL     1       9.293  17.045   2.617  1.00  0.00     0.057 A 
ATOM     77  C   UNL     1       8.948  17.527   3.885  1.00  0.00     0.134 A 
ATOM     78  C   UNL     1      10.078  17.869   1.800  1.00  0.00     0.134 A 
ATOM     79  F   UNL     1       8.187  16.790   4.708  1.00  0.00    -0.206 F 
ATOM     80  C   UNL     1       9.351  18.791   4.317  1.00  0.00     0.040 A 
ATOM     81  C   UNL     1      10.506  19.125   2.230  1.00  0.00     0.040 A 
ATOM     82  F   UNL     1      10.449  17.462   0.577  1.00  0.00    -0.206 F 
ATOM     83  C   UNL     1      10.137  19.592   3.490  1.00  0.00     0.006 A 
ENDBRANCH  59  76
ENDBRANCH  33  34
ENDBRANCH  25  28
ENDBRANCH  23  24
ENDBRANCH  22  23
ENDBRANCH   1  22
TORSDOF 13
