REMARK SMILES Cc1ccccc1OCC(=O)NCCC(=O)NCCCNC(=O)c1ccc(-c2c3nc(c(-c4c(F)cccc4F)c4ccc([nH]4)c(-c4c(F)cccc4F)c4nc(c(-c5c(F)cccc5F)c5ccc2[nH]5)C=C4)C=C3)cc1
REMARK SMILES IDX 15 1 16 2 17 3 14 5 13 6 12 7 10 8 11 9 9 11 8 12 7 13 1 14
REMARK SMILES IDX 2 15 3 16 4 17 6 18 5 19 18 20 19 21 20 22 21 23 22 24 23 26
REMARK SMILES IDX 24 27 25 28 77 29 26 30 76 31 27 32 28 33 29 34 70 35 30 36
REMARK SMILES IDX 75 37 69 38 71 39 31 40 74 41 68 42 67 43 32 45 58 46 41 47
REMARK SMILES IDX 57 48 42 49 45 50 56 51 72 52 43 53 44 54 55 56 73 57 46 58
REMARK SMILES IDX 33 59 34 60 39 61 35 62 36 63 38 64 40 65 37 66 59 67 60 68
REMARK SMILES IDX 65 69 61 70 62 71 64 72 66 73 63 74 47 75 48 76 53 77 49 78
REMARK SMILES IDX 50 79 52 80 54 81 51 82
REMARK H PARENT 17 4 12 10 21 25 71 44 45 55
REMARK Flexibility Score: inf
ROOT
ATOM      1  C   UNL     1       0.802   2.670   4.567  1.00  0.00     0.221 C 
ATOM      2  O   UNL     1       0.798   3.466   5.508  1.00  0.00    -0.275 OA
ATOM      3  N   UNL     1       1.173   1.378   4.810  1.00  0.00    -0.356 N 
ATOM      4  H   UNL     1       1.284   1.145   5.760  1.00  0.00     0.163 HD
ENDROOT
BRANCH   1   5
ATOM      5  C   UNL     1       0.399   3.111   3.177  1.00  0.00     0.121 C 
BRANCH   5   6
ATOM      6  C   UNL     1       1.419   4.048   2.541  1.00  0.00     0.126 C 
BRANCH   6   7
ATOM      7  N   UNL     1       2.663   3.389   2.180  1.00  0.00    -0.353 N 
ATOM      8  C   UNL     1       3.013   2.764   1.014  1.00  0.00     0.257 C 
ATOM      9  O   UNL     1       4.102   2.188   0.961  1.00  0.00    -0.271 OA
ATOM     10  H   UNL     1       3.357   3.392   2.878  1.00  0.00     0.163 HD
BRANCH   8  11
ATOM     11  C   UNL     1       2.097   2.861  -0.206  1.00  0.00     0.329 C 
BRANCH  11  12
ATOM     12  O   UNL     1       0.762   2.457  -0.044  1.00  0.00    -0.484 OA
BRANCH  12  13
ATOM     13  C   UNL     1       0.315   1.174  -0.111  1.00  0.00     0.122 A 
ATOM     14  C   UNL     1       2.447  -0.284  -0.484  1.00  0.00     0.048 C 
ATOM     15  C   UNL     1       0.979  -0.049  -0.275  1.00  0.00    -0.009 A 
ATOM     16  C   UNL     1       0.206  -1.238  -0.204  1.00  0.00     0.007 A 
ATOM     17  C   UNL     1      -1.178  -1.222  -0.035  1.00  0.00     0.001 A 
ATOM     18  C   UNL     1      -1.089   1.167   0.045  1.00  0.00     0.047 A 
ATOM     19  C   UNL     1      -1.832  -0.010   0.078  1.00  0.00     0.004 A 
ENDBRANCH  12  13
ENDBRANCH  11  12
ENDBRANCH   8  11
ENDBRANCH   6   7
ENDBRANCH   5   6
ENDBRANCH   1   5
BRANCH   3  20
ATOM     20  C   UNL     1       1.428   0.296   3.870  1.00  0.00     0.117 C 
BRANCH  20  21
ATOM     21  C   UNL     1       2.895   0.264   3.466  1.00  0.00     0.042 C 
BRANCH  21  22
ATOM     22  C   UNL     1       3.774  -0.599   4.357  1.00  0.00     0.118 C 
BRANCH  22  23
ATOM     23  N   UNL     1       4.167  -1.861   3.727  1.00  0.00    -0.352 N 
ATOM     24  C   UNL     1       5.135  -2.773   4.119  1.00  0.00     0.251 C 
ATOM     25  H   UNL     1       3.673  -2.095   2.909  1.00  0.00     0.163 HD
ATOM     26  O   UNL     1       5.269  -3.834   3.535  1.00  0.00    -0.269 OA
BRANCH  24  27
ATOM     27  C   UNL     1       5.898  -2.497   5.357  1.00  0.00     0.039 A 
ATOM     28  C   UNL     1       5.798  -3.432   6.389  1.00  0.00     0.014 A 
ATOM     29  C   UNL     1       6.420  -1.228   5.588  1.00  0.00     0.014 A 
ATOM     30  C   UNL     1       5.934  -2.997   7.701  1.00  0.00     0.010 A 
ATOM     31  C   UNL     1       6.448  -0.768   6.890  1.00  0.00     0.010 A 
ATOM     32  C   UNL     1       6.115  -1.636   7.936  1.00  0.00    -0.014 A 
BRANCH  32  33
ATOM     33  C   UNL     1       5.822  -1.025   9.225  1.00  0.00     0.031 A 
ATOM     34  C   UNL     1       6.919  -0.580  10.103  1.00  0.00     0.074 A 
ATOM     35  C   UNL     1       4.533  -0.832   9.591  1.00  0.00     0.049 A 
ATOM     36  N   UNL     1       6.781  -0.358  11.367  1.00  0.00    -0.248 NA
ATOM     37  C   UNL     1       8.300  -0.434   9.643  1.00  0.00     0.031 C 
ATOM     38  C   UNL     1       4.031   0.001  10.682  1.00  0.00     0.029 A 
ATOM     39  N   UNL     1       3.411  -1.567   9.173  1.00  0.00    -0.354 N 
ATOM     40  C   UNL     1       7.926   0.265  11.794  1.00  0.00     0.074 A 
ATOM     41  C   UNL     1       8.886   0.043  10.746  1.00  0.00     0.031 C 
ATOM     42  C   UNL     1       2.821  -0.448  11.049  1.00  0.00     0.029 A 
ATOM     43  C   UNL     1       2.579  -1.676  10.311  1.00  0.00     0.049 A 
ATOM     44  H   UNL     1       3.240  -1.932   8.275  1.00  0.00     0.167 HD
ATOM     45  C   UNL     1       7.867   1.045  12.907  1.00  0.00     0.037 A 
ATOM     46  C   UNL     1       2.292  -2.882  10.881  1.00  0.00     0.037 A 
ATOM     47  C   UNL     1       6.657   0.765  13.682  1.00  0.00     0.049 A 
ATOM     48  C   UNL     1       2.692  -2.992  12.333  1.00  0.00     0.074 A 
ATOM     49  C   UNL     1       5.487   1.464  13.915  1.00  0.00     0.029 A 
ATOM     50  N   UNL     1       6.445  -0.529  14.158  1.00  0.00    -0.354 N 
ATOM     51  N   UNL     1       3.539  -2.189  12.916  1.00  0.00    -0.248 NA
ATOM     52  C   UNL     1       2.205  -4.037  13.232  1.00  0.00     0.031 C 
ATOM     53  C   UNL     1       4.529   0.546  14.426  1.00  0.00     0.029 A 
ATOM     54  C   UNL     1       5.134  -0.694  14.555  1.00  0.00     0.049 A 
ATOM     55  H   UNL     1       7.136  -1.228  14.204  1.00  0.00     0.167 HD
ATOM     56  C   UNL     1       3.753  -2.607  14.203  1.00  0.00     0.074 A 
ATOM     57  C   UNL     1       2.874  -3.750  14.362  1.00  0.00     0.031 C 
ATOM     58  C   UNL     1       4.657  -1.990  15.019  1.00  0.00     0.037 A 
BRANCH  45  59
ATOM     59  C   UNL     1       8.784   2.220  13.181  1.00  0.00     0.057 A 
ATOM     60  C   UNL     1       8.669   2.941  14.387  1.00  0.00     0.134 A 
ATOM     61  C   UNL     1       9.687   2.790  12.257  1.00  0.00     0.134 A 
ATOM     62  F   UNL     1       7.840   2.540  15.362  1.00  0.00    -0.206 F 
ATOM     63  C   UNL     1       9.377   4.127  14.640  1.00  0.00     0.040 A 
ATOM     64  C   UNL     1      10.440   3.943  12.520  1.00  0.00     0.040 A 
ATOM     65  F   UNL     1       9.849   2.314  11.018  1.00  0.00    -0.206 F 
ATOM     66  C   UNL     1      10.275   4.627  13.710  1.00  0.00     0.006 A 
ENDBRANCH  45  59
BRANCH  46  67
ATOM     67  C   UNL     1       2.289  -4.010   9.914  1.00  0.00     0.057 A 
ATOM     68  C   UNL     1       1.331  -4.017   8.886  1.00  0.00     0.134 A 
ATOM     69  C   UNL     1       3.396  -4.848   9.759  1.00  0.00     0.134 A 
ATOM     70  F   UNL     1       0.242  -3.236   8.974  1.00  0.00    -0.206 F 
ATOM     71  C   UNL     1       1.522  -4.735   7.703  1.00  0.00     0.040 A 
ATOM     72  C   UNL     1       3.592  -5.583   8.584  1.00  0.00     0.040 A 
ATOM     73  F   UNL     1       4.364  -4.880  10.686  1.00  0.00    -0.206 F 
ATOM     74  C   UNL     1       2.674  -5.496   7.537  1.00  0.00     0.006 A 
ENDBRANCH  46  67
BRANCH  58  75
ATOM     75  C   UNL     1       5.123  -2.517  16.354  1.00  0.00     0.057 A 
ATOM     76  C   UNL     1       5.224  -3.880  16.672  1.00  0.00     0.134 A 
ATOM     77  C   UNL     1       5.631  -1.633  17.330  1.00  0.00     0.134 A 
ATOM     78  F   UNL     1       4.887  -4.832  15.792  1.00  0.00    -0.206 F 
ATOM     79  C   UNL     1       5.733  -4.330  17.899  1.00  0.00     0.040 A 
ATOM     80  C   UNL     1       6.187  -2.073  18.536  1.00  0.00     0.040 A 
ATOM     81  F   UNL     1       5.627  -0.305  17.145  1.00  0.00    -0.206 F 
ATOM     82  C   UNL     1       6.225  -3.427  18.832  1.00  0.00     0.006 A 
ENDBRANCH  58  75
ENDBRANCH  32  33
ENDBRANCH  24  27
ENDBRANCH  22  23
ENDBRANCH  21  22
ENDBRANCH  20  21
ENDBRANCH   3  20
TORSDOF 15
