REMARK SMILES C[C@@H](C(=O)NCCCNC(=O)c1ccc(-c2c3nc(c(-c4c(F)cccc4F)c4ccc([nH]4)c(-c4c(F)cccc4F)c4nc(c(-c5c(F)cccc5F)c5ccc2[nH]5)C=C4)C=C3)cc1)c1cc(C(=O)c2ccccc2)ccc1O
REMARK SMILES IDX 6 1 5 2 3 3 4 4 2 6 1 7 66 8 67 9 79 10 68 11 78 12 77 13
REMARK SMILES IDX 80 14 69 16 70 17 71 18 72 19 76 20 73 21 75 22 74 23 7 24
REMARK SMILES IDX 8 25 9 26 10 27 11 29 12 30 13 31 65 32 14 33 64 34 15 35
REMARK SMILES IDX 16 36 17 37 58 38 18 39 63 40 57 41 59 42 19 43 62 44 56 45
REMARK SMILES IDX 55 46 20 48 46 49 29 50 45 51 30 52 33 53 44 54 60 55 31 56
REMARK SMILES IDX 32 57 43 59 61 60 34 61 21 62 22 63 27 64 23 65 24 66 26 67
REMARK SMILES IDX 28 68 25 69 47 70 48 71 53 72 49 73 50 74 52 75 54 76 51 77
REMARK SMILES IDX 35 78 36 79 41 80 37 81 38 82 40 83 42 84 39 85
REMARK H PARENT 5 5 80 15 9 28 59 47 33 58
REMARK Flexibility Score: inf
ROOT
ATOM      1  C   UNL     1       3.483  -0.457   2.010  1.00  0.00     0.117 C 
ENDROOT
BRANCH   1   2
ATOM      2  N   UNL     1       2.441   0.219   2.756  1.00  0.00    -0.356 N 
ATOM      3  C   UNL     1       1.103   0.331   2.516  1.00  0.00     0.227 C 
ATOM      4  O   UNL     1       0.466   1.026   3.308  1.00  0.00    -0.274 OA
ATOM      5  H   UNL     1       2.750   0.674   3.572  1.00  0.00     0.163 HD
BRANCH   3   6
ATOM      6  C   UNL     1       0.471  -0.419   1.330  1.00  0.00     0.109 C 
ATOM      7  C   UNL     1       0.822   0.223  -0.015  1.00  0.00     0.023 C 
BRANCH   6   8
ATOM      8  C   UNL     1      -1.046  -0.555   1.439  1.00  0.00     0.007 A 
ATOM      9  C   UNL     1      -1.833   0.613   1.550  1.00  0.00     0.020 A 
ATOM     10  C   UNL     1      -1.717  -1.785   1.408  1.00  0.00     0.119 A 
ATOM     11  C   UNL     1      -3.228   0.558   1.656  1.00  0.00     0.023 A 
ATOM     12  C   UNL     1      -3.109  -1.848   1.494  1.00  0.00     0.047 A 
ATOM     13  C   UNL     1      -3.866  -0.682   1.603  1.00  0.00     0.016 A 
BRANCH  10  14
ATOM     14  O   UNL     1      -1.099  -2.995   1.280  1.00  0.00    -0.508 OA
ATOM     15  H   UNL     1      -0.165  -3.040   1.216  1.00  0.00     0.293 HD
ENDBRANCH  10  14
BRANCH  11  16
ATOM     16  C   UNL     1      -3.976   1.841   1.770  1.00  0.00     0.193 C 
ATOM     17  O   UNL     1      -3.466   2.882   1.363  1.00  0.00    -0.289 OA
BRANCH  16  18
ATOM     18  C   UNL     1      -5.351   1.892   2.321  1.00  0.00     0.022 A 
ATOM     19  C   UNL     1      -6.290   2.702   1.674  1.00  0.00     0.012 A 
ATOM     20  C   UNL     1      -5.717   1.164   3.459  1.00  0.00     0.012 A 
ATOM     21  C   UNL     1      -7.607   2.740   2.130  1.00  0.00     0.001 A 
ATOM     22  C   UNL     1      -7.038   1.202   3.909  1.00  0.00     0.001 A 
ATOM     23  C   UNL     1      -7.982   1.981   3.239  1.00  0.00     0.000 A 
ENDBRANCH  16  18
ENDBRANCH  11  16
ENDBRANCH   6   8
ENDBRANCH   3   6
ENDBRANCH   1   2
BRANCH   1  24
ATOM     24  C   UNL     1       4.355   0.532   1.244  1.00  0.00     0.042 C 
BRANCH  24  25
ATOM     25  C   UNL     1       5.098   1.519   2.135  1.00  0.00     0.118 C 
BRANCH  25  26
ATOM     26  N   UNL     1       6.098   0.876   2.976  1.00  0.00    -0.352 N 
ATOM     27  C   UNL     1       7.451   1.101   3.044  1.00  0.00     0.251 C 
ATOM     28  H   UNL     1       5.755   0.180   3.583  1.00  0.00     0.163 HD
ATOM     29  O   UNL     1       8.173   0.342   3.683  1.00  0.00    -0.269 OA
BRANCH  27  30
ATOM     30  C   UNL     1       8.038   2.249   2.325  1.00  0.00     0.039 A 
ATOM     31  C   UNL     1       9.188   2.058   1.554  1.00  0.00     0.014 A 
ATOM     32  C   UNL     1       7.442   3.510   2.402  1.00  0.00     0.014 A 
ATOM     33  C   UNL     1       9.700   3.117   0.801  1.00  0.00     0.010 A 
ATOM     34  C   UNL     1       7.904   4.539   1.593  1.00  0.00     0.010 A 
ATOM     35  C   UNL     1       9.040   4.354   0.787  1.00  0.00    -0.014 A 
BRANCH  35  36
ATOM     36  C   UNL     1       9.510   5.493  -0.040  1.00  0.00     0.031 A 
ATOM     37  C   UNL     1       9.936   6.766   0.633  1.00  0.00     0.074 A 
ATOM     38  C   UNL     1       9.437   5.429  -1.383  1.00  0.00     0.049 A 
ATOM     39  N   UNL     1      10.186   7.939   0.110  1.00  0.00    -0.248 NA
ATOM     40  C   UNL     1      10.057   6.720   2.099  1.00  0.00     0.031 C 
ATOM     41  C   UNL     1       9.009   4.261  -2.154  1.00  0.00     0.029 A 
ATOM     42  N   UNL     1       9.690   6.384  -2.335  1.00  0.00    -0.354 N 
ATOM     43  C   UNL     1      10.459   8.777   1.184  1.00  0.00     0.074 A 
ATOM     44  C   UNL     1      10.298   7.989   2.387  1.00  0.00     0.031 C 
ATOM     45  C   UNL     1       9.025   4.570  -3.460  1.00  0.00     0.029 A 
ATOM     46  C   UNL     1       9.417   5.968  -3.615  1.00  0.00     0.049 A 
ATOM     47  H   UNL     1      10.033   7.282  -2.121  1.00  0.00     0.167 HD
ATOM     48  C   UNL     1      10.825  10.080   1.167  1.00  0.00     0.037 A 
ATOM     49  C   UNL     1       9.450   6.644  -4.779  1.00  0.00     0.037 A 
ATOM     50  C   UNL     1      11.005  10.849  -0.035  1.00  0.00     0.049 A 
ATOM     51  C   UNL     1       9.854   8.092  -4.780  1.00  0.00     0.074 A 
ATOM     52  C   UNL     1      11.432  12.159  -0.166  1.00  0.00     0.029 A 
ATOM     53  N   UNL     1      10.765  10.375  -1.317  1.00  0.00    -0.354 N 
ATOM     54  N   UNL     1      10.161   8.862  -3.764  1.00  0.00    -0.248 NA
ATOM     55  C   UNL     1       9.921   8.764  -6.085  1.00  0.00     0.031 C 
ATOM     56  C   UNL     1      11.406  12.492  -1.524  1.00  0.00     0.029 A 
ATOM     57  C   UNL     1      11.016  11.373  -2.244  1.00  0.00     0.049 A 
ATOM     58  H   UNL     1      10.461   9.465  -1.535  1.00  0.00     0.167 HD
ATOM     59  C   UNL     1      10.489  10.098  -4.307  1.00  0.00     0.074 A 
ATOM     60  C   UNL     1      10.342   9.975  -5.743  1.00  0.00     0.031 C 
ATOM     61  C   UNL     1      10.882  11.229  -3.672  1.00  0.00     0.037 A 
BRANCH  48  62
ATOM     62  C   UNL     1      11.035  10.751   2.495  1.00  0.00     0.057 A 
ATOM     63  C   UNL     1      12.100  10.407   3.340  1.00  0.00     0.134 A 
ATOM     64  C   UNL     1      10.158  11.748   2.937  1.00  0.00     0.134 A 
ATOM     65  F   UNL     1      12.971   9.451   2.982  1.00  0.00    -0.206 F 
ATOM     66  C   UNL     1      12.257  10.999   4.594  1.00  0.00     0.040 A 
ATOM     67  C   UNL     1      10.324  12.370   4.176  1.00  0.00     0.040 A 
ATOM     68  F   UNL     1       9.122  12.133   2.176  1.00  0.00    -0.206 F 
ATOM     69  C   UNL     1      11.369  11.987   5.014  1.00  0.00     0.006 A 
ENDBRANCH  48  62
BRANCH  49  70
ATOM     70  C   UNL     1       9.101   5.945  -6.041  1.00  0.00     0.057 A 
ATOM     71  C   UNL     1      10.087   5.607  -6.974  1.00  0.00     0.134 A 
ATOM     72  C   UNL     1       7.784   5.566  -6.327  1.00  0.00     0.134 A 
ATOM     73  F   UNL     1      11.364   5.957  -6.763  1.00  0.00    -0.206 F 
ATOM     74  C   UNL     1       9.776   4.925  -8.152  1.00  0.00     0.040 A 
ATOM     75  C   UNL     1       7.462   4.864  -7.490  1.00  0.00     0.040 A 
ATOM     76  F   UNL     1       6.795   5.851  -5.467  1.00  0.00    -0.206 F 
ATOM     77  C   UNL     1       8.460   4.544  -8.408  1.00  0.00     0.006 A 
ENDBRANCH  49  70
BRANCH  61  78
ATOM     78  C   UNL     1      11.238  12.414  -4.520  1.00  0.00     0.057 A 
ATOM     79  C   UNL     1      10.264  13.196  -5.151  1.00  0.00     0.134 A 
ATOM     80  C   UNL     1      12.573  12.824  -4.636  1.00  0.00     0.134 A 
ATOM     81  F   UNL     1       8.969  12.850  -5.088  1.00  0.00    -0.206 F 
ATOM     82  C   UNL     1      10.605  14.340  -5.875  1.00  0.00     0.040 A 
ATOM     83  C   UNL     1      12.925  13.978  -5.335  1.00  0.00     0.040 A 
ATOM     84  F   UNL     1      13.554  12.122  -4.047  1.00  0.00    -0.206 F 
ATOM     85  C   UNL     1      11.939  14.739  -5.959  1.00  0.00     0.006 A 
ENDBRANCH  61  78
ENDBRANCH  35  36
ENDBRANCH  27  30
ENDBRANCH  25  26
ENDBRANCH  24  25
ENDBRANCH   1  24
TORSDOF 14
