REMARK SMILES CS(=O)(=O)c1ccc(C2=NN(c3ccc(C(=O)NCCCNC(=O)c4ccc(-c5c6nc(c(-c7c(F)cccc7F)c7ccc([nH]7)c(-c7c(F)cccc7F)c7nc(c(-c8c(F)cccc8F)c8ccc5[nH]8)C=C7)C=C6)cc4)cc3)[C@H](c3cccs3)C2)cc1
REMARK SMILES IDX 19 1 18 2 16 3 17 4 15 6 12 7 13 8 80 9 14 10 79 11 11 12
REMARK SMILES IDX 9 13 10 14 87 15 81 16 8 17 5 18 6 19 89 20 7 21 88 22 2 23
REMARK SMILES IDX 1 24 3 25 4 26 82 27 83 28 86 29 84 30 85 31 20 32 21 33
REMARK SMILES IDX 22 34 23 35 24 37 25 38 26 39 78 40 27 41 77 42 28 43 29 44
REMARK SMILES IDX 30 45 71 46 31 47 76 48 70 49 72 50 32 51 75 52 69 53 68 54
REMARK SMILES IDX 33 56 59 57 42 58 58 59 43 60 46 61 57 62 73 63 44 64 45 65
REMARK SMILES IDX 56 67 74 68 47 69 34 70 35 71 40 72 36 73 37 74 39 75 41 76
REMARK SMILES IDX 38 77 60 78 61 79 66 80 62 81 63 82 65 83 67 84 64 85 48 86
REMARK SMILES IDX 49 87 54 88 50 89 51 90 53 91 55 92 52 93
REMARK H PARENT 18 5 22 36 72 55 46 66
REMARK Flexibility Score: inf
ROOT
ATOM      1  C   UNL     1       5.131 -11.490   8.214  1.00  0.00     0.118 C 
ENDROOT
BRANCH   1   2
ATOM      2  N   UNL     1       6.352 -10.871   7.726  1.00  0.00    -0.352 N 
ATOM      3  C   UNL     1       6.590  -9.625   7.199  1.00  0.00     0.251 C 
ATOM      4  O   UNL     1       7.755  -9.301   6.979  1.00  0.00    -0.269 OA
ATOM      5  H   UNL     1       7.149 -11.446   7.783  1.00  0.00     0.163 HD
BRANCH   3   6
ATOM      6  C   UNL     1       5.500  -8.650   6.935  1.00  0.00     0.039 A 
ATOM      7  C   UNL     1       3.508  -6.704   6.494  1.00  0.00     0.060 A 
ATOM      8  C   UNL     1       4.789  -6.326   6.905  1.00  0.00     0.029 A 
ATOM      9  C   UNL     1       3.255  -8.056   6.254  1.00  0.00     0.029 A 
ATOM     10  C   UNL     1       5.778  -7.290   7.131  1.00  0.00     0.016 A 
ATOM     11  C   UNL     1       4.246  -9.018   6.449  1.00  0.00     0.016 A 
BRANCH   7  12
ATOM     12  N   UNL     1       2.491  -5.778   6.332  1.00  0.00    -0.257 N 
ATOM     13  C   UNL     1       1.675  -3.964   5.612  1.00  0.00     0.071 C 
ATOM     14  N   UNL     1       2.522  -4.896   5.309  1.00  0.00    -0.176 NA
ATOM     15  C   UNL     1       1.041  -4.060   6.973  1.00  0.00     0.091 C 
ATOM     16  C   UNL     1       1.583  -5.423   7.425  1.00  0.00     0.154 C 
BRANCH  13  17
ATOM     17  C   UNL     1       1.331  -2.885   4.679  1.00  0.00    -0.002 A 
ATOM     18  C   UNL     1       0.651  -0.910   2.852  1.00  0.00     0.067 A 
ATOM     19  C   UNL     1       0.614  -2.250   2.459  1.00  0.00     0.021 A 
ATOM     20  C   UNL     1       1.030  -0.553   4.153  1.00  0.00     0.021 A 
ATOM     21  C   UNL     1       0.974  -3.239   3.373  1.00  0.00     0.011 A 
ATOM     22  C   UNL     1       1.361  -1.547   5.077  1.00  0.00     0.011 A 
BRANCH  18  23
ATOM     23  S   UNL     1       0.200   0.364   1.695  1.00  0.00     0.175 S 
ATOM     24  C   UNL     1       1.047  -0.042   0.191  1.00  0.00     0.163 C 
ATOM     25  O   UNL     1       0.761   1.606   2.182  1.00  0.00    -0.224 OA
ATOM     26  O   UNL     1      -1.228   0.222   1.468  1.00  0.00    -0.224 OA
ENDBRANCH  18  23
ENDBRANCH  13  17
BRANCH  16  27
ATOM     27  C   UNL     1       0.548  -6.486   7.746  1.00  0.00     0.030 A 
ATOM     28  C   UNL     1       0.691  -7.517   8.662  1.00  0.00     0.017 A 
ATOM     29  S   UNL     1      -0.940  -6.626   6.903  1.00  0.00    -0.147 S 
ATOM     30  C   UNL     1      -0.425  -8.400   8.681  1.00  0.00     0.012 A 
ATOM     31  C   UNL     1      -1.397  -8.015   7.787  1.00  0.00     0.065 A 
ENDBRANCH  16  27
ENDBRANCH   7  12
ENDBRANCH   3   6
ENDBRANCH   1   2
BRANCH   1  32
ATOM     32  C   UNL     1       4.577 -12.508   7.219  1.00  0.00     0.042 C 
BRANCH  32  33
ATOM     33  C   UNL     1       5.397 -13.791   7.136  1.00  0.00     0.118 C 
BRANCH  33  34
ATOM     34  N   UNL     1       5.211 -14.641   8.302  1.00  0.00    -0.352 N 
ATOM     35  C   UNL     1       4.807 -15.952   8.373  1.00  0.00     0.251 C 
ATOM     36  H   UNL     1       5.403 -14.214   9.168  1.00  0.00     0.163 HD
ATOM     37  O   UNL     1       4.523 -16.445   9.461  1.00  0.00    -0.269 OA
BRANCH  35  38
ATOM     38  C   UNL     1       4.691 -16.770   7.144  1.00  0.00     0.039 A 
ATOM     39  C   UNL     1       3.581 -17.606   6.992  1.00  0.00     0.014 A 
ATOM     40  C   UNL     1       5.683 -16.738   6.160  1.00  0.00     0.014 A 
ATOM     41  C   UNL     1       3.432 -18.362   5.827  1.00  0.00     0.010 A 
ATOM     42  C   UNL     1       5.503 -17.444   4.972  1.00  0.00     0.010 A 
ATOM     43  C   UNL     1       4.377 -18.262   4.794  1.00  0.00    -0.014 A 
BRANCH  43  44
ATOM     44  C   UNL     1       4.216 -19.002   3.517  1.00  0.00     0.031 A 
ATOM     45  C   UNL     1       5.205 -20.068   3.136  1.00  0.00     0.074 A 
ATOM     46  C   UNL     1       3.235 -18.655   2.663  1.00  0.00     0.049 A 
ATOM     47  N   UNL     1       5.320 -20.726   2.011  1.00  0.00    -0.248 NA
ATOM     48  C   UNL     1       6.214 -20.421   4.146  1.00  0.00     0.031 C 
ATOM     49  C   UNL     1       2.230 -17.617   2.902  1.00  0.00     0.029 A 
ATOM     50  N   UNL     1       2.934 -19.126   1.409  1.00  0.00    -0.354 N 
ATOM     51  C   UNL     1       6.426 -21.552   2.168  1.00  0.00     0.074 A 
ATOM     52  C   UNL     1       6.968 -21.286   3.483  1.00  0.00     0.031 C 
ATOM     53  C   UNL     1       1.420 -17.536   1.835  1.00  0.00     0.029 A 
ATOM     54  C   UNL     1       1.871 -18.485   0.821  1.00  0.00     0.049 A 
ATOM     55  H   UNL     1       3.433 -19.855   0.973  1.00  0.00     0.167 HD
ATOM     56  C   UNL     1       6.934 -22.459   1.300  1.00  0.00     0.037 A 
ATOM     57  C   UNL     1       1.331 -18.634  -0.403  1.00  0.00     0.037 A 
ATOM     58  C   UNL     1       6.377 -22.743   0.004  1.00  0.00     0.049 A 
ATOM     59  C   UNL     1       1.915 -19.645  -1.349  1.00  0.00     0.074 A 
ATOM     60  C   UNL     1       6.790 -23.680  -0.927  1.00  0.00     0.029 A 
ATOM     61  N   UNL     1       5.281 -22.092  -0.542  1.00  0.00    -0.354 N 
ATOM     62  N   UNL     1       2.936 -20.448  -1.172  1.00  0.00    -0.248 NA
ATOM     63  C   UNL     1       1.271 -19.772  -2.664  1.00  0.00     0.031 C 
ATOM     64  C   UNL     1       5.963 -23.575  -2.050  1.00  0.00     0.029 A 
ATOM     65  C   UNL     1       5.011 -22.599  -1.803  1.00  0.00     0.049 A 
ATOM     66  H   UNL     1       4.771 -21.376  -0.100  1.00  0.00     0.167 HD
ATOM     67  C   UNL     1       3.040 -21.194  -2.338  1.00  0.00     0.074 A 
ATOM     68  C   UNL     1       1.974 -20.753  -3.214  1.00  0.00     0.031 C 
ATOM     69  C   UNL     1       3.937 -22.159  -2.654  1.00  0.00     0.037 A 
BRANCH  56  70
ATOM     70  C   UNL     1       8.159 -23.211   1.729  1.00  0.00     0.057 A 
ATOM     71  C   UNL     1       8.107 -24.203   2.717  1.00  0.00     0.134 A 
ATOM     72  C   UNL     1       9.399 -22.961   1.128  1.00  0.00     0.134 A 
ATOM     73  F   UNL     1       6.953 -24.481   3.340  1.00  0.00    -0.206 F 
ATOM     74  C   UNL     1       9.250 -24.902   3.110  1.00  0.00     0.040 A 
ATOM     75  C   UNL     1      10.544 -23.671   1.495  1.00  0.00     0.040 A 
ATOM     76  F   UNL     1       9.517 -22.029   0.171  1.00  0.00    -0.206 F 
ATOM     77  C   UNL     1      10.472 -24.640   2.494  1.00  0.00     0.006 A 
ENDBRANCH  56  70
BRANCH  57  78
ATOM     78  C   UNL     1       0.160 -17.815  -0.800  1.00  0.00     0.057 A 
ATOM     79  C   UNL     1      -1.111 -18.388  -0.915  1.00  0.00     0.134 A 
ATOM     80  C   UNL     1       0.280 -16.448  -1.073  1.00  0.00     0.134 A 
ATOM     81  F   UNL     1      -1.283 -19.698  -0.684  1.00  0.00    -0.206 F 
ATOM     82  C   UNL     1      -2.220 -17.635  -1.301  1.00  0.00     0.040 A 
ATOM     83  C   UNL     1      -0.825 -15.677  -1.440  1.00  0.00     0.040 A 
ATOM     84  F   UNL     1       1.471 -15.839  -0.975  1.00  0.00    -0.206 F 
ATOM     85  C   UNL     1      -2.079 -16.273  -1.561  1.00  0.00     0.006 A 
ENDBRANCH  57  78
BRANCH  69  86
ATOM     86  C   UNL     1       3.778 -22.834  -3.983  1.00  0.00     0.057 A 
ATOM     87  C   UNL     1       4.139 -22.204  -5.180  1.00  0.00     0.134 A 
ATOM     88  C   UNL     1       3.297 -24.147  -4.059  1.00  0.00     0.134 A 
ATOM     89  F   UNL     1       4.593 -20.941  -5.173  1.00  0.00    -0.206 F 
ATOM     90  C   UNL     1       4.012 -22.851  -6.410  1.00  0.00     0.040 A 
ATOM     91  C   UNL     1       3.186 -24.812  -5.281  1.00  0.00     0.040 A 
ATOM     92  F   UNL     1       2.939 -24.807  -2.948  1.00  0.00    -0.206 F 
ATOM     93  C   UNL     1       3.541 -24.162  -6.461  1.00  0.00     0.006 A 
ENDBRANCH  69  86
ENDBRANCH  43  44
ENDBRANCH  35  38
ENDBRANCH  33  34
ENDBRANCH  32  33
ENDBRANCH   1  32
TORSDOF 14
