REMARK SMILES CSCc1ccc(C(=O)N[C@H]2C=C[C@@H](C(=O)NCCCNC(=O)c3ccc(-c4c5nc(c(-c6c(F)cccc6F)c6ccc([nH]6)c(-c6c(F)cccc6F)c6nc(c(-c7c(F)cccc7F)c7ccc4[nH]7)C=C6)C=C5)cc3)C2)o1
REMARK SMILES IDX 18 1 17 2 15 3 16 4 14 6 11 7 12 8 78 9 13 10 10 11 8 12
REMARK SMILES IDX 9 13 7 15 4 16 5 17 79 18 6 19 3 20 2 21 1 22 19 23 20 24
REMARK SMILES IDX 21 25 22 26 23 28 24 29 25 30 77 31 26 32 76 33 27 34 28 35
REMARK SMILES IDX 29 36 70 37 30 38 75 39 69 40 71 41 31 42 74 43 68 44 67 45
REMARK SMILES IDX 32 47 58 48 41 49 57 50 42 51 45 52 56 53 72 54 43 55 44 56
REMARK SMILES IDX 55 58 73 59 46 60 33 61 34 62 39 63 35 64 36 65 38 66 40 67
REMARK SMILES IDX 37 68 59 69 60 70 65 71 61 72 62 73 64 74 66 75 63 76 47 77
REMARK SMILES IDX 48 78 53 79 49 80 50 81 52 82 54 83 51 84
REMARK H PARENT 17 5 10 14 21 27 71 46 45 57
REMARK Flexibility Score: inf
ROOT
ATOM      1  C   UNL     1       0.151  -4.875   9.198  1.00  0.00     0.117 C 
ENDROOT
BRANCH   1   2
ATOM      2  N   UNL     1       0.198  -6.256   8.745  1.00  0.00    -0.356 N 
ATOM      3  C   UNL     1       0.249  -6.796   7.497  1.00  0.00     0.227 C 
ATOM      4  O   UNL     1       0.265  -8.028   7.416  1.00  0.00    -0.274 OA
ATOM      5  H   UNL     1       0.193  -6.920   9.472  1.00  0.00     0.163 HD
BRANCH   3   6
ATOM      6  C   UNL     1       0.313  -5.944   6.233  1.00  0.00     0.103 C 
ATOM      7  C   UNL     1      -0.306  -3.706   5.471  1.00  0.00     0.106 C 
ATOM      8  C   UNL     1       1.126  -3.776   5.901  1.00  0.00    -0.006 C 
ATOM      9  C   UNL     1      -0.891  -5.022   6.003  1.00  0.00     0.047 C 
ATOM     10  C   UNL     1       1.483  -5.011   6.261  1.00  0.00    -0.016 C 
BRANCH   7  11
ATOM     11  N   UNL     1      -0.917  -2.525   6.022  1.00  0.00    -0.343 N 
ATOM     12  C   UNL     1      -0.888  -1.226   5.559  1.00  0.00     0.287 C 
ATOM     13  O   UNL     1      -1.588  -0.424   6.190  1.00  0.00    -0.266 OA
ATOM     14  H   UNL     1      -1.430  -2.664   6.851  1.00  0.00     0.164 HD
BRANCH  12  15
ATOM     15  C   UNL     1      -0.066  -0.837   4.421  1.00  0.00     0.191 A 
ATOM     16  C   UNL     1       0.667   0.632   2.925  1.00  0.00     0.114 A 
ATOM     17  C   UNL     1       1.413  -0.507   2.742  1.00  0.00     0.047 A 
ATOM     18  O   UNL     1      -0.207   0.454   3.956  1.00  0.00    -0.455 OA
ATOM     19  C   UNL     1       0.902  -1.458   3.647  1.00  0.00     0.056 A 
BRANCH  16  20
ATOM     20  C   UNL     1       0.670   1.948   2.245  1.00  0.00     0.144 C 
BRANCH  20  21
ATOM     21  S   UNL     1      -0.237   1.929   0.660  1.00  0.00    -0.157 SA
ATOM     22  C   UNL     1       0.639   0.603  -0.212  1.00  0.00     0.085 C 
ENDBRANCH  20  21
ENDBRANCH  16  20
ENDBRANCH  12  15
ENDBRANCH   7  11
ENDBRANCH   3   6
ENDBRANCH   1   2
BRANCH   1  23
ATOM     23  C   UNL     1      -1.216  -4.506   9.756  1.00  0.00     0.042 C 
BRANCH  23  24
ATOM     24  C   UNL     1      -1.589  -5.287  11.006  1.00  0.00     0.118 C 
BRANCH  24  25
ATOM     25  N   UNL     1      -0.735  -4.959  12.138  1.00  0.00    -0.352 N 
ATOM     26  C   UNL     1      -1.063  -4.410  13.352  1.00  0.00     0.251 C 
ATOM     27  H   UNL     1       0.221  -5.162  12.014  1.00  0.00     0.163 HD
ATOM     28  O   UNL     1      -0.174  -4.018  14.104  1.00  0.00    -0.269 OA
BRANCH  26  29
ATOM     29  C   UNL     1      -2.480  -4.276  13.749  1.00  0.00     0.039 A 
ATOM     30  C   UNL     1      -2.894  -3.104  14.387  1.00  0.00     0.014 A 
ATOM     31  C   UNL     1      -3.394  -5.305  13.509  1.00  0.00     0.014 A 
ATOM     32  C   UNL     1      -4.238  -2.941  14.730  1.00  0.00     0.010 A 
ATOM     33  C   UNL     1      -4.745  -5.106  13.769  1.00  0.00     0.010 A 
ATOM     34  C   UNL     1      -5.179  -3.927  14.393  1.00  0.00    -0.014 A 
BRANCH  34  35
ATOM     35  C   UNL     1      -6.621  -3.757  14.700  1.00  0.00     0.031 A 
ATOM     36  C   UNL     1      -7.306  -4.703  15.648  1.00  0.00     0.074 A 
ATOM     37  C   UNL     1      -7.328  -2.797  14.073  1.00  0.00     0.049 A 
ATOM     38  N   UNL     1      -8.569  -4.768  15.984  1.00  0.00    -0.248 NA
ATOM     39  C   UNL     1      -6.464  -5.734  16.277  1.00  0.00     0.031 C 
ATOM     40  C   UNL     1      -6.789  -1.848  13.097  1.00  0.00     0.029 A 
ATOM     41  N   UNL     1      -8.657  -2.467  14.159  1.00  0.00    -0.354 N 
ATOM     42  C   UNL     1      -8.676  -5.857  16.839  1.00  0.00     0.074 A 
ATOM     43  C   UNL     1      -7.362  -6.454  16.933  1.00  0.00     0.031 C 
ATOM     44  C   UNL     1      -7.771  -1.024  12.697  1.00  0.00     0.029 A 
ATOM     45  C   UNL     1      -9.014  -1.411  13.357  1.00  0.00     0.049 A 
ATOM     46  H   UNL     1      -9.294  -2.943  14.739  1.00  0.00     0.167 HD
ATOM     47  C   UNL     1      -9.767  -6.307  17.503  1.00  0.00     0.037 A 
ATOM     48  C   UNL     1     -10.211  -0.823  13.174  1.00  0.00     0.037 A 
ATOM     49  C   UNL     1     -11.063  -5.685  17.440  1.00  0.00     0.049 A 
ATOM     50  C   UNL     1     -11.405  -1.337  13.928  1.00  0.00     0.074 A 
ATOM     51  C   UNL     1     -12.211  -6.013  18.140  1.00  0.00     0.029 A 
ATOM     52  N   UNL     1     -11.382  -4.607  16.629  1.00  0.00    -0.354 N 
ATOM     53  N   UNL     1     -11.477  -2.321  14.790  1.00  0.00    -0.248 NA
ATOM     54  C   UNL     1     -12.684  -0.654  13.686  1.00  0.00     0.031 C 
ATOM     55  C   UNL     1     -13.237  -5.159  17.720  1.00  0.00     0.029 A 
ATOM     56  C   UNL     1     -12.716  -4.272  16.792  1.00  0.00     0.049 A 
ATOM     57  H   UNL     1     -10.753  -4.148  16.026  1.00  0.00     0.167 HD
ATOM     58  C   UNL     1     -12.799  -2.358  15.216  1.00  0.00     0.074 A 
ATOM     59  C   UNL     1     -13.490  -1.290  14.524  1.00  0.00     0.031 C 
ATOM     60  C   UNL     1     -13.386  -3.200  16.101  1.00  0.00     0.037 A 
BRANCH  47  61
ATOM     61  C   UNL     1      -9.603  -7.531  18.356  1.00  0.00     0.057 A 
ATOM     62  C   UNL     1      -8.873  -7.508  19.552  1.00  0.00     0.134 A 
ATOM     63  C   UNL     1     -10.206  -8.741  17.991  1.00  0.00     0.134 A 
ATOM     64  F   UNL     1      -8.259  -6.384  19.953  1.00  0.00    -0.206 F 
ATOM     65  C   UNL     1      -8.724  -8.652  20.338  1.00  0.00     0.040 A 
ATOM     66  C   UNL     1     -10.087  -9.884  18.783  1.00  0.00     0.040 A 
ATOM     67  F   UNL     1     -10.924  -8.831  16.861  1.00  0.00    -0.206 F 
ATOM     68  C   UNL     1      -9.338  -9.843  19.957  1.00  0.00     0.006 A 
ENDBRANCH  47  61
BRANCH  48  69
ATOM     69  C   UNL     1     -10.335   0.341  12.262  1.00  0.00     0.057 A 
ATOM     70  C   UNL     1     -10.560   1.627  12.768  1.00  0.00     0.134 A 
ATOM     71  C   UNL     1     -10.235   0.202  10.873  1.00  0.00     0.134 A 
ATOM     72  F   UNL     1     -10.684   1.819  14.089  1.00  0.00    -0.206 F 
ATOM     73  C   UNL     1     -10.699   2.731  11.925  1.00  0.00     0.040 A 
ATOM     74  C   UNL     1     -10.348   1.301  10.019  1.00  0.00     0.040 A 
ATOM     75  F   UNL     1     -10.013  -1.003  10.327  1.00  0.00    -0.206 F 
ATOM     76  C   UNL     1     -10.588   2.569  10.546  1.00  0.00     0.006 A 
ENDBRANCH  48  69
BRANCH  60  77
ATOM     77  C   UNL     1     -14.839  -2.976  16.398  1.00  0.00     0.057 A 
ATOM     78  C   UNL     1     -15.841  -3.304  15.477  1.00  0.00     0.134 A 
ATOM     79  C   UNL     1     -15.240  -2.461  17.637  1.00  0.00     0.134 A 
ATOM     80  F   UNL     1     -15.520  -3.788  14.268  1.00  0.00    -0.206 F 
ATOM     81  C   UNL     1     -17.191  -3.108  15.770  1.00  0.00     0.040 A 
ATOM     82  C   UNL     1     -16.588  -2.284  17.951  1.00  0.00     0.040 A 
ATOM     83  F   UNL     1     -14.330  -2.135  18.567  1.00  0.00    -0.206 F 
ATOM     84  C   UNL     1     -17.568  -2.603  17.014  1.00  0.00     0.006 A 
ENDBRANCH  60  77
ENDBRANCH  34  35
ENDBRANCH  26  29
ENDBRANCH  24  25
ENDBRANCH  23  24
ENDBRANCH   1  23
TORSDOF 14
