REMARK SMILES C[C@H]1[C@@H](C(=O)NCCCNC(=O)c2ccc(-c3c4nc(c(-c5c(F)cccc5F)c5ccc([nH]5)c(-c5c(F)cccc5F)c5nc(c(-c6c(F)cccc6F)c6ccc3[nH]6)C=C5)C=C4)cc2)CC[N@@H+]1CC(F)(F)F
REMARK SMILES IDX 8 1 7 2 6 3 4 4 5 5 3 7 1 8 2 9 69 10 67 11 68 12 70 14
REMARK SMILES IDX 71 15 72 16 73 17 74 18 9 19 10 20 11 21 12 23 13 24 14 25
REMARK SMILES IDX 66 26 15 27 65 28 16 29 17 30 18 31 59 32 19 33 64 34 58 35
REMARK SMILES IDX 60 36 20 37 63 38 57 39 56 40 21 42 47 43 30 44 46 45 31 46
REMARK SMILES IDX 34 47 45 48 61 49 32 50 33 51 44 53 62 54 35 55 22 56 23 57
REMARK SMILES IDX 28 58 24 59 25 60 27 61 29 62 26 63 48 64 49 65 54 66 50 67
REMARK SMILES IDX 51 68 53 69 55 70 52 71 36 72 37 73 42 74 38 75 39 76 41 77
REMARK SMILES IDX 43 78 40 79
REMARK H PARENT 6 6 69 13 10 22 60 41 34 52
REMARK Flexibility Score: inf
ROOT
ATOM      1  C   UNL     1       3.850   0.774  -1.603  1.00  0.00     0.042 C 
ENDROOT
BRANCH   1   2
ATOM      2  C   UNL     1       2.900   1.812  -1.000  1.00  0.00     0.117 C 
BRANCH   2   3
ATOM      3  N   UNL     1       1.645   1.816  -1.730  1.00  0.00    -0.356 N 
ATOM      4  C   UNL     1       0.429   1.289  -1.421  1.00  0.00     0.229 C 
ATOM      5  O   UNL     1      -0.375   1.192  -2.351  1.00  0.00    -0.275 OA
ATOM      6  H   UNL     1       1.680   2.280  -2.597  1.00  0.00     0.163 HD
BRANCH   4   7
ATOM      7  C   UNL     1       0.060   0.959   0.025  1.00  0.00     0.142 C 
ATOM      8  C   UNL     1       1.587  -1.187  -0.021  1.00  0.00     0.076 C 
ATOM      9  C   UNL     1       0.456  -0.405   0.622  1.00  0.00     0.193 C 
ATOM     10  N   UNL     1      -0.742  -1.274   0.605  1.00  0.00    -0.325 N 
ATOM     11  C   UNL     1      -1.468   0.939   0.168  1.00  0.00     0.081 C 
ATOM     12  C   UNL     1      -1.820  -0.522  -0.040  1.00  0.00     0.263 C 
ATOM     13  H   UNL     1      -0.554  -2.119   0.065  1.00  0.00     0.348 HD
BRANCH  10  14
ATOM     14  C   UNL     1      -1.096  -1.803   1.947  1.00  0.00     0.379 C 
BRANCH  14  15
ATOM     15  C   UNL     1      -1.659  -0.885   3.053  1.00  0.00     0.438 C 
ATOM     16  F   UNL     1      -2.886  -0.414   2.739  1.00  0.00    -0.165 F 
ATOM     17  F   UNL     1      -1.774  -1.565   4.217  1.00  0.00    -0.165 F 
ATOM     18  F   UNL     1      -0.856   0.178   3.288  1.00  0.00    -0.165 F 
ENDBRANCH  14  15
ENDBRANCH  10  14
ENDBRANCH   4   7
ENDBRANCH   2   3
ENDBRANCH   1   2
BRANCH   1  19
ATOM     19  C   UNL     1       4.361   1.137  -2.993  1.00  0.00     0.118 C 
BRANCH  19  20
ATOM     20  N   UNL     1       5.620   1.855  -2.938  1.00  0.00    -0.352 N 
ATOM     21  C   UNL     1       6.888   1.442  -3.261  1.00  0.00     0.251 C 
ATOM     22  H   UNL     1       5.554   2.784  -2.619  1.00  0.00     0.163 HD
ATOM     23  O   UNL     1       7.843   2.139  -2.915  1.00  0.00    -0.269 OA
BRANCH  21  24
ATOM     24  C   UNL     1       7.141   0.180  -4.001  1.00  0.00     0.039 A 
ATOM     25  C   UNL     1       8.292  -0.552  -3.688  1.00  0.00     0.014 A 
ATOM     26  C   UNL     1       6.322  -0.254  -5.048  1.00  0.00     0.014 A 
ATOM     27  C   UNL     1       8.602  -1.718  -4.397  1.00  0.00     0.010 A 
ATOM     28  C   UNL     1       6.584  -1.463  -5.696  1.00  0.00     0.010 A 
ATOM     29  C   UNL     1       7.741  -2.195  -5.398  1.00  0.00    -0.014 A 
BRANCH  29  30
ATOM     30  C   UNL     1       8.071  -3.425  -6.169  1.00  0.00     0.031 A 
ATOM     31  C   UNL     1       8.335  -3.346  -7.651  1.00  0.00     0.074 A 
ATOM     32  C   UNL     1       8.109  -4.620  -5.549  1.00  0.00     0.049 A 
ATOM     33  N   UNL     1       8.608  -4.309  -8.496  1.00  0.00    -0.248 NA
ATOM     34  C   UNL     1       8.254  -2.014  -8.270  1.00  0.00     0.031 C 
ATOM     35  C   UNL     1       7.825  -4.848  -4.131  1.00  0.00     0.029 A 
ATOM     36  N   UNL     1       8.399  -5.871  -6.035  1.00  0.00    -0.354 N 
ATOM     37  C   UNL     1       8.712  -3.703  -9.742  1.00  0.00     0.074 A 
ATOM     38  C   UNL     1       8.423  -2.299  -9.552  1.00  0.00     0.031 C 
ATOM     39  C   UNL     1       7.980  -6.154  -3.857  1.00  0.00     0.029 A 
ATOM     40  C   UNL     1       8.347  -6.858  -5.082  1.00  0.00     0.049 A 
ATOM     41  H   UNL     1       8.623  -6.043  -6.978  1.00  0.00     0.167 HD
ATOM     42  C   UNL     1       9.043  -4.257 -10.933  1.00  0.00     0.037 A 
ATOM     43  C   UNL     1       8.572  -8.182  -5.181  1.00  0.00     0.037 A 
ATOM     44  C   UNL     1       9.369  -5.646 -11.123  1.00  0.00     0.049 A 
ATOM     45  C   UNL     1       8.970  -8.769  -6.506  1.00  0.00     0.074 A 
ATOM     46  C   UNL     1       9.772  -6.288 -12.281  1.00  0.00     0.029 A 
ATOM     47  N   UNL     1       9.335  -6.606 -10.124  1.00  0.00    -0.354 N 
ATOM     48  N   UNL     1       9.119  -8.171  -7.663  1.00  0.00    -0.248 NA
ATOM     49  C   UNL     1       9.242 -10.213  -6.536  1.00  0.00     0.031 C 
ATOM     50  C   UNL     1       9.956  -7.644 -11.989  1.00  0.00     0.029 A 
ATOM     51  C   UNL     1       9.700  -7.839 -10.641  1.00  0.00     0.049 A 
ATOM     52  H   UNL     1       9.088  -6.438  -9.186  1.00  0.00     0.167 HD
ATOM     53  C   UNL     1       9.517  -9.160  -8.553  1.00  0.00     0.074 A 
ATOM     54  C   UNL     1       9.605 -10.393  -7.798  1.00  0.00     0.031 C 
ATOM     55  C   UNL     1       9.783  -9.056  -9.878  1.00  0.00     0.037 A 
BRANCH  42  56
ATOM     56  C   UNL     1       9.081  -3.348 -12.127  1.00  0.00     0.057 A 
ATOM     57  C   UNL     1      10.092  -2.393 -12.294  1.00  0.00     0.134 A 
ATOM     58  C   UNL     1       8.110  -3.443 -13.132  1.00  0.00     0.134 A 
ATOM     59  F   UNL     1      11.045  -2.242 -11.362  1.00  0.00    -0.206 F 
ATOM     60  C   UNL     1      10.121  -1.545 -13.403  1.00  0.00     0.040 A 
ATOM     61  C   UNL     1       8.142  -2.618 -14.258  1.00  0.00     0.040 A 
ATOM     62  F   UNL     1       7.117  -4.341 -13.038  1.00  0.00    -0.206 F 
ATOM     63  C   UNL     1       9.146  -1.661 -14.392  1.00  0.00     0.006 A 
ENDBRANCH  42  56
BRANCH  43  64
ATOM     64  C   UNL     1       8.456  -9.042  -3.978  1.00  0.00     0.057 A 
ATOM     65  C   UNL     1       9.593  -9.570  -3.357  1.00  0.00     0.134 A 
ATOM     66  C   UNL     1       7.210  -9.352  -3.421  1.00  0.00     0.134 A 
ATOM     67  F   UNL     1      10.812  -9.323  -3.858  1.00  0.00    -0.206 F 
ATOM     68  C   UNL     1       9.496 -10.389  -2.231  1.00  0.00     0.040 A 
ATOM     69  C   UNL     1       7.100 -10.153  -2.283  1.00  0.00     0.040 A 
ATOM     70  F   UNL     1       6.085  -8.871  -3.967  1.00  0.00    -0.206 F 
ATOM     71  C   UNL     1       8.246 -10.678  -1.688  1.00  0.00     0.006 A 
ENDBRANCH  43  64
BRANCH  55  72
ATOM     72  C   UNL     1      10.212 -10.305 -10.588  1.00  0.00     0.057 A 
ATOM     73  C   UNL     1       9.304 -11.325 -10.896  1.00  0.00     0.134 A 
ATOM     74  C   UNL     1      11.543 -10.478 -10.990  1.00  0.00     0.134 A 
ATOM     75  F   UNL     1       8.018 -11.225 -10.526  1.00  0.00    -0.206 F 
ATOM     76  C   UNL     1       9.708 -12.484 -11.561  1.00  0.00     0.040 A 
ATOM     77  C   UNL     1      11.954 -11.622 -11.674  1.00  0.00     0.040 A 
ATOM     78  F   UNL     1      12.461  -9.535 -10.730  1.00  0.00    -0.206 F 
ATOM     79  C   UNL     1      11.036 -12.632 -11.956  1.00  0.00     0.006 A 
ENDBRANCH  55  72
ENDBRANCH  29  30
ENDBRANCH  21  24
ENDBRANCH  19  20
ENDBRANCH   1  19
TORSDOF 12
