REMARK SMILES [NH3+][C@@]1(C(=O)NCCCNC(=O)c2ccc(-c3c4nc(c(-c5c(F)cccc5F)c5ccc([nH]5)c(-c5c(F)cccc5F)c5nc(c(-c6c(F)cccc6F)c6ccc3[nH]6)C=C5)C=C4)cc2)CC[C@H](SC2CCOCC2)C1
REMARK SMILES IDX 7 1 6 2 5 3 3 4 4 5 2 7 66 8 76 9 67 10 68 11 1 12 69 16
REMARK SMILES IDX 70 17 71 18 75 19 72 20 74 21 73 22 8 23 9 24 10 25 11 27
REMARK SMILES IDX 12 28 13 29 65 30 14 31 64 32 15 33 16 34 17 35 58 36 18 37
REMARK SMILES IDX 63 38 57 39 59 40 19 41 62 42 56 43 55 44 20 46 46 47 29 48
REMARK SMILES IDX 45 49 30 50 33 51 44 52 60 53 31 54 32 55 43 57 61 58 34 59
REMARK SMILES IDX 21 60 22 61 27 62 23 63 24 64 26 65 28 66 25 67 47 68 48 69
REMARK SMILES IDX 53 70 49 71 50 72 52 73 54 74 51 75 35 76 36 77 41 78 37 79
REMARK SMILES IDX 38 80 40 81 42 82 39 83
REMARK H PARENT 5 6 1 13 1 14 1 15 9 26 59 45 33 56
REMARK Flexibility Score: inf
ROOT
ATOM      1  C   UNL     1      -3.107  -3.485   0.087  1.00  0.00     0.042 C 
ENDROOT
BRANCH   1   2
ATOM      2  C   UNL     1      -1.843  -3.241  -0.720  1.00  0.00     0.118 C 
BRANCH   2   3
ATOM      3  N   UNL     1      -1.600  -1.848  -0.981  1.00  0.00    -0.351 N 
ATOM      4  C   UNL     1      -0.578  -1.033  -0.615  1.00  0.00     0.281 C 
ATOM      5  O   UNL     1      -0.760   0.167  -0.874  1.00  0.00    -0.268 OA
ATOM      6  H   UNL     1      -2.297  -1.408  -1.519  1.00  0.00     0.163 HD
BRANCH   4   7
ATOM      7  C   UNL     1       0.744  -1.494   0.138  1.00  0.00     0.175 C 
ATOM      8  C   UNL     1       1.532  -2.632  -0.505  1.00  0.00     0.080 C 
ATOM      9  C   UNL     1       0.496  -1.926   1.590  1.00  0.00     0.093 C 
ATOM     10  C   UNL     1       1.300  -3.886   0.335  1.00  0.00     0.022 C 
ATOM     11  C   UNL     1       0.808  -3.443   1.713  1.00  0.00     0.054 C 
BRANCH   7  12
ATOM     12  N   UNL     1       1.645  -0.308   0.102  1.00  0.00    -0.345 N 
ATOM     13  H   UNL     1       1.803  -0.030  -0.867  1.00  0.00     0.345 HD
ATOM     14  H   UNL     1       2.537  -0.546   0.537  1.00  0.00     0.345 HD
ATOM     15  H   UNL     1       1.214   0.463   0.611  1.00  0.00     0.345 HD
ENDBRANCH   7  12
BRANCH  11  16
ATOM     16  S   UNL     1      -0.674  -4.203   2.514  1.00  0.00    -0.155 SA
BRANCH  16  17
ATOM     17  C   UNL     1      -0.659  -6.018   2.246  1.00  0.00     0.051 C 
ATOM     18  C   UNL     1       0.385  -6.751   3.080  1.00  0.00     0.043 C 
ATOM     19  C   UNL     1      -0.669  -6.536   0.810  1.00  0.00     0.043 C 
ATOM     20  C   UNL     1       0.162  -8.258   2.942  1.00  0.00     0.161 C 
ATOM     21  C   UNL     1      -0.867  -8.046   0.812  1.00  0.00     0.161 C 
ATOM     22  O   UNL     1       0.171  -8.663   1.573  1.00  0.00    -0.381 OA
ENDBRANCH  16  17
ENDBRANCH  11  16
ENDBRANCH   4   7
ENDBRANCH   2   3
ENDBRANCH   1   2
BRANCH   1  23
ATOM     23  C   UNL     1      -4.351  -3.580  -0.774  1.00  0.00     0.118 C 
BRANCH  23  24
ATOM     24  N   UNL     1      -4.329  -4.752  -1.647  1.00  0.00    -0.352 N 
ATOM     25  C   UNL     1      -4.941  -5.981  -1.566  1.00  0.00     0.251 C 
ATOM     26  H   UNL     1      -3.769  -4.640  -2.449  1.00  0.00     0.163 HD
ATOM     27  O   UNL     1      -4.561  -6.879  -2.311  1.00  0.00    -0.269 OA
BRANCH  25  28
ATOM     28  C   UNL     1      -6.019  -6.250  -0.587  1.00  0.00     0.039 A 
ATOM     29  C   UNL     1      -6.181  -7.548  -0.089  1.00  0.00     0.014 A 
ATOM     30  C   UNL     1      -6.902  -5.253  -0.181  1.00  0.00     0.014 A 
ATOM     31  C   UNL     1      -7.166  -7.813   0.869  1.00  0.00     0.010 A 
ATOM     32  C   UNL     1      -7.777  -5.480   0.873  1.00  0.00     0.010 A 
ATOM     33  C   UNL     1      -7.938  -6.768   1.398  1.00  0.00    -0.014 A 
BRANCH  33  34
ATOM     34  C   UNL     1      -8.942  -6.989   2.472  1.00  0.00     0.031 A 
ATOM     35  C   UNL     1     -10.382  -6.598   2.248  1.00  0.00     0.074 A 
ATOM     36  C   UNL     1      -8.549  -7.459   3.672  1.00  0.00     0.049 A 
ATOM     37  N   UNL     1     -11.381  -6.594   3.094  1.00  0.00    -0.248 NA
ATOM     38  C   UNL     1     -10.738  -6.106   0.905  1.00  0.00     0.031 C 
ATOM     39  C   UNL     1      -7.176  -7.820   4.036  1.00  0.00     0.029 A 
ATOM     40  N   UNL     1      -9.267  -7.703   4.815  1.00  0.00    -0.354 N 
ATOM     41  C   UNL     1     -12.466  -6.079   2.395  1.00  0.00     0.074 A 
ATOM     42  C   UNL     1     -11.990  -5.713   1.081  1.00  0.00     0.031 C 
ATOM     43  C   UNL     1      -7.159  -8.274   5.299  1.00  0.00     0.029 A 
ATOM     44  C   UNL     1      -8.506  -8.188   5.852  1.00  0.00     0.049 A 
ATOM     45  H   UNL     1     -10.236  -7.546   4.886  1.00  0.00     0.167 HD
ATOM     46  C   UNL     1     -13.753  -5.954   2.796  1.00  0.00     0.037 A 
ATOM     47  C   UNL     1      -8.854  -8.518   7.110  1.00  0.00     0.037 A 
ATOM     48  C   UNL     1     -14.233  -6.358   4.091  1.00  0.00     0.049 A 
ATOM     49  C   UNL     1     -10.290  -8.366   7.533  1.00  0.00     0.074 A 
ATOM     50  C   UNL     1     -15.527  -6.329   4.578  1.00  0.00     0.029 A 
ATOM     51  N   UNL     1     -13.434  -6.870   5.102  1.00  0.00    -0.354 N 
ATOM     52  N   UNL     1     -11.317  -7.937   6.839  1.00  0.00    -0.248 NA
ATOM     53  C   UNL     1     -10.617  -8.751   8.913  1.00  0.00     0.031 C 
ATOM     54  C   UNL     1     -15.505  -6.783   5.900  1.00  0.00     0.029 A 
ATOM     55  C   UNL     1     -14.206  -7.146   6.218  1.00  0.00     0.049 A 
ATOM     56  H   UNL     1     -12.463  -7.017   5.036  1.00  0.00     0.167 HD
ATOM     57  C   UNL     1     -12.414  -8.034   7.685  1.00  0.00     0.074 A 
ATOM     58  C   UNL     1     -11.930  -8.576   8.937  1.00  0.00     0.031 C 
ATOM     59  C   UNL     1     -13.707  -7.702   7.449  1.00  0.00     0.037 A 
BRANCH  46  60
ATOM     60  C   UNL     1     -14.735  -5.375   1.818  1.00  0.00     0.057 A 
ATOM     61  C   UNL     1     -15.121  -6.066   0.661  1.00  0.00     0.134 A 
ATOM     62  C   UNL     1     -15.329  -4.128   2.050  1.00  0.00     0.134 A 
ATOM     63  F   UNL     1     -14.580  -7.259   0.369  1.00  0.00    -0.206 F 
ATOM     64  C   UNL     1     -16.039  -5.527  -0.242  1.00  0.00     0.040 A 
ATOM     65  C   UNL     1     -16.272  -3.593   1.171  1.00  0.00     0.040 A 
ATOM     66  F   UNL     1     -15.011  -3.413   3.140  1.00  0.00    -0.206 F 
ATOM     67  C   UNL     1     -16.625  -4.290   0.017  1.00  0.00     0.006 A 
ENDBRANCH  46  60
BRANCH  47  68
ATOM     68  C   UNL     1      -7.838  -9.046   8.057  1.00  0.00     0.057 A 
ATOM     69  C   UNL     1      -7.887 -10.374   8.499  1.00  0.00     0.134 A 
ATOM     70  C   UNL     1      -6.813  -8.238   8.563  1.00  0.00     0.134 A 
ATOM     71  F   UNL     1      -8.855 -11.194   8.064  1.00  0.00    -0.206 F 
ATOM     72  C   UNL     1      -6.975 -10.870   9.431  1.00  0.00     0.040 A 
ATOM     73  C   UNL     1      -5.876  -8.729   9.474  1.00  0.00     0.040 A 
ATOM     74  F   UNL     1      -6.702  -6.959   8.173  1.00  0.00    -0.206 F 
ATOM     75  C   UNL     1      -5.962 -10.047   9.919  1.00  0.00     0.006 A 
ENDBRANCH  47  68
BRANCH  59  76
ATOM     76  C   UNL     1     -14.695  -7.964   8.548  1.00  0.00     0.057 A 
ATOM     77  C   UNL     1     -14.721  -7.200   9.721  1.00  0.00     0.134 A 
ATOM     78  C   UNL     1     -15.659  -8.971   8.409  1.00  0.00     0.134 A 
ATOM     79  F   UNL     1     -13.817  -6.228   9.920  1.00  0.00    -0.206 F 
ATOM     80  C   UNL     1     -15.653  -7.446  10.730  1.00  0.00     0.040 A 
ATOM     81  C   UNL     1     -16.615  -9.206   9.397  1.00  0.00     0.040 A 
ATOM     82  F   UNL     1     -15.697  -9.732   7.305  1.00  0.00    -0.206 F 
ATOM     83  C   UNL     1     -16.609  -8.447  10.565  1.00  0.00     0.006 A 
ENDBRANCH  59  76
ENDBRANCH  33  34
ENDBRANCH  25  28
ENDBRANCH  23  24
ENDBRANCH   1  23
TORSDOF 13
