REMARK SMILES O=C(NCCCNC(=O)c1cccc2c1N[C@H](c1ccccc1Br)[C@H]1CC=C[C@H]21)c1ccc(-c2c3nc(c(-c4c(F)cccc4F)c4ccc([nH]4)c(-c4c(F)cccc4F)c4nc(c(-c5c(F)cccc5F)c5ccc2[nH]5)C=C4)C=C3)cc1
REMARK SMILES IDX 4 1 3 2 1 3 2 4 30 6 31 7 83 8 32 9 82 10 33 11 34 12 35 13
REMARK SMILES IDX 76 14 36 15 81 16 75 17 77 18 37 19 80 20 74 21 73 22 38 24
REMARK SMILES IDX 64 25 47 26 63 27 48 28 51 29 62 30 78 31 49 32 50 33 61 35
REMARK SMILES IDX 79 36 52 37 39 38 40 39 45 40 41 41 42 42 44 43 46 44 43 45
REMARK SMILES IDX 65 46 66 47 71 48 67 49 68 50 70 51 72 52 69 53 53 54 54 55
REMARK SMILES IDX 59 56 55 57 56 58 58 59 60 60 57 61 5 62 6 63 7 64 8 65 9 67
REMARK SMILES IDX 10 68 11 69 15 70 12 71 14 72 16 73 13 74 29 75 17 76 25 78
REMARK SMILES IDX 28 79 26 80 27 81 18 82 19 83 23 84 20 85 22 86 24 87 21 88
REMARK H PARENT 3 5 77 23 51 34 7 66 16 77
REMARK Flexibility Score: inf
ROOT
ATOM      1  C   UNL     1       4.637   0.787   0.758  1.00  0.00     0.118 C 
ENDROOT
BRANCH   1   2
ATOM      2  N   UNL     1       3.182   0.738   0.699  1.00  0.00    -0.352 N 
ATOM      3  O   UNL     1       1.142   0.194  -0.082  1.00  0.00    -0.269 OA
ATOM      4  C   UNL     1       2.348  -0.029  -0.076  1.00  0.00     0.251 C 
ATOM      5  H   UNL     1       2.722   1.355   1.314  1.00  0.00     0.163 HD
BRANCH   4   6
ATOM      6  C   UNL     1       2.897  -1.114  -0.918  1.00  0.00     0.039 A 
ATOM      7  C   UNL     1       2.362  -1.310  -2.195  1.00  0.00     0.014 A 
ATOM      8  C   UNL     1       3.903  -1.960  -0.447  1.00  0.00     0.014 A 
ATOM      9  C   UNL     1       2.868  -2.322  -3.014  1.00  0.00     0.010 A 
ATOM     10  C   UNL     1       4.472  -2.902  -1.295  1.00  0.00     0.010 A 
ATOM     11  C   UNL     1       3.941  -3.111  -2.576  1.00  0.00    -0.014 A 
BRANCH  11  12
ATOM     12  C   UNL     1       4.481  -4.219  -3.401  1.00  0.00     0.031 A 
ATOM     13  C   UNL     1       4.374  -5.632  -2.897  1.00  0.00     0.074 A 
ATOM     14  C   UNL     1       5.128  -3.958  -4.551  1.00  0.00     0.049 A 
ATOM     15  N   UNL     1       4.894  -6.729  -3.383  1.00  0.00    -0.248 NA
ATOM     16  C   UNL     1       3.606  -5.828  -1.657  1.00  0.00     0.031 C 
ATOM     17  C   UNL     1       5.328  -2.629  -5.129  1.00  0.00     0.029 A 
ATOM     18  N   UNL     1       5.758  -4.803  -5.428  1.00  0.00    -0.354 N 
ATOM     19  C   UNL     1       4.540  -7.737  -2.494  1.00  0.00     0.074 A 
ATOM     20  C   UNL     1       3.812  -7.112  -1.412  1.00  0.00     0.031 C 
ATOM     21  C   UNL     1       6.027  -2.749  -6.269  1.00  0.00     0.029 A 
ATOM     22  C   UNL     1       6.359  -4.155  -6.478  1.00  0.00     0.049 A 
ATOM     23  H   UNL     1       5.776  -5.781  -5.316  1.00  0.00     0.167 HD
ATOM     24  C   UNL     1       4.780  -9.067  -2.581  1.00  0.00     0.037 A 
ATOM     25  C   UNL     1       7.113  -4.640  -7.482  1.00  0.00     0.037 A 
ATOM     26  C   UNL     1       5.478  -9.688  -3.674  1.00  0.00     0.049 A 
ATOM     27  C   UNL     1       7.389  -6.115  -7.550  1.00  0.00     0.074 A 
ATOM     28  C   UNL     1       5.702 -11.034  -3.905  1.00  0.00     0.029 A 
ATOM     29  N   UNL     1       6.075  -8.997  -4.719  1.00  0.00    -0.354 N 
ATOM     30  N   UNL     1       6.996  -7.068  -6.739  1.00  0.00    -0.248 NA
ATOM     31  C   UNL     1       8.217  -6.582  -8.670  1.00  0.00     0.031 C 
ATOM     32  C   UNL     1       6.476 -11.154  -5.066  1.00  0.00     0.029 A 
ATOM     33  C   UNL     1       6.699  -9.886  -5.579  1.00  0.00     0.049 A 
ATOM     34  H   UNL     1       6.057  -8.020  -4.832  1.00  0.00     0.167 HD
ATOM     35  C   UNL     1       7.528  -8.245  -7.248  1.00  0.00     0.074 A 
ATOM     36  C   UNL     1       8.247  -7.890  -8.455  1.00  0.00     0.031 C 
ATOM     37  C   UNL     1       7.435  -9.507  -6.759  1.00  0.00     0.037 A 
BRANCH  24  38
ATOM     38  C   UNL     1       4.286  -9.922  -1.451  1.00  0.00     0.057 A 
ATOM     39  C   UNL     1       5.188 -10.520  -0.561  1.00  0.00     0.134 A 
ATOM     40  C   UNL     1       2.918 -10.134  -1.221  1.00  0.00     0.134 A 
ATOM     41  F   UNL     1       6.510 -10.363  -0.724  1.00  0.00    -0.206 F 
ATOM     42  C   UNL     1       4.748 -11.281   0.523  1.00  0.00     0.040 A 
ATOM     43  C   UNL     1       2.466 -10.867  -0.123  1.00  0.00     0.040 A 
ATOM     44  F   UNL     1       2.000  -9.576  -2.026  1.00  0.00    -0.206 F 
ATOM     45  C   UNL     1       3.383 -11.445   0.752  1.00  0.00     0.006 A 
ENDBRANCH  24  38
BRANCH  25  46
ATOM     46  C   UNL     1       7.668  -3.712  -8.498  1.00  0.00     0.057 A 
ATOM     47  C   UNL     1       8.703  -2.822  -8.185  1.00  0.00     0.134 A 
ATOM     48  C   UNL     1       7.163  -3.683  -9.802  1.00  0.00     0.134 A 
ATOM     49  F   UNL     1       9.227  -2.799  -6.950  1.00  0.00    -0.206 F 
ATOM     50  C   UNL     1       9.206  -1.926  -9.129  1.00  0.00     0.040 A 
ATOM     51  C   UNL     1       7.671  -2.807 -10.762  1.00  0.00     0.040 A 
ATOM     52  F   UNL     1       6.186  -4.526 -10.165  1.00  0.00    -0.206 F 
ATOM     53  C   UNL     1       8.691  -1.920 -10.424  1.00  0.00     0.006 A 
ENDBRANCH  25  46
BRANCH  37  54
ATOM     54  C   UNL     1       8.145 -10.584  -7.524  1.00  0.00     0.057 A 
ATOM     55  C   UNL     1       7.430 -11.527  -8.272  1.00  0.00     0.134 A 
ATOM     56  C   UNL     1       9.541 -10.699  -7.500  1.00  0.00     0.134 A 
ATOM     57  F   UNL     1       6.090 -11.476  -8.332  1.00  0.00    -0.206 F 
ATOM     58  C   UNL     1       8.078 -12.549  -8.967  1.00  0.00     0.040 A 
ATOM     59  C   UNL     1      10.202 -11.702  -8.211  1.00  0.00     0.040 A 
ATOM     60  F   UNL     1      10.284  -9.817  -6.815  1.00  0.00    -0.206 F 
ATOM     61  C   UNL     1       9.469 -12.634  -8.943  1.00  0.00     0.006 A 
ENDBRANCH  37  54
ENDBRANCH  11  12
ENDBRANCH   4   6
ENDBRANCH   1   2
BRANCH   1  62
ATOM     62  C   UNL     1       5.207   2.141   0.370  1.00  0.00     0.042 C 
BRANCH  62  63
ATOM     63  C   UNL     1       4.731   3.287   1.242  1.00  0.00     0.118 C 
BRANCH  63  64
ATOM     64  N   UNL     1       5.061   3.115   2.647  1.00  0.00    -0.352 N 
ATOM     65  C   UNL     1       5.698   3.986   3.494  1.00  0.00     0.253 C 
ATOM     66  H   UNL     1       4.791   2.256   3.045  1.00  0.00     0.163 HD
ATOM     67  O   UNL     1       5.972   3.625   4.636  1.00  0.00    -0.269 OA
BRANCH  65  68
ATOM     68  C   UNL     1       6.087   5.339   3.036  1.00  0.00     0.063 A 
ATOM     69  C   UNL     1       7.435   5.683   3.221  1.00  0.00     0.016 A 
ATOM     70  C   UNL     1       5.173   6.258   2.478  1.00  0.00     0.051 A 
ATOM     71  C   UNL     1       7.900   6.930   2.819  1.00  0.00     0.001 A 
ATOM     72  C   UNL     1       5.669   7.519   2.066  1.00  0.00    -0.017 A 
ATOM     73  N   UNL     1       3.833   5.935   2.263  1.00  0.00    -0.377 N 
ATOM     74  C   UNL     1       7.021   7.847   2.247  1.00  0.00     0.006 A 
ATOM     75  C   UNL     1       4.651   8.492   1.542  1.00  0.00     0.049 C 
ATOM     76  C   UNL     1       2.914   6.695   1.400  1.00  0.00     0.115 C 
ATOM     77  H   UNL     1       3.476   5.140   2.722  1.00  0.00     0.161 HD
ATOM     78  C   UNL     1       3.709   7.722   0.603  1.00  0.00     0.031 C 
ATOM     79  C   UNL     1       5.034   9.623   0.633  1.00  0.00    -0.023 C 
ATOM     80  C   UNL     1       2.953   8.834  -0.118  1.00  0.00     0.034 C 
ATOM     81  C   UNL     1       4.062   9.838  -0.268  1.00  0.00    -0.030 C 
BRANCH  76  82
ATOM     82  C   UNL     1       1.989   5.697   0.686  1.00  0.00    -0.011 A 
ATOM     83  C   UNL     1       1.039   5.062   1.534  1.00  0.00     0.007 A 
ATOM     84  C   UNL     1       1.978   5.295  -0.666  1.00  0.00     0.023 A 
ATOM     85  C   UNL     1       0.126   4.112   1.068  1.00  0.00     0.000 A 
ATOM     86  C   UNL     1       1.021   4.372  -1.135  1.00  0.00     0.016 A 
ATOM     87  Br  UNL     1       3.227   5.794  -2.009  1.00  0.00    -0.050 Br
ATOM     88  C   UNL     1       0.104   3.781  -0.276  1.00  0.00     0.001 A 
ENDBRANCH  76  82
ENDBRANCH  65  68
ENDBRANCH  63  64
ENDBRANCH  62  63
ENDBRANCH   1  62
TORSDOF 11
