REMARK SMILES CCn1c(N2CCC(C(=O)NCCCNC(=O)c3ccc(-c4c5nc(c(-c6c(F)cccc6F)c6ccc([nH]6)c(-c6c(F)cccc6F)c6nc(c(-c7c(F)cccc7F)c7ccc4[nH]7)C=C6)C=C5)cc3)CC2)nc2cc(C)ccc21
REMARK SMILES IDX 13 1 12 2 11 3 9 4 10 5 8 7 5 8 6 9 73 10 7 11 72 12 4 13
REMARK SMILES IDX 3 14 81 15 74 16 75 17 80 18 76 19 79 20 77 21 78 22 2 23
REMARK SMILES IDX 1 24 14 25 15 26 16 27 17 29 18 30 19 31 71 32 20 33 70 34
REMARK SMILES IDX 21 35 22 36 23 37 64 38 24 39 69 40 63 41 65 42 25 43 68 44
REMARK SMILES IDX 62 45 61 46 26 48 52 49 35 50 51 51 36 52 39 53 50 54 66 55
REMARK SMILES IDX 37 56 38 57 49 59 67 60 40 61 27 62 28 63 33 64 29 65 30 66
REMARK SMILES IDX 32 67 34 68 31 69 53 70 54 71 59 72 55 73 56 74 58 75 60 76
REMARK SMILES IDX 57 77 41 78 42 79 47 80 43 81 44 82 46 83 48 84 45 85
REMARK H PARENT 11 6 15 28 65 47 39 58
REMARK Flexibility Score: inf
ROOT
ATOM      1  C   UNL     1       4.834  -1.687  -7.316  1.00  0.00     0.042 C 
ENDROOT
BRANCH   1   2
ATOM      2  C   UNL     1       5.283  -0.640  -6.301  1.00  0.00     0.117 C 
BRANCH   2   3
ATOM      3  N   UNL     1       5.496   0.673  -6.891  1.00  0.00    -0.356 N 
ATOM      4  C   UNL     1       4.885   1.867  -6.672  1.00  0.00     0.223 C 
ATOM      5  O   UNL     1       5.318   2.847  -7.286  1.00  0.00    -0.275 OA
ATOM      6  H   UNL     1       6.210   0.701  -7.568  1.00  0.00     0.163 HD
BRANCH   4   7
ATOM      7  C   UNL     1       3.710   2.028  -5.718  1.00  0.00     0.082 C 
ATOM      8  N   UNL     1       1.826   0.977  -3.842  1.00  0.00    -0.342 N 
ATOM      9  C   UNL     1       1.353   1.310  -5.180  1.00  0.00     0.120 C 
ATOM     10  C   UNL     1       2.911   1.787  -3.309  1.00  0.00     0.120 C 
ATOM     11  C   UNL     1       2.488   1.233  -6.187  1.00  0.00     0.035 C 
ATOM     12  C   UNL     1       4.109   1.790  -4.255  1.00  0.00     0.035 C 
BRANCH   8  13
ATOM     13  C   UNL     1       1.609  -0.279  -3.384  1.00  0.00     0.206 A 
ATOM     14  N   UNL     1       0.997  -0.511  -2.169  1.00  0.00    -0.310 N 
ATOM     15  C   UNL     1       0.689  -1.852  -2.100  1.00  0.00     0.070 A 
ATOM     16  N   UNL     1       1.768  -1.397  -4.055  1.00  0.00    -0.213 NA
ATOM     17  C   UNL     1       1.201  -2.377  -3.282  1.00  0.00     0.091 A 
ATOM     18  C   UNL     1       0.002  -2.628  -1.160  1.00  0.00     0.029 A 
ATOM     19  C   UNL     1       1.046  -3.743  -3.551  1.00  0.00     0.034 A 
ATOM     20  C   UNL     1      -0.157  -3.985  -1.450  1.00  0.00     0.006 A 
ATOM     21  C   UNL     1       0.343  -4.540  -2.634  1.00  0.00    -0.049 A 
ATOM     22  C   UNL     1       0.132  -5.988  -2.939  1.00  0.00     0.044 C 
BRANCH  14  23
ATOM     23  C   UNL     1       0.545   0.485  -1.217  1.00  0.00     0.122 C 
ATOM     24  C   UNL     1       1.222   0.372   0.140  1.00  0.00     0.028 C 
ENDBRANCH  14  23
ENDBRANCH   8  13
ENDBRANCH   4   7
ENDBRANCH   2   3
ENDBRANCH   1   2
BRANCH   1  25
ATOM     25  C   UNL     1       5.881  -2.061  -8.364  1.00  0.00     0.118 C 
BRANCH  25  26
ATOM     26  N   UNL     1       7.148  -2.523  -7.826  1.00  0.00    -0.352 N 
ATOM     27  C   UNL     1       7.664  -3.732  -7.453  1.00  0.00     0.251 C 
ATOM     28  H   UNL     1       7.790  -1.788  -7.699  1.00  0.00     0.163 HD
ATOM     29  O   UNL     1       8.882  -3.747  -7.228  1.00  0.00    -0.269 OA
BRANCH  27  30
ATOM     30  C   UNL     1       6.893  -4.987  -7.235  1.00  0.00     0.039 A 
ATOM     31  C   UNL     1       5.522  -5.136  -7.418  1.00  0.00     0.014 A 
ATOM     32  C   UNL     1       7.622  -6.088  -6.735  1.00  0.00     0.014 A 
ATOM     33  C   UNL     1       4.888  -6.312  -7.018  1.00  0.00     0.010 A 
ATOM     34  C   UNL     1       6.997  -7.277  -6.359  1.00  0.00     0.010 A 
ATOM     35  C   UNL     1       5.617  -7.377  -6.463  1.00  0.00    -0.014 A 
BRANCH  35  36
ATOM     36  C   UNL     1       4.893  -8.625  -6.197  1.00  0.00     0.031 A 
ATOM     37  C   UNL     1       4.196  -9.144  -7.402  1.00  0.00     0.074 A 
ATOM     38  C   UNL     1       4.866  -9.322  -5.039  1.00  0.00     0.049 A 
ATOM     39  N   UNL     1       2.923  -9.136  -7.616  1.00  0.00    -0.248 NA
ATOM     40  C   UNL     1       4.995  -9.560  -8.564  1.00  0.00     0.031 C 
ATOM     41  C   UNL     1       5.706  -9.111  -3.860  1.00  0.00     0.029 A 
ATOM     42  N   UNL     1       4.127 -10.429  -4.695  1.00  0.00    -0.354 N 
ATOM     43  C   UNL     1       2.742  -9.772  -8.840  1.00  0.00     0.074 A 
ATOM     44  C   UNL     1       4.040  -9.843  -9.454  1.00  0.00     0.031 C 
ATOM     45  C   UNL     1       5.596 -10.178  -3.034  1.00  0.00     0.029 A 
ATOM     46  C   UNL     1       4.575 -11.080  -3.548  1.00  0.00     0.049 A 
ATOM     47  H   UNL     1       3.348 -10.735  -5.214  1.00  0.00     0.167 HD
ATOM     48  C   UNL     1       1.593 -10.466  -9.069  1.00  0.00     0.037 A 
ATOM     49  C   UNL     1       4.166 -12.278  -3.054  1.00  0.00     0.037 A 
ATOM     50  C   UNL     1       0.583 -10.105  -8.102  1.00  0.00     0.049 A 
ATOM     51  C   UNL     1       2.822 -12.581  -3.586  1.00  0.00     0.074 A 
ATOM     52  C   UNL     1      -0.266  -9.054  -7.838  1.00  0.00     0.029 A 
ATOM     53  N   UNL     1       0.663 -10.851  -6.962  1.00  0.00    -0.354 N 
ATOM     54  N   UNL     1       1.737 -11.990  -3.179  1.00  0.00    -0.248 NA
ATOM     55  C   UNL     1       2.678 -13.367  -4.806  1.00  0.00     0.031 C 
ATOM     56  C   UNL     1      -0.606  -9.150  -6.449  1.00  0.00     0.029 A 
ATOM     57  C   UNL     1       0.010 -10.277  -5.912  1.00  0.00     0.049 A 
ATOM     58  H   UNL     1       1.141 -11.710  -6.905  1.00  0.00     0.167 HD
ATOM     59  C   UNL     1       0.962 -11.905  -4.315  1.00  0.00     0.074 A 
ATOM     60  C   UNL     1       1.472 -12.948  -5.196  1.00  0.00     0.031 C 
ATOM     61  C   UNL     1       0.248 -10.768  -4.574  1.00  0.00     0.037 A 
BRANCH  48  62
ATOM     62  C   UNL     1       1.559 -11.854  -9.700  1.00  0.00     0.057 A 
ATOM     63  C   UNL     1       2.673 -12.713  -9.806  1.00  0.00     0.134 A 
ATOM     64  C   UNL     1       0.308 -12.489  -9.845  1.00  0.00     0.134 A 
ATOM     65  F   UNL     1       3.931 -12.290  -9.650  1.00  0.00    -0.206 F 
ATOM     66  C   UNL     1       2.553 -14.097  -9.975  1.00  0.00     0.040 A 
ATOM     67  C   UNL     1       0.178 -13.879  -9.972  1.00  0.00     0.040 A 
ATOM     68  F   UNL     1      -0.833 -11.787  -9.768  1.00  0.00    -0.206 F 
ATOM     69  C   UNL     1       1.303 -14.690 -10.020  1.00  0.00     0.006 A 
ENDBRANCH  48  62
BRANCH  49  70
ATOM     70  C   UNL     1       4.889 -13.284  -2.242  1.00  0.00     0.057 A 
ATOM     71  C   UNL     1       6.268 -13.485  -2.409  1.00  0.00     0.134 A 
ATOM     72  C   UNL     1       4.204 -14.275  -1.518  1.00  0.00     0.134 A 
ATOM     73  F   UNL     1       7.005 -12.631  -3.133  1.00  0.00    -0.206 F 
ATOM     74  C   UNL     1       6.921 -14.623  -1.923  1.00  0.00     0.040 A 
ATOM     75  C   UNL     1       4.845 -15.422  -1.031  1.00  0.00     0.040 A 
ATOM     76  F   UNL     1       2.880 -14.191  -1.325  1.00  0.00    -0.206 F 
ATOM     77  C   UNL     1       6.206 -15.606  -1.249  1.00  0.00     0.006 A 
ENDBRANCH  49  70
BRANCH  61  78
ATOM     78  C   UNL     1      -0.183  -9.971  -3.380  1.00  0.00     0.057 A 
ATOM     79  C   UNL     1      -1.553  -9.764  -3.179  1.00  0.00     0.134 A 
ATOM     80  C   UNL     1       0.684  -9.461  -2.401  1.00  0.00     0.134 A 
ATOM     81  F   UNL     1      -2.444 -10.169  -4.098  1.00  0.00    -0.206 F 
ATOM     82  C   UNL     1      -2.045  -9.142  -2.031  1.00  0.00     0.040 A 
ATOM     83  C   UNL     1       0.202  -8.896  -1.217  1.00  0.00     0.040 A 
ATOM     84  F   UNL     1       2.014  -9.466  -2.574  1.00  0.00    -0.206 F 
ATOM     85  C   UNL     1      -1.169  -8.742  -1.027  1.00  0.00     0.006 A 
ENDBRANCH  61  78
ENDBRANCH  35  36
ENDBRANCH  27  30
ENDBRANCH  25  26
ENDBRANCH   1  25
TORSDOF 12
