REMARK SMILES CCCC1(CCC)C[NH+]([C@H]2C=C[C@@H](C(=O)NCCCNC(=O)c3ccc(-c4c5nc(c(-c6c(F)cccc6F)c6ccc([nH]6)c(-c6c(F)cccc6F)c6nc(c(-c7c(F)cccc7F)c7ccc4[nH]7)C=C6)C=C5)cc3)C2)C1
REMARK SMILES IDX 17 1 16 2 14 3 15 4 13 6 10 7 11 8 77 9 12 10 9 11 4 12 8 13
REMARK SMILES IDX 78 14 3 16 2 17 1 18 5 19 6 20 7 21 18 22 19 23 20 24 21 25
REMARK SMILES IDX 22 27 23 28 24 29 76 30 25 31 75 32 26 33 27 34 28 35 69 36
REMARK SMILES IDX 29 37 74 38 68 39 70 40 30 41 73 42 67 43 66 44 31 46 57 47
REMARK SMILES IDX 40 48 56 49 41 50 44 51 55 52 71 53 42 54 43 55 54 57 72 58
REMARK SMILES IDX 45 59 32 60 33 61 38 62 34 63 35 64 37 65 39 66 36 67 58 68
REMARK SMILES IDX 59 69 64 70 60 71 61 72 63 73 65 74 62 75 46 76 47 77 52 78
REMARK SMILES IDX 48 79 49 80 51 81 53 82 50 83
REMARK H PARENT 16 5 9 15 20 26 70 45 44 56
REMARK Flexibility Score: inf
ROOT
ATOM      1  C   UNL     1      -0.377   5.525  -3.924  1.00  0.00     0.117 C 
ENDROOT
BRANCH   1   2
ATOM      2  N   UNL     1       0.832   4.999  -4.544  1.00  0.00    -0.356 N 
ATOM      3  C   UNL     1       1.111   3.960  -5.372  1.00  0.00     0.227 C 
ATOM      4  O   UNL     1       2.309   3.844  -5.672  1.00  0.00    -0.274 OA
ATOM      5  H   UNL     1       1.634   5.519  -4.308  1.00  0.00     0.163 HD
BRANCH   3   6
ATOM      6  C   UNL     1       0.105   2.946  -5.962  1.00  0.00     0.107 C 
ATOM      7  C   UNL     1      -0.653   0.951  -4.654  1.00  0.00     0.208 C 
ATOM      8  C   UNL     1      -1.774   1.897  -5.006  1.00  0.00     0.033 C 
ATOM      9  C   UNL     1       0.473   1.497  -5.564  1.00  0.00     0.087 C 
ATOM     10  C   UNL     1      -1.359   2.974  -5.687  1.00  0.00    -0.012 C 
BRANCH   7  11
ATOM     11  N   UNL     1      -0.513   0.853  -3.194  1.00  0.00    -0.328 N 
ATOM     12  C   UNL     1       1.159   1.366  -1.919  1.00  0.00     0.068 C 
ATOM     13  C   UNL     1       0.646   0.100  -2.715  1.00  0.00     0.275 C 
ATOM     14  C   UNL     1      -0.066   2.075  -2.556  1.00  0.00     0.275 C 
ATOM     15  H   UNL     1      -1.443   0.489  -2.986  1.00  0.00     0.348 HD
BRANCH  12  16
ATOM     16  C   UNL     1       1.102   1.498  -0.381  1.00  0.00     0.018 C 
BRANCH  16  17
ATOM     17  C   UNL     1       0.297   0.443   0.363  1.00  0.00    -0.002 C 
ATOM     18  C   UNL     1       1.146  -0.783   0.674  1.00  0.00     0.004 C 
ENDBRANCH  16  17
ENDBRANCH  12  16
BRANCH  12  19
ATOM     19  C   UNL     1       2.564   1.775  -2.442  1.00  0.00     0.018 C 
BRANCH  19  20
ATOM     20  C   UNL     1       2.945   3.246  -2.257  1.00  0.00    -0.002 C 
ATOM     21  C   UNL     1       3.532   3.603  -0.901  1.00  0.00     0.004 C 
ENDBRANCH  19  20
ENDBRANCH  12  19
ENDBRANCH   7  11
ENDBRANCH   3   6
ENDBRANCH   1   2
BRANCH   1  22
ATOM     22  C   UNL     1      -0.330   5.575  -2.386  1.00  0.00     0.042 C 
BRANCH  22  23
ATOM     23  C   UNL     1       0.793   6.419  -1.774  1.00  0.00     0.118 C 
BRANCH  23  24
ATOM     24  N   UNL     1       0.257   7.532  -1.011  1.00  0.00    -0.352 N 
ATOM     25  C   UNL     1       0.190   7.787   0.335  1.00  0.00     0.251 C 
ATOM     26  H   UNL     1      -0.135   8.243  -1.569  1.00  0.00     0.163 HD
ATOM     27  O   UNL     1      -0.558   8.691   0.704  1.00  0.00    -0.269 OA
BRANCH  25  28
ATOM     28  C   UNL     1       0.973   7.047   1.364  1.00  0.00     0.039 A 
ATOM     29  C   UNL     1       0.410   6.941   2.644  1.00  0.00     0.014 A 
ATOM     30  C   UNL     1       2.284   6.601   1.173  1.00  0.00     0.014 A 
ATOM     31  C   UNL     1       1.142   6.407   3.712  1.00  0.00     0.010 A 
ATOM     32  C   UNL     1       3.001   6.013   2.233  1.00  0.00     0.010 A 
ATOM     33  C   UNL     1       2.450   5.936   3.522  1.00  0.00    -0.014 A 
BRANCH  33  34
ATOM     34  C   UNL     1       3.228   5.416   4.687  1.00  0.00     0.031 A 
ATOM     35  C   UNL     1       4.420   6.168   5.227  1.00  0.00     0.074 A 
ATOM     36  C   UNL     1       2.846   4.279   5.302  1.00  0.00     0.049 A 
ATOM     37  N   UNL     1       5.149   5.912   6.288  1.00  0.00    -0.248 NA
ATOM     38  C   UNL     1       4.859   7.351   4.474  1.00  0.00     0.031 C 
ATOM     39  C   UNL     1       1.737   3.423   4.882  1.00  0.00     0.029 A 
ATOM     40  N   UNL     1       3.341   3.656   6.423  1.00  0.00    -0.354 N 
ATOM     41  C   UNL     1       6.128   6.897   6.328  1.00  0.00     0.074 A 
ATOM     42  C   UNL     1       5.930   7.728   5.159  1.00  0.00     0.031 C 
ATOM     43  C   UNL     1       1.614   2.406   5.752  1.00  0.00     0.029 A 
ATOM     44  C   UNL     1       2.645   2.527   6.781  1.00  0.00     0.049 A 
ATOM     45  H   UNL     1       4.122   3.988   6.923  1.00  0.00     0.167 HD
ATOM     46  C   UNL     1       7.090   7.111   7.260  1.00  0.00     0.037 A 
ATOM     47  C   UNL     1       2.803   1.689   7.824  1.00  0.00     0.037 A 
ATOM     48  C   UNL     1       7.288   6.311   8.441  1.00  0.00     0.049 A 
ATOM     49  C   UNL     1       3.875   1.948   8.846  1.00  0.00     0.074 A 
ATOM     50  C   UNL     1       8.202   6.499   9.466  1.00  0.00     0.029 A 
ATOM     51  N   UNL     1       6.566   5.173   8.758  1.00  0.00    -0.354 N 
ATOM     52  N   UNL     1       4.741   2.929   8.907  1.00  0.00    -0.248 NA
ATOM     53  C   UNL     1       3.982   0.984   9.954  1.00  0.00     0.031 C 
ATOM     54  C   UNL     1       8.057   5.452  10.384  1.00  0.00     0.029 A 
ATOM     55  C   UNL     1       7.028   4.635   9.950  1.00  0.00     0.049 A 
ATOM     56  H   UNL     1       5.833   4.800   8.216  1.00  0.00     0.167 HD
ATOM     57  C   UNL     1       5.476   2.715  10.066  1.00  0.00     0.074 A 
ATOM     58  C   UNL     1       4.947   1.520  10.688  1.00  0.00     0.031 C 
ATOM     59  C   UNL     1       6.500   3.448  10.569  1.00  0.00     0.037 A 
BRANCH  46  60
ATOM     60  C   UNL     1       8.012   8.276   7.046  1.00  0.00     0.057 A 
ATOM     61  C   UNL     1       7.585   9.595   7.242  1.00  0.00     0.134 A 
ATOM     62  C   UNL     1       9.353   8.075   6.694  1.00  0.00     0.134 A 
ATOM     63  F   UNL     1       6.311   9.855   7.573  1.00  0.00    -0.206 F 
ATOM     64  C   UNL     1       8.453  10.675   7.075  1.00  0.00     0.040 A 
ATOM     65  C   UNL     1      10.236   9.145   6.547  1.00  0.00     0.040 A 
ATOM     66  F   UNL     1       9.829   6.835   6.503  1.00  0.00    -0.206 F 
ATOM     67  C   UNL     1       9.785  10.451   6.733  1.00  0.00     0.006 A 
ENDBRANCH  46  60
BRANCH  47  68
ATOM     68  C   UNL     1       1.892   0.528   7.982  1.00  0.00     0.057 A 
ATOM     69  C   UNL     1       0.920   0.506   8.988  1.00  0.00     0.134 A 
ATOM     70  C   UNL     1       1.988  -0.591   7.147  1.00  0.00     0.134 A 
ATOM     71  F   UNL     1       0.799   1.540   9.833  1.00  0.00    -0.206 F 
ATOM     72  C   UNL     1       0.083  -0.596   9.169  1.00  0.00     0.040 A 
ATOM     73  C   UNL     1       1.143  -1.690   7.304  1.00  0.00     0.040 A 
ATOM     74  F   UNL     1       2.900  -0.627   6.166  1.00  0.00    -0.206 F 
ATOM     75  C   UNL     1       0.191  -1.697   8.322  1.00  0.00     0.006 A 
ENDBRANCH  47  68
BRANCH  59  76
ATOM     76  C   UNL     1       7.101   2.994  11.866  1.00  0.00     0.057 A 
ATOM     77  C   UNL     1       7.926   1.863  11.941  1.00  0.00     0.134 A 
ATOM     78  C   UNL     1       6.874   3.708  13.050  1.00  0.00     0.134 A 
ATOM     79  F   UNL     1       8.172   1.128  10.847  1.00  0.00    -0.206 F 
ATOM     80  C   UNL     1       8.484   1.447  13.152  1.00  0.00     0.040 A 
ATOM     81  C   UNL     1       7.445   3.314  14.261  1.00  0.00     0.040 A 
ATOM     82  F   UNL     1       6.100   4.803  13.046  1.00  0.00    -0.206 F 
ATOM     83  C   UNL     1       8.248   2.176  14.316  1.00  0.00     0.006 A 
ENDBRANCH  59  76
ENDBRANCH  33  34
ENDBRANCH  25  28
ENDBRANCH  23  24
ENDBRANCH  22  23
ENDBRANCH   1  22
TORSDOF 15
