REMARK SMILES CC1(C)[C@@](C)(C(=O)NCCCNC(=O)c2ccc(-c3c4nc(c(-c5c(F)cccc5F)c5ccc([nH]5)c(-c5c(F)cccc5F)c5nc(c(-c6c(F)cccc6F)c6ccc3[nH]6)C=C5)C=C4)cc2)CC[C@]1(C)C(=O)Nc1ccc(Cl)cc1Cl
REMARK SMILES IDX 10 1 9 2 8 3 6 4 7 5 4 7 1 8 2 9 3 10 71 11 5 12 69 13 70 14
REMARK SMILES IDX 72 15 73 16 74 17 75 18 76 20 77 21 82 22 78 23 81 24 83 25
REMARK SMILES IDX 79 26 80 27 11 28 12 29 13 30 14 32 15 33 16 34 68 35 17 36
REMARK SMILES IDX 67 37 18 38 19 39 20 40 61 41 21 42 66 43 60 44 62 45 22 46
REMARK SMILES IDX 65 47 59 48 58 49 23 51 49 52 32 53 48 54 33 55 36 56 47 57
REMARK SMILES IDX 63 58 34 59 35 60 46 62 64 63 37 64 24 65 25 66 30 67 26 68
REMARK SMILES IDX 27 69 29 70 31 71 28 72 50 73 51 74 56 75 52 76 53 77 55 78
REMARK SMILES IDX 57 79 54 80 38 81 39 82 44 83 40 84 41 85 43 86 45 87 42 88
REMARK H PARENT 8 6 75 19 12 31 62 50 36 61
REMARK Flexibility Score: inf
ROOT
ATOM      1  C   UNL     1      -0.807  -1.810   1.901  1.00  0.00     0.042 C 
ENDROOT
BRANCH   1   2
ATOM      2  C   UNL     1      -1.839  -1.145   0.978  1.00  0.00     0.117 C 
BRANCH   2   3
ATOM      3  N   UNL     1      -1.881   0.312   1.087  1.00  0.00    -0.356 N 
ATOM      4  C   UNL     1      -1.633   1.370   0.265  1.00  0.00     0.226 C 
ATOM      5  O   UNL     1      -1.881   2.468   0.781  1.00  0.00    -0.274 OA
ATOM      6  H   UNL     1      -2.161   0.604   1.985  1.00  0.00     0.163 HD
BRANCH   4   7
ATOM      7  C   UNL     1      -1.091   1.277  -1.200  1.00  0.00     0.052 C 
ATOM      8  C   UNL     1       0.884  -0.099  -0.356  1.00  0.00     0.013 C 
ATOM      9  C   UNL     1       0.455   0.951  -1.361  1.00  0.00    -0.007 C 
ATOM     10  C   UNL     1       0.718   0.374  -2.780  1.00  0.00     0.013 C 
ATOM     11  C   UNL     1       1.230   2.329  -1.170  1.00  0.00     0.053 C 
ATOM     12  C   UNL     1      -2.050   0.354  -1.989  1.00  0.00     0.022 C 
ATOM     13  C   UNL     1      -1.172   2.681  -1.865  1.00  0.00     0.018 C 
ATOM     14  C   UNL     1       0.212   3.336  -1.802  1.00  0.00     0.018 C 
ATOM     15  C   UNL     1       1.432   2.789   0.285  1.00  0.00     0.022 C 
BRANCH  11  16
ATOM     16  C   UNL     1       2.606   2.441  -1.946  1.00  0.00     0.230 C 
ATOM     17  O   UNL     1       2.738   3.257  -2.868  1.00  0.00    -0.274 OA
ATOM     18  N   UNL     1       3.687   1.617  -1.765  1.00  0.00    -0.324 N 
ATOM     19  H   UNL     1       4.329   1.644  -2.511  1.00  0.00     0.170 HD
BRANCH  18  20
ATOM     20  C   UNL     1       4.065   0.745  -0.736  1.00  0.00     0.060 A 
ATOM     21  C   UNL     1       4.283   1.234   0.553  1.00  0.00     0.029 A 
ATOM     22  C   UNL     1       4.288  -0.624  -0.991  1.00  0.00     0.066 A 
ATOM     23  C   UNL     1       4.559   0.352   1.603  1.00  0.00     0.023 A 
ATOM     24  C   UNL     1       4.498  -1.513   0.067  1.00  0.00     0.043 A 
ATOM     25  Cl  UNL     1       4.147  -1.288  -2.581  1.00  0.00    -0.082 Cl
ATOM     26  C   UNL     1       4.612  -1.019   1.363  1.00  0.00     0.042 A 
ATOM     27  Cl  UNL     1       4.799  -2.110   2.678  1.00  0.00    -0.084 Cl
ENDBRANCH  18  20
ENDBRANCH  11  16
ENDBRANCH   4   7
ENDBRANCH   2   3
ENDBRANCH   1   2
BRANCH   1  28
ATOM     28  C   UNL     1      -1.043  -1.586   3.389  1.00  0.00     0.118 C 
BRANCH  28  29
ATOM     29  N   UNL     1      -1.788  -2.682   3.979  1.00  0.00    -0.352 N 
ATOM     30  C   UNL     1      -1.357  -3.746   4.735  1.00  0.00     0.251 C 
ATOM     31  H   UNL     1      -2.758  -2.661   3.810  1.00  0.00     0.163 HD
ATOM     32  O   UNL     1      -2.110  -4.705   4.884  1.00  0.00    -0.269 OA
BRANCH  30  33
ATOM     33  C   UNL     1      -0.015  -3.772   5.373  1.00  0.00     0.039 A 
ATOM     34  C   UNL     1       0.636  -5.006   5.501  1.00  0.00     0.014 A 
ATOM     35  C   UNL     1       0.564  -2.636   5.944  1.00  0.00     0.014 A 
ATOM     36  C   UNL     1       1.860  -5.096   6.175  1.00  0.00     0.010 A 
ATOM     37  C   UNL     1       1.823  -2.711   6.547  1.00  0.00     0.010 A 
ATOM     38  C   UNL     1       2.473  -3.946   6.695  1.00  0.00    -0.014 A 
BRANCH  38  39
ATOM     39  C   UNL     1       3.757  -4.025   7.443  1.00  0.00     0.031 A 
ATOM     40  C   UNL     1       3.810  -3.657   8.903  1.00  0.00     0.074 A 
ATOM     41  C   UNL     1       4.890  -4.388   6.811  1.00  0.00     0.049 A 
ATOM     42  N   UNL     1       4.843  -3.594   9.707  1.00  0.00    -0.248 NA
ATOM     43  C   UNL     1       2.535  -3.289   9.539  1.00  0.00     0.031 C 
ATOM     44  C   UNL     1       4.992  -4.745   5.396  1.00  0.00     0.029 A 
ATOM     45  N   UNL     1       6.176  -4.507   7.278  1.00  0.00    -0.354 N 
ATOM     46  C   UNL     1       4.347  -3.157  10.930  1.00  0.00     0.074 A 
ATOM     47  C   UNL     1       2.929  -2.929  10.751  1.00  0.00     0.031 C 
ATOM     48  C   UNL     1       6.267  -5.059   5.114  1.00  0.00     0.029 A 
ATOM     49  C   UNL     1       7.077  -4.897   6.318  1.00  0.00     0.049 A 
ATOM     50  H   UNL     1       6.428  -4.330   8.213  1.00  0.00     0.167 HD
ATOM     51  C   UNL     1       5.003  -2.983  12.102  1.00  0.00     0.037 A 
ATOM     52  C   UNL     1       8.406  -5.097   6.394  1.00  0.00     0.037 A 
ATOM     53  C   UNL     1       6.404  -3.249  12.299  1.00  0.00     0.049 A 
ATOM     54  C   UNL     1       9.114  -4.900   7.705  1.00  0.00     0.074 A 
ATOM     55  C   UNL     1       7.143  -3.165  13.467  1.00  0.00     0.029 A 
ATOM     56  N   UNL     1       7.278  -3.654  11.302  1.00  0.00    -0.354 N 
ATOM     57  N   UNL     1       8.622  -4.533   8.862  1.00  0.00    -0.248 NA
ATOM     58  C   UNL     1      10.563  -5.150   7.719  1.00  0.00     0.031 C 
ATOM     59  C   UNL     1       8.472  -3.489  13.169  1.00  0.00     0.029 A 
ATOM     60  C   UNL     1       8.552  -3.808  11.824  1.00  0.00     0.049 A 
ATOM     61  H   UNL     1       7.029  -3.809  10.362  1.00  0.00     0.167 HD
ATOM     62  C   UNL     1       9.692  -4.533   9.747  1.00  0.00     0.074 A 
ATOM     63  C   UNL     1      10.859  -4.944   8.995  1.00  0.00     0.031 C 
ATOM     64  C   UNL     1       9.704  -4.222  11.066  1.00  0.00     0.037 A 
BRANCH  51  65
ATOM     65  C   UNL     1       4.204  -2.483  13.270  1.00  0.00     0.057 A 
ATOM     66  C   UNL     1       3.266  -3.293  13.924  1.00  0.00     0.134 A 
ATOM     67  C   UNL     1       4.388  -1.184  13.760  1.00  0.00     0.134 A 
ATOM     68  F   UNL     1       3.034  -4.544  13.498  1.00  0.00    -0.206 F 
ATOM     69  C   UNL     1       2.518  -2.819  15.003  1.00  0.00     0.040 A 
ATOM     70  C   UNL     1       3.664  -0.707  14.854  1.00  0.00     0.040 A 
ATOM     71  F   UNL     1       5.276  -0.359  13.185  1.00  0.00    -0.206 F 
ATOM     72  C   UNL     1       2.720  -1.523  15.473  1.00  0.00     0.006 A 
ENDBRANCH  51  65
BRANCH  52  73
ATOM     73  C   UNL     1       9.152  -5.543   5.193  1.00  0.00     0.057 A 
ATOM     74  C   UNL     1       9.617  -6.858   5.085  1.00  0.00     0.134 A 
ATOM     75  C   UNL     1       9.409  -4.674   4.126  1.00  0.00     0.134 A 
ATOM     76  F   UNL     1       9.417  -7.728   6.085  1.00  0.00    -0.206 F 
ATOM     77  C   UNL     1      10.321  -7.294   3.961  1.00  0.00     0.040 A 
ATOM     78  C   UNL     1      10.095  -5.102   2.987  1.00  0.00     0.040 A 
ATOM     79  F   UNL     1       8.986  -3.403   4.170  1.00  0.00    -0.206 F 
ATOM     80  C   UNL     1      10.556  -6.415   2.905  1.00  0.00     0.006 A 
ENDBRANCH  52  73
BRANCH  64  81
ATOM     81  C   UNL     1      11.014  -4.342  11.787  1.00  0.00     0.057 A 
ATOM     82  C   UNL     1      12.035  -3.399  11.621  1.00  0.00     0.134 A 
ATOM     83  C   UNL     1      11.240  -5.393  12.684  1.00  0.00     0.134 A 
ATOM     84  F   UNL     1      11.885  -2.377  10.765  1.00  0.00    -0.206 F 
ATOM     85  C   UNL     1      13.245  -3.508  12.309  1.00  0.00     0.040 A 
ATOM     86  C   UNL     1      12.437  -5.501  13.394  1.00  0.00     0.040 A 
ATOM     87  F   UNL     1      10.298  -6.326  12.893  1.00  0.00    -0.206 F 
ATOM     88  C   UNL     1      13.445  -4.559  13.203  1.00  0.00     0.006 A 
ENDBRANCH  64  81
ENDBRANCH  38  39
ENDBRANCH  30  33
ENDBRANCH  28  29
ENDBRANCH   1  28
TORSDOF 12
