REMARK SMILES Cc1ccc(C(=O)NCCCNC(=O)c2ccc(-c3c4nc(c(-c5c(F)cccc5F)c5ccc([nH]5)c(-c5c(F)cccc5F)c5nc(c(-c6c(F)cccc6F)c6ccc3[nH]6)C=C5)C=C4)cc2)cc1/[NH+]=C1\NCCS1
REMARK SMILES IDX 10 1 9 2 8 3 6 4 7 5 5 7 1 8 2 9 3 10 70 11 4 12 69 13 71 14
REMARK SMILES IDX 72 15 73 17 76 18 74 19 75 21 11 22 12 23 13 24 14 26 15 27
REMARK SMILES IDX 16 28 68 29 17 30 67 31 18 32 19 33 20 34 61 35 21 36 66 37
REMARK SMILES IDX 60 38 62 39 22 40 65 41 59 42 58 43 23 45 49 46 32 47 48 48
REMARK SMILES IDX 33 49 36 50 47 51 63 52 34 53 35 54 46 56 64 57 37 58 24 59
REMARK SMILES IDX 25 60 30 61 26 62 27 63 29 64 31 65 28 66 50 67 51 68 56 69
REMARK SMILES IDX 52 70 53 71 55 72 57 73 54 74 38 75 39 76 44 77 40 78 41 79
REMARK SMILES IDX 43 80 45 81 42 82
REMARK H PARENT 8 6 71 16 73 20 12 25 62 44 36 55
REMARK Flexibility Score: inf
ROOT
ATOM      1  C   UNL     1      -2.882   3.570  -0.765  1.00  0.00     0.042 C 
ENDROOT
BRANCH   1   2
ATOM      2  C   UNL     1      -3.349   2.742   0.435  1.00  0.00     0.118 C 
BRANCH   2   3
ATOM      3  N   UNL     1      -3.726   1.389   0.053  1.00  0.00    -0.352 N 
ATOM      4  C   UNL     1      -3.010   0.227  -0.112  1.00  0.00     0.251 C 
ATOM      5  O   UNL     1      -3.660  -0.789  -0.371  1.00  0.00    -0.269 OA
ATOM      6  H   UNL     1      -4.689   1.285  -0.124  1.00  0.00     0.163 HD
BRANCH   4   7
ATOM      7  C   UNL     1      -1.522   0.111  -0.001  1.00  0.00     0.044 A 
ATOM      8  C   UNL     1       2.764  -0.529   0.267  1.00  0.00     0.049 C 
ATOM      9  C   UNL     1       1.286  -0.283   0.173  1.00  0.00    -0.004 A 
ATOM     10  C   UNL     1       0.407  -1.375   0.175  1.00  0.00     0.008 A 
ATOM     11  C   UNL     1       0.756   1.006   0.038  1.00  0.00     0.129 A 
ATOM     12  C   UNL     1      -0.977  -1.178   0.090  1.00  0.00     0.014 A 
ATOM     13  C   UNL     1      -0.632   1.181  -0.033  1.00  0.00     0.065 A 
BRANCH  11  14
ATOM     14  N   UNL     1       1.543   2.166   0.026  1.00  0.00    -0.235 N 
ATOM     15  C   UNL     1       2.174   2.481  -1.048  1.00  0.00     0.309 C 
ATOM     16  H   UNL     1       1.610   2.732   0.829  1.00  0.00     0.313 HD
ATOM     17  N   UNL     1       2.266   1.861  -2.256  1.00  0.00    -0.268 N 
ATOM     18  S   UNL     1       3.126   3.963  -1.056  1.00  0.00    -0.035 SA
ATOM     19  C   UNL     1       3.041   2.517  -3.282  1.00  0.00     0.246 C 
ATOM     20  H   UNL     1       1.821   0.998  -2.424  1.00  0.00     0.305 HD
ATOM     21  C   UNL     1       4.005   3.460  -2.567  1.00  0.00     0.128 C 
ENDBRANCH  11  14
ENDBRANCH   4   7
ENDBRANCH   2   3
ENDBRANCH   1   2
BRANCH   1  22
ATOM     22  C   UNL     1      -3.997   4.364  -1.423  1.00  0.00     0.118 C 
BRANCH  22  23
ATOM     23  N   UNL     1      -4.114   5.737  -0.943  1.00  0.00    -0.352 N 
ATOM     24  C   UNL     1      -5.146   6.637  -1.167  1.00  0.00     0.251 C 
ATOM     25  H   UNL     1      -3.368   6.066  -0.391  1.00  0.00     0.163 HD
ATOM     26  O   UNL     1      -5.121   7.758  -0.699  1.00  0.00    -0.269 OA
BRANCH  24  27
ATOM     27  C   UNL     1      -6.340   6.144  -1.894  1.00  0.00     0.039 A 
ATOM     28  C   UNL     1      -7.566   6.194  -1.227  1.00  0.00     0.014 A 
ATOM     29  C   UNL     1      -6.190   5.400  -3.063  1.00  0.00     0.014 A 
ATOM     30  C   UNL     1      -8.563   5.292  -1.584  1.00  0.00     0.010 A 
ATOM     31  C   UNL     1      -7.148   4.452  -3.370  1.00  0.00     0.010 A 
ATOM     32  C   UNL     1      -8.299   4.350  -2.583  1.00  0.00    -0.014 A 
BRANCH  32  33
ATOM     33  C   UNL     1      -9.131   3.165  -2.765  1.00  0.00     0.031 A 
ATOM     34  C   UNL     1     -10.146   3.122  -3.832  1.00  0.00     0.074 A 
ATOM     35  C   UNL     1      -9.020   2.110  -1.927  1.00  0.00     0.049 A 
ATOM     36  N   UNL     1     -11.305   2.567  -3.700  1.00  0.00    -0.248 NA
ATOM     37  C   UNL     1      -9.934   3.736  -5.135  1.00  0.00     0.031 C 
ATOM     38  C   UNL     1      -9.673   0.811  -2.060  1.00  0.00     0.029 A 
ATOM     39  N   UNL     1      -8.440   2.083  -0.654  1.00  0.00    -0.354 N 
ATOM     40  C   UNL     1     -11.879   2.512  -4.949  1.00  0.00     0.074 A 
ATOM     41  C   UNL     1     -11.019   3.315  -5.793  1.00  0.00     0.031 C 
ATOM     42  C   UNL     1      -9.712   0.221  -0.856  1.00  0.00     0.029 A 
ATOM     43  C   UNL     1      -9.183   1.163   0.114  1.00  0.00     0.049 A 
ATOM     44  H   UNL     1      -7.663   2.607  -0.353  1.00  0.00     0.167 HD
ATOM     45  C   UNL     1     -12.935   1.679  -5.180  1.00  0.00     0.037 A 
ATOM     46  C   UNL     1      -9.793   1.526   1.278  1.00  0.00     0.037 A 
ATOM     47  C   UNL     1     -13.288   0.911  -3.989  1.00  0.00     0.049 A 
ATOM     48  C   UNL     1     -11.292   1.356   1.267  1.00  0.00     0.074 A 
ATOM     49  C   UNL     1     -12.942  -0.369  -3.585  1.00  0.00     0.029 A 
ATOM     50  N   UNL     1     -13.842   1.538  -2.879  1.00  0.00    -0.354 N 
ATOM     51  N   UNL     1     -11.989   1.149   0.186  1.00  0.00    -0.248 NA
ATOM     52  C   UNL     1     -12.130   1.474   2.458  1.00  0.00     0.031 C 
ATOM     53  C   UNL     1     -13.258  -0.501  -2.214  1.00  0.00     0.029 A 
ATOM     54  C   UNL     1     -13.802   0.695  -1.782  1.00  0.00     0.049 A 
ATOM     55  H   UNL     1     -14.211   2.450  -2.873  1.00  0.00     0.167 HD
ATOM     56  C   UNL     1     -13.325   1.189   0.492  1.00  0.00     0.074 A 
ATOM     57  C   UNL     1     -13.361   1.349   1.933  1.00  0.00     0.031 C 
ATOM     58  C   UNL     1     -14.283   1.124  -0.478  1.00  0.00     0.037 A 
BRANCH  45  59
ATOM     59  C   UNL     1     -13.406   1.326  -6.573  1.00  0.00     0.057 A 
ATOM     60  C   UNL     1     -13.885   0.038  -6.881  1.00  0.00     0.134 A 
ATOM     61  C   UNL     1     -13.362   2.205  -7.667  1.00  0.00     0.134 A 
ATOM     62  F   UNL     1     -14.117  -0.878  -5.933  1.00  0.00    -0.206 F 
ATOM     63  C   UNL     1     -14.151  -0.383  -8.190  1.00  0.00     0.040 A 
ATOM     64  C   UNL     1     -13.574   1.786  -8.989  1.00  0.00     0.040 A 
ATOM     65  F   UNL     1     -13.148   3.518  -7.496  1.00  0.00    -0.206 F 
ATOM     66  C   UNL     1     -13.950   0.478  -9.257  1.00  0.00     0.006 A 
ENDBRANCH  45  59
BRANCH  46  67
ATOM     67  C   UNL     1      -9.072   2.604   1.999  1.00  0.00     0.057 A 
ATOM     68  C   UNL     1      -7.804   2.317   2.533  1.00  0.00     0.134 A 
ATOM     69  C   UNL     1      -9.403   3.949   1.816  1.00  0.00     0.134 A 
ATOM     70  F   UNL     1      -7.431   1.044   2.737  1.00  0.00    -0.206 F 
ATOM     71  C   UNL     1      -6.855   3.317   2.750  1.00  0.00     0.040 A 
ATOM     72  C   UNL     1      -8.462   4.959   2.040  1.00  0.00     0.040 A 
ATOM     73  F   UNL     1     -10.591   4.297   1.304  1.00  0.00    -0.206 F 
ATOM     74  C   UNL     1      -7.172   4.641   2.463  1.00  0.00     0.006 A 
ENDBRANCH  46  67
BRANCH  58  75
ATOM     75  C   UNL     1     -15.756   1.359  -0.269  1.00  0.00     0.057 A 
ATOM     76  C   UNL     1     -16.286   2.235   0.690  1.00  0.00     0.134 A 
ATOM     77  C   UNL     1     -16.703   0.781  -1.143  1.00  0.00     0.134 A 
ATOM     78  F   UNL     1     -15.493   2.943   1.506  1.00  0.00    -0.206 F 
ATOM     79  C   UNL     1     -17.662   2.464   0.819  1.00  0.00     0.040 A 
ATOM     80  C   UNL     1     -18.073   1.042  -1.056  1.00  0.00     0.040 A 
ATOM     81  F   UNL     1     -16.333  -0.047  -2.131  1.00  0.00    -0.206 F 
ATOM     82  C   UNL     1     -18.561   1.873  -0.059  1.00  0.00     0.006 A 
ENDBRANCH  58  75
ENDBRANCH  32  33
ENDBRANCH  24  27
ENDBRANCH  22  23
ENDBRANCH   1  22
TORSDOF 11
