REMARK SMILES C[C@@H](NC(=O)CNC(=O)N1CC(=O)Nc2ccccc21)C(=O)NCCCNC(=O)c1ccc(-c2c3nc(c(-c4c(F)cccc4F)c4ccc([nH]4)c(-c4c(F)cccc4F)c4nc(c(-c5c(F)cccc5F)c5ccc2[nH]5)C=C4)C=C3)cc1
REMARK SMILES IDX 24 1 23 2 21 3 22 4 2 6 1 7 3 8 4 9 5 11 6 12 7 13 8 14 9 16
REMARK SMILES IDX 10 17 11 18 20 19 12 20 15 21 19 22 13 23 14 24 16 25 18 26
REMARK SMILES IDX 17 28 25 29 26 30 27 31 28 32 29 34 30 35 31 36 83 37 32 38
REMARK SMILES IDX 82 39 33 40 34 41 35 42 76 43 36 44 81 45 75 46 77 47 37 48
REMARK SMILES IDX 80 49 74 50 73 51 38 53 64 54 47 55 63 56 48 57 51 58 62 59
REMARK SMILES IDX 78 60 49 61 50 62 61 64 79 65 52 66 39 67 40 68 45 69 41 70
REMARK SMILES IDX 42 71 44 72 46 73 43 74 65 75 66 76 71 77 67 78 68 79 70 80
REMARK SMILES IDX 72 81 69 82 53 83 54 84 59 85 55 86 56 87 58 88 60 89 57 90
REMARK H PARENT 23 5 3 10 7 15 14 27 27 33 77 52 51 63
REMARK Flexibility Score: inf
ROOT
ATOM      1  C   UNL     1      -0.451  -1.986  -1.148  1.00  0.00     0.117 C 
ENDROOT
BRANCH   1   2
ATOM      2  N   UNL     1      -0.782  -0.908  -0.235  1.00  0.00    -0.354 N 
ATOM      3  C   UNL     1      -0.256   0.346  -0.161  1.00  0.00     0.242 C 
ATOM      4  O   UNL     1      -0.550   1.046   0.809  1.00  0.00    -0.273 OA
ATOM      5  H   UNL     1      -1.486  -1.111   0.423  1.00  0.00     0.163 HD
BRANCH   3   6
ATOM      6  C   UNL     1       0.825   0.814  -1.145  1.00  0.00     0.168 C 
ATOM      7  C   UNL     1       2.164   0.389  -0.538  1.00  0.00     0.041 C 
BRANCH   6   8
ATOM      8  N   UNL     1       0.686   0.306  -2.510  1.00  0.00    -0.343 N 
ATOM      9  C   UNL     1      -0.314   0.521  -3.416  1.00  0.00     0.240 C 
ATOM     10  H   UNL     1       1.418  -0.275  -2.821  1.00  0.00     0.164 HD
ATOM     11  O   UNL     1      -0.222  -0.038  -4.511  1.00  0.00    -0.273 OA
BRANCH   9  12
ATOM     12  C   UNL     1      -1.573   1.308  -3.030  1.00  0.00     0.218 C 
BRANCH  12  13
ATOM     13  N   UNL     1      -2.601   0.489  -2.387  1.00  0.00    -0.329 N 
ATOM     14  C   UNL     1      -3.350   0.824  -1.286  1.00  0.00     0.322 C 
ATOM     15  H   UNL     1      -2.773  -0.395  -2.785  1.00  0.00     0.165 HD
ATOM     16  O   UNL     1      -3.772  -0.084  -0.572  1.00  0.00    -0.248 OA
BRANCH  14  17
ATOM     17  N   UNL     1      -3.509   2.170  -1.047  1.00  0.00    -0.283 N 
ATOM     18  C   UNL     1      -3.937   3.070  -2.115  1.00  0.00     0.227 C 
ATOM     19  C   UNL     1      -3.263   2.783   0.216  1.00  0.00     0.070 A 
ATOM     20  C   UNL     1      -3.063   4.306  -2.205  1.00  0.00     0.244 C 
ATOM     21  C   UNL     1      -2.779   4.109   0.206  1.00  0.00     0.065 A 
ATOM     22  C   UNL     1      -3.345   2.107   1.435  1.00  0.00     0.028 A 
ATOM     23  O   UNL     1      -2.899   4.931  -3.251  1.00  0.00    -0.273 OA
ATOM     24  N   UNL     1      -2.612   4.796  -1.007  1.00  0.00    -0.323 N 
ATOM     25  C   UNL     1      -2.361   4.729   1.385  1.00  0.00     0.028 A 
ATOM     26  C   UNL     1      -2.950   2.740   2.620  1.00  0.00     0.002 A 
ATOM     27  H   UNL     1      -2.151   5.667  -0.997  1.00  0.00     0.170 HD
ATOM     28  C   UNL     1      -2.450   4.042   2.593  1.00  0.00     0.002 A 
ENDBRANCH  14  17
ENDBRANCH  12  13
ENDBRANCH   9  12
ENDBRANCH   6   8
ENDBRANCH   3   6
ENDBRANCH   1   2
BRANCH   1  29
ATOM     29  C   UNL     1      -0.962  -3.325  -0.661  1.00  0.00     0.042 C 
BRANCH  29  30
ATOM     30  C   UNL     1      -2.475  -3.445  -0.731  1.00  0.00     0.118 C 
BRANCH  30  31
ATOM     31  N   UNL     1      -2.987  -3.609  -2.086  1.00  0.00    -0.352 N 
ATOM     32  C   UNL     1      -3.909  -4.520  -2.543  1.00  0.00     0.251 C 
ATOM     33  H   UNL     1      -2.626  -2.989  -2.759  1.00  0.00     0.163 HD
ATOM     34  O   UNL     1      -4.194  -4.579  -3.736  1.00  0.00    -0.269 OA
BRANCH  32  35
ATOM     35  C   UNL     1      -4.504  -5.478  -1.589  1.00  0.00     0.039 A 
ATOM     36  C   UNL     1      -4.463  -6.838  -1.898  1.00  0.00     0.014 A 
ATOM     37  C   UNL     1      -5.018  -5.044  -0.364  1.00  0.00     0.014 A 
ATOM     38  C   UNL     1      -4.877  -7.770  -0.947  1.00  0.00     0.010 A 
ATOM     39  C   UNL     1      -5.332  -5.977   0.618  1.00  0.00     0.010 A 
ATOM     40  C   UNL     1      -5.280  -7.350   0.333  1.00  0.00    -0.014 A 
BRANCH  40  41
ATOM     41  C   UNL     1      -5.681  -8.345   1.359  1.00  0.00     0.031 A 
ATOM     42  C   UNL     1      -7.093  -8.364   1.876  1.00  0.00     0.074 A 
ATOM     43  C   UNL     1      -4.776  -9.223   1.833  1.00  0.00     0.049 A 
ATOM     44  N   UNL     1      -7.649  -9.186   2.730  1.00  0.00    -0.248 NA
ATOM     45  C   UNL     1      -7.994  -7.305   1.391  1.00  0.00     0.031 C 
ATOM     46  C   UNL     1      -3.360  -9.267   1.463  1.00  0.00     0.029 A 
ATOM     47  N   UNL     1      -4.917 -10.258   2.724  1.00  0.00    -0.354 N 
ATOM     48  C   UNL     1      -8.956  -8.741   2.884  1.00  0.00     0.074 A 
ATOM     49  C   UNL     1      -9.091  -7.537   2.096  1.00  0.00     0.031 C 
ATOM     50  C   UNL     1      -2.774 -10.302   2.087  1.00  0.00     0.029 A 
ATOM     51  C   UNL     1      -3.764 -10.980   2.917  1.00  0.00     0.049 A 
ATOM     52  H   UNL     1      -5.765 -10.464   3.180  1.00  0.00     0.167 HD
ATOM     53  C   UNL     1      -9.966  -9.303   3.588  1.00  0.00     0.037 A 
ATOM     54  C   UNL     1      -3.538 -12.075   3.668  1.00  0.00     0.037 A 
ATOM     55  C   UNL     1      -9.838 -10.512   4.356  1.00  0.00     0.049 A 
ATOM     56  C   UNL     1      -4.680 -12.692   4.428  1.00  0.00     0.074 A 
ATOM     57  C   UNL     1     -10.812 -11.189   5.069  1.00  0.00     0.029 A 
ATOM     58  N   UNL     1      -8.659 -11.226   4.510  1.00  0.00    -0.354 N 
ATOM     59  N   UNL     1      -5.932 -12.308   4.499  1.00  0.00    -0.248 NA
ATOM     60  C   UNL     1      -4.382 -13.909   5.196  1.00  0.00     0.031 C 
ATOM     61  C   UNL     1     -10.212 -12.291   5.689  1.00  0.00     0.029 A 
ATOM     62  C   UNL     1      -8.878 -12.330   5.317  1.00  0.00     0.049 A 
ATOM     63  H   UNL     1      -7.795 -10.984   4.105  1.00  0.00     0.167 HD
ATOM     64  C   UNL     1      -6.577 -13.254   5.286  1.00  0.00     0.074 A 
ATOM     65  C   UNL     1      -5.580 -14.237   5.656  1.00  0.00     0.031 C 
ATOM     66  C   UNL     1      -7.877 -13.306   5.666  1.00  0.00     0.037 A 
BRANCH  53  67
ATOM     67  C   UNL     1     -11.299  -8.613   3.547  1.00  0.00     0.057 A 
ATOM     68  C   UNL     1     -12.077  -8.578   2.381  1.00  0.00     0.134 A 
ATOM     69  C   UNL     1     -11.818  -7.988   4.688  1.00  0.00     0.134 A 
ATOM     70  F   UNL     1     -11.631  -9.143   1.249  1.00  0.00    -0.206 F 
ATOM     71  C   UNL     1     -13.308  -7.920   2.343  1.00  0.00     0.040 A 
ATOM     72  C   UNL     1     -13.061  -7.353   4.670  1.00  0.00     0.040 A 
ATOM     73  F   UNL     1     -11.128  -7.986   5.838  1.00  0.00    -0.206 F 
ATOM     74  C   UNL     1     -13.806  -7.311   3.493  1.00  0.00     0.006 A 
ENDBRANCH  53  67
BRANCH  54  75
ATOM     75  C   UNL     1      -2.187 -12.693   3.700  1.00  0.00     0.057 A 
ATOM     76  C   UNL     1      -1.946 -13.938   3.108  1.00  0.00     0.134 A 
ATOM     77  C   UNL     1      -1.112 -12.066   4.342  1.00  0.00     0.134 A 
ATOM     78  F   UNL     1      -2.939 -14.597   2.493  1.00  0.00    -0.206 F 
ATOM     79  C   UNL     1      -0.693 -14.551   3.174  1.00  0.00     0.040 A 
ATOM     80  C   UNL     1       0.152 -12.655   4.393  1.00  0.00     0.040 A 
ATOM     81  F   UNL     1      -1.275 -10.868   4.921  1.00  0.00    -0.206 F 
ATOM     82  C   UNL     1       0.362 -13.906   3.816  1.00  0.00     0.006 A 
ENDBRANCH  54  75
BRANCH  66  83
ATOM     83  C   UNL     1      -8.306 -14.493   6.480  1.00  0.00     0.057 A 
ATOM     84  C   UNL     1      -7.901 -14.671   7.809  1.00  0.00     0.134 A 
ATOM     85  C   UNL     1      -9.152 -15.463   5.927  1.00  0.00     0.134 A 
ATOM     86  F   UNL     1      -7.082 -13.784   8.395  1.00  0.00    -0.206 F 
ATOM     87  C   UNL     1      -8.292 -15.789   8.547  1.00  0.00     0.040 A 
ATOM     88  C   UNL     1      -9.575 -16.569   6.664  1.00  0.00     0.040 A 
ATOM     89  F   UNL     1      -9.587 -15.348   4.663  1.00  0.00    -0.206 F 
ATOM     90  C   UNL     1      -9.136 -16.740   7.975  1.00  0.00     0.006 A 
ENDBRANCH  66  83
ENDBRANCH  40  41
ENDBRANCH  32  35
ENDBRANCH  30  31
ENDBRANCH  29  30
ENDBRANCH   1  29
TORSDOF 14
