REMARK SMILES O=C(NCCCNC(=O)c1cc(Br)ccc1NC(=O)c1ccc(Br)s1)c1ccc(-c2c3nc(c(-c4c(F)cccc4F)c4ccc([nH]4)c(-c4c(F)cccc4F)c4nc(c(-c5c(F)cccc5F)c5ccc2[nH]5)C=C4)C=C3)cc1
REMARK SMILES IDX 5 1 4 2 3 3 1 4 2 5 26 7 27 8 79 9 28 10 78 11 29 12 30 13
REMARK SMILES IDX 31 14 72 15 32 16 77 17 71 18 73 19 33 20 76 21 70 22 69 23
REMARK SMILES IDX 34 25 60 26 43 27 59 28 44 29 47 30 58 31 74 32 45 33 46 34
REMARK SMILES IDX 57 36 75 37 48 38 35 39 36 40 41 41 37 42 38 43 40 44 42 45
REMARK SMILES IDX 39 46 61 47 62 48 67 49 63 50 64 51 66 52 68 53 65 54 49 55
REMARK SMILES IDX 50 56 55 57 51 58 52 59 54 60 56 61 53 62 6 63 7 64 8 65
REMARK SMILES IDX 9 67 10 68 11 69 16 70 12 71 15 72 13 73 14 74 17 75 18 76
REMARK SMILES IDX 19 78 20 79 21 80 25 81 22 82 23 83 24 84
REMARK H PARENT 3 6 73 24 47 35 7 66 17 77
REMARK Flexibility Score: inf
ROOT
ATOM      1  C   UNL     1       4.764   2.306  -1.257  1.00  0.00     0.042 C 
ENDROOT
BRANCH   1   2
ATOM      2  C   UNL     1       4.474   1.510   0.009  1.00  0.00     0.118 C 
BRANCH   2   3
ATOM      3  N   UNL     1       3.056   1.210   0.164  1.00  0.00    -0.352 N 
ATOM      4  O   UNL     1       1.141   0.051   0.019  1.00  0.00    -0.269 OA
ATOM      5  C   UNL     1       2.368   0.027   0.065  1.00  0.00     0.251 C 
ATOM      6  H   UNL     1       2.495   1.991   0.376  1.00  0.00     0.163 HD
BRANCH   5   7
ATOM      7  C   UNL     1       3.075  -1.272   0.005  1.00  0.00     0.039 A 
ATOM      8  C   UNL     1       4.205  -1.521   0.786  1.00  0.00     0.014 A 
ATOM      9  C   UNL     1       2.550  -2.294  -0.795  1.00  0.00     0.014 A 
ATOM     10  C   UNL     1       4.886  -2.728   0.662  1.00  0.00     0.010 A 
ATOM     11  C   UNL     1       3.184  -3.539  -0.852  1.00  0.00     0.010 A 
ATOM     12  C   UNL     1       4.374  -3.757  -0.143  1.00  0.00    -0.014 A 
BRANCH  12  13
ATOM     13  C   UNL     1       5.068  -5.069  -0.172  1.00  0.00     0.031 A 
ATOM     14  C   UNL     1       5.720  -5.577  -1.426  1.00  0.00     0.074 A 
ATOM     15  C   UNL     1       5.135  -5.790   0.964  1.00  0.00     0.049 A 
ATOM     16  N   UNL     1       6.395  -6.684  -1.611  1.00  0.00    -0.248 NA
ATOM     17  C   UNL     1       5.594  -4.743  -2.631  1.00  0.00     0.031 C 
ATOM     18  C   UNL     1       4.524  -5.409   2.241  1.00  0.00     0.029 A 
ATOM     19  N   UNL     1       5.762  -6.977   1.238  1.00  0.00    -0.354 N 
ATOM     20  C   UNL     1       6.758  -6.689  -2.951  1.00  0.00     0.074 A 
ATOM     21  C   UNL     1       6.210  -5.486  -3.541  1.00  0.00     0.031 C 
ATOM     22  C   UNL     1       4.848  -6.318   3.172  1.00  0.00     0.029 A 
ATOM     23  C   UNL     1       5.645  -7.369   2.549  1.00  0.00     0.049 A 
ATOM     24  H   UNL     1       6.250  -7.499   0.560  1.00  0.00     0.167 HD
ATOM     25  C   UNL     1       7.487  -7.611  -3.625  1.00  0.00     0.037 A 
ATOM     26  C   UNL     1       6.119  -8.457   3.182  1.00  0.00     0.037 A 
ATOM     27  C   UNL     1       8.052  -8.796  -3.032  1.00  0.00     0.049 A 
ATOM     28  C   UNL     1       6.926  -9.459   2.411  1.00  0.00     0.074 A 
ATOM     29  C   UNL     1       8.837  -9.768  -3.627  1.00  0.00     0.029 A 
ATOM     30  N   UNL     1       7.892  -9.168  -1.706  1.00  0.00    -0.354 N 
ATOM     31  N   UNL     1       7.282  -9.435   1.150  1.00  0.00    -0.248 NA
ATOM     32  C   UNL     1       7.390 -10.642   3.148  1.00  0.00     0.031 C 
ATOM     33  C   UNL     1       9.126 -10.746  -2.668  1.00  0.00     0.029 A 
ATOM     34  C   UNL     1       8.550 -10.364  -1.468  1.00  0.00     0.049 A 
ATOM     35  H   UNL     1       7.386  -8.658  -1.033  1.00  0.00     0.167 HD
ATOM     36  C   UNL     1       8.019 -10.592   0.943  1.00  0.00     0.074 A 
ATOM     37  C   UNL     1       8.076 -11.286   2.214  1.00  0.00     0.031 C 
ATOM     38  C   UNL     1       8.593 -11.041  -0.199  1.00  0.00     0.037 A 
BRANCH  25  39
ATOM     39  C   UNL     1       7.713  -7.381  -5.089  1.00  0.00     0.057 A 
ATOM     40  C   UNL     1       8.625  -6.425  -5.554  1.00  0.00     0.134 A 
ATOM     41  C   UNL     1       7.049  -8.160  -6.044  1.00  0.00     0.134 A 
ATOM     42  F   UNL     1       9.284  -5.638  -4.690  1.00  0.00    -0.206 F 
ATOM     43  C   UNL     1       8.859  -6.244  -6.918  1.00  0.00     0.040 A 
ATOM     44  C   UNL     1       7.288  -8.001  -7.410  1.00  0.00     0.040 A 
ATOM     45  F   UNL     1       6.166  -9.096  -5.665  1.00  0.00    -0.206 F 
ATOM     46  C   UNL     1       8.194  -7.039  -7.851  1.00  0.00     0.006 A 
ENDBRANCH  25  39
BRANCH  26  47
ATOM     47  C   UNL     1       5.842  -8.647   4.626  1.00  0.00     0.057 A 
ATOM     48  C   UNL     1       6.853  -8.496   5.581  1.00  0.00     0.134 A 
ATOM     49  C   UNL     1       4.558  -8.961   5.084  1.00  0.00     0.134 A 
ATOM     50  F   UNL     1       8.106  -8.211   5.199  1.00  0.00    -0.206 F 
ATOM     51  C   UNL     1       6.598  -8.660   6.943  1.00  0.00     0.040 A 
ATOM     52  C   UNL     1       4.284  -9.105   6.444  1.00  0.00     0.040 A 
ATOM     53  F   UNL     1       3.547  -9.110   4.216  1.00  0.00    -0.206 F 
ATOM     54  C   UNL     1       5.308  -8.959   7.378  1.00  0.00     0.006 A 
ENDBRANCH  26  47
BRANCH  38  55
ATOM     55  C   UNL     1       9.340 -12.336  -0.116  1.00  0.00     0.057 A 
ATOM     56  C   UNL     1       8.672 -13.565  -0.049  1.00  0.00     0.134 A 
ATOM     57  C   UNL     1      10.740 -12.356  -0.126  1.00  0.00     0.134 A 
ATOM     58  F   UNL     1       7.331 -13.608  -0.021  1.00  0.00    -0.206 F 
ATOM     59  C   UNL     1       9.371 -14.770   0.024  1.00  0.00     0.040 A 
ATOM     60  C   UNL     1      11.450 -13.555  -0.072  1.00  0.00     0.040 A 
ATOM     61  F   UNL     1      11.437 -11.212  -0.192  1.00  0.00    -0.206 F 
ATOM     62  C   UNL     1      10.765 -14.767   0.008  1.00  0.00     0.006 A 
ENDBRANCH  38  55
ENDBRANCH  12  13
ENDBRANCH   5   7
ENDBRANCH   2   3
ENDBRANCH   1   2
BRANCH   1  63
ATOM     63  C   UNL     1       4.139   3.696  -1.264  1.00  0.00     0.118 C 
BRANCH  63  64
ATOM     64  N   UNL     1       4.770   4.597  -0.304  1.00  0.00    -0.352 N 
ATOM     65  C   UNL     1       5.674   5.610  -0.520  1.00  0.00     0.253 C 
ATOM     66  H   UNL     1       4.509   4.460   0.635  1.00  0.00     0.163 HD
ATOM     67  O   UNL     1       6.274   6.120   0.421  1.00  0.00    -0.269 OA
BRANCH  65  68
ATOM     68  C   UNL     1       5.977   6.035  -1.903  1.00  0.00     0.064 A 
ATOM     69  C   UNL     1       4.902   6.386  -2.735  1.00  0.00     0.031 A 
ATOM     70  C   UNL     1       7.303   6.042  -2.382  1.00  0.00     0.054 A 
ATOM     71  C   UNL     1       5.121   6.578  -4.091  1.00  0.00     0.018 A 
ATOM     72  C   UNL     1       7.476   6.155  -3.764  1.00  0.00     0.028 A 
ATOM     73  Br  UNL     1       3.669   6.966  -5.232  1.00  0.00    -0.051 Br
ATOM     74  C   UNL     1       6.397   6.424  -4.615  1.00  0.00     0.018 A 
BRANCH  70  75
ATOM     75  N   UNL     1       8.373   5.914  -1.464  1.00  0.00    -0.321 N 
ATOM     76  C   UNL     1       9.740   6.090  -1.567  1.00  0.00     0.265 C 
ATOM     77  H   UNL     1       8.083   5.642  -0.564  1.00  0.00     0.170 HD
ATOM     78  O   UNL     1      10.431   5.735  -0.610  1.00  0.00    -0.268 OA
BRANCH  76  79
ATOM     79  C   UNL     1      10.309   6.723  -2.738  1.00  0.00     0.093 A 
ATOM     80  C   UNL     1      10.039   7.966  -3.286  1.00  0.00     0.027 A 
ATOM     81  S   UNL     1      11.520   5.894  -3.626  1.00  0.00    -0.123 S 
ATOM     82  C   UNL     1      10.740   8.175  -4.513  1.00  0.00     0.028 A 
ATOM     83  C   UNL     1      11.554   7.110  -4.804  1.00  0.00     0.071 A 
ATOM     84  Br  UNL     1      12.599   7.000  -6.355  1.00  0.00    -0.039 Br
ENDBRANCH  76  79
ENDBRANCH  70  75
ENDBRANCH  65  68
ENDBRANCH  63  64
ENDBRANCH   1  63
TORSDOF 12
