REMARK SMILES CC(C)(C)[N@@H+](CC(=O)NCCCNC(=O)c1ccc(-c2c3nc(c(-c4c(F)cccc4F)c4ccc([nH]4)c(-c4c(F)cccc4F)c4nc(c(-c5c(F)cccc5F)c5ccc2[nH]5)C=C4)C=C3)cc1)C[C@@H]1Cc2cc(F)ccc2O1
REMARK SMILES IDX 10 1 9 2 7 3 8 4 6 6 5 7 2 9 1 10 3 11 4 12 70 13 71 14
REMARK SMILES IDX 72 15 80 16 73 17 79 18 74 19 78 20 75 21 77 22 76 23 11 24
REMARK SMILES IDX 12 25 13 26 14 27 15 29 16 30 17 31 69 32 18 33 68 34 19 35
REMARK SMILES IDX 20 36 21 37 62 38 22 39 67 40 61 41 63 42 23 43 66 44 60 45
REMARK SMILES IDX 59 46 24 48 50 49 33 50 49 51 34 52 37 53 48 54 64 55 35 56
REMARK SMILES IDX 36 57 47 59 65 60 38 61 25 62 26 63 31 64 27 65 28 66 30 67
REMARK SMILES IDX 32 68 29 69 51 70 52 71 57 72 53 73 54 74 56 75 58 76 55 77
REMARK SMILES IDX 39 78 40 79 45 80 41 81 42 82 44 83 46 84 43 85
REMARK H PARENT 9 5 5 8 13 28 63 47 37 58
REMARK Flexibility Score: inf
ROOT
ATOM      1  C   UNL     1       3.266  -1.248   1.936  1.00  0.00     0.118 C 
ENDROOT
BRANCH   1   2
ATOM      2  N   UNL     1       3.334  -2.486   1.175  1.00  0.00    -0.351 N 
ATOM      3  C   UNL     1       3.059  -2.785  -0.131  1.00  0.00     0.275 C 
ATOM      4  O   UNL     1       3.334  -3.926  -0.514  1.00  0.00    -0.269 OA
ATOM      5  H   UNL     1       3.637  -3.260   1.704  1.00  0.00     0.163 HD
BRANCH   3   6
ATOM      6  C   UNL     1       2.462  -1.747  -1.083  1.00  0.00     0.364 C 
BRANCH   6   7
ATOM      7  N   UNL     1       1.075  -2.056  -1.496  1.00  0.00    -0.320 N 
ATOM      8  H   UNL     1       0.354  -1.397  -1.790  1.00  0.00     0.349 HD
BRANCH   7   9
ATOM      9  C   UNL     1      -0.054  -1.654  -0.645  1.00  0.00     0.090 C 
ATOM     10  C   UNL     1       0.142  -0.199  -0.138  1.00  0.00     0.078 C 
ATOM     11  C   UNL     1      -0.224  -2.625   0.544  1.00  0.00     0.078 C 
ATOM     12  C   UNL     1      -1.415  -1.586  -1.369  1.00  0.00     0.078 C 
ENDBRANCH   7   9
BRANCH   7  13
ATOM     13  C   UNL     1       0.962  -2.890  -2.700  1.00  0.00     0.309 C 
BRANCH  13  14
ATOM     14  C   UNL     1       0.294  -4.292  -2.760  1.00  0.00     0.232 C 
ATOM     15  C   UNL     1      -1.136  -4.316  -3.334  1.00  0.00     0.090 C 
ATOM     16  O   UNL     1       0.344  -5.010  -1.506  1.00  0.00    -0.484 OA
ATOM     17  C   UNL     1      -1.778  -5.256  -2.390  1.00  0.00     0.001 A 
ATOM     18  C   UNL     1      -0.866  -5.643  -1.420  1.00  0.00     0.123 A 
ATOM     19  C   UNL     1      -3.076  -5.736  -2.370  1.00  0.00     0.047 A 
ATOM     20  C   UNL     1      -1.189  -6.553  -0.431  1.00  0.00     0.050 A 
ATOM     21  C   UNL     1      -3.418  -6.644  -1.369  1.00  0.00     0.123 A 
ATOM     22  C   UNL     1      -2.487  -7.066  -0.412  1.00  0.00     0.043 A 
ATOM     23  F   UNL     1      -4.668  -7.125  -1.321  1.00  0.00    -0.207 F 
ENDBRANCH  13  14
ENDBRANCH   7  13
ENDBRANCH   6   7
ENDBRANCH   3   6
ENDBRANCH   1   2
BRANCH   1  24
ATOM     24  C   UNL     1       2.025  -1.103   2.821  1.00  0.00     0.042 C 
BRANCH  24  25
ATOM     25  C   UNL     1       1.713  -2.284   3.738  1.00  0.00     0.118 C 
BRANCH  25  26
ATOM     26  N   UNL     1       2.189  -2.048   5.088  1.00  0.00    -0.352 N 
ATOM     27  C   UNL     1       1.481  -2.007   6.262  1.00  0.00     0.251 C 
ATOM     28  H   UNL     1       3.158  -1.896   5.174  1.00  0.00     0.163 HD
ATOM     29  O   UNL     1       2.011  -1.517   7.262  1.00  0.00    -0.269 OA
BRANCH  27  30
ATOM     30  C   UNL     1       0.103  -2.551   6.368  1.00  0.00     0.039 A 
ATOM     31  C   UNL     1      -0.811  -1.889   7.197  1.00  0.00     0.014 A 
ATOM     32  C   UNL     1      -0.260  -3.767   5.778  1.00  0.00     0.014 A 
ATOM     33  C   UNL     1      -2.071  -2.445   7.446  1.00  0.00     0.010 A 
ATOM     34  C   UNL     1      -1.535  -4.301   5.994  1.00  0.00     0.010 A 
ATOM     35  C   UNL     1      -2.440  -3.663   6.858  1.00  0.00    -0.014 A 
BRANCH  35  36
ATOM     36  C   UNL     1      -3.731  -4.313   7.212  1.00  0.00     0.031 A 
ATOM     37  C   UNL     1      -3.743  -5.551   8.070  1.00  0.00     0.074 A 
ATOM     38  C   UNL     1      -4.895  -3.797   6.776  1.00  0.00     0.049 A 
ATOM     39  N   UNL     1      -4.761  -6.257   8.495  1.00  0.00    -0.248 NA
ATOM     40  C   UNL     1      -2.434  -6.069   8.498  1.00  0.00     0.031 C 
ATOM     41  C   UNL     1      -5.030  -2.610   5.934  1.00  0.00     0.029 A 
ATOM     42  N   UNL     1      -6.188  -4.208   6.988  1.00  0.00    -0.354 N 
ATOM     43  C   UNL     1      -4.218  -7.303   9.231  1.00  0.00     0.074 A 
ATOM     44  C   UNL     1      -2.779  -7.165   9.157  1.00  0.00     0.031 C 
ATOM     45  C   UNL     1      -6.336  -2.372   5.721  1.00  0.00     0.029 A 
ATOM     46  C   UNL     1      -7.126  -3.404   6.390  1.00  0.00     0.049 A 
ATOM     47  H   UNL     1      -6.420  -5.005   7.518  1.00  0.00     0.167 HD
ATOM     48  C   UNL     1      -4.854  -8.279   9.923  1.00  0.00     0.037 A 
ATOM     49  C   UNL     1      -8.470  -3.484   6.385  1.00  0.00     0.037 A 
ATOM     50  C   UNL     1      -6.284  -8.415  10.017  1.00  0.00     0.049 A 
ATOM     51  C   UNL     1      -9.155  -4.593   7.135  1.00  0.00     0.074 A 
ATOM     52  C   UNL     1      -7.020  -9.349  10.727  1.00  0.00     0.029 A 
ATOM     53  N   UNL     1      -7.198  -7.590   9.378  1.00  0.00    -0.354 N 
ATOM     54  N   UNL     1      -8.629  -5.548   7.861  1.00  0.00    -0.248 NA
ATOM     55  C   UNL     1     -10.624  -4.630   7.065  1.00  0.00     0.031 C 
ATOM     56  C   UNL     1      -8.379  -9.110  10.490  1.00  0.00     0.029 A 
ATOM     57  C   UNL     1      -8.489  -8.005   9.663  1.00  0.00     0.049 A 
ATOM     58  H   UNL     1      -6.963  -6.824   8.806  1.00  0.00     0.167 HD
ATOM     59  C   UNL     1      -9.699  -6.281   8.358  1.00  0.00     0.074 A 
ATOM     60  C   UNL     1     -10.905  -5.657   7.855  1.00  0.00     0.031 C 
ATOM     61  C   UNL     1      -9.682  -7.372   9.163  1.00  0.00     0.037 A 
BRANCH  48  62
ATOM     62  C   UNL     1      -3.996  -9.284  10.635  1.00  0.00     0.057 A 
ATOM     63  C   UNL     1      -3.273  -8.949  11.788  1.00  0.00     0.134 A 
ATOM     64  C   UNL     1      -3.899 -10.601  10.171  1.00  0.00     0.134 A 
ATOM     65  F   UNL     1      -3.314  -7.700  12.277  1.00  0.00    -0.206 F 
ATOM     66  C   UNL     1      -2.459  -9.880  12.436  1.00  0.00     0.040 A 
ATOM     67  C   UNL     1      -3.107 -11.548  10.825  1.00  0.00     0.040 A 
ATOM     68  F   UNL     1      -4.571 -10.990   9.078  1.00  0.00    -0.206 F 
ATOM     69  C   UNL     1      -2.378 -11.186  11.955  1.00  0.00     0.006 A 
ENDBRANCH  48  62
BRANCH  49  70
ATOM     70  C   UNL     1      -9.267  -2.455   5.673  1.00  0.00     0.057 A 
ATOM     71  C   UNL     1      -9.988  -1.489   6.385  1.00  0.00     0.134 A 
ATOM     72  C   UNL     1      -9.327  -2.410   4.276  1.00  0.00     0.134 A 
ATOM     73  F   UNL     1      -9.985  -1.497   7.726  1.00  0.00    -0.206 F 
ATOM     74  C   UNL     1     -10.748  -0.518   5.732  1.00  0.00     0.040 A 
ATOM     75  C   UNL     1     -10.068  -1.433   3.610  1.00  0.00     0.040 A 
ATOM     76  F   UNL     1      -8.657  -3.309   3.541  1.00  0.00    -0.206 F 
ATOM     77  C   UNL     1     -10.784  -0.485   4.339  1.00  0.00     0.006 A 
ENDBRANCH  49  70
BRANCH  61  78
ATOM     78  C   UNL     1     -11.007  -7.939   9.578  1.00  0.00     0.057 A 
ATOM     79  C   UNL     1     -11.801  -8.681   8.695  1.00  0.00     0.134 A 
ATOM     80  C   UNL     1     -11.478  -7.768  10.886  1.00  0.00     0.134 A 
ATOM     81  F   UNL     1     -11.412  -8.869   7.425  1.00  0.00    -0.206 F 
ATOM     82  C   UNL     1     -13.027  -9.218   9.094  1.00  0.00     0.040 A 
ATOM     83  C   UNL     1     -12.692  -8.316  11.302  1.00  0.00     0.040 A 
ATOM     84  F   UNL     1     -10.762  -7.072  11.782  1.00  0.00    -0.206 F 
ATOM     85  C   UNL     1     -13.473  -9.040  10.403  1.00  0.00     0.006 A 
ENDBRANCH  61  78
ENDBRANCH  35  36
ENDBRANCH  27  30
ENDBRANCH  25  26
ENDBRANCH  24  25
ENDBRANCH   1  24
TORSDOF 14
