REMARK SMILES Cc1cccc(C[N@@H+](C)C[C@]2(C(=O)NCCCNC(=O)c3ccc(-c4c5nc(c(-c6c(F)cccc6F)c6ccc([nH]6)c(-c6c(F)cccc6F)c6nc(c(-c7c(F)cccc7F)c7ccc4[nH]7)C=C6)C=C5)cc3)CCOC2)n1
REMARK SMILES IDX 15 1 14 2 12 3 13 4 11 6 75 7 78 8 76 9 77 10 10 11 8 12
REMARK SMILES IDX 9 13 7 15 6 16 1 17 2 18 3 19 79 20 4 21 5 22 16 23 17 24
REMARK SMILES IDX 18 25 19 26 20 28 21 29 22 30 74 31 23 32 73 33 24 34 25 35
REMARK SMILES IDX 26 36 67 37 27 38 72 39 66 40 68 41 28 42 71 43 65 44 64 45
REMARK SMILES IDX 29 47 55 48 38 49 54 50 39 51 42 52 53 53 69 54 40 55 41 56
REMARK SMILES IDX 52 58 70 59 43 60 30 61 31 62 36 63 32 64 33 65 35 66 37 67
REMARK SMILES IDX 34 68 56 69 57 70 62 71 58 72 59 73 61 74 63 75 60 76 44 77
REMARK SMILES IDX 45 78 50 79 46 80 47 81 49 82 51 83 48 84
REMARK H PARENT 14 5 8 14 18 27 68 46 42 57
REMARK Flexibility Score: inf
ROOT
ATOM      1  C   UNL     1      -6.518   1.872   2.211  1.00  0.00     0.117 C 
ENDROOT
BRANCH   1   2
ATOM      2  N   UNL     1      -5.449   1.665   1.256  1.00  0.00    -0.355 N 
ATOM      3  C   UNL     1      -4.149   2.038   1.223  1.00  0.00     0.234 C 
ATOM      4  O   UNL     1      -3.700   2.068   0.077  1.00  0.00    -0.274 OA
ATOM      5  H   UNL     1      -5.725   1.144   0.468  1.00  0.00     0.163 HD
BRANCH   3   6
ATOM      6  C   UNL     1      -3.313   2.370   2.464  1.00  0.00     0.123 C 
ATOM      7  C   UNL     1      -3.809   3.602   3.226  1.00  0.00     0.054 C 
ATOM      8  C   UNL     1      -3.509   1.227   3.493  1.00  0.00     0.183 C 
ATOM      9  C   UNL     1      -3.791   3.174   4.678  1.00  0.00     0.161 C 
ATOM     10  O   UNL     1      -4.118   1.787   4.666  1.00  0.00    -0.380 OA
BRANCH   6  11
ATOM     11  C   UNL     1      -1.772   2.445   2.161  1.00  0.00     0.281 C 
BRANCH  11  12
ATOM     12  N   UNL     1      -1.124   3.275   1.135  1.00  0.00    -0.331 N 
ATOM     13  C   UNL     1      -1.620   4.634   1.008  1.00  0.00     0.333 C 
ATOM     14  H   UNL     1      -0.197   3.337   1.555  1.00  0.00     0.348 HD
BRANCH  12  15
ATOM     15  C   UNL     1      -0.904   2.663  -0.198  1.00  0.00     0.319 C 
BRANCH  15  16
ATOM     16  C   UNL     1      -0.373   1.235  -0.217  1.00  0.00     0.095 A 
ATOM     17  C   UNL     1       2.933  -0.340   0.081  1.00  0.00     0.067 C 
ATOM     18  C   UNL     1       1.447  -0.203  -0.035  1.00  0.00     0.038 A 
ATOM     19  C   UNL     1       0.628  -1.324  -0.109  1.00  0.00     0.023 A 
ATOM     20  N   UNL     1       0.965   1.062  -0.073  1.00  0.00    -0.252 NA
ATOM     21  C   UNL     1      -0.738  -1.140  -0.266  1.00  0.00     0.004 A 
ATOM     22  C   UNL     1      -1.244   0.152  -0.340  1.00  0.00     0.030 A 
ENDBRANCH  15  16
ENDBRANCH  12  15
ENDBRANCH  11  12
ENDBRANCH   6  11
ENDBRANCH   3   6
ENDBRANCH   1   2
BRANCH   1  23
ATOM     23  C   UNL     1      -7.396   3.046   1.780  1.00  0.00     0.042 C 
BRANCH  23  24
ATOM     24  C   UNL     1      -7.834   2.999   0.316  1.00  0.00     0.118 C 
BRANCH  24  25
ATOM     25  N   UNL     1      -8.543   1.773  -0.024  1.00  0.00    -0.352 N 
ATOM     26  C   UNL     1      -9.842   1.593  -0.430  1.00  0.00     0.251 C 
ATOM     27  H   UNL     1      -8.010   0.949   0.048  1.00  0.00     0.163 HD
ATOM     28  O   UNL     1     -10.316   0.468  -0.499  1.00  0.00    -0.269 OA
BRANCH  26  29
ATOM     29  C   UNL     1     -10.673   2.769  -0.754  1.00  0.00     0.039 A 
ATOM     30  C   UNL     1     -11.954   2.858  -0.206  1.00  0.00     0.014 A 
ATOM     31  C   UNL     1     -10.182   3.784  -1.579  1.00  0.00     0.014 A 
ATOM     32  C   UNL     1     -12.716   4.006  -0.426  1.00  0.00     0.010 A 
ATOM     33  C   UNL     1     -10.910   4.959  -1.730  1.00  0.00     0.010 A 
ATOM     34  C   UNL     1     -12.183   5.083  -1.153  1.00  0.00    -0.014 A 
BRANCH  34  35
ATOM     35  C   UNL     1     -12.937   6.353  -1.306  1.00  0.00     0.031 A 
ATOM     36  C   UNL     1     -13.360   6.822  -2.670  1.00  0.00     0.074 A 
ATOM     37  C   UNL     1     -13.180   7.115  -0.222  1.00  0.00     0.049 A 
ATOM     38  N   UNL     1     -13.965   7.931  -3.011  1.00  0.00    -0.248 NA
ATOM     39  C   UNL     1     -13.038   5.941  -3.804  1.00  0.00     0.031 C 
ATOM     40  C   UNL     1     -12.775   6.793   1.149  1.00  0.00     0.029 A 
ATOM     41  N   UNL     1     -13.819   8.323  -0.102  1.00  0.00    -0.354 N 
ATOM     42  C   UNL     1     -14.080   7.889  -4.394  1.00  0.00     0.074 A 
ATOM     43  C   UNL     1     -13.438   6.670  -4.835  1.00  0.00     0.031 C 
ATOM     44  C   UNL     1     -13.198   7.765   1.973  1.00  0.00     0.029 A 
ATOM     45  C   UNL     1     -13.866   8.797   1.187  1.00  0.00     0.049 A 
ATOM     46  H   UNL     1     -14.206   8.806  -0.868  1.00  0.00     0.167 HD
ATOM     47  C   UNL     1     -14.688   8.774  -5.219  1.00  0.00     0.037 A 
ATOM     48  C   UNL     1     -14.384   9.938   1.679  1.00  0.00     0.037 A 
ATOM     49  C   UNL     1     -15.350   9.971  -4.773  1.00  0.00     0.049 A 
ATOM     50  C   UNL     1     -15.048  10.906   0.739  1.00  0.00     0.074 A 
ATOM     51  C   UNL     1     -16.052  10.898  -5.524  1.00  0.00     0.029 A 
ATOM     52  N   UNL     1     -15.391  10.408  -3.458  1.00  0.00    -0.354 N 
ATOM     53  N   UNL     1     -15.215  10.817  -0.559  1.00  0.00    -0.248 NA
ATOM     54  C   UNL     1     -15.601  12.132   1.332  1.00  0.00     0.031 C 
ATOM     55  C   UNL     1     -16.477  11.920  -4.671  1.00  0.00     0.029 A 
ATOM     56  C   UNL     1     -16.085  11.604  -3.380  1.00  0.00     0.049 A 
ATOM     57  H   UNL     1     -14.986   9.938  -2.693  1.00  0.00     0.167 HD
ATOM     58  C   UNL     1     -15.916  11.956  -0.931  1.00  0.00     0.074 A 
ATOM     59  C   UNL     1     -16.157  12.713   0.279  1.00  0.00     0.031 C 
ATOM     60  C   UNL     1     -16.325  12.341  -2.165  1.00  0.00     0.037 A 
BRANCH  47  61
ATOM     61  C   UNL     1     -14.671   8.477  -6.691  1.00  0.00     0.057 A 
ATOM     62  C   UNL     1     -15.421   7.430  -7.242  1.00  0.00     0.134 A 
ATOM     63  C   UNL     1     -13.931   9.276  -7.572  1.00  0.00     0.134 A 
ATOM     64  F   UNL     1     -16.142   6.620  -6.452  1.00  0.00    -0.206 F 
ATOM     65  C   UNL     1     -15.419   7.174  -8.615  1.00  0.00     0.040 A 
ATOM     66  C   UNL     1     -13.943   9.046  -8.950  1.00  0.00     0.040 A 
ATOM     67  F   UNL     1     -13.195  10.298  -7.112  1.00  0.00    -0.206 F 
ATOM     68  C   UNL     1     -14.684   7.989  -9.473  1.00  0.00     0.006 A 
ENDBRANCH  47  61
BRANCH  48  69
ATOM     69  C   UNL     1     -14.316  10.224   3.135  1.00  0.00     0.057 A 
ATOM     70  C   UNL     1     -15.473  10.226   3.924  1.00  0.00     0.134 A 
ATOM     71  C   UNL     1     -13.104  10.520   3.768  1.00  0.00     0.134 A 
ATOM     72  F   UNL     1     -16.667   9.967   3.370  1.00  0.00    -0.206 F 
ATOM     73  C   UNL     1     -15.431  10.536   5.284  1.00  0.00     0.040 A 
ATOM     74  C   UNL     1     -13.043  10.806   5.133  1.00  0.00     0.040 A 
ATOM     75  F   UNL     1     -11.958  10.526   3.071  1.00  0.00    -0.206 F 
ATOM     76  C   UNL     1     -14.211  10.823   5.893  1.00  0.00     0.006 A 
ENDBRANCH  48  69
BRANCH  60  77
ATOM     77  C   UNL     1     -17.107  13.617  -2.262  1.00  0.00     0.057 A 
ATOM     78  C   UNL     1     -16.506  14.870  -2.089  1.00  0.00     0.134 A 
ATOM     79  C   UNL     1     -18.474  13.592  -2.571  1.00  0.00     0.134 A 
ATOM     80  F   UNL     1     -15.204  14.962  -1.778  1.00  0.00    -0.206 F 
ATOM     81  C   UNL     1     -17.240  16.052  -2.196  1.00  0.00     0.040 A 
ATOM     82  C   UNL     1     -19.212  14.768  -2.709  1.00  0.00     0.040 A 
ATOM     83  F   UNL     1     -19.109  12.425  -2.759  1.00  0.00    -0.206 F 
ATOM     84  C   UNL     1     -18.596  16.002  -2.514  1.00  0.00     0.006 A 
ENDBRANCH  60  77
ENDBRANCH  34  35
ENDBRANCH  26  29
ENDBRANCH  24  25
ENDBRANCH  23  24
ENDBRANCH   1  23
TORSDOF 14
