REMARK SMILES O=C(CC[NH2+]C[C@H](O)Cn1c2ccccc2c2ccccc21)NCCCNC(=O)c1ccc(-c2c3nc(c(-c4c(F)cccc4F)c4ccc([nH]4)c(-c4c(F)cccc4F)c4nc(c(-c5c(F)cccc5F)c5ccc2[nH]5)C=C4)C=C3)cc1
REMARK SMILES IDX 1 1 2 2 23 3 3 5 4 6 5 7 6 10 7 11 9 12 10 13 11 14 22 15
REMARK SMILES IDX 12 16 16 17 17 18 21 19 13 20 15 21 18 22 20 23 14 24 19 25
REMARK SMILES IDX 8 26 24 28 25 29 26 30 27 31 28 32 29 34 30 35 31 36 83 37
REMARK SMILES IDX 32 38 82 39 33 40 34 41 35 42 76 43 36 44 81 45 75 46 77 47
REMARK SMILES IDX 37 48 80 49 74 50 73 51 38 53 64 54 47 55 63 56 48 57 51 58
REMARK SMILES IDX 62 59 78 60 49 61 50 62 61 64 79 65 52 66 39 67 40 68 45 69
REMARK SMILES IDX 41 70 42 71 44 72 46 73 43 74 65 75 66 76 71 77 67 78 68 79
REMARK SMILES IDX 70 80 72 81 69 82 53 83 54 84 59 85 55 86 56 87 58 88 60 89
REMARK SMILES IDX 57 90
REMARK H PARENT 23 4 5 8 5 9 8 27 27 33 77 52 51 63
REMARK Flexibility Score: inf
ROOT
ATOM      1  O   UNL     1       3.073   6.442   5.707  1.00  0.00    -0.275 OA
ATOM      2  C   UNL     1       2.922   5.251   5.911  1.00  0.00     0.225 C 
ATOM      3  N   UNL     1       3.758   4.481   6.691  1.00  0.00    -0.356 N 
ATOM      4  H   UNL     1       3.504   3.545   6.858  1.00  0.00     0.163 HD
ENDROOT
BRANCH   2   5
ATOM      5  C   UNL     1       1.825   4.432   5.257  1.00  0.00     0.161 C 
BRANCH   5   6
ATOM      6  C   UNL     1       2.373   3.653   4.060  1.00  0.00     0.270 C 
BRANCH   6   7
ATOM      7  N   UNL     1       3.303   2.591   4.477  1.00  0.00    -0.344 N 
ATOM      8  H   UNL     1       2.795   1.919   5.051  1.00  0.00     0.346 HD
ATOM      9  H   UNL     1       4.062   3.031   4.997  1.00  0.00     0.346 HD
BRANCH   7  10
ATOM     10  C   UNL     1       3.897   1.882   3.336  1.00  0.00     0.294 C 
BRANCH  10  11
ATOM     11  C   UNL     1       4.754   2.718   2.355  1.00  0.00     0.189 C 
BRANCH  11  12
ATOM     12  C   UNL     1       5.885   3.485   3.071  1.00  0.00     0.160 C 
BRANCH  12  13
ATOM     13  N   UNL     1       6.514   4.487   2.215  1.00  0.00    -0.338 N 
ATOM     14  C   UNL     1       7.466   4.194   1.257  1.00  0.00     0.049 A 
ATOM     15  C   UNL     1       6.243   5.844   2.234  1.00  0.00     0.049 A 
ATOM     16  C   UNL     1       8.109   2.986   0.936  1.00  0.00     0.027 A 
ATOM     17  C   UNL     1       7.711   5.372   0.553  1.00  0.00     0.007 A 
ATOM     18  C   UNL     1       6.972   6.417   1.188  1.00  0.00     0.007 A 
ATOM     19  C   UNL     1       5.424   6.625   3.068  1.00  0.00     0.027 A 
ATOM     20  C   UNL     1       8.965   2.968  -0.166  1.00  0.00     0.002 A 
ATOM     21  C   UNL     1       8.588   5.329  -0.551  1.00  0.00     0.011 A 
ATOM     22  C   UNL     1       6.872   7.808   0.966  1.00  0.00     0.011 A 
ATOM     23  C   UNL     1       5.353   8.003   2.836  1.00  0.00     0.002 A 
ATOM     24  C   UNL     1       9.195   4.120  -0.908  1.00  0.00     0.001 A 
ATOM     25  C   UNL     1       6.065   8.590   1.798  1.00  0.00     0.001 A 
ENDBRANCH  12  13
ENDBRANCH  11  12
BRANCH  11  26
ATOM     26  O   UNL     1       5.284   1.788   1.400  1.00  0.00    -0.385 OA
ATOM     27  H   UNL     1       5.818   1.122   1.860  1.00  0.00     0.211 HD
ENDBRANCH  11  26
ENDBRANCH  10  11
ENDBRANCH   7  10
ENDBRANCH   6   7
ENDBRANCH   5   6
ENDBRANCH   2   5
BRANCH   3  28
ATOM     28  C   UNL     1       4.990   4.969   7.279  1.00  0.00     0.117 C 
BRANCH  28  29
ATOM     29  C   UNL     1       5.183   4.448   8.701  1.00  0.00     0.042 C 
BRANCH  29  30
ATOM     30  C   UNL     1       5.216   2.920   8.807  1.00  0.00     0.118 C 
BRANCH  30  31
ATOM     31  N   UNL     1       6.334   2.291   8.135  1.00  0.00    -0.352 N 
ATOM     32  C   UNL     1       7.579   1.895   8.542  1.00  0.00     0.251 C 
ATOM     33  H   UNL     1       6.162   2.111   7.183  1.00  0.00     0.163 HD
ATOM     34  O   UNL     1       8.187   1.141   7.779  1.00  0.00    -0.269 OA
BRANCH  32  35
ATOM     35  C   UNL     1       8.267   2.391   9.762  1.00  0.00     0.039 A 
ATOM     36  C   UNL     1       7.691   3.192  10.747  1.00  0.00     0.014 A 
ATOM     37  C   UNL     1       9.642   2.101   9.845  1.00  0.00     0.014 A 
ATOM     38  C   UNL     1       8.488   3.818  11.693  1.00  0.00     0.010 A 
ATOM     39  C   UNL     1      10.441   2.701  10.806  1.00  0.00     0.010 A 
ATOM     40  C   UNL     1       9.869   3.615  11.682  1.00  0.00    -0.014 A 
BRANCH  40  41
ATOM     41  C   UNL     1      10.661   4.295  12.700  1.00  0.00     0.031 A 
ATOM     42  C   UNL     1      10.275   3.933  14.094  1.00  0.00     0.074 A 
ATOM     43  C   UNL     1      11.704   5.095  12.393  1.00  0.00     0.049 A 
ATOM     44  N   UNL     1       9.851   4.712  15.035  1.00  0.00    -0.248 NA
ATOM     45  C   UNL     1      10.205   2.500  14.432  1.00  0.00     0.031 C 
ATOM     46  C   UNL     1      12.301   5.327  11.075  1.00  0.00     0.029 A 
ATOM     47  N   UNL     1      12.522   5.807  13.220  1.00  0.00    -0.354 N 
ATOM     48  C   UNL     1       9.657   3.893  16.148  1.00  0.00     0.074 A 
ATOM     49  C   UNL     1       9.727   2.538  15.675  1.00  0.00     0.031 C 
ATOM     50  C   UNL     1      13.508   5.917  11.224  1.00  0.00     0.029 A 
ATOM     51  C   UNL     1      13.710   6.226  12.628  1.00  0.00     0.049 A 
ATOM     52  H   UNL     1      12.291   6.008  14.156  1.00  0.00     0.167 HD
ATOM     53  C   UNL     1       9.718   4.401  17.410  1.00  0.00     0.037 A 
ATOM     54  C   UNL     1      14.801   6.729  13.261  1.00  0.00     0.037 A 
ATOM     55  C   UNL     1       9.463   5.819  17.408  1.00  0.00     0.049 A 
ATOM     56  C   UNL     1      14.372   7.178  14.607  1.00  0.00     0.074 A 
ATOM     57  C   UNL     1       8.399   6.624  17.052  1.00  0.00     0.029 A 
ATOM     58  N   UNL     1      10.544   6.658  17.508  1.00  0.00    -0.354 N 
ATOM     59  N   UNL     1      13.595   8.203  14.812  1.00  0.00    -0.248 NA
ATOM     60  C   UNL     1      14.424   6.205  15.687  1.00  0.00     0.031 C 
ATOM     61  C   UNL     1       8.990   7.796  16.494  1.00  0.00     0.029 A 
ATOM     62  C   UNL     1      10.375   7.667  16.599  1.00  0.00     0.049 A 
ATOM     63  H   UNL     1      11.305   6.554  18.124  1.00  0.00     0.167 HD
ATOM     64  C   UNL     1      12.733   7.793  15.819  1.00  0.00     0.074 A 
ATOM     65  C   UNL     1      13.343   6.585  16.373  1.00  0.00     0.031 C 
ATOM     66  C   UNL     1      11.471   8.305  15.911  1.00  0.00     0.037 A 
BRANCH  53  67
ATOM     67  C   UNL     1      10.466   3.721  18.542  1.00  0.00     0.057 A 
ATOM     68  C   UNL     1      11.407   2.685  18.371  1.00  0.00     0.134 A 
ATOM     69  C   UNL     1      10.511   4.360  19.796  1.00  0.00     0.134 A 
ATOM     70  F   UNL     1      11.511   1.973  17.245  1.00  0.00    -0.206 F 
ATOM     71  C   UNL     1      12.377   2.376  19.328  1.00  0.00     0.040 A 
ATOM     72  C   UNL     1      11.506   4.087  20.743  1.00  0.00     0.040 A 
ATOM     73  F   UNL     1       9.653   5.345  20.100  1.00  0.00    -0.206 F 
ATOM     74  C   UNL     1      12.459   3.108  20.500  1.00  0.00     0.006 A 
ENDBRANCH  53  67
BRANCH  54  75
ATOM     75  C   UNL     1      16.231   6.559  12.910  1.00  0.00     0.057 A 
ATOM     76  C   UNL     1      16.688   5.406  12.248  1.00  0.00     0.134 A 
ATOM     77  C   UNL     1      17.225   7.388  13.452  1.00  0.00     0.134 A 
ATOM     78  F   UNL     1      15.827   4.496  11.770  1.00  0.00    -0.206 F 
ATOM     79  C   UNL     1      18.047   5.092  12.134  1.00  0.00     0.040 A 
ATOM     80  C   UNL     1      18.590   7.083  13.350  1.00  0.00     0.040 A 
ATOM     81  F   UNL     1      16.891   8.484  14.149  1.00  0.00    -0.206 F 
ATOM     82  C   UNL     1      19.004   5.927  12.696  1.00  0.00     0.006 A 
ENDBRANCH  54  75
BRANCH  66  83
ATOM     83  C   UNL     1      11.140   9.493  15.053  1.00  0.00     0.057 A 
ATOM     84  C   UNL     1      10.697  10.666  15.673  1.00  0.00     0.134 A 
ATOM     85  C   UNL     1      11.126   9.473  13.650  1.00  0.00     0.134 A 
ATOM     86  F   UNL     1      10.626  10.737  17.012  1.00  0.00    -0.206 F 
ATOM     87  C   UNL     1      10.274  11.774  14.937  1.00  0.00     0.040 A 
ATOM     88  C   UNL     1      10.739  10.589  12.900  1.00  0.00     0.040 A 
ATOM     89  F   UNL     1      11.434   8.362  12.969  1.00  0.00    -0.206 F 
ATOM     90  C   UNL     1      10.307  11.743  13.546  1.00  0.00     0.006 A 
ENDBRANCH  66  83
ENDBRANCH  40  41
ENDBRANCH  32  35
ENDBRANCH  30  31
ENDBRANCH  29  30
ENDBRANCH  28  29
ENDBRANCH   3  28
TORSDOF 17
