REMARK SMILES O=C(NCCCNC(=O)C1(Cc2ccncc2)Cc2ccccc2C1)c1ccc(-c2c3nc(c(-c4c(F)cccc4F)c4ccc([nH]4)c(-c4c(F)cccc4F)c4nc(c(-c5c(F)cccc5F)c5ccc2[nH]5)C=C4)C=C3)cc1
REMARK SMILES IDX 5 1 4 2 3 3 1 4 2 5 26 7 27 8 79 9 28 10 78 11 29 12 30 13
REMARK SMILES IDX 31 14 72 15 32 16 77 17 71 18 73 19 33 20 76 21 70 22 69 23
REMARK SMILES IDX 34 25 60 26 43 27 59 28 44 29 47 30 58 31 74 32 45 33 46 34
REMARK SMILES IDX 57 36 75 37 48 38 35 39 36 40 41 41 37 42 38 43 40 44 42 45
REMARK SMILES IDX 39 46 61 47 62 48 67 49 63 50 64 51 66 52 68 53 65 54 49 55
REMARK SMILES IDX 50 56 55 57 51 58 52 59 54 60 56 61 53 62 6 63 7 64 8 65
REMARK SMILES IDX 9 67 10 68 18 69 25 70 19 71 24 72 20 73 23 74 21 75 22 76
REMARK SMILES IDX 11 77 12 78 13 79 17 80 14 81 16 82 15 83
REMARK H PARENT 3 6 73 24 47 35 7 66
REMARK Flexibility Score: inf
ROOT
ATOM      1  C   UNL     1       5.024  -1.709   1.057  1.00  0.00     0.042 C 
ENDROOT
BRANCH   1   2
ATOM      2  C   UNL     1       4.549  -1.316  -0.329  1.00  0.00     0.118 C 
BRANCH   2   3
ATOM      3  N   UNL     1       3.115  -1.048  -0.375  1.00  0.00    -0.352 N 
ATOM      4  O   UNL     1       1.192   0.090  -0.108  1.00  0.00    -0.269 OA
ATOM      5  C   UNL     1       2.411   0.127  -0.270  1.00  0.00     0.251 C 
ATOM      6  H   UNL     1       2.556  -1.848  -0.504  1.00  0.00     0.163 HD
BRANCH   5   7
ATOM      7  C   UNL     1       3.103   1.432  -0.327  1.00  0.00     0.039 A 
ATOM      8  C   UNL     1       4.175   1.628  -1.193  1.00  0.00     0.014 A 
ATOM      9  C   UNL     1       2.649   2.495   0.462  1.00  0.00     0.014 A 
ATOM     10  C   UNL     1       4.918   2.796  -1.126  1.00  0.00     0.010 A 
ATOM     11  C   UNL     1       3.314   3.726   0.423  1.00  0.00     0.010 A 
ATOM     12  C   UNL     1       4.476   3.875  -0.348  1.00  0.00    -0.014 A 
BRANCH  12  13
ATOM     13  C   UNL     1       5.206   5.164  -0.446  1.00  0.00     0.031 A 
ATOM     14  C   UNL     1       5.874   5.778   0.750  1.00  0.00     0.074 A 
ATOM     15  C   UNL     1       5.301   5.751  -1.656  1.00  0.00     0.049 A 
ATOM     16  N   UNL     1       6.572   6.883   0.822  1.00  0.00    -0.248 NA
ATOM     17  C   UNL     1       5.739   5.070   2.032  1.00  0.00     0.031 C 
ATOM     18  C   UNL     1       4.683   5.247  -2.887  1.00  0.00     0.029 A 
ATOM     19  N   UNL     1       5.971   6.875  -2.062  1.00  0.00    -0.354 N 
ATOM     20  C   UNL     1       6.938   7.017   2.155  1.00  0.00     0.074 A 
ATOM     21  C   UNL     1       6.367   5.891   2.863  1.00  0.00     0.031 C 
ATOM     22  C   UNL     1       5.057   6.017  -3.917  1.00  0.00     0.029 A 
ATOM     23  C   UNL     1       5.867   7.116  -3.411  1.00  0.00     0.049 A 
ATOM     24  H   UNL     1       6.478   7.453  -1.448  1.00  0.00     0.167 HD
ATOM     25  C   UNL     1       7.686   7.990   2.730  1.00  0.00     0.037 A 
ATOM     26  C   UNL     1       6.348   8.124  -4.159  1.00  0.00     0.037 A 
ATOM     27  C   UNL     1       8.262   9.098   2.011  1.00  0.00     0.049 A 
ATOM     28  C   UNL     1       7.149   9.200  -3.490  1.00  0.00     0.074 A 
ATOM     29  C   UNL     1       9.060  10.120   2.496  1.00  0.00     0.029 A 
ATOM     30  N   UNL     1       8.099   9.332   0.652  1.00  0.00    -0.354 N 
ATOM     31  N   UNL     1       7.503   9.300  -2.232  1.00  0.00    -0.248 NA
ATOM     32  C   UNL     1       7.607  10.305  -4.339  1.00  0.00     0.031 C 
ATOM     33  C   UNL     1       9.340  10.996   1.442  1.00  0.00     0.029 A 
ATOM     34  C   UNL     1       8.760  10.494   0.288  1.00  0.00     0.049 A 
ATOM     35  H   UNL     1       7.588   8.756   0.038  1.00  0.00     0.167 HD
ATOM     36  C   UNL     1       8.237  10.474  -2.138  1.00  0.00     0.074 A 
ATOM     37  C   UNL     1       8.296  11.035  -3.473  1.00  0.00     0.031 C 
ATOM     38  C   UNL     1       8.805  11.038  -1.046  1.00  0.00     0.037 A 
BRANCH  25  39
ATOM     39  C   UNL     1       7.907   7.915   4.214  1.00  0.00     0.057 A 
ATOM     40  C   UNL     1       8.745   6.955   4.794  1.00  0.00     0.134 A 
ATOM     41  C   UNL     1       7.305   8.847   5.070  1.00  0.00     0.134 A 
ATOM     42  F   UNL     1       9.343   6.025   4.034  1.00  0.00    -0.206 F 
ATOM     43  C   UNL     1       8.962   6.912   6.174  1.00  0.00     0.040 A 
ATOM     44  C   UNL     1       7.533   8.829   6.447  1.00  0.00     0.040 A 
ATOM     45  F   UNL     1       6.495   9.798   4.581  1.00  0.00    -0.206 F 
ATOM     46  C   UNL     1       8.360   7.856   7.003  1.00  0.00     0.006 A 
ENDBRANCH  25  39
BRANCH  26  47
ATOM     47  C   UNL     1       6.062   8.166  -5.614  1.00  0.00     0.057 A 
ATOM     48  C   UNL     1       7.076   7.982  -6.560  1.00  0.00     0.134 A 
ATOM     49  C   UNL     1       4.762   8.372  -6.094  1.00  0.00     0.134 A 
ATOM     50  F   UNL     1       8.343   7.795  -6.163  1.00  0.00    -0.206 F 
ATOM     51  C   UNL     1       6.811   8.014  -7.930  1.00  0.00     0.040 A 
ATOM     52  C   UNL     1       4.478   8.376  -7.460  1.00  0.00     0.040 A 
ATOM     53  F   UNL     1       3.743   8.543  -5.238  1.00  0.00    -0.206 F 
ATOM     54  C   UNL     1       5.506   8.204  -8.382  1.00  0.00     0.006 A 
ENDBRANCH  26  47
BRANCH  38  55
ATOM     55  C   UNL     1       9.561  12.315  -1.261  1.00  0.00     0.057 A 
ATOM     56  C   UNL     1       8.907  13.524  -1.529  1.00  0.00     0.134 A 
ATOM     57  C   UNL     1      10.959  12.337  -1.181  1.00  0.00     0.134 A 
ATOM     58  F   UNL     1       7.570  13.565  -1.635  1.00  0.00    -0.206 F 
ATOM     59  C   UNL     1       9.619  14.706  -1.736  1.00  0.00     0.040 A 
ATOM     60  C   UNL     1      11.680  13.518  -1.359  1.00  0.00     0.040 A 
ATOM     61  F   UNL     1      11.645  11.213  -0.922  1.00  0.00    -0.206 F 
ATOM     62  C   UNL     1      11.010  14.706  -1.644  1.00  0.00     0.006 A 
ENDBRANCH  38  55
ENDBRANCH  12  13
ENDBRANCH   5   7
ENDBRANCH   2   3
ENDBRANCH   1   2
BRANCH   1  63
ATOM     63  C   UNL     1       4.463  -3.035   1.527  1.00  0.00     0.117 C 
BRANCH  63  64
ATOM     64  N   UNL     1       4.895  -4.170   0.723  1.00  0.00    -0.356 N 
ATOM     65  C   UNL     1       5.368  -5.409   1.033  1.00  0.00     0.227 C 
ATOM     66  H   UNL     1       4.832  -4.008  -0.246  1.00  0.00     0.163 HD
ATOM     67  O   UNL     1       5.326  -6.227   0.106  1.00  0.00    -0.274 OA
BRANCH  65  68
ATOM     68  C   UNL     1       6.046  -5.762   2.365  1.00  0.00     0.061 C 
ATOM     69  C   UNL     1       5.341  -5.103   3.577  1.00  0.00     0.053 C 
ATOM     70  C   UNL     1       5.894  -7.300   2.635  1.00  0.00     0.053 C 
ATOM     71  C   UNL     1       5.379  -6.132   4.647  1.00  0.00    -0.044 A 
ATOM     72  C   UNL     1       5.668  -7.383   4.117  1.00  0.00    -0.044 A 
ATOM     73  C   UNL     1       5.048  -5.951   5.980  1.00  0.00     0.004 A 
ATOM     74  C   UNL     1       5.619  -8.505   4.923  1.00  0.00     0.004 A 
ATOM     75  C   UNL     1       5.004  -7.074   6.800  1.00  0.00     0.000 A 
ATOM     76  C   UNL     1       5.285  -8.344   6.273  1.00  0.00     0.000 A 
BRANCH  68  77
ATOM     77  C   UNL     1       7.537  -5.305   2.311  1.00  0.00     0.053 C 
BRANCH  77  78
ATOM     78  C   UNL     1       8.468  -6.033   1.359  1.00  0.00    -0.044 A 
ATOM     79  C   UNL     1       8.456  -5.784  -0.016  1.00  0.00     0.024 A 
ATOM     80  C   UNL     1       9.388  -6.972   1.841  1.00  0.00     0.024 A 
ATOM     81  C   UNL     1       9.328  -6.487  -0.837  1.00  0.00     0.111 A 
ATOM     82  C   UNL     1      10.226  -7.618   0.942  1.00  0.00     0.111 A 
ATOM     83  N   UNL     1      10.218  -7.396  -0.388  1.00  0.00    -0.265 NA
ENDBRANCH  77  78
ENDBRANCH  68  77
ENDBRANCH  65  68
ENDBRANCH  63  64
ENDBRANCH   1  63
TORSDOF 12
