REMARK SMILES C[N@H+]1CCO[C@H](CNC(=O)N2CC[C@@](C)(C(=O)NCCCNC(=O)c3ccc(-c4c5nc(c(-c6c(F)cccc6F)c6ccc([nH]6)c(-c6c(F)cccc6F)c6nc(c(-c7c(F)cccc7F)c7ccc4[nH]7)C=C6)C=C5)cc3)C2)C1
REMARK SMILES IDX 19 1 18 2 16 3 17 4 14 6 11 7 12 8 79 9 13 10 15 11 9 12
REMARK SMILES IDX 8 13 10 15 7 16 6 17 1 18 2 19 3 20 80 21 4 23 5 24 20 25
REMARK SMILES IDX 21 26 22 27 23 28 24 30 25 31 26 32 78 33 27 34 77 35 28 36
REMARK SMILES IDX 29 37 30 38 71 39 31 40 76 41 70 42 72 43 32 44 75 45 69 46
REMARK SMILES IDX 68 47 33 49 59 50 42 51 58 52 43 53 46 54 57 55 73 56 44 57
REMARK SMILES IDX 45 58 56 60 74 61 47 62 34 63 35 64 40 65 36 66 37 67 39 68
REMARK SMILES IDX 41 69 38 70 60 71 61 72 66 73 62 74 63 75 65 76 67 77 64 78
REMARK SMILES IDX 48 79 49 80 54 81 50 82 51 83 53 84 55 85 52 86
REMARK H PARENT 18 5 8 14 2 22 22 29 72 48 46 59
REMARK Flexibility Score: inf
ROOT
ATOM      1  C   UNL     1      -8.962   3.154  -1.975  1.00  0.00     0.117 C 
ENDROOT
BRANCH   1   2
ATOM      2  N   UNL     1      -7.638   2.799  -2.459  1.00  0.00    -0.356 N 
ATOM      3  C   UNL     1      -6.677   2.002  -1.911  1.00  0.00     0.227 C 
ATOM      4  O   UNL     1      -5.662   1.823  -2.587  1.00  0.00    -0.274 OA
ATOM      5  H   UNL     1      -7.396   3.200  -3.325  1.00  0.00     0.163 HD
BRANCH   3   6
ATOM      6  C   UNL     1      -6.892   1.352  -0.538  1.00  0.00     0.066 C 
ATOM      7  N   UNL     1      -5.255   1.087   1.195  1.00  0.00    -0.324 N 
ATOM      8  C   UNL     1      -5.743   2.432   1.338  1.00  0.00     0.122 C 
ATOM      9  C   UNL     1      -5.628   0.570  -0.104  1.00  0.00     0.138 C 
ATOM     10  C   UNL     1      -7.052   2.432   0.567  1.00  0.00     0.040 C 
ATOM     11  C   UNL     1      -8.097   0.384  -0.609  1.00  0.00     0.024 C 
BRANCH   7  12
ATOM     12  C   UNL     1      -4.642   0.437   2.220  1.00  0.00     0.317 C 
ATOM     13  N   UNL     1      -3.885  -0.663   1.980  1.00  0.00    -0.335 N 
ATOM     14  H   UNL     1      -3.847  -1.318   2.714  1.00  0.00     0.165 HD
ATOM     15  O   UNL     1      -4.754   0.802   3.392  1.00  0.00    -0.249 OA
BRANCH  13  16
ATOM     16  C   UNL     1      -3.119  -1.012   0.790  1.00  0.00     0.155 C 
BRANCH  16  17
ATOM     17  C   UNL     1      -1.849  -0.158   0.576  1.00  0.00     0.192 C 
ATOM     18  C   UNL     1       1.194  -0.115   0.021  1.00  0.00     0.332 C 
ATOM     19  N   UNL     1       0.556   0.086   1.321  1.00  0.00    -0.333 N 
ATOM     20  C   UNL     1       0.239   1.510   1.558  1.00  0.00     0.290 C 
ATOM     21  C   UNL     1      -0.695  -0.687   1.454  1.00  0.00     0.296 C 
ATOM     22  H   UNL     1       1.233  -0.240   2.011  1.00  0.00     0.348 HD
ATOM     23  C   UNL     1      -0.941   2.040   0.723  1.00  0.00     0.222 C 
ATOM     24  O   UNL     1      -2.112   1.228   0.850  1.00  0.00    -0.365 OA
ENDBRANCH  16  17
ENDBRANCH  13  16
ENDBRANCH   7  12
ENDBRANCH   3   6
ENDBRANCH   1   2
BRANCH   1  25
ATOM     25  C   UNL     1      -9.138   4.657  -1.843  1.00  0.00     0.042 C 
BRANCH  25  26
ATOM     26  C   UNL     1      -9.016   5.402  -3.163  1.00  0.00     0.118 C 
BRANCH  26  27
ATOM     27  N   UNL     1     -10.044   5.017  -4.122  1.00  0.00    -0.352 N 
ATOM     28  C   UNL     1     -11.087   5.745  -4.637  1.00  0.00     0.251 C 
ATOM     29  H   UNL     1      -9.979   4.091  -4.451  1.00  0.00     0.163 HD
ATOM     30  O   UNL     1     -11.972   5.179  -5.276  1.00  0.00    -0.269 OA
BRANCH  28  31
ATOM     31  C   UNL     1     -11.159   7.201  -4.406  1.00  0.00     0.039 A 
ATOM     32  C   UNL     1     -12.391   7.780  -4.094  1.00  0.00     0.014 A 
ATOM     33  C   UNL     1     -10.013   7.995  -4.493  1.00  0.00     0.014 A 
ATOM     34  C   UNL     1     -12.456   9.142  -3.795  1.00  0.00     0.010 A 
ATOM     35  C   UNL     1     -10.061   9.324  -4.092  1.00  0.00     0.010 A 
ATOM     36  C   UNL     1     -11.284   9.915  -3.747  1.00  0.00    -0.014 A 
BRANCH  36  37
ATOM     37  C   UNL     1     -11.314  11.345  -3.350  1.00  0.00     0.031 A 
ATOM     38  C   UNL     1     -10.853  12.405  -4.312  1.00  0.00     0.074 A 
ATOM     39  C   UNL     1     -11.689  11.682  -2.100  1.00  0.00     0.049 A 
ATOM     40  N   UNL     1     -10.733  13.695  -4.127  1.00  0.00    -0.248 NA
ATOM     41  C   UNL     1     -10.442  11.952  -5.652  1.00  0.00     0.031 C 
ATOM     42  C   UNL     1     -12.107  10.743  -1.057  1.00  0.00     0.029 A 
ATOM     43  N   UNL     1     -11.771  12.909  -1.491  1.00  0.00    -0.354 N 
ATOM     44  C   UNL     1     -10.220  14.201  -5.315  1.00  0.00     0.074 A 
ATOM     45  C   UNL     1      -9.992  13.074  -6.192  1.00  0.00     0.031 C 
ATOM     46  C   UNL     1     -12.428  11.429   0.051  1.00  0.00     0.029 A 
ATOM     47  C   UNL     1     -12.197  12.850  -0.186  1.00  0.00     0.049 A 
ATOM     48  H   UNL     1     -11.545  13.753  -1.947  1.00  0.00     0.167 HD
ATOM     49  C   UNL     1      -9.987  15.491  -5.656  1.00  0.00     0.037 A 
ATOM     50  C   UNL     1     -12.373  13.831   0.720  1.00  0.00     0.037 A 
ATOM     51  C   UNL     1     -10.238  16.611  -4.788  1.00  0.00     0.049 A 
ATOM     52  C   UNL     1     -12.094  15.254   0.321  1.00  0.00     0.074 A 
ATOM     53  C   UNL     1     -10.092  17.960  -5.059  1.00  0.00     0.029 A 
ATOM     54  N   UNL     1     -10.684  16.511  -3.478  1.00  0.00    -0.354 N 
ATOM     55  N   UNL     1     -11.679  15.724  -0.830  1.00  0.00    -0.248 NA
ATOM     56  C   UNL     1     -12.314  16.283   1.346  1.00  0.00     0.031 C 
ATOM     57  C   UNL     1     -10.398  18.674  -3.896  1.00  0.00     0.029 A 
ATOM     58  C   UNL     1     -10.793  17.773  -2.919  1.00  0.00     0.049 A 
ATOM     59  H   UNL     1     -10.892  15.667  -3.015  1.00  0.00     0.167 HD
ATOM     60  C   UNL     1     -11.618  17.104  -0.678  1.00  0.00     0.074 A 
ATOM     61  C   UNL     1     -12.054  17.394   0.672  1.00  0.00     0.031 C 
ATOM     62  C   UNL     1     -11.237  18.046  -1.576  1.00  0.00     0.037 A 
BRANCH  49  63
ATOM     63  C   UNL     1      -9.435  15.757  -7.027  1.00  0.00     0.057 A 
ATOM     64  C   UNL     1     -10.196  15.547  -8.186  1.00  0.00     0.134 A 
ATOM     65  C   UNL     1      -8.139  16.260  -7.191  1.00  0.00     0.134 A 
ATOM     66  F   UNL     1     -11.441  15.054  -8.102  1.00  0.00    -0.206 F 
ATOM     67  C   UNL     1      -9.678  15.799  -9.457  1.00  0.00     0.040 A 
ATOM     68  C   UNL     1      -7.620  16.546  -8.456  1.00  0.00     0.040 A 
ATOM     69  F   UNL     1      -7.356  16.490  -6.126  1.00  0.00    -0.206 F 
ATOM     70  C   UNL     1      -8.388  16.308  -9.594  1.00  0.00     0.006 A 
ENDBRANCH  49  63
BRANCH  50  71
ATOM     71  C   UNL     1     -12.855  13.505   2.087  1.00  0.00     0.057 A 
ATOM     72  C   UNL     1     -14.128  13.897   2.516  1.00  0.00     0.134 A 
ATOM     73  C   UNL     1     -12.054  12.808   2.999  1.00  0.00     0.134 A 
ATOM     74  F   UNL     1     -14.936  14.583   1.693  1.00  0.00    -0.206 F 
ATOM     75  C   UNL     1     -14.580  13.629   3.809  1.00  0.00     0.040 A 
ATOM     76  C   UNL     1     -12.504  12.508   4.287  1.00  0.00     0.040 A 
ATOM     77  F   UNL     1     -10.828  12.396   2.648  1.00  0.00    -0.206 F 
ATOM     78  C   UNL     1     -13.767  12.928   4.697  1.00  0.00     0.006 A 
ENDBRANCH  50  71
BRANCH  62  79
ATOM     79  C   UNL     1     -11.313  19.481  -1.141  1.00  0.00     0.057 A 
ATOM     80  C   UNL     1     -10.427  20.021  -0.201  1.00  0.00     0.134 A 
ATOM     81  C   UNL     1     -12.264  20.343  -1.703  1.00  0.00     0.134 A 
ATOM     82  F   UNL     1      -9.501  19.246   0.384  1.00  0.00    -0.206 F 
ATOM     83  C   UNL     1     -10.499  21.361   0.183  1.00  0.00     0.040 A 
ATOM     84  C   UNL     1     -12.326  21.692  -1.350  1.00  0.00     0.040 A 
ATOM     85  F   UNL     1     -13.136  19.894  -2.618  1.00  0.00    -0.206 F 
ATOM     86  C   UNL     1     -11.446  22.202  -0.398  1.00  0.00     0.006 A 
ENDBRANCH  62  79
ENDBRANCH  36  37
ENDBRANCH  28  31
ENDBRANCH  26  27
ENDBRANCH  25  26
ENDBRANCH   1  25
TORSDOF 13
