REMARK SMILES C[C@]12CC[C@H]3[C@@H](CCC4=CC(=O)C=C[C@@]43C)[C@@H]1CC[C@H]2O[C@@H]1O[C@H](C(=O)NCCCNC(=O)c2ccc(-c3c4nc(c(-c5c(F)cccc5F)c5ccc([nH]5)c(-c5c(F)cccc5F)c5nc(c(-c6c(F)cccc6F)c6ccc3[nH]6)C=C5)C=C4)cc2)[C@@H](O)[C@H](O)[C@H]1O
REMARK SMILES IDX 29 1 28 2 27 3 25 4 26 5 24 7 22 8 23 9 92 10 90 11 88 12
REMARK SMILES IDX 21 13 20 14 1 15 2 16 3 17 17 18 4 19 6 20 18 21 19 22 5 23
REMARK SMILES IDX 7 24 15 25 8 26 9 27 14 28 16 29 10 30 13 31 11 32 12 33
REMARK SMILES IDX 93 34 91 36 89 38 30 40 31 41 32 42 33 44 34 45 35 46 87 47
REMARK SMILES IDX 36 48 86 49 37 50 38 51 39 52 80 53 40 54 85 55 79 56 81 57
REMARK SMILES IDX 41 58 84 59 78 60 77 61 42 63 68 64 51 65 67 66 52 67 55 68
REMARK SMILES IDX 66 69 82 70 53 71 54 72 65 74 83 75 56 76 43 77 44 78 49 79
REMARK SMILES IDX 45 80 46 81 48 82 50 83 47 84 69 85 70 86 75 87 71 88 72 89
REMARK SMILES IDX 74 90 76 91 73 92 57 93 58 94 63 95 59 96 60 97 62 98 64 99
REMARK SMILES IDX 61 100
REMARK H PARENT 27 6 93 35 91 37 89 39 31 43 81 62 55 73
REMARK Flexibility Score: inf
ROOT
ATOM      1  C   UNL     1       1.830  -5.464  -4.175  1.00  0.00     0.042 C 
ENDROOT
BRANCH   1   2
ATOM      2  C   UNL     1       2.584  -4.467  -2.481  1.00  0.00     0.117 C 
BRANCH   2   3
ATOM      3  N   UNL     1       3.926  -4.156  -1.831  1.00  0.00    -0.354 N 
ATOM      4  C   UNL     1       4.474  -3.018  -1.282  1.00  0.00     0.252 C 
ATOM      5  O   UNL     1       5.585  -3.158  -0.750  1.00  0.00    -0.272 OA
ATOM      6  H   UNL     1       4.529  -4.933  -1.797  1.00  0.00     0.163 HD
BRANCH   4   7
ATOM      7  C   UNL     1       3.813  -1.604  -1.283  1.00  0.00     0.241 C 
ATOM      8  C   UNL     1       3.094   0.300  -2.623  1.00  0.00     0.282 C 
ATOM      9  O   UNL     1       3.663  -1.016  -2.573  1.00  0.00    -0.334 OA
ATOM     10  C   UNL     1       1.878   0.535  -1.680  1.00  0.00     0.202 C 
ATOM     11  C   UNL     1       2.034  -0.151  -0.317  1.00  0.00     0.180 C 
ATOM     12  C   UNL     1       2.505  -1.599  -0.486  1.00  0.00     0.184 C 
BRANCH   8  13
ATOM     13  O   UNL     1       2.873   0.756  -3.979  1.00  0.00    -0.346 OA
BRANCH  13  14
ATOM     14  C   UNL     1       1.950   0.221  -4.948  1.00  0.00     0.127 C 
ATOM     15  C   UNL     1       1.392  -1.543  -6.721  1.00  0.00     0.014 C 
ATOM     16  C   UNL     1       2.143  -1.258  -5.376  1.00  0.00    -0.003 C 
ATOM     17  C   UNL     1       3.611  -1.700  -5.641  1.00  0.00     0.010 C 
ATOM     18  C   UNL     1       1.394  -1.892  -4.177  1.00  0.00     0.001 C 
ATOM     19  C   UNL     1       3.840  -3.236  -5.729  1.00  0.00     0.006 C 
ATOM     20  C   UNL     1       1.474  -3.381  -4.165  1.00  0.00    -0.003 C 
ATOM     21  C   UNL     1       0.058  -1.165  -4.122  1.00  0.00     0.007 C 
ATOM     22  C   UNL     1       0.445   0.274  -4.558  1.00  0.00     0.033 C 
ATOM     23  C   UNL     1       3.376  -3.844  -4.409  1.00  0.00     0.006 C 
ATOM     24  C   UNL     1       0.456  -4.335  -2.783  1.00  0.00     0.009 C 
ATOM     25  C   UNL     1       4.008  -5.628  -3.912  1.00  0.00     0.010 C 
ATOM     26  C   UNL     1       1.132  -6.112  -2.265  1.00  0.00     0.032 C 
ATOM     27  C   UNL     1       2.939  -6.620  -2.682  1.00  0.00    -0.056 C 
ATOM     28  C   UNL     1       5.449  -5.630  -3.359  1.00  0.00    -0.012 C 
ATOM     29  C   UNL     1       4.383  -6.530  -5.152  1.00  0.00     0.021 C 
ATOM     30  C   UNL     1       3.589  -7.434  -1.829  1.00  0.00     0.052 C 
ATOM     31  C   UNL     1       5.912  -6.539  -2.482  1.00  0.00     0.048 C 
ATOM     32  C   UNL     1       5.073  -7.567  -1.807  1.00  0.00     0.178 C 
ATOM     33  O   UNL     1       5.603  -8.451  -1.140  1.00  0.00    -0.290 OA
ENDBRANCH  13  14
ENDBRANCH   8  13
BRANCH  10  34
ATOM     34  O   UNL     1       1.587   1.930  -1.511  1.00  0.00    -0.385 OA
ATOM     35  H   UNL     1       2.333   2.364  -1.067  1.00  0.00     0.211 HD
ENDBRANCH  10  34
BRANCH  11  36
ATOM     36  O   UNL     1       0.788  -0.156   0.403  1.00  0.00    -0.387 OA
ATOM     37  H   UNL     1       0.128  -0.660  -0.098  1.00  0.00     0.211 HD
ENDBRANCH  11  36
BRANCH  12  38
ATOM     38  O   UNL     1       2.655  -2.248   0.777  1.00  0.00    -0.387 OA
ATOM     39  H   UNL     1       3.320  -1.778   1.305  1.00  0.00     0.211 HD
ENDBRANCH  12  38
ENDBRANCH   4   7
ENDBRANCH   2   3
ENDBRANCH   1   2
BRANCH   1  40
ATOM     40  C   UNL     1       1.555  -6.801  -5.051  1.00  0.00     0.118 C 
BRANCH  40  41
ATOM     41  N   UNL     1       0.989  -8.070  -4.702  1.00  0.00    -0.352 N 
ATOM     42  C   UNL     1       0.472  -8.920  -5.675  1.00  0.00     0.251 C 
ATOM     43  H   UNL     1       0.967  -8.346  -3.757  1.00  0.00     0.163 HD
ATOM     44  O   UNL     1      -0.335  -9.801  -5.391  1.00  0.00    -0.269 OA
BRANCH  42  45
ATOM     45  C   UNL     1       0.898  -8.716  -7.089  1.00  0.00     0.039 A 
ATOM     46  C   UNL     1      -0.037  -8.505  -8.103  1.00  0.00     0.014 A 
ATOM     47  C   UNL     1       2.266  -8.668  -7.382  1.00  0.00     0.014 A 
ATOM     48  C   UNL     1       0.408  -8.261  -9.409  1.00  0.00     0.010 A 
ATOM     49  C   UNL     1       2.702  -8.289  -8.646  1.00  0.00     0.010 A 
ATOM     50  C   UNL     1       1.783  -8.154  -9.692  1.00  0.00    -0.014 A 
BRANCH  50  51
ATOM     51  C   UNL     1       2.280  -8.041 -11.090  1.00  0.00     0.031 A 
ATOM     52  C   UNL     1       3.144  -9.146 -11.654  1.00  0.00     0.074 A 
ATOM     53  C   UNL     1       1.971  -6.968 -11.842  1.00  0.00     0.049 A 
ATOM     54  N   UNL     1       3.672  -9.262 -12.846  1.00  0.00    -0.248 NA
ATOM     55  C   UNL     1       3.493 -10.252 -10.745  1.00  0.00     0.031 C 
ATOM     56  C   UNL     1       1.199  -5.810 -11.388  1.00  0.00     0.029 A 
ATOM     57  N   UNL     1       2.258  -6.680 -13.153  1.00  0.00    -0.354 N 
ATOM     58  C   UNL     1       4.420 -10.436 -12.815  1.00  0.00     0.074 A 
ATOM     59  C   UNL     1       4.355 -10.947 -11.468  1.00  0.00     0.031 C 
ATOM     60  C   UNL     1       1.028  -4.963 -12.417  1.00  0.00     0.029 A 
ATOM     61  C   UNL     1       1.705  -5.500 -13.593  1.00  0.00     0.049 A 
ATOM     62  H   UNL     1       2.807  -7.263 -13.725  1.00  0.00     0.167 HD
ATOM     63  C   UNL     1       5.066 -11.061 -13.827  1.00  0.00     0.037 A 
ATOM     64  C   UNL     1       1.734  -4.928 -14.812  1.00  0.00     0.037 A 
ATOM     65  C   UNL     1       5.088 -10.566 -15.175  1.00  0.00     0.049 A 
ATOM     66  C   UNL     1       2.447  -5.645 -15.928  1.00  0.00     0.074 A 
ATOM     67  C   UNL     1       5.657 -11.138 -16.297  1.00  0.00     0.029 A 
ATOM     68  N   UNL     1       4.506  -9.373 -15.581  1.00  0.00    -0.354 N 
ATOM     69  N   UNL     1       3.083  -6.793 -15.901  1.00  0.00    -0.248 NA
ATOM     70  C   UNL     1       2.439  -4.995 -17.246  1.00  0.00     0.031 C 
ATOM     71  C   UNL     1       5.464 -10.265 -17.373  1.00  0.00     0.029 A 
ATOM     72  C   UNL     1       4.723  -9.179 -16.933  1.00  0.00     0.049 A 
ATOM     73  H   UNL     1       4.012  -8.756 -14.993  1.00  0.00     0.167 HD
ATOM     74  C   UNL     1       3.525  -7.016 -17.199  1.00  0.00     0.074 A 
ATOM     75  C   UNL     1       3.067  -5.892 -17.992  1.00  0.00     0.031 C 
ATOM     76  C   UNL     1       4.247  -8.052 -17.694  1.00  0.00     0.037 A 
BRANCH  63  77
ATOM     77  C   UNL     1       5.784 -12.344 -13.509  1.00  0.00     0.057 A 
ATOM     78  C   UNL     1       5.098 -13.510 -13.140  1.00  0.00     0.134 A 
ATOM     79  C   UNL     1       7.181 -12.418 -13.579  1.00  0.00     0.134 A 
ATOM     80  F   UNL     1       3.760 -13.508 -13.038  1.00  0.00    -0.206 F 
ATOM     81  C   UNL     1       5.774 -14.688 -12.817  1.00  0.00     0.040 A 
ATOM     82  C   UNL     1       7.867 -13.601 -13.291  1.00  0.00     0.040 A 
ATOM     83  F   UNL     1       7.905 -11.344 -13.929  1.00  0.00    -0.206 F 
ATOM     84  C   UNL     1       7.163 -14.737 -12.899  1.00  0.00     0.006 A 
ENDBRANCH  63  77
BRANCH  64  85
ATOM     85  C   UNL     1       1.038  -3.636 -15.051  1.00  0.00     0.057 A 
ATOM     86  C   UNL     1      -0.095  -3.560 -15.871  1.00  0.00     0.134 A 
ATOM     87  C   UNL     1       1.485  -2.444 -14.467  1.00  0.00     0.134 A 
ATOM     88  F   UNL     1      -0.568  -4.662 -16.473  1.00  0.00    -0.206 F 
ATOM     89  C   UNL     1      -0.744  -2.348 -16.118  1.00  0.00     0.040 A 
ATOM     90  C   UNL     1       0.830  -1.230 -14.682  1.00  0.00     0.040 A 
ATOM     91  F   UNL     1       2.557  -2.446 -13.661  1.00  0.00    -0.206 F 
ATOM     92  C   UNL     1      -0.284  -1.178 -15.518  1.00  0.00     0.006 A 
ENDBRANCH  64  85
BRANCH  76  93
ATOM     93  C   UNL     1       4.554  -8.032 -19.162  1.00  0.00     0.057 A 
ATOM     94  C   UNL     1       5.473  -7.131 -19.714  1.00  0.00     0.134 A 
ATOM     95  C   UNL     1       3.960  -8.963 -20.024  1.00  0.00     0.134 A 
ATOM     96  F   UNL     1       6.069  -6.209 -18.943  1.00  0.00    -0.206 F 
ATOM     97  C   UNL     1       5.768  -7.138 -21.078  1.00  0.00     0.040 A 
ATOM     98  C   UNL     1       4.272  -9.001 -21.383  1.00  0.00     0.040 A 
ATOM     99  F   UNL     1       3.082  -9.863 -19.555  1.00  0.00    -0.206 F 
ATOM    100  C   UNL     1       5.173  -8.081 -21.914  1.00  0.00     0.006 A 
ENDBRANCH  76  93
ENDBRANCH  50  51
ENDBRANCH  42  45
ENDBRANCH  40  41
ENDBRANCH   1  40
TORSDOF 15
