REMARK SMILES C[NH2+][C@]1(C(=O)NCCCNC(=O)c2ccc(-c3c4nc(c(-c5c(F)cccc5F)c5ccc([nH]5)c(-c5c(F)cccc5F)c5nc(c(-c6c(F)cccc6F)c6ccc3[nH]6)C=C5)C=C4)cc2)CC[C@@H]([N@@H+](C)C[C@@H]2CCCCO2)C1
REMARK SMILES IDX 7 1 6 2 4 3 5 4 3 6 67 7 79 8 68 9 69 10 2 11 1 12 70 15
REMARK SMILES IDX 71 16 72 18 73 19 74 20 78 21 75 22 77 23 76 24 8 25 9 26
REMARK SMILES IDX 10 27 11 28 12 30 13 31 14 32 66 33 15 34 65 35 16 36 17 37
REMARK SMILES IDX 18 38 59 39 19 40 64 41 58 42 60 43 20 44 63 45 57 46 56 47
REMARK SMILES IDX 21 49 47 50 30 51 46 52 31 53 34 54 45 55 61 56 32 57 33 58
REMARK SMILES IDX 44 60 62 61 35 62 22 63 23 64 28 65 24 66 25 67 27 68 29 69
REMARK SMILES IDX 26 70 48 71 49 72 54 73 50 74 51 75 53 76 55 77 52 78 36 79
REMARK SMILES IDX 37 80 42 81 38 82 39 83 41 84 43 85 40 86
REMARK H PARENT 6 5 2 13 2 14 70 17 10 29 60 48 34 59
REMARK Flexibility Score: inf
ROOT
ATOM      1  C   UNL     1       0.871  -0.404  -2.615  1.00  0.00     0.118 C 
ENDROOT
BRANCH   1   2
ATOM      2  N   UNL     1       1.306  -0.934  -1.342  1.00  0.00    -0.351 N 
ATOM      3  C   UNL     1       0.619  -1.281  -0.218  1.00  0.00     0.281 C 
ATOM      4  O   UNL     1       1.345  -1.527   0.753  1.00  0.00    -0.268 OA
ATOM      5  H   UNL     1       2.278  -1.070  -1.276  1.00  0.00     0.163 HD
BRANCH   3   6
ATOM      6  C   UNL     1      -0.950  -1.439  -0.173  1.00  0.00     0.181 C 
ATOM      7  C   UNL     1      -1.735  -0.187  -0.620  1.00  0.00     0.085 C 
ATOM      8  C   UNL     1      -1.432  -2.511  -1.180  1.00  0.00     0.144 C 
ATOM      9  C   UNL     1      -3.107  -0.713  -1.036  1.00  0.00     0.072 C 
ATOM     10  C   UNL     1      -2.871  -2.128  -1.587  1.00  0.00     0.191 C 
BRANCH   6  11
ATOM     11  N   UNL     1      -1.392  -1.678   1.233  1.00  0.00    -0.336 N 
ATOM     12  C   UNL     1      -1.075  -2.977   1.802  1.00  0.00     0.331 C 
ATOM     13  H   UNL     1      -0.954  -0.968   1.820  1.00  0.00     0.346 HD
ATOM     14  H   UNL     1      -2.411  -1.637   1.206  1.00  0.00     0.346 HD
ENDBRANCH   6  11
BRANCH  10  15
ATOM     15  N   UNL     1      -3.216  -2.424  -2.991  1.00  0.00    -0.333 N 
ATOM     16  C   UNL     1      -4.659  -2.432  -3.220  1.00  0.00     0.333 C 
ATOM     17  H   UNL     1      -2.852  -3.372  -3.080  1.00  0.00     0.348 HD
BRANCH  15  18
ATOM     18  C   UNL     1      -2.472  -1.747  -4.076  1.00  0.00     0.294 C 
BRANCH  18  19
ATOM     19  C   UNL     1      -2.873  -0.297  -4.478  1.00  0.00     0.173 C 
ATOM     20  C   UNL     1      -3.734  -0.217  -5.748  1.00  0.00     0.038 C 
ATOM     21  O   UNL     1      -1.742   0.588  -4.536  1.00  0.00    -0.372 OA
ATOM     22  C   UNL     1      -2.909  -0.265  -7.028  1.00  0.00     0.005 C 
ATOM     23  C   UNL     1      -0.952   0.500  -5.721  1.00  0.00     0.161 C 
ATOM     24  C   UNL     1      -1.791   0.761  -6.957  1.00  0.00     0.029 C 
ENDBRANCH  18  19
ENDBRANCH  15  18
ENDBRANCH  10  15
ENDBRANCH   3   6
ENDBRANCH   1   2
BRANCH   1  25
ATOM     25  C   UNL     1       1.068   1.104  -2.677  1.00  0.00     0.042 C 
BRANCH  25  26
ATOM     26  C   UNL     1       2.518   1.512  -2.882  1.00  0.00     0.118 C 
BRANCH  26  27
ATOM     27  N   UNL     1       3.044   1.069  -4.168  1.00  0.00    -0.352 N 
ATOM     28  C   UNL     1       3.578   1.790  -5.206  1.00  0.00     0.251 C 
ATOM     29  H   UNL     1       3.011   0.097  -4.315  1.00  0.00     0.163 HD
ATOM     30  O   UNL     1       3.768   1.240  -6.287  1.00  0.00    -0.269 OA
BRANCH  28  31
ATOM     31  C   UNL     1       3.907   3.222  -5.039  1.00  0.00     0.039 A 
ATOM     32  C   UNL     1       3.686   4.092  -6.111  1.00  0.00     0.014 A 
ATOM     33  C   UNL     1       4.456   3.708  -3.850  1.00  0.00     0.014 A 
ATOM     34  C   UNL     1       3.952   5.455  -5.965  1.00  0.00     0.010 A 
ATOM     35  C   UNL     1       4.633   5.076  -3.674  1.00  0.00     0.010 A 
ATOM     36  C   UNL     1       4.390   5.963  -4.732  1.00  0.00    -0.014 A 
BRANCH  36  37
ATOM     37  C   UNL     1       4.602   7.418  -4.529  1.00  0.00     0.031 A 
ATOM     38  C   UNL     1       5.971   7.945  -4.199  1.00  0.00     0.074 A 
ATOM     39  C   UNL     1       3.548   8.254  -4.576  1.00  0.00     0.049 A 
ATOM     40  N   UNL     1       6.341   9.169  -3.921  1.00  0.00    -0.248 NA
ATOM     41  C   UNL     1       7.065   6.962  -4.147  1.00  0.00     0.031 C 
ATOM     42  C   UNL     1       2.163   7.857  -4.837  1.00  0.00     0.029 A 
ATOM     43  N   UNL     1       3.474   9.612  -4.394  1.00  0.00    -0.354 N 
ATOM     44  C   UNL     1       7.702   9.100  -3.649  1.00  0.00     0.074 A 
ATOM     45  C   UNL     1       8.081   7.707  -3.738  1.00  0.00     0.031 C 
ATOM     46  C   UNL     1       1.383   8.949  -4.825  1.00  0.00     0.029 A 
ATOM     47  C   UNL     1       2.201  10.115  -4.512  1.00  0.00     0.049 A 
ATOM     48  H   UNL     1       4.260  10.173  -4.197  1.00  0.00     0.167 HD
ATOM     49  C   UNL     1       8.562  10.109  -3.372  1.00  0.00     0.037 A 
ATOM     50  C   UNL     1       1.745  11.374  -4.373  1.00  0.00     0.037 A 
ATOM     51  C   UNL     1       8.182  11.496  -3.301  1.00  0.00     0.049 A 
ATOM     52  C   UNL     1       2.717  12.474  -4.050  1.00  0.00     0.074 A 
ATOM     53  C   UNL     1       8.988  12.600  -3.087  1.00  0.00     0.029 A 
ATOM     54  N   UNL     1       6.884  11.967  -3.437  1.00  0.00    -0.354 N 
ATOM     55  N   UNL     1       4.013  12.405  -3.868  1.00  0.00    -0.248 NA
ATOM     56  C   UNL     1       2.163  13.828  -3.919  1.00  0.00     0.031 C 
ATOM     57  C   UNL     1       8.171  13.735  -3.042  1.00  0.00     0.029 A 
ATOM     58  C   UNL     1       6.863  13.344  -3.285  1.00  0.00     0.049 A 
ATOM     59  H   UNL     1       6.095  11.406  -3.616  1.00  0.00     0.167 HD
ATOM     60  C   UNL     1       4.434  13.707  -3.628  1.00  0.00     0.074 A 
ATOM     61  C   UNL     1       3.256  14.546  -3.705  1.00  0.00     0.031 C 
ATOM     62  C   UNL     1       5.683  14.166  -3.368  1.00  0.00     0.037 A 
BRANCH  49  63
ATOM     63  C   UNL     1       9.998   9.747  -3.123  1.00  0.00     0.057 A 
ATOM     64  C   UNL     1      10.830   9.271  -4.146  1.00  0.00     0.134 A 
ATOM     65  C   UNL     1      10.565   9.901  -1.851  1.00  0.00     0.134 A 
ATOM     66  F   UNL     1      10.348   9.089  -5.385  1.00  0.00    -0.206 F 
ATOM     67  C   UNL     1      12.164   8.934  -3.907  1.00  0.00     0.040 A 
ATOM     68  C   UNL     1      11.906   9.596  -1.607  1.00  0.00     0.040 A 
ATOM     69  F   UNL     1       9.829  10.358  -0.827  1.00  0.00    -0.206 F 
ATOM     70  C   UNL     1      12.707   9.104  -2.635  1.00  0.00     0.006 A 
ENDBRANCH  49  63
BRANCH  50  71
ATOM     71  C   UNL     1       0.300  11.665  -4.559  1.00  0.00     0.057 A 
ATOM     72  C   UNL     1      -0.151  12.399  -5.662  1.00  0.00     0.134 A 
ATOM     73  C   UNL     1      -0.660  11.222  -3.642  1.00  0.00     0.134 A 
ATOM     74  F   UNL     1       0.723  12.864  -6.566  1.00  0.00    -0.206 F 
ATOM     75  C   UNL     1      -1.503  12.700  -5.836  1.00  0.00     0.040 A 
ATOM     76  C   UNL     1      -2.018  11.493  -3.818  1.00  0.00     0.040 A 
ATOM     77  F   UNL     1      -0.294  10.506  -2.569  1.00  0.00    -0.206 F 
ATOM     78  C   UNL     1      -2.442  12.242  -4.914  1.00  0.00     0.006 A 
ENDBRANCH  50  71
BRANCH  62  79
ATOM     79  C   UNL     1       5.845  15.647  -3.183  1.00  0.00     0.057 A 
ATOM     80  C   UNL     1       5.372  16.308  -2.042  1.00  0.00     0.134 A 
ATOM     81  C   UNL     1       6.517  16.415  -4.143  1.00  0.00     0.134 A 
ATOM     82  F   UNL     1       4.707  15.633  -1.092  1.00  0.00    -0.206 F 
ATOM     83  C   UNL     1       5.540  17.683  -1.874  1.00  0.00     0.040 A 
ATOM     84  C   UNL     1       6.717  17.785  -3.972  1.00  0.00     0.040 A 
ATOM     85  F   UNL     1       7.003  15.843  -5.255  1.00  0.00    -0.206 F 
ATOM     86  C   UNL     1       6.221  18.424  -2.838  1.00  0.00     0.006 A 
ENDBRANCH  62  79
ENDBRANCH  36  37
ENDBRANCH  28  31
ENDBRANCH  26  27
ENDBRANCH  25  26
ENDBRANCH   1  25
TORSDOF 14
