REMARK SMILES CC(C)c1ccc2c(c1)c(SC(C)(C)C)c(CC(C)(C)C(=O)NCCCNC(=O)c1ccc(-c3c4nc(c(-c5c(F)cccc5F)c5ccc([nH]5)c(-c5c(F)cccc5F)c5nc(c(-c6c(F)cccc6F)c6ccc3[nH]6)C=C5)C=C4)cc1)n2Cc1ccc(Cl)cc1
REMARK SMILES IDX 24 1 23 2 21 3 22 4 18 6 19 7 20 8 17 9 16 10 4 11 5 12 9 13
REMARK SMILES IDX 6 14 8 15 7 16 10 17 84 18 2 19 1 20 3 21 11 22 12 23 13 24
REMARK SMILES IDX 14 25 15 26 85 27 86 28 87 29 92 30 88 31 91 32 89 33 90 34
REMARK SMILES IDX 25 35 26 36 27 37 28 38 29 40 30 41 31 42 83 43 32 44 82 45
REMARK SMILES IDX 33 46 34 47 35 48 76 49 36 50 81 51 75 52 77 53 37 54 80 55
REMARK SMILES IDX 74 56 73 57 38 59 64 60 47 61 63 62 48 63 51 64 62 65 78 66
REMARK SMILES IDX 49 67 50 68 61 70 79 71 52 72 39 73 40 74 45 75 41 76 42 77
REMARK SMILES IDX 44 78 46 79 43 80 65 81 66 82 71 83 67 84 68 85 70 86 72 87
REMARK SMILES IDX 69 88 53 89 54 90 59 91 55 92 56 93 58 94 60 95 57 96
REMARK H PARENT 23 5 27 39 77 58 51 69
REMARK Flexibility Score: inf
ROOT
ATOM      1  C   UNL     1      -6.888   4.006   6.069  1.00  0.00     0.117 C 
ENDROOT
BRANCH   1   2
ATOM      2  N   UNL     1      -6.723   2.615   5.666  1.00  0.00    -0.356 N 
ATOM      3  C   UNL     1      -6.499   2.082   4.429  1.00  0.00     0.226 C 
ATOM      4  O   UNL     1      -6.058   0.923   4.405  1.00  0.00    -0.275 OA
ATOM      5  H   UNL     1      -6.781   1.959   6.398  1.00  0.00     0.163 HD
BRANCH   3   6
ATOM      6  C   UNL     1      -6.567   2.991   3.210  1.00  0.00     0.049 C 
ATOM      7  C   UNL     1      -5.229   3.737   3.468  1.00  0.00     0.022 C 
ATOM      8  C   UNL     1      -7.935   3.734   3.258  1.00  0.00     0.022 C 
BRANCH   6   9
ATOM      9  C   UNL     1      -6.601   2.353   1.787  1.00  0.00     0.071 C 
BRANCH   9  10
ATOM     10  C   UNL     1      -5.374   1.694   1.330  1.00  0.00     0.034 A 
ATOM     11  C   UNL     1      -1.059   0.043   1.191  1.00  0.00    -0.045 A 
ATOM     12  C   UNL     1      -1.763  -1.145   1.407  1.00  0.00     0.006 A 
ATOM     13  C   UNL     1      -1.789   1.221   0.938  1.00  0.00     0.015 A 
ATOM     14  C   UNL     1      -3.161  -1.175   1.454  1.00  0.00     0.027 A 
ATOM     15  C   UNL     1      -3.209   1.236   0.999  1.00  0.00     0.014 A 
ATOM     16  C   UNL     1      -3.866   0.030   1.294  1.00  0.00     0.050 A 
ATOM     17  C   UNL     1      -4.205   2.277   0.867  1.00  0.00     0.037 A 
ATOM     18  N   UNL     1      -5.224   0.310   1.383  1.00  0.00    -0.339 N 
BRANCH  11  19
ATOM     19  C   UNL     1       0.462   0.022   1.238  1.00  0.00     0.013 C 
ATOM     20  C   UNL     1       1.049  -0.029  -0.171  1.00  0.00     0.012 C 
ATOM     21  C   UNL     1       1.066   1.183   2.038  1.00  0.00     0.012 C 
ENDBRANCH  11  19
BRANCH  17  22
ATOM     22  S   UNL     1      -3.742   3.959   0.489  1.00  0.00    -0.118 SA
BRANCH  22  23
ATOM     23  C   UNL     1      -5.057   5.268   0.189  1.00  0.00     0.012 C 
ATOM     24  C   UNL     1      -5.807   4.962  -1.111  1.00  0.00     0.023 C 
ATOM     25  C   UNL     1      -6.097   5.738   1.235  1.00  0.00     0.023 C 
ATOM     26  C   UNL     1      -4.205   6.557   0.019  1.00  0.00     0.023 C 
ENDBRANCH  22  23
ENDBRANCH  17  22
BRANCH  18  27
ATOM     27  C   UNL     1      -6.299  -0.723   1.325  1.00  0.00     0.158 C 
BRANCH  27  28
ATOM     28  C   UNL     1      -7.199  -0.915   2.540  1.00  0.00    -0.028 A 
ATOM     29  C   UNL     1      -8.443  -0.260   2.641  1.00  0.00     0.007 A 
ATOM     30  C   UNL     1      -6.812  -1.731   3.617  1.00  0.00     0.007 A 
ATOM     31  C   UNL     1      -9.154  -0.224   3.846  1.00  0.00     0.021 A 
ATOM     32  C   UNL     1      -7.561  -1.754   4.806  1.00  0.00     0.021 A 
ATOM     33  C   UNL     1      -8.691  -0.949   4.935  1.00  0.00     0.041 A 
ATOM     34  Cl  UNL     1      -9.496  -0.816   6.451  1.00  0.00    -0.084 Cl
ENDBRANCH  27  28
ENDBRANCH  18  27
ENDBRANCH   9  10
ENDBRANCH   6   9
ENDBRANCH   3   6
ENDBRANCH   1   2
BRANCH   1  35
ATOM     35  C   UNL     1      -8.209   4.240   6.763  1.00  0.00     0.042 C 
BRANCH  35  36
ATOM     36  C   UNL     1      -8.313   3.404   8.031  1.00  0.00     0.118 C 
BRANCH  36  37
ATOM     37  N   UNL     1      -7.163   3.560   8.901  1.00  0.00    -0.352 N 
ATOM     38  C   UNL     1      -6.760   4.518   9.782  1.00  0.00     0.251 C 
ATOM     39  H   UNL     1      -6.534   2.805   8.842  1.00  0.00     0.163 HD
ATOM     40  O   UNL     1      -5.683   4.322  10.354  1.00  0.00    -0.269 OA
BRANCH  38  41
ATOM     41  C   UNL     1      -7.471   5.798  10.015  1.00  0.00     0.039 A 
ATOM     42  C   UNL     1      -8.649   6.193   9.380  1.00  0.00     0.014 A 
ATOM     43  C   UNL     1      -6.823   6.708  10.867  1.00  0.00     0.014 A 
ATOM     44  C   UNL     1      -9.053   7.513   9.417  1.00  0.00     0.010 A 
ATOM     45  C   UNL     1      -7.262   8.015  10.968  1.00  0.00     0.010 A 
ATOM     46  C   UNL     1      -8.321   8.427  10.167  1.00  0.00    -0.014 A 
BRANCH  46  47
ATOM     47  C   UNL     1      -8.757   9.811  10.143  1.00  0.00     0.031 A 
ATOM     48  C   UNL     1     -10.133  10.018  10.673  1.00  0.00     0.074 A 
ATOM     49  C   UNL     1      -7.925  10.794   9.748  1.00  0.00     0.049 A 
ATOM     50  N   UNL     1     -11.168  10.498  10.063  1.00  0.00    -0.248 NA
ATOM     51  C   UNL     1     -10.431   9.461  12.004  1.00  0.00     0.031 C 
ATOM     52  C   UNL     1      -6.496  10.696   9.433  1.00  0.00     0.029 A 
ATOM     53  N   UNL     1      -8.167  12.126   9.640  1.00  0.00    -0.354 N 
ATOM     54  C   UNL     1     -12.201  10.487  11.002  1.00  0.00     0.074 A 
ATOM     55  C   UNL     1     -11.741   9.684  12.101  1.00  0.00     0.031 C 
ATOM     56  C   UNL     1      -5.956  11.934   9.412  1.00  0.00     0.029 A 
ATOM     57  C   UNL     1      -7.021  12.907   9.569  1.00  0.00     0.049 A 
ATOM     58  H   UNL     1      -9.075  12.505   9.615  1.00  0.00     0.167 HD
ATOM     59  C   UNL     1     -13.254  11.345  10.905  1.00  0.00     0.037 A 
ATOM     60  C   UNL     1      -6.962  14.254   9.710  1.00  0.00     0.037 A 
ATOM     61  C   UNL     1     -13.390  11.839   9.559  1.00  0.00     0.049 A 
ATOM     62  C   UNL     1      -8.333  14.784   9.512  1.00  0.00     0.074 A 
ATOM     63  C   UNL     1     -13.697  11.284   8.333  1.00  0.00     0.029 A 
ATOM     64  N   UNL     1     -12.863  13.077   9.288  1.00  0.00    -0.354 N 
ATOM     65  N   UNL     1      -8.950  14.768   8.363  1.00  0.00    -0.248 NA
ATOM     66  C   UNL     1      -9.195  14.890  10.680  1.00  0.00     0.031 C 
ATOM     67  C   UNL     1     -12.921  12.018   7.388  1.00  0.00     0.029 A 
ATOM     68  C   UNL     1     -12.225  13.009   8.080  1.00  0.00     0.049 A 
ATOM     69  H   UNL     1     -12.933  13.874   9.862  1.00  0.00     0.167 HD
ATOM     70  C   UNL     1     -10.262  14.433   8.668  1.00  0.00     0.074 A 
ATOM     71  C   UNL     1     -10.372  14.606  10.115  1.00  0.00     0.031 C 
ATOM     72  C   UNL     1     -11.043  13.774   7.761  1.00  0.00     0.037 A 
BRANCH  59  73
ATOM     73  C   UNL     1     -13.852  12.083  12.090  1.00  0.00     0.057 A 
ATOM     74  C   UNL     1     -13.252  12.188  13.362  1.00  0.00     0.134 A 
ATOM     75  C   UNL     1     -14.888  13.008  11.850  1.00  0.00     0.134 A 
ATOM     76  F   UNL     1     -12.264  11.387  13.771  1.00  0.00    -0.206 F 
ATOM     77  C   UNL     1     -13.576  13.197  14.273  1.00  0.00     0.040 A 
ATOM     78  C   UNL     1     -15.190  14.048  12.738  1.00  0.00     0.040 A 
ATOM     79  F   UNL     1     -15.574  12.993  10.697  1.00  0.00    -0.206 F 
ATOM     80  C   UNL     1     -14.513  14.161  13.944  1.00  0.00     0.006 A 
ENDBRANCH  59  73
BRANCH  60  81
ATOM     81  C   UNL     1      -5.877  15.049  10.322  1.00  0.00     0.057 A 
ATOM     82  C   UNL     1      -5.119  14.538  11.392  1.00  0.00     0.134 A 
ATOM     83  C   UNL     1      -5.718  16.412  10.048  1.00  0.00     0.134 A 
ATOM     84  F   UNL     1      -5.263  13.267  11.795  1.00  0.00    -0.206 F 
ATOM     85  C   UNL     1      -4.250  15.334  12.143  1.00  0.00     0.040 A 
ATOM     86  C   UNL     1      -4.854  17.224  10.797  1.00  0.00     0.040 A 
ATOM     87  F   UNL     1      -6.437  16.999   9.081  1.00  0.00    -0.206 F 
ATOM     88  C   UNL     1      -4.121  16.686  11.852  1.00  0.00     0.006 A 
ENDBRANCH  60  81
BRANCH  72  89
ATOM     89  C   UNL     1     -10.503  13.640   6.365  1.00  0.00     0.057 A 
ATOM     90  C   UNL     1     -11.220  14.200   5.305  1.00  0.00     0.134 A 
ATOM     91  C   UNL     1      -9.373  12.876   6.036  1.00  0.00     0.134 A 
ATOM     92  F   UNL     1     -12.348  14.888   5.541  1.00  0.00    -0.206 F 
ATOM     93  C   UNL     1     -10.821  14.029   3.978  1.00  0.00     0.040 A 
ATOM     94  C   UNL     1      -8.943  12.725   4.714  1.00  0.00     0.040 A 
ATOM     95  F   UNL     1      -8.688  12.214   6.976  1.00  0.00    -0.206 F 
ATOM     96  C   UNL     1      -9.672  13.302   3.679  1.00  0.00     0.006 A 
ENDBRANCH  72  89
ENDBRANCH  46  47
ENDBRANCH  38  41
ENDBRANCH  36  37
ENDBRANCH  35  36
ENDBRANCH   1  35
TORSDOF 17
