REMARK SMILES CN(CC(N)=O)C(=O)c1csc(/C=C/C(=O)NCCCNC(=O)c2ccc(-c3c4nc(c(-c5c(F)cccc5F)c5ccc([nH]5)c(-c5c(F)cccc5F)c5nc(c(-c6c(F)cccc6F)c6ccc3[nH]6)C=C5)C=C4)cc2)c1
REMARK SMILES IDX 15 1 16 2 17 3 14 5 13 6 12 7 9 8 10 9 78 10 11 11 7 12 8 13
REMARK SMILES IDX 2 14 1 15 3 16 4 17 5 18 6 19 18 22 19 23 20 24 21 25 22 26
REMARK SMILES IDX 23 28 24 29 25 30 77 31 26 32 76 33 27 34 28 35 29 36 70 37
REMARK SMILES IDX 30 38 75 39 69 40 71 41 31 42 74 43 68 44 67 45 32 47 58 48
REMARK SMILES IDX 41 49 57 50 42 51 45 52 56 53 72 54 43 55 44 56 55 58 73 59
REMARK SMILES IDX 46 60 33 61 34 62 39 63 35 64 36 65 38 66 40 67 37 68 59 69
REMARK SMILES IDX 60 70 65 71 61 72 62 73 64 74 66 75 63 76 47 77 48 78 53 79
REMARK SMILES IDX 49 80 50 81 52 82 54 83 51 84
REMARK H PARENT 17 4 5 20 5 21 21 27 71 46 45 57
REMARK Flexibility Score: inf
ROOT
ATOM      1  C   UNL     1       0.837  -2.608   9.419  1.00  0.00     0.244 C 
ATOM      2  O   UNL     1       0.213  -2.117  10.353  1.00  0.00    -0.270 OA
ATOM      3  N   UNL     1       2.064  -3.167   9.617  1.00  0.00    -0.352 N 
ATOM      4  H   UNL     1       2.440  -3.048  10.519  1.00  0.00     0.163 HD
ENDROOT
BRANCH   1   5
ATOM      5  C   UNL     1       0.245  -2.648   8.070  1.00  0.00     0.072 C 
ATOM      6  C   UNL     1       0.782  -1.911   7.087  1.00  0.00     0.024 C 
BRANCH   6   7
ATOM      7  C   UNL     1       0.283  -1.892   5.751  1.00  0.00     0.028 A 
ATOM      8  C   UNL     1       0.220  -1.640   3.405  1.00  0.00     0.051 A 
ATOM      9  C   UNL     1      -1.090  -1.971   3.684  1.00  0.00     0.079 A 
ATOM     10  C   UNL     1       1.007  -1.620   4.602  1.00  0.00     0.033 A 
ATOM     11  S   UNL     1      -1.368  -2.178   5.355  1.00  0.00    -0.144 S 
BRANCH   8  12
ATOM     12  C   UNL     1       0.726  -1.417   2.056  1.00  0.00     0.254 C 
ATOM     13  O   UNL     1       1.472  -2.242   1.538  1.00  0.00    -0.269 OA
BRANCH  12  14
ATOM     14  N   UNL     1       0.348  -0.233   1.427  1.00  0.00    -0.332 N 
ATOM     15  C   UNL     1       0.658  -0.056   0.019  1.00  0.00     0.147 C 
BRANCH  14  16
ATOM     16  C   UNL     1      -0.339   0.874   2.096  1.00  0.00     0.219 C 
BRANCH  16  17
ATOM     17  C   UNL     1      -1.864   0.781   1.992  1.00  0.00     0.237 C 
ATOM     18  N   UNL     1      -2.553   1.192   3.098  1.00  0.00    -0.368 N 
ATOM     19  O   UNL     1      -2.466   0.404   0.992  1.00  0.00    -0.273 OA
ATOM     20  H   UNL     1      -2.065   1.493   3.898  1.00  0.00     0.159 HD
ATOM     21  H   UNL     1      -3.537   1.187   3.094  1.00  0.00     0.159 HD
ENDBRANCH  16  17
ENDBRANCH  14  16
ENDBRANCH  12  14
ENDBRANCH   8  12
ENDBRANCH   6   7
ENDBRANCH   1   5
BRANCH   3  22
ATOM     22  C   UNL     1       2.899  -3.913   8.689  1.00  0.00     0.118 C 
BRANCH  22  23
ATOM     23  C   UNL     1       4.109  -3.109   8.211  1.00  0.00     0.042 C 
BRANCH  23  24
ATOM     24  C   UNL     1       5.160  -2.852   9.292  1.00  0.00     0.118 C 
BRANCH  24  25
ATOM     25  N   UNL     1       5.882  -4.059   9.661  1.00  0.00    -0.352 N 
ATOM     26  C   UNL     1       7.215  -4.234   9.934  1.00  0.00     0.251 C 
ATOM     27  H   UNL     1       5.332  -4.872   9.724  1.00  0.00     0.163 HD
ATOM     28  O   UNL     1       7.657  -5.371  10.081  1.00  0.00    -0.269 OA
BRANCH  26  29
ATOM     29  C   UNL     1       8.135  -3.079  10.042  1.00  0.00     0.039 A 
ATOM     30  C   UNL     1       9.396  -3.178   9.441  1.00  0.00     0.014 A 
ATOM     31  C   UNL     1       7.808  -1.946  10.794  1.00  0.00     0.014 A 
ATOM     32  C   UNL     1      10.315  -2.133   9.562  1.00  0.00     0.010 A 
ATOM     33  C   UNL     1       8.720  -0.892  10.897  1.00  0.00     0.010 A 
ATOM     34  C   UNL     1       9.980  -0.981  10.287  1.00  0.00    -0.014 A 
BRANCH  34  35
ATOM     35  C   UNL     1      10.952   0.128  10.436  1.00  0.00     0.031 A 
ATOM     36  C   UNL     1      11.692   0.318  11.728  1.00  0.00     0.074 A 
ATOM     37  C   UNL     1      11.148   0.988   9.420  1.00  0.00     0.049 A 
ATOM     38  N   UNL     1      12.516   1.274  12.074  1.00  0.00    -0.248 NA
ATOM     39  C   UNL     1      11.467  -0.695  12.771  1.00  0.00     0.031 C 
ATOM     40  C   UNL     1      10.489   0.923   8.115  1.00  0.00     0.029 A 
ATOM     41  N   UNL     1      11.957   2.092   9.333  1.00  0.00    -0.354 N 
ATOM     42  C   UNL     1      12.884   0.998  13.383  1.00  0.00     0.074 A 
ATOM     43  C   UNL     1      12.200  -0.219  13.769  1.00  0.00     0.031 C 
ATOM     44  C   UNL     1      10.926   1.940   7.354  1.00  0.00     0.029 A 
ATOM     45  C   UNL     1      11.879   2.736   8.124  1.00  0.00     0.049 A 
ATOM     46  H   UNL     1      12.538   2.394  10.069  1.00  0.00     0.167 HD
ATOM     47  C   UNL     1      13.715   1.696  14.193  1.00  0.00     0.037 A 
ATOM     48  C   UNL     1      12.502   3.845   7.688  1.00  0.00     0.037 A 
ATOM     49  C   UNL     1      14.431   2.883  13.812  1.00  0.00     0.049 A 
ATOM     50  C   UNL     1      13.450   4.578   8.590  1.00  0.00     0.074 A 
ATOM     51  C   UNL     1      15.320   3.635  14.562  1.00  0.00     0.029 A 
ATOM     52  N   UNL     1      14.348   3.485  12.568  1.00  0.00    -0.354 N 
ATOM     53  N   UNL     1      13.786   4.306   9.826  1.00  0.00    -0.248 NA
ATOM     54  C   UNL     1      14.100   5.775   8.036  1.00  0.00     0.031 C 
ATOM     55  C   UNL     1      15.773   4.697  13.769  1.00  0.00     0.029 A 
ATOM     56  C   UNL     1      15.168   4.599  12.527  1.00  0.00     0.049 A 
ATOM     57  H   UNL     1      13.788   3.167  11.823  1.00  0.00     0.167 HD
ATOM     58  C   UNL     1      14.689   5.291  10.198  1.00  0.00     0.074 A 
ATOM     59  C   UNL     1      14.853   6.167   9.056  1.00  0.00     0.031 C 
ATOM     60  C   UNL     1      15.323   5.456  11.383  1.00  0.00     0.037 A 
BRANCH  47  61
ATOM     61  C   UNL     1      13.880   1.191  15.589  1.00  0.00     0.057 A 
ATOM     62  C   UNL     1      14.797   0.180  15.897  1.00  0.00     0.134 A 
ATOM     63  C   UNL     1      13.126   1.734  16.637  1.00  0.00     0.134 A 
ATOM     64  F   UNL     1      15.535  -0.386  14.930  1.00  0.00    -0.206 F 
ATOM     65  C   UNL     1      14.954  -0.281  17.204  1.00  0.00     0.040 A 
ATOM     66  C   UNL     1      13.279   1.286  17.948  1.00  0.00     0.040 A 
ATOM     67  F   UNL     1      12.227   2.701  16.398  1.00  0.00    -0.206 F 
ATOM     68  C   UNL     1      14.195   0.274  18.235  1.00  0.00     0.006 A 
ENDBRANCH  47  61
BRANCH  48  69
ATOM     69  C   UNL     1      12.251   4.331   6.315  1.00  0.00     0.057 A 
ATOM     70  C   UNL     1      13.128   4.017   5.273  1.00  0.00     0.134 A 
ATOM     71  C   UNL     1      11.130   5.111   6.016  1.00  0.00     0.134 A 
ATOM     72  F   UNL     1      14.226   3.285   5.512  1.00  0.00    -0.206 F 
ATOM     73  C   UNL     1      12.901   4.468   3.973  1.00  0.00     0.040 A 
ATOM     74  C   UNL     1      10.887   5.564   4.719  1.00  0.00     0.040 A 
ATOM     75  F   UNL     1      10.259   5.442   6.980  1.00  0.00    -0.206 F 
ATOM     76  C   UNL     1      11.775   5.242   3.693  1.00  0.00     0.006 A 
ENDBRANCH  48  69
BRANCH  60  77
ATOM     77  C   UNL     1      16.255   6.618  11.495  1.00  0.00     0.057 A 
ATOM     78  C   UNL     1      15.790   7.888  11.852  1.00  0.00     0.134 A 
ATOM     79  C   UNL     1      17.627   6.462  11.270  1.00  0.00     0.134 A 
ATOM     80  F   UNL     1      14.482   8.097  12.068  1.00  0.00    -0.206 F 
ATOM     81  C   UNL     1      16.661   8.970  11.977  1.00  0.00     0.040 A 
ATOM     82  C   UNL     1      18.509   7.535  11.396  1.00  0.00     0.040 A 
ATOM     83  F   UNL     1      18.128   5.267  10.919  1.00  0.00    -0.206 F 
ATOM     84  C   UNL     1      18.026   8.794  11.751  1.00  0.00     0.006 A 
ENDBRANCH  60  77
ENDBRANCH  34  35
ENDBRANCH  26  29
ENDBRANCH  24  25
ENDBRANCH  23  24
ENDBRANCH  22  23
ENDBRANCH   3  22
TORSDOF 15
