REMARK SMILES Cn1cccc1C(=O)N[C@](C)(C(=O)NCCCNC(=O)c1ccc(-c2c3nc(c(-c4c(F)cccc4F)c4ccc([nH]4)c(-c4c(F)cccc4F)c4nc(c(-c5c(F)cccc5F)c5ccc2[nH]5)C=C4)C=C3)cc1)C(F)(F)F
REMARK SMILES IDX 16 1 15 2 14 3 12 4 13 5 10 7 11 8 9 9 7 10 8 11 6 13 1 14
REMARK SMILES IDX 2 15 3 16 4 17 5 18 75 19 76 20 77 21 78 22 17 23 18 24
REMARK SMILES IDX 19 25 20 27 21 28 22 29 74 30 23 31 73 32 24 33 25 34 26 35
REMARK SMILES IDX 67 36 27 37 72 38 66 39 68 40 28 41 71 42 65 43 64 44 29 46
REMARK SMILES IDX 55 47 38 48 54 49 39 50 42 51 53 52 69 53 40 54 41 55 52 57
REMARK SMILES IDX 70 58 43 59 30 60 31 61 36 62 32 63 33 64 35 65 37 66 34 67
REMARK SMILES IDX 56 68 57 69 62 70 58 71 59 72 61 73 63 74 60 75 44 76 45 77
REMARK SMILES IDX 50 78 46 79 47 80 49 81 51 82 48 83
REMARK H PARENT 14 6 9 12 18 26 68 45 42 56
REMARK Flexibility Score: inf
ROOT
ATOM      1  C   UNL     1       5.203  -4.597  -1.048  1.00  0.00     0.042 C 
ENDROOT
BRANCH   1   2
ATOM      2  C   UNL     1       5.436  -3.127  -0.684  1.00  0.00     0.117 C 
BRANCH   2   3
ATOM      3  N   UNL     1       4.551  -2.256  -1.452  1.00  0.00    -0.354 N 
ATOM      4  C   UNL     1       3.341  -1.677  -1.210  1.00  0.00     0.254 C 
ATOM      5  O   UNL     1       2.783  -1.228  -2.220  1.00  0.00    -0.272 OA
ATOM      6  H   UNL     1       4.907  -2.038  -2.344  1.00  0.00     0.163 HD
BRANCH   4   7
ATOM      7  C   UNL     1       2.705  -1.447   0.186  1.00  0.00     0.212 C 
ATOM      8  C   UNL     1       1.164  -1.543   0.187  1.00  0.00     0.056 C 
BRANCH   7   9
ATOM      9  N   UNL     1       3.235  -2.202   1.347  1.00  0.00    -0.329 N 
ATOM     10  C   UNL     1       3.232  -3.432   1.917  1.00  0.00     0.268 C 
ATOM     11  O   UNL     1       3.748  -3.375   3.044  1.00  0.00    -0.268 OA
ATOM     12  H   UNL     1       3.782  -1.597   1.898  1.00  0.00     0.165 HD
BRANCH  10  13
ATOM     13  C   UNL     1       2.817  -4.725   1.382  1.00  0.00     0.106 A 
ATOM     14  C   UNL     1       1.463  -4.521  -0.805  1.00  0.00     0.150 C 
ATOM     15  N   UNL     1       2.097  -5.203   0.296  1.00  0.00    -0.347 N 
ATOM     16  C   UNL     1       2.055  -6.586   0.320  1.00  0.00     0.086 A 
ATOM     17  C   UNL     1       2.745  -7.035   1.410  1.00  0.00     0.020 A 
ATOM     18  C   UNL     1       3.204  -5.888   2.071  1.00  0.00     0.033 A 
ENDBRANCH  10  13
ENDBRANCH   7   9
BRANCH   7  19
ATOM     19  C   UNL     1       3.018   0.073   0.387  1.00  0.00     0.420 C 
ATOM     20  F   UNL     1       2.384   0.879  -0.489  1.00  0.00    -0.168 F 
ATOM     21  F   UNL     1       2.620   0.462   1.630  1.00  0.00    -0.168 F 
ATOM     22  F   UNL     1       4.344   0.334   0.322  1.00  0.00    -0.168 F 
ENDBRANCH   7  19
ENDBRANCH   4   7
ENDBRANCH   2   3
ENDBRANCH   1   2
BRANCH   1  23
ATOM     23  C   UNL     1       5.942  -5.067  -2.300  1.00  0.00     0.118 C 
BRANCH  23  24
ATOM     24  N   UNL     1       7.203  -5.716  -1.976  1.00  0.00    -0.352 N 
ATOM     25  C   UNL     1       7.580  -7.036  -2.050  1.00  0.00     0.251 C 
ATOM     26  H   UNL     1       7.905  -5.108  -1.649  1.00  0.00     0.163 HD
ATOM     27  O   UNL     1       8.629  -7.382  -1.502  1.00  0.00    -0.269 OA
BRANCH  25  28
ATOM     28  C   UNL     1       6.773  -8.058  -2.766  1.00  0.00     0.039 A 
ATOM     29  C   UNL     1       6.749  -9.369  -2.268  1.00  0.00     0.014 A 
ATOM     30  C   UNL     1       6.127  -7.781  -3.973  1.00  0.00     0.014 A 
ATOM     31  C   UNL     1       6.055 -10.379  -2.949  1.00  0.00     0.010 A 
ATOM     32  C   UNL     1       5.373  -8.769  -4.612  1.00  0.00     0.010 A 
ATOM     33  C   UNL     1       5.342 -10.084  -4.120  1.00  0.00    -0.014 A 
BRANCH  33  34
ATOM     34  C   UNL     1       4.609 -11.129  -4.889  1.00  0.00     0.031 A 
ATOM     35  C   UNL     1       5.020 -11.438  -6.306  1.00  0.00     0.074 A 
ATOM     36  C   UNL     1       3.531 -11.744  -4.364  1.00  0.00     0.049 A 
ATOM     37  N   UNL     1       4.405 -12.152  -7.215  1.00  0.00    -0.248 NA
ATOM     38  C   UNL     1       6.279 -10.834  -6.771  1.00  0.00     0.031 C 
ATOM     39  C   UNL     1       3.013 -11.543  -3.011  1.00  0.00     0.029 A 
ATOM     40  N   UNL     1       2.659 -12.649  -4.922  1.00  0.00    -0.354 N 
ATOM     41  C   UNL     1       5.176 -12.046  -8.367  1.00  0.00     0.074 A 
ATOM     42  C   UNL     1       6.288 -11.176  -8.051  1.00  0.00     0.031 C 
ATOM     43  C   UNL     1       1.918 -12.303  -2.842  1.00  0.00     0.029 A 
ATOM     44  C   UNL     1       1.627 -13.008  -4.088  1.00  0.00     0.049 A 
ATOM     45  H   UNL     1       2.764 -13.006  -5.833  1.00  0.00     0.167 HD
ATOM     46  C   UNL     1       4.985 -12.629  -9.575  1.00  0.00     0.037 A 
ATOM     47  C   UNL     1       0.555 -13.794  -4.308  1.00  0.00     0.037 A 
ATOM     48  C   UNL     1       3.913 -13.540  -9.877  1.00  0.00     0.049 A 
ATOM     49  C   UNL     1       0.365 -14.436  -5.656  1.00  0.00     0.074 A 
ATOM     50  C   UNL     1       3.668 -14.223 -11.056  1.00  0.00     0.029 A 
ATOM     51  N   UNL     1       2.915 -13.906  -8.987  1.00  0.00    -0.354 N 
ATOM     52  N   UNL     1       1.112 -14.340  -6.729  1.00  0.00    -0.248 NA
ATOM     53  C   UNL     1      -0.818 -15.294  -5.825  1.00  0.00     0.031 C 
ATOM     54  C   UNL     1       2.505 -14.980 -10.890  1.00  0.00     0.029 A 
ATOM     55  C   UNL     1       2.048 -14.799  -9.594  1.00  0.00     0.049 A 
ATOM     56  H   UNL     1       2.835 -13.580  -8.062  1.00  0.00     0.167 HD
ATOM     57  C   UNL     1       0.512 -15.152  -7.684  1.00  0.00     0.074 A 
ATOM     58  C   UNL     1      -0.660 -15.733  -7.066  1.00  0.00     0.031 C 
ATOM     59  C   UNL     1       0.902 -15.395  -8.958  1.00  0.00     0.037 A 
BRANCH  46  60
ATOM     60  C   UNL     1       5.959 -12.299 -10.668  1.00  0.00     0.057 A 
ATOM     61  C   UNL     1       7.274 -12.781 -10.660  1.00  0.00     0.134 A 
ATOM     62  C   UNL     1       5.563 -11.521 -11.764  1.00  0.00     0.134 A 
ATOM     63  F   UNL     1       7.719 -13.523  -9.634  1.00  0.00    -0.206 F 
ATOM     64  C   UNL     1       8.169 -12.479 -11.688  1.00  0.00     0.040 A 
ATOM     65  C   UNL     1       6.440 -11.235 -12.812  1.00  0.00     0.040 A 
ATOM     66  F   UNL     1       4.315 -11.036 -11.841  1.00  0.00    -0.206 F 
ATOM     67  C   UNL     1       7.750 -11.709 -12.771  1.00  0.00     0.006 A 
ENDBRANCH  46  60
BRANCH  47  68
ATOM     68  C   UNL     1      -0.430 -14.028  -3.221  1.00  0.00     0.057 A 
ATOM     69  C   UNL     1      -0.526 -15.276  -2.594  1.00  0.00     0.134 A 
ATOM     70  C   UNL     1      -1.304 -13.021  -2.793  1.00  0.00     0.134 A 
ATOM     71  F   UNL     1       0.269 -16.286  -2.977  1.00  0.00    -0.206 F 
ATOM     72  C   UNL     1      -1.467 -15.521  -1.593  1.00  0.00     0.040 A 
ATOM     73  C   UNL     1      -2.233 -13.245  -1.776  1.00  0.00     0.040 A 
ATOM     74  F   UNL     1      -1.259 -11.803  -3.351  1.00  0.00    -0.206 F 
ATOM     75  C   UNL     1      -2.321 -14.501  -1.178  1.00  0.00     0.006 A 
ENDBRANCH  47  68
BRANCH  59  76
ATOM     76  C   UNL     1       0.097 -16.374  -9.758  1.00  0.00     0.057 A 
ATOM     77  C   UNL     1      -1.149 -16.040 -10.301  1.00  0.00     0.134 A 
ATOM     78  C   UNL     1       0.613 -17.644 -10.047  1.00  0.00     0.134 A 
ATOM     79  F   UNL     1      -1.701 -14.844 -10.051  1.00  0.00    -0.206 F 
ATOM     80  C   UNL     1      -1.859 -16.940 -11.099  1.00  0.00     0.040 A 
ATOM     81  C   UNL     1      -0.078 -18.544 -10.860  1.00  0.00     0.040 A 
ATOM     82  F   UNL     1       1.806 -18.022  -9.563  1.00  0.00    -0.206 F 
ATOM     83  C   UNL     1      -1.318 -18.192 -11.387  1.00  0.00     0.006 A 
ENDBRANCH  59  76
ENDBRANCH  33  34
ENDBRANCH  25  28
ENDBRANCH  23  24
ENDBRANCH   1  23
TORSDOF 13
