REMARK SMILES Cc1cc(C(=O)NCCCNC(=O)c2ccc(-c3c4nc(c(-c5c(F)cccc5F)c5ccc([nH]5)c(-c5c(F)cccc5F)c5nc(c(-c6c(F)cccc6F)c6ccc3[nH]6)C=C5)C=C4)cc2)cc(S(=O)(=O)NNC(=O)c2c[nH]c3ccccc23)c1C
REMARK SMILES IDX 8 1 7 2 5 3 6 4 4 6 1 7 2 8 3 9 86 10 69 11 87 12 68 13
REMARK SMILES IDX 70 14 71 15 72 16 73 17 74 19 75 20 76 22 77 23 78 24 85 25
REMARK SMILES IDX 79 26 80 27 84 28 81 30 83 31 82 32 9 33 10 34 11 35 12 36
REMARK SMILES IDX 13 38 14 39 15 40 67 41 16 42 66 43 17 44 18 45 19 46 60 47
REMARK SMILES IDX 20 48 65 49 59 50 61 51 21 52 64 53 58 54 57 55 22 57 48 58
REMARK SMILES IDX 31 59 47 60 32 61 35 62 46 63 62 64 33 65 34 66 45 68 63 69
REMARK SMILES IDX 36 70 23 71 24 72 29 73 25 74 26 75 28 76 30 77 27 78 49 79
REMARK SMILES IDX 50 80 55 81 51 82 52 83 54 84 56 85 53 86 37 87 38 88 43 89
REMARK SMILES IDX 39 90 40 91 42 92 44 93 41 94
REMARK H PARENT 7 5 73 18 74 21 79 29 11 37 61 56 35 67
REMARK Flexibility Score: inf
ROOT
ATOM      1  C   UNL     1      -2.353   3.473   0.675  1.00  0.00     0.118 C 
ENDROOT
BRANCH   1   2
ATOM      2  N   UNL     1      -3.297   2.466   0.215  1.00  0.00    -0.352 N 
ATOM      3  C   UNL     1      -3.182   1.147  -0.148  1.00  0.00     0.251 C 
ATOM      4  O   UNL     1      -4.222   0.559  -0.451  1.00  0.00    -0.269 OA
ATOM      5  H   UNL     1      -4.219   2.805   0.150  1.00  0.00     0.163 HD
BRANCH   3   6
ATOM      6  C   UNL     1      -1.903   0.377  -0.180  1.00  0.00     0.041 A 
ATOM      7  C   UNL     1       1.861   0.908  -0.218  1.00  0.00     0.044 C 
ATOM      8  C   UNL     1       0.537   0.185  -0.231  1.00  0.00    -0.046 A 
ATOM      9  C   UNL     1      -0.638   0.957  -0.258  1.00  0.00     0.017 A 
ATOM     10  C   UNL     1       0.446  -1.221  -0.227  1.00  0.00    -0.028 A 
ATOM     11  C   UNL     1      -0.842  -1.815  -0.276  1.00  0.00     0.088 A 
ATOM     12  C   UNL     1       1.692  -2.076  -0.183  1.00  0.00     0.046 C 
ATOM     13  C   UNL     1      -1.996  -1.026  -0.207  1.00  0.00     0.036 A 
BRANCH  11  14
ATOM     14  S   UNL     1      -0.963  -3.566  -0.605  1.00  0.00     0.257 S 
ATOM     15  O   UNL     1      -0.449  -3.752  -1.959  1.00  0.00    -0.205 OA
ATOM     16  O   UNL     1      -0.395  -4.259   0.512  1.00  0.00    -0.205 OA
BRANCH  14  17
ATOM     17  N   UNL     1      -2.607  -4.013  -0.612  1.00  0.00    -0.123 NA
ATOM     18  H   UNL     1      -3.045  -3.527   0.170  1.00  0.00     0.167 HD
BRANCH  17  19
ATOM     19  N   UNL     1      -3.446  -3.756  -1.792  1.00  0.00    -0.273 N 
ATOM     20  C   UNL     1      -4.387  -4.691  -2.201  1.00  0.00     0.268 C 
ATOM     21  H   UNL     1      -3.340  -2.916  -2.294  1.00  0.00     0.186 HD
ATOM     22  O   UNL     1      -5.591  -4.488  -2.068  1.00  0.00    -0.268 OA
BRANCH  20  23
ATOM     23  C   UNL     1      -3.845  -5.723  -3.087  1.00  0.00     0.066 A 
ATOM     24  C   UNL     1      -2.510  -5.903  -3.404  1.00  0.00     0.097 A 
ATOM     25  C   UNL     1      -4.558  -6.602  -3.968  1.00  0.00     0.012 A 
ATOM     26  N   UNL     1      -2.476  -6.337  -4.701  1.00  0.00    -0.360 N 
ATOM     27  C   UNL     1      -3.720  -6.776  -5.073  1.00  0.00     0.046 A 
ATOM     28  C   UNL     1      -5.857  -7.146  -4.030  1.00  0.00     0.011 A 
ATOM     29  H   UNL     1      -1.679  -6.334  -5.279  1.00  0.00     0.166 HD
ATOM     30  C   UNL     1      -4.167  -7.284  -6.295  1.00  0.00     0.027 A 
ATOM     31  C   UNL     1      -6.274  -7.793  -5.202  1.00  0.00     0.001 A 
ATOM     32  C   UNL     1      -5.462  -7.804  -6.334  1.00  0.00     0.002 A 
ENDBRANCH  20  23
ENDBRANCH  17  19
ENDBRANCH  14  17
ENDBRANCH  11  14
ENDBRANCH   3   6
ENDBRANCH   1   2
BRANCH   1  33
ATOM     33  C   UNL     1      -1.906   4.392  -0.466  1.00  0.00     0.042 C 
BRANCH  33  34
ATOM     34  C   UNL     1      -2.942   5.455  -0.839  1.00  0.00     0.118 C 
BRANCH  34  35
ATOM     35  N   UNL     1      -3.067   6.483   0.185  1.00  0.00    -0.352 N 
ATOM     36  C   UNL     1      -3.007   7.851   0.087  1.00  0.00     0.251 C 
ATOM     37  H   UNL     1      -3.221   6.141   1.095  1.00  0.00     0.163 HD
ATOM     38  O   UNL     1      -2.950   8.521   1.115  1.00  0.00    -0.269 OA
BRANCH  36  39
ATOM     39  C   UNL     1      -2.996   8.531  -1.228  1.00  0.00     0.039 A 
ATOM     40  C   UNL     1      -2.181   9.658  -1.390  1.00  0.00     0.014 A 
ATOM     41  C   UNL     1      -3.822   8.118  -2.276  1.00  0.00     0.014 A 
ATOM     42  C   UNL     1      -2.154  10.335  -2.613  1.00  0.00     0.010 A 
ATOM     43  C   UNL     1      -3.751   8.757  -3.515  1.00  0.00     0.010 A 
ATOM     44  C   UNL     1      -2.918   9.873  -3.695  1.00  0.00    -0.014 A 
BRANCH  44  45
ATOM     45  C   UNL     1      -2.856  10.539  -5.022  1.00  0.00     0.031 A 
ATOM     46  C   UNL     1      -4.067  11.230  -5.585  1.00  0.00     0.074 A 
ATOM     47  C   UNL     1      -1.725  10.465  -5.751  1.00  0.00     0.049 A 
ATOM     48  N   UNL     1      -4.232  11.787  -6.759  1.00  0.00    -0.248 NA
ATOM     49  C   UNL     1      -5.259  11.280  -4.724  1.00  0.00     0.031 C 
ATOM     50  C   UNL     1      -0.493   9.794  -5.334  1.00  0.00     0.029 A 
ATOM     51  N   UNL     1      -1.434  10.947  -7.003  1.00  0.00    -0.354 N 
ATOM     52  C   UNL     1      -5.547  12.235  -6.785  1.00  0.00     0.074 A 
ATOM     53  C   UNL     1      -6.148  11.850  -5.526  1.00  0.00     0.031 C 
ATOM     54  C   UNL     1       0.425   9.918  -6.306  1.00  0.00     0.029 A 
ATOM     55  C   UNL     1      -0.164  10.643  -7.428  1.00  0.00     0.049 A 
ATOM     56  H   UNL     1      -2.075  11.461  -7.545  1.00  0.00     0.167 HD
ATOM     57  C   UNL     1      -6.189  12.921  -7.761  1.00  0.00     0.037 A 
ATOM     58  C   UNL     1       0.455  10.908  -8.594  1.00  0.00     0.037 A 
ATOM     59  C   UNL     1      -5.582  13.327  -9.002  1.00  0.00     0.049 A 
ATOM     60  C   UNL     1      -0.280  11.668  -9.662  1.00  0.00     0.074 A 
ATOM     61  C   UNL     1      -6.134  14.074 -10.028  1.00  0.00     0.029 A 
ATOM     62  N   UNL     1      -4.286  13.019  -9.385  1.00  0.00    -0.354 N 
ATOM     63  N   UNL     1      -1.505  12.135  -9.649  1.00  0.00    -0.248 NA
ATOM     64  C   UNL     1       0.455  11.943 -10.905  1.00  0.00     0.031 C 
ATOM     65  C   UNL     1      -5.184  14.186 -11.049  1.00  0.00     0.029 A 
ATOM     66  C   UNL     1      -4.026  13.545 -10.640  1.00  0.00     0.049 A 
ATOM     67  H   UNL     1      -3.645  12.502  -8.845  1.00  0.00     0.167 HD
ATOM     68  C   UNL     1      -1.678  12.781 -10.866  1.00  0.00     0.074 A 
ATOM     69  C   UNL     1      -0.429  12.656 -11.588  1.00  0.00     0.031 C 
ATOM     70  C   UNL     1      -2.774  13.420 -11.342  1.00  0.00     0.037 A 
BRANCH  57  71
ATOM     71  C   UNL     1      -7.628  13.278  -7.524  1.00  0.00     0.057 A 
ATOM     72  C   UNL     1      -8.003  14.253  -6.591  1.00  0.00     0.134 A 
ATOM     73  C   UNL     1      -8.649  12.665  -8.262  1.00  0.00     0.134 A 
ATOM     74  F   UNL     1      -7.076  14.871  -5.845  1.00  0.00    -0.206 F 
ATOM     75  C   UNL     1      -9.343  14.587  -6.382  1.00  0.00     0.040 A 
ATOM     76  C   UNL     1      -9.989  13.008  -8.080  1.00  0.00     0.040 A 
ATOM     77  F   UNL     1      -8.359  11.728  -9.178  1.00  0.00    -0.206 F 
ATOM     78  C   UNL     1     -10.340  13.968  -7.133  1.00  0.00     0.006 A 
ENDBRANCH  57  71
BRANCH  58  79
ATOM     79  C   UNL     1       1.856  10.468  -8.806  1.00  0.00     0.057 A 
ATOM     80  C   UNL     1       2.904  11.396  -8.844  1.00  0.00     0.134 A 
ATOM     81  C   UNL     1       2.182   9.118  -8.979  1.00  0.00     0.134 A 
ATOM     82  F   UNL     1       2.651  12.705  -8.704  1.00  0.00    -0.206 F 
ATOM     83  C   UNL     1       4.224  10.999  -9.064  1.00  0.00     0.040 A 
ATOM     84  C   UNL     1       3.501   8.704  -9.176  1.00  0.00     0.040 A 
ATOM     85  F   UNL     1       1.224   8.180  -8.945  1.00  0.00    -0.206 F 
ATOM     86  C   UNL     1       4.525   9.648  -9.225  1.00  0.00     0.006 A 
ENDBRANCH  58  79
BRANCH  70  87
ATOM     87  C   UNL     1      -2.659  14.066 -12.692  1.00  0.00     0.057 A 
ATOM     88  C   UNL     1      -2.635  13.312 -13.872  1.00  0.00     0.134 A 
ATOM     89  C   UNL     1      -2.609  15.460 -12.812  1.00  0.00     0.134 A 
ATOM     90  F   UNL     1      -2.666  11.972 -13.823  1.00  0.00    -0.206 F 
ATOM     91  C   UNL     1      -2.545  13.923 -15.124  1.00  0.00     0.040 A 
ATOM     92  C   UNL     1      -2.544  16.083 -14.059  1.00  0.00     0.040 A 
ATOM     93  F   UNL     1      -2.636  16.239 -11.720  1.00  0.00    -0.206 F 
ATOM     94  C   UNL     1      -2.506  15.313 -15.219  1.00  0.00     0.006 A 
ENDBRANCH  70  87
ENDBRANCH  44  45
ENDBRANCH  36  39
ENDBRANCH  34  35
ENDBRANCH  33  34
ENDBRANCH   1  33
TORSDOF 14
