REMARK SMILES O=C(NCCCNC(=O)c1ccc(-n2cc(CSc3nc4ccccc4c(=O)n3-c3ccc(Br)cc3)nn2)cc1)c1ccc(-c2c3nc(c(-c4c(F)cccc4F)c4ccc([nH]4)c(-c4c(F)cccc4F)c4nc(c(-c5c(F)cccc5F)c5ccc2[nH]5)C=C4)C=C3)cc1
REMARK SMILES IDX 7 1 8 2 9 3 6 5 5 6 4 7 3 8 1 9 2 10 41 12 42 13 94 14 43 15
REMARK SMILES IDX 93 16 44 17 45 18 46 19 87 20 47 21 92 22 86 23 88 24 48 25
REMARK SMILES IDX 91 26 85 27 84 28 49 30 75 31 58 32 74 33 59 34 62 35 73 36
REMARK SMILES IDX 89 37 60 38 61 39 72 41 90 42 63 43 50 44 51 45 56 46 52 47
REMARK SMILES IDX 53 48 55 49 57 50 54 51 76 52 77 53 82 54 78 55 79 56 81 57
REMARK SMILES IDX 83 58 80 59 64 60 65 61 70 62 66 63 67 64 69 65 71 66 68 67
REMARK SMILES IDX 10 68 11 69 40 70 12 71 39 72 13 73 14 74 15 75 38 76 16 77
REMARK SMILES IDX 37 78 17 79 18 80 19 81 20 82 29 83 21 84 27 85 22 86 26 87
REMARK SMILES IDX 28 88 23 89 25 90 24 91 30 92 31 93 36 94 32 95 35 96 33 97
REMARK SMILES IDX 34 98
REMARK H PARENT 7 4 3 11 88 29 62 40
REMARK Flexibility Score: inf
ROOT
ATOM      1  N   UNL     1       5.015  -3.000   2.982  1.00  0.00    -0.352 N 
ATOM      2  C   UNL     1       5.874  -3.738   3.749  1.00  0.00     0.251 C 
ATOM      3  O   UNL     1       6.265  -4.836   3.337  1.00  0.00    -0.269 OA
ATOM      4  H   UNL     1       4.688  -3.459   2.175  1.00  0.00     0.163 HD
ENDROOT
BRANCH   1   5
ATOM      5  C   UNL     1       4.505  -1.648   3.159  1.00  0.00     0.118 C 
BRANCH   5   6
ATOM      6  C   UNL     1       5.048  -0.657   2.132  1.00  0.00     0.042 C 
BRANCH   6   7
ATOM      7  C   UNL     1       4.738  -0.999   0.677  1.00  0.00     0.118 C 
BRANCH   7   8
ATOM      8  N   UNL     1       3.333  -1.164   0.363  1.00  0.00    -0.352 N 
ATOM      9  O   UNL     1       1.273  -0.855  -0.367  1.00  0.00    -0.269 OA
ATOM     10  C   UNL     1       2.306  -0.320   0.045  1.00  0.00     0.251 C 
ATOM     11  H   UNL     1       3.051  -2.107   0.383  1.00  0.00     0.163 HD
BRANCH  10  12
ATOM     12  C   UNL     1       2.312   1.153   0.241  1.00  0.00     0.039 A 
ATOM     13  C   UNL     1       3.437   1.960   0.420  1.00  0.00     0.014 A 
ATOM     14  C   UNL     1       1.039   1.757   0.267  1.00  0.00     0.014 A 
ATOM     15  C   UNL     1       3.289   3.318   0.711  1.00  0.00     0.010 A 
ATOM     16  C   UNL     1       0.886   3.107   0.546  1.00  0.00     0.010 A 
ATOM     17  C   UNL     1       2.012   3.881   0.806  1.00  0.00    -0.014 A 
BRANCH  17  18
ATOM     18  C   UNL     1       1.879   5.322   1.017  1.00  0.00     0.031 A 
ATOM     19  C   UNL     1       2.325   6.162  -0.135  1.00  0.00     0.074 A 
ATOM     20  C   UNL     1       1.226   5.857   2.070  1.00  0.00     0.049 A 
ATOM     21  N   UNL     1       3.237   7.078  -0.156  1.00  0.00    -0.248 NA
ATOM     22  C   UNL     1       1.740   5.877  -1.458  1.00  0.00     0.031 C 
ATOM     23  C   UNL     1       0.467   5.154   3.108  1.00  0.00     0.029 A 
ATOM     24  N   UNL     1       1.011   7.169   2.378  1.00  0.00    -0.354 N 
ATOM     25  C   UNL     1       3.225   7.610  -1.446  1.00  0.00     0.074 A 
ATOM     26  C   UNL     1       2.390   6.744  -2.236  1.00  0.00     0.031 C 
ATOM     27  C   UNL     1      -0.300   6.042   3.783  1.00  0.00     0.029 A 
ATOM     28  C   UNL     1       0.006   7.384   3.316  1.00  0.00     0.049 A 
ATOM     29  H   UNL     1       1.525   7.903   1.970  1.00  0.00     0.167 HD
ATOM     30  C   UNL     1       3.734   8.843  -1.720  1.00  0.00     0.037 A 
ATOM     31  C   UNL     1      -0.572   8.571   3.638  1.00  0.00     0.037 A 
ATOM     32  C   UNL     1       4.604   9.298  -0.670  1.00  0.00     0.049 A 
ATOM     33  C   UNL     1       0.325   9.652   3.166  1.00  0.00     0.074 A 
ATOM     34  C   UNL     1       5.790   8.854  -0.121  1.00  0.00     0.029 A 
ATOM     35  N   UNL     1       4.104  10.216   0.218  1.00  0.00    -0.354 N 
ATOM     36  N   UNL     1       1.489   9.914   3.688  1.00  0.00    -0.248 NA
ATOM     37  C   UNL     1       0.112  10.163   1.821  1.00  0.00     0.031 C 
ATOM     38  C   UNL     1       5.682   9.146   1.270  1.00  0.00     0.029 A 
ATOM     39  C   UNL     1       4.467   9.802   1.471  1.00  0.00     0.049 A 
ATOM     40  H   UNL     1       3.582  11.021  -0.004  1.00  0.00     0.167 HD
ATOM     41  C   UNL     1       2.296  10.216   2.603  1.00  0.00     0.074 A 
ATOM     42  C   UNL     1       1.375  10.440   1.491  1.00  0.00     0.031 C 
ATOM     43  C   UNL     1       3.639   9.976   2.639  1.00  0.00     0.037 A 
BRANCH  30  44
ATOM     44  C   UNL     1       3.167   9.798  -2.744  1.00  0.00     0.057 A 
ATOM     45  C   UNL     1       3.858  10.990  -3.030  1.00  0.00     0.134 A 
ATOM     46  C   UNL     1       1.838   9.751  -3.211  1.00  0.00     0.134 A 
ATOM     47  F   UNL     1       5.128  11.164  -2.631  1.00  0.00    -0.206 F 
ATOM     48  C   UNL     1       3.246  12.084  -3.655  1.00  0.00     0.040 A 
ATOM     49  C   UNL     1       1.233  10.818  -3.881  1.00  0.00     0.040 A 
ATOM     50  F   UNL     1       1.024   8.720  -2.955  1.00  0.00    -0.206 F 
ATOM     51  C   UNL     1       1.924  12.004  -4.073  1.00  0.00     0.006 A 
ENDBRANCH  30  44
BRANCH  31  52
ATOM     52  C   UNL     1      -1.972   8.852   4.042  1.00  0.00     0.057 A 
ATOM     53  C   UNL     1      -2.332  10.074   4.632  1.00  0.00     0.134 A 
ATOM     54  C   UNL     1      -3.036   8.050   3.596  1.00  0.00     0.134 A 
ATOM     55  F   UNL     1      -1.390  10.931   5.051  1.00  0.00    -0.206 F 
ATOM     56  C   UNL     1      -3.668  10.483   4.749  1.00  0.00     0.040 A 
ATOM     57  C   UNL     1      -4.374   8.444   3.712  1.00  0.00     0.040 A 
ATOM     58  F   UNL     1      -2.810   6.898   2.948  1.00  0.00    -0.206 F 
ATOM     59  C   UNL     1      -4.694   9.672   4.277  1.00  0.00     0.006 A 
ENDBRANCH  31  52
BRANCH  43  60
ATOM     60  C   UNL     1       4.257   9.625   3.963  1.00  0.00     0.057 A 
ATOM     61  C   UNL     1       3.944   8.472   4.698  1.00  0.00     0.134 A 
ATOM     62  C   UNL     1       5.318  10.406   4.432  1.00  0.00     0.134 A 
ATOM     63  F   UNL     1       3.011   7.609   4.276  1.00  0.00    -0.206 F 
ATOM     64  C   UNL     1       4.630   8.136   5.869  1.00  0.00     0.040 A 
ATOM     65  C   UNL     1       6.034  10.063   5.580  1.00  0.00     0.040 A 
ATOM     66  F   UNL     1       5.710  11.494   3.749  1.00  0.00    -0.206 F 
ATOM     67  C   UNL     1       5.684   8.930   6.309  1.00  0.00     0.006 A 
ENDBRANCH  43  60
ENDBRANCH  17  18
ENDBRANCH  10  12
ENDBRANCH   7   8
ENDBRANCH   6   7
ENDBRANCH   5   6
ENDBRANCH   1   5
BRANCH   2  68
ATOM     68  C   UNL     1       6.360  -3.245   5.052  1.00  0.00     0.039 A 
ATOM     69  C   UNL     1       7.732  -3.303   5.318  1.00  0.00     0.016 A 
ATOM     70  C   UNL     1       5.473  -2.805   6.038  1.00  0.00     0.016 A 
ATOM     71  C   UNL     1       8.229  -2.866   6.548  1.00  0.00     0.029 A 
ATOM     72  C   UNL     1       5.963  -2.382   7.276  1.00  0.00     0.029 A 
ATOM     73  C   UNL     1       7.343  -2.421   7.536  1.00  0.00     0.066 A 
BRANCH  73  74
ATOM     74  N   UNL     1       7.844  -2.100   8.820  1.00  0.00    -0.220 N 
ATOM     75  C   UNL     1       7.142  -2.049   9.995  1.00  0.00     0.141 A 
ATOM     76  N   UNL     1       9.149  -1.843   9.072  1.00  0.00    -0.062 NA
ATOM     77  C   UNL     1       8.089  -1.886  10.981  1.00  0.00     0.093 A 
ATOM     78  N   UNL     1       9.303  -1.692  10.384  1.00  0.00    -0.134 NA
BRANCH  77  79
ATOM     79  C   UNL     1       7.880  -1.726  12.435  1.00  0.00     0.138 C 
BRANCH  79  80
ATOM     80  S   UNL     1       8.196  -3.054  13.597  1.00  0.00    -0.081 SA
BRANCH  80  81
ATOM     81  C   UNL     1       8.205  -4.641  12.868  1.00  0.00     0.176 A 
ATOM     82  N   UNL     1       9.067  -5.427  13.448  1.00  0.00    -0.223 NA
ATOM     83  N   UNL     1       7.406  -5.088  11.823  1.00  0.00    -0.255 N 
ATOM     84  C   UNL     1       9.261  -6.711  12.931  1.00  0.00     0.079 A 
ATOM     85  C   UNL     1       8.039  -6.003  10.968  1.00  0.00     0.266 A 
ATOM     86  C   UNL     1       9.896  -7.701  13.682  1.00  0.00     0.029 A 
ATOM     87  C   UNL     1       8.907  -6.993  11.621  1.00  0.00     0.066 A 
ATOM     88  O   UNL     1       7.927  -6.047   9.742  1.00  0.00    -0.268 OA
ATOM     89  C   UNL     1      10.224  -8.930  13.097  1.00  0.00     0.002 A 
ATOM     90  C   UNL     1       9.275  -8.193  11.004  1.00  0.00     0.016 A 
ATOM     91  C   UNL     1       9.947  -9.162  11.748  1.00  0.00     0.001 A 
BRANCH  83  92
ATOM     92  C   UNL     1       6.031  -4.721  11.542  1.00  0.00     0.051 A 
ATOM     93  C   UNL     1       5.309  -5.389  10.529  1.00  0.00     0.028 A 
ATOM     94  C   UNL     1       5.311  -3.752  12.250  1.00  0.00     0.028 A 
ATOM     95  C   UNL     1       4.051  -4.957  10.093  1.00  0.00     0.018 A 
ATOM     96  C   UNL     1       4.080  -3.264  11.783  1.00  0.00     0.018 A 
ATOM     97  C   UNL     1       3.477  -3.843  10.676  1.00  0.00     0.018 A 
ATOM     98  Br  UNL     1       1.900  -3.104   9.953  1.00  0.00    -0.051 Br
ENDBRANCH  83  92
ENDBRANCH  80  81
ENDBRANCH  79  80
ENDBRANCH  77  79
ENDBRANCH  73  74
ENDBRANCH   2  68
TORSDOF 15
