REMARK SMILES CC1(CNS(=O)(=O)Cc2ccc(C(=O)NCCCNC(=O)c3ccc(-c4c5nc(c(-c6c(F)cccc6F)c6ccc([nH]6)c(-c6c(F)cccc6F)c6nc(c(-c7c(F)cccc7F)c7ccc4[nH]7)C=C6)C=C5)cc3)cc2)COC1
REMARK SMILES IDX 13 1 14 2 15 3 12 5 9 6 10 7 77 8 11 9 76 10 8 11 5 12 6 13
REMARK SMILES IDX 7 14 4 15 3 17 2 18 1 19 78 20 80 21 79 22 16 23 17 24 18 25
REMARK SMILES IDX 19 26 20 27 21 29 22 30 23 31 75 32 24 33 74 34 25 35 26 36
REMARK SMILES IDX 27 37 68 38 28 39 73 40 67 41 69 42 29 43 72 44 66 45 65 46
REMARK SMILES IDX 30 48 56 49 39 50 55 51 40 52 43 53 54 54 70 55 41 56 42 57
REMARK SMILES IDX 53 59 71 60 44 61 31 62 32 63 37 64 33 65 34 66 36 67 38 68
REMARK SMILES IDX 35 69 57 70 58 71 63 72 59 73 60 74 62 75 64 76 61 77 45 78
REMARK SMILES IDX 46 79 51 80 47 81 48 82 50 83 52 84 49 85
REMARK H PARENT 15 4 4 16 19 28 69 47 43 58
REMARK Flexibility Score: inf
ROOT
ATOM      1  C   UNL     1      -0.489  -3.480  -4.697  1.00  0.00     0.251 C 
ATOM      2  O   UNL     1      -0.303  -4.683  -4.875  1.00  0.00    -0.269 OA
ATOM      3  N   UNL     1      -0.093  -2.612  -5.686  1.00  0.00    -0.352 N 
ATOM      4  H   UNL     1       0.357  -3.049  -6.445  1.00  0.00     0.163 HD
ENDROOT
BRANCH   1   5
ATOM      5  C   UNL     1      -1.172  -3.026  -3.456  1.00  0.00     0.039 A 
ATOM      6  C   UNL     1      -2.627  -2.203  -1.155  1.00  0.00    -0.032 A 
ATOM      7  C   UNL     1      -2.748  -3.507  -1.667  1.00  0.00     0.005 A 
ATOM      8  C   UNL     1      -1.738  -1.349  -1.804  1.00  0.00     0.005 A 
ATOM      9  C   UNL     1      -2.044  -3.909  -2.812  1.00  0.00     0.014 A 
ATOM     10  C   UNL     1      -0.979  -1.772  -2.892  1.00  0.00     0.014 A 
BRANCH   6  11
ATOM     11  C   UNL     1      -3.394  -1.860   0.101  1.00  0.00     0.189 C 
BRANCH  11  12
ATOM     12  S   UNL     1      -3.527  -0.114   0.529  1.00  0.00     0.215 S 
ATOM     13  O   UNL     1      -4.054  -0.013   1.871  1.00  0.00    -0.212 OA
ATOM     14  O   UNL     1      -4.155   0.604  -0.561  1.00  0.00    -0.212 OA
BRANCH  12  15
ATOM     15  N   UNL     1      -1.954   0.486   0.601  1.00  0.00    -0.214 NA
ATOM     16  H   UNL     1      -1.518   0.290  -0.300  1.00  0.00     0.141 HD
BRANCH  15  17
ATOM     17  C   UNL     1      -1.042  -0.019   1.642  1.00  0.00     0.110 C 
BRANCH  17  18
ATOM     18  C   UNL     1       0.407   0.416   1.381  1.00  0.00     0.028 C 
ATOM     19  C   UNL     1       0.981  -0.042   0.046  1.00  0.00     0.018 C 
ATOM     20  C   UNL     1       1.323   0.110   2.583  1.00  0.00     0.170 C 
ATOM     21  C   UNL     1       0.707   1.883   1.741  1.00  0.00     0.170 C 
ATOM     22  O   UNL     1       1.224   1.485   3.037  1.00  0.00    -0.380 OA
ENDBRANCH  17  18
ENDBRANCH  15  17
ENDBRANCH  12  15
ENDBRANCH  11  12
ENDBRANCH   6  11
ENDBRANCH   1   5
BRANCH   3  23
ATOM     23  C   UNL     1      -0.216  -1.170  -5.821  1.00  0.00     0.118 C 
BRANCH  23  24
ATOM     24  C   UNL     1       1.093  -0.471  -5.446  1.00  0.00     0.042 C 
BRANCH  24  25
ATOM     25  C   UNL     1       2.139  -0.547  -6.550  1.00  0.00     0.118 C 
BRANCH  25  26
ATOM     26  N   UNL     1       1.749   0.241  -7.710  1.00  0.00    -0.352 N 
ATOM     27  C   UNL     1       2.400   1.272  -8.335  1.00  0.00     0.251 C 
ATOM     28  H   UNL     1       0.883  -0.006  -8.108  1.00  0.00     0.163 HD
ATOM     29  O   UNL     1       1.793   1.969  -9.144  1.00  0.00    -0.269 OA
BRANCH  27  30
ATOM     30  C   UNL     1       3.819   1.555  -8.037  1.00  0.00     0.039 A 
ATOM     31  C   UNL     1       4.239   2.886  -7.973  1.00  0.00     0.014 A 
ATOM     32  C   UNL     1       4.744   0.520  -7.868  1.00  0.00     0.014 A 
ATOM     33  C   UNL     1       5.574   3.179  -7.693  1.00  0.00     0.010 A 
ATOM     34  C   UNL     1       6.056   0.814  -7.510  1.00  0.00     0.010 A 
ATOM     35  C   UNL     1       6.487   2.146  -7.427  1.00  0.00    -0.014 A 
BRANCH  35  36
ATOM     36  C   UNL     1       7.896   2.442  -7.068  1.00  0.00     0.031 A 
ATOM     37  C   UNL     1       9.016   1.985  -7.964  1.00  0.00     0.074 A 
ATOM     38  C   UNL     1       8.167   3.079  -5.912  1.00  0.00     0.049 A 
ATOM     39  N   UNL     1      10.309   2.084  -7.785  1.00  0.00    -0.248 NA
ATOM     40  C   UNL     1       8.635   1.308  -9.215  1.00  0.00     0.031 C 
ATOM     41  C   UNL     1       7.168   3.540  -4.945  1.00  0.00     0.029 A 
ATOM     42  N   UNL     1       9.364   3.443  -5.350  1.00  0.00    -0.354 N 
ATOM     43  C   UNL     1      10.891   1.485  -8.895  1.00  0.00     0.074 A 
ATOM     44  C   UNL     1       9.815   0.968  -9.711  1.00  0.00     0.031 C 
ATOM     45  C   UNL     1       7.792   4.143  -3.921  1.00  0.00     0.029 A 
ATOM     46  C   UNL     1       9.233   4.072  -4.134  1.00  0.00     0.049 A 
ATOM     47  H   UNL     1      10.234   3.271  -5.776  1.00  0.00     0.167 HD
ATOM     48  C   UNL     1      12.203   1.398  -9.218  1.00  0.00     0.037 A 
ATOM     49  C   UNL     1      10.172   4.526  -3.282  1.00  0.00     0.037 A 
ATOM     50  C   UNL     1      13.271   1.925  -8.409  1.00  0.00     0.049 A 
ATOM     51  C   UNL     1      11.624   4.377  -3.651  1.00  0.00     0.074 A 
ATOM     52  C   UNL     1      14.631   1.912  -8.663  1.00  0.00     0.029 A 
ATOM     53  N   UNL     1      13.097   2.562  -7.189  1.00  0.00    -0.354 N 
ATOM     54  N   UNL     1      12.156   3.858  -4.731  1.00  0.00    -0.248 NA
ATOM     55  C   UNL     1      12.607   4.886  -2.684  1.00  0.00     0.031 C 
ATOM     56  C   UNL     1      15.284   2.500  -7.576  1.00  0.00     0.029 A 
ATOM     57  C   UNL     1      14.328   2.931  -6.672  1.00  0.00     0.049 A 
ATOM     58  H   UNL     1      12.229   2.727  -6.756  1.00  0.00     0.167 HD
ATOM     59  C   UNL     1      13.530   4.013  -4.590  1.00  0.00     0.074 A 
ATOM     60  C   UNL     1      13.747   4.690  -3.329  1.00  0.00     0.031 C 
ATOM     61  C   UNL     1      14.524   3.627  -5.426  1.00  0.00     0.037 A 
BRANCH  48  62
ATOM     62  C   UNL     1      12.563   0.724 -10.511  1.00  0.00     0.057 A 
ATOM     63  C   UNL     1      12.288   1.319 -11.749  1.00  0.00     0.134 A 
ATOM     64  C   UNL     1      13.252  -0.495 -10.519  1.00  0.00     0.134 A 
ATOM     65  F   UNL     1      11.621   2.481 -11.812  1.00  0.00    -0.206 F 
ATOM     66  C   UNL     1      12.671   0.718 -12.950  1.00  0.00     0.040 A 
ATOM     67  C   UNL     1      13.665  -1.092 -11.712  1.00  0.00     0.040 A 
ATOM     68  F   UNL     1      13.553  -1.116  -9.369  1.00  0.00    -0.206 F 
ATOM     69  C   UNL     1      13.372  -0.486 -12.932  1.00  0.00     0.006 A 
ENDBRANCH  48  62
BRANCH  49  70
ATOM     70  C   UNL     1       9.784   5.162  -1.996  1.00  0.00     0.057 A 
ATOM     71  C   UNL     1      10.055   6.513  -1.745  1.00  0.00     0.134 A 
ATOM     72  C   UNL     1       9.185   4.425  -0.967  1.00  0.00     0.134 A 
ATOM     73  F   UNL     1      10.641   7.269  -2.684  1.00  0.00    -0.206 F 
ATOM     74  C   UNL     1       9.786   7.096  -0.505  1.00  0.00     0.040 A 
ATOM     75  C   UNL     1       8.880   5.004   0.266  1.00  0.00     0.040 A 
ATOM     76  F   UNL     1       8.887   3.130  -1.144  1.00  0.00    -0.206 F 
ATOM     77  C   UNL     1       9.195   6.340   0.505  1.00  0.00     0.006 A 
ENDBRANCH  49  70
BRANCH  61  78
ATOM     78  C   UNL     1      15.929   3.979  -5.034  1.00  0.00     0.057 A 
ATOM     79  C   UNL     1      16.582   3.354  -3.964  1.00  0.00     0.134 A 
ATOM     80  C   UNL     1      16.651   4.934  -5.763  1.00  0.00     0.134 A 
ATOM     81  F   UNL     1      15.944   2.441  -3.217  1.00  0.00    -0.206 F 
ATOM     82  C   UNL     1      17.892   3.688  -3.614  1.00  0.00     0.040 A 
ATOM     83  C   UNL     1      17.971   5.252  -5.444  1.00  0.00     0.040 A 
ATOM     84  F   UNL     1      16.089   5.562  -6.807  1.00  0.00    -0.206 F 
ATOM     85  C   UNL     1      18.592   4.634  -4.361  1.00  0.00     0.006 A 
ENDBRANCH  61  78
ENDBRANCH  35  36
ENDBRANCH  27  30
ENDBRANCH  25  26
ENDBRANCH  24  25
ENDBRANCH  23  24
ENDBRANCH   3  23
TORSDOF 15
