REMARK SMILES O=C(C[C@H]1C[N@@H+](CCSc2ccccc2F)CCO1)NCCCNC(=O)c1ccc(-c2c3nc(c(-c4c(F)cccc4F)c4ccc([nH]4)c(-c4c(F)cccc4F)c4nc(c(-c5c(F)cccc5F)c5ccc2[nH]5)C=C4)C=C3)cc1
REMARK SMILES IDX 1 1 2 2 20 3 3 5 4 6 5 7 19 8 6 9 18 10 17 11 7 13 8 14 9 15
REMARK SMILES IDX 10 16 11 17 15 18 12 19 14 20 16 21 13 22 21 23 22 24 23 25
REMARK SMILES IDX 24 26 25 27 26 29 27 30 28 31 80 32 29 33 79 34 30 35 31 36
REMARK SMILES IDX 32 37 73 38 33 39 78 40 72 41 74 42 34 43 77 44 71 45 70 46
REMARK SMILES IDX 35 48 61 49 44 50 60 51 45 52 48 53 59 54 75 55 46 56 47 57
REMARK SMILES IDX 58 59 76 60 49 61 36 62 37 63 42 64 38 65 39 66 41 67 43 68
REMARK SMILES IDX 40 69 62 70 63 71 68 72 64 73 65 74 67 75 69 76 66 77 50 78
REMARK SMILES IDX 51 79 56 80 52 81 53 82 55 83 57 84 54 85
REMARK H PARENT 20 4 6 12 24 28 74 47 48 58
REMARK Flexibility Score: inf
ROOT
ATOM      1  O   UNL     1       7.592   2.268   1.024  1.00  0.00    -0.275 OA
ATOM      2  C   UNL     1       6.570   2.657   0.470  1.00  0.00     0.222 C 
ATOM      3  N   UNL     1       6.020   3.903   0.665  1.00  0.00    -0.356 N 
ATOM      4  H   UNL     1       5.228   4.158   0.140  1.00  0.00     0.163 HD
ENDROOT
BRANCH   2   5
ATOM      5  C   UNL     1       5.807   1.794  -0.499  1.00  0.00     0.138 C 
BRANCH   5   6
ATOM      6  C   UNL     1       4.682   0.970   0.127  1.00  0.00     0.182 C 
ATOM      7  C   UNL     1       5.124  -0.044   1.218  1.00  0.00     0.295 C 
ATOM      8  O   UNL     1       3.521   1.767   0.418  1.00  0.00    -0.366 OA
ATOM      9  N   UNL     1       4.814   0.278   2.611  1.00  0.00    -0.330 N 
ATOM     10  C   UNL     1       3.331   2.084   1.799  1.00  0.00     0.222 C 
ATOM     11  C   UNL     1       3.493   0.867   2.709  1.00  0.00     0.291 C 
ATOM     12  H   UNL     1       4.742  -0.600   3.125  1.00  0.00     0.348 HD
BRANCH   9  13
ATOM     13  C   UNL     1       5.905   0.783   3.454  1.00  0.00     0.273 C 
BRANCH  13  14
ATOM     14  C   UNL     1       5.974   2.244   3.967  1.00  0.00     0.136 C 
BRANCH  14  15
ATOM     15  S   UNL     1       5.149   2.605   5.575  1.00  0.00    -0.117 SA
BRANCH  15  16
ATOM     16  C   UNL     1       3.644   3.435   5.078  1.00  0.00     0.043 A 
ATOM     17  C   UNL     1       2.428   2.800   5.360  1.00  0.00     0.018 A 
ATOM     18  C   UNL     1       3.603   4.681   4.444  1.00  0.00     0.136 A 
ATOM     19  C   UNL     1       1.216   3.339   4.920  1.00  0.00     0.001 A 
ATOM     20  C   UNL     1       2.394   5.237   4.017  1.00  0.00     0.040 A 
ATOM     21  F   UNL     1       4.729   5.375   4.227  1.00  0.00    -0.206 F 
ATOM     22  C   UNL     1       1.200   4.553   4.237  1.00  0.00     0.003 A 
ENDBRANCH  15  16
ENDBRANCH  14  15
ENDBRANCH  13  14
ENDBRANCH   9  13
ENDBRANCH   5   6
ENDBRANCH   2   5
BRANCH   3  23
ATOM     23  C   UNL     1       6.563   4.853   1.615  1.00  0.00     0.117 C 
BRANCH  23  24
ATOM     24  C   UNL     1       7.133   6.099   0.969  1.00  0.00     0.042 C 
BRANCH  24  25
ATOM     25  C   UNL     1       6.100   6.938   0.232  1.00  0.00     0.118 C 
BRANCH  25  26
ATOM     26  N   UNL     1       5.116   7.574   1.102  1.00  0.00    -0.352 N 
ATOM     27  C   UNL     1       4.690   8.886   1.126  1.00  0.00     0.251 C 
ATOM     28  H   UNL     1       4.696   6.982   1.767  1.00  0.00     0.163 HD
ATOM     29  O   UNL     1       3.879   9.259   1.962  1.00  0.00    -0.269 OA
BRANCH  27  30
ATOM     30  C   UNL     1       5.269   9.854   0.166  1.00  0.00     0.039 A 
ATOM     31  C   UNL     1       5.787  11.056   0.654  1.00  0.00     0.014 A 
ATOM     32  C   UNL     1       5.378   9.540  -1.190  1.00  0.00     0.014 A 
ATOM     33  C   UNL     1       6.519  11.889  -0.198  1.00  0.00     0.010 A 
ATOM     34  C   UNL     1       6.182  10.323  -2.012  1.00  0.00     0.010 A 
ATOM     35  C   UNL     1       6.778  11.495  -1.521  1.00  0.00    -0.014 A 
BRANCH  35  36
ATOM     36  C   UNL     1       7.699  12.264  -2.398  1.00  0.00     0.031 A 
ATOM     37  C   UNL     1       7.197  12.855  -3.686  1.00  0.00     0.074 A 
ATOM     38  C   UNL     1       9.007  12.351  -2.084  1.00  0.00     0.049 A 
ATOM     39  N   UNL     1       7.870  13.448  -4.639  1.00  0.00    -0.248 NA
ATOM     40  C   UNL     1       5.754  12.740  -3.950  1.00  0.00     0.031 C 
ATOM     41  C   UNL     1       9.632  11.783  -0.888  1.00  0.00     0.029 A 
ATOM     42  N   UNL     1      10.052  12.942  -2.753  1.00  0.00    -0.354 N 
ATOM     43  C   UNL     1       6.938  13.758  -5.621  1.00  0.00     0.074 A 
ATOM     44  C   UNL     1       5.662  13.245  -5.172  1.00  0.00     0.031 C 
ATOM     45  C   UNL     1      10.942  12.077  -0.893  1.00  0.00     0.029 A 
ATOM     46  C   UNL     1      11.262  12.811  -2.113  1.00  0.00     0.049 A 
ATOM     47  H   UNL     1       9.945  13.414  -3.610  1.00  0.00     0.167 HD
ATOM     48  C   UNL     1       7.124  14.432  -6.779  1.00  0.00     0.037 A 
ATOM     49  C   UNL     1      12.493  13.226  -2.471  1.00  0.00     0.037 A 
ATOM     50  C   UNL     1       8.385  14.975  -7.208  1.00  0.00     0.049 A 
ATOM     51  C   UNL     1      12.677  13.962  -3.768  1.00  0.00     0.074 A 
ATOM     52  C   UNL     1       8.656  15.726  -8.338  1.00  0.00     0.029 A 
ATOM     53  N   UNL     1       9.583  14.828  -6.526  1.00  0.00    -0.354 N 
ATOM     54  N   UNL     1      11.777  14.289  -4.664  1.00  0.00    -0.248 NA
ATOM     55  C   UNL     1      14.043  14.383  -4.110  1.00  0.00     0.031 C 
ATOM     56  C   UNL     1      10.026  16.001  -8.361  1.00  0.00     0.029 A 
ATOM     57  C   UNL     1      10.600  15.460  -7.222  1.00  0.00     0.049 A 
ATOM     58  H   UNL     1       9.693  14.347  -5.674  1.00  0.00     0.167 HD
ATOM     59  C   UNL     1      12.461  14.972  -5.660  1.00  0.00     0.074 A 
ATOM     60  C   UNL     1      13.851  15.021  -5.257  1.00  0.00     0.031 C 
ATOM     61  C   UNL     1      11.978  15.510  -6.805  1.00  0.00     0.037 A 
BRANCH  48  62
ATOM     62  C   UNL     1       5.931  14.641  -7.664  1.00  0.00     0.057 A 
ATOM     63  C   UNL     1       5.832  13.991  -8.900  1.00  0.00     0.134 A 
ATOM     64  C   UNL     1       4.910  15.537  -7.320  1.00  0.00     0.134 A 
ATOM     65  F   UNL     1       6.779  13.125  -9.292  1.00  0.00    -0.206 F 
ATOM     66  C   UNL     1       4.766  14.232  -9.767  1.00  0.00     0.040 A 
ATOM     67  C   UNL     1       3.826  15.767  -8.168  1.00  0.00     0.040 A 
ATOM     68  F   UNL     1       4.940  16.183  -6.144  1.00  0.00    -0.206 F 
ATOM     69  C   UNL     1       3.757  15.121  -9.400  1.00  0.00     0.006 A 
ENDBRANCH  48  62
BRANCH  49  70
ATOM     70  C   UNL     1      13.646  12.976  -1.569  1.00  0.00     0.057 A 
ATOM     71  C   UNL     1      14.166  11.691  -1.379  1.00  0.00     0.134 A 
ATOM     72  C   UNL     1      14.238  14.024  -0.855  1.00  0.00     0.134 A 
ATOM     73  F   UNL     1      13.639  10.643  -2.029  1.00  0.00    -0.206 F 
ATOM     74  C   UNL     1      15.223  11.454  -0.498  1.00  0.00     0.040 A 
ATOM     75  C   UNL     1      15.310  13.805   0.011  1.00  0.00     0.040 A 
ATOM     76  F   UNL     1      13.795  15.281  -1.011  1.00  0.00    -0.206 F 
ATOM     77  C   UNL     1      15.800  12.514   0.198  1.00  0.00     0.006 A 
ENDBRANCH  49  70
BRANCH  61  78
ATOM     78  C   UNL     1      12.942  16.222  -7.705  1.00  0.00     0.057 A 
ATOM     79  C   UNL     1      12.896  17.617  -7.836  1.00  0.00     0.134 A 
ATOM     80  C   UNL     1      13.843  15.523  -8.517  1.00  0.00     0.134 A 
ATOM     81  F   UNL     1      12.046  18.343  -7.094  1.00  0.00    -0.206 F 
ATOM     82  C   UNL     1      13.699  18.289  -8.758  1.00  0.00     0.040 A 
ATOM     83  C   UNL     1      14.667  16.187  -9.427  1.00  0.00     0.040 A 
ATOM     84  F   UNL     1      13.940  14.188  -8.431  1.00  0.00    -0.206 F 
ATOM     85  C   UNL     1      14.588  17.573  -9.557  1.00  0.00     0.006 A 
ENDBRANCH  61  78
ENDBRANCH  35  36
ENDBRANCH  27  30
ENDBRANCH  25  26
ENDBRANCH  24  25
ENDBRANCH  23  24
ENDBRANCH   3  23
TORSDOF 15
