REMARK SMILES CN1CC[N@H+](CC(=O)NCCCNC(=O)c2ccc(-c3c4nc(c(-c5c(F)cccc5F)c5ccc([nH]5)c(-c5c(F)cccc5F)c5nc(c(-c6c(F)cccc6F)c6ccc3[nH]6)C=C5)C=C4)cc2)C(C)(C)C1=O
REMARK SMILES IDX 11 1 10 2 9 3 7 4 8 5 6 7 5 8 1 9 2 10 3 11 73 12 4 13 70 14
REMARK SMILES IDX 74 15 71 16 72 17 12 19 13 20 14 21 15 23 16 24 17 25 69 26
REMARK SMILES IDX 18 27 68 28 19 29 20 30 21 31 62 32 22 33 67 34 61 35 63 36
REMARK SMILES IDX 23 37 66 38 60 39 59 40 24 42 50 43 33 44 49 45 34 46 37 47
REMARK SMILES IDX 48 48 64 49 35 50 36 51 47 53 65 54 38 55 25 56 26 57 31 58
REMARK SMILES IDX 27 59 28 60 30 61 32 62 29 63 51 64 52 65 57 66 53 67 54 68
REMARK SMILES IDX 56 69 58 70 55 71 39 72 40 73 45 74 41 75 42 76 44 77 46 78
REMARK SMILES IDX 43 79
REMARK H PARENT 9 6 5 18 13 22 63 41 37 52
REMARK Flexibility Score: inf
ROOT
ATOM      1  C   UNL     1       0.775   0.590  -4.474  1.00  0.00     0.042 C 
ENDROOT
BRANCH   1   2
ATOM      2  C   UNL     1      -0.510   1.428  -4.483  1.00  0.00     0.118 C 
BRANCH   2   3
ATOM      3  N   UNL     1      -1.217   1.479  -3.211  1.00  0.00    -0.351 N 
ATOM      4  C   UNL     1      -1.450   2.466  -2.302  1.00  0.00     0.275 C 
ATOM      5  O   UNL     1      -2.302   2.218  -1.440  1.00  0.00    -0.269 OA
ATOM      6  H   UNL     1      -1.611   0.615  -2.952  1.00  0.00     0.163 HD
BRANCH   4   7
ATOM      7  C   UNL     1      -0.750   3.829  -2.332  1.00  0.00     0.364 C 
BRANCH   7   8
ATOM      8  N   UNL     1       0.351   4.051  -1.352  1.00  0.00    -0.314 N 
ATOM      9  C   UNL     1       0.728   0.362   0.863  1.00  0.00     0.147 C 
ATOM     10  N   UNL     1       0.731   1.650   0.197  1.00  0.00    -0.335 N 
ATOM     11  C   UNL     1      -0.197   2.659   0.705  1.00  0.00     0.180 C 
ATOM     12  C   UNL     1       1.401   1.786  -1.025  1.00  0.00     0.283 C 
ATOM     13  C   UNL     1      -0.093   4.043   0.049  1.00  0.00     0.285 C 
ATOM     14  C   UNL     1       1.593   3.253  -1.528  1.00  0.00     0.172 C 
ATOM     15  O   UNL     1       1.931   0.834  -1.576  1.00  0.00    -0.268 OA
ATOM     16  C   UNL     1       2.774   3.770  -0.657  1.00  0.00     0.090 C 
ATOM     17  C   UNL     1       2.122   3.404  -2.966  1.00  0.00     0.090 C 
ATOM     18  H   UNL     1       0.633   5.000  -1.596  1.00  0.00     0.349 HD
ENDBRANCH   7   8
ENDBRANCH   4   7
ENDBRANCH   2   3
ENDBRANCH   1   2
BRANCH   1  19
ATOM     19  C   UNL     1       0.670  -0.813  -3.873  1.00  0.00     0.118 C 
BRANCH  19  20
ATOM     20  N   UNL     1       0.524  -1.819  -4.908  1.00  0.00    -0.352 N 
ATOM     21  C   UNL     1       1.350  -2.871  -5.213  1.00  0.00     0.251 C 
ATOM     22  H   UNL     1      -0.280  -1.736  -5.470  1.00  0.00     0.163 HD
ATOM     23  O   UNL     1       1.236  -3.410  -6.315  1.00  0.00    -0.269 OA
BRANCH  21  24
ATOM     24  C   UNL     1       2.364  -3.392  -4.258  1.00  0.00     0.039 A 
ATOM     25  C   UNL     1       3.567  -3.881  -4.780  1.00  0.00     0.014 A 
ATOM     26  C   UNL     1       2.108  -3.536  -2.889  1.00  0.00     0.014 A 
ATOM     27  C   UNL     1       4.497  -4.514  -3.948  1.00  0.00     0.010 A 
ATOM     28  C   UNL     1       3.062  -4.130  -2.047  1.00  0.00     0.010 A 
ATOM     29  C   UNL     1       4.257  -4.649  -2.571  1.00  0.00    -0.014 A 
BRANCH  29  30
ATOM     30  C   UNL     1       5.257  -5.345  -1.711  1.00  0.00     0.031 A 
ATOM     31  C   UNL     1       4.954  -6.683  -1.087  1.00  0.00     0.074 A 
ATOM     32  C   UNL     1       6.468  -4.786  -1.514  1.00  0.00     0.049 A 
ATOM     33  N   UNL     1       5.741  -7.471  -0.393  1.00  0.00    -0.248 NA
ATOM     34  C   UNL     1       3.588  -7.200  -1.251  1.00  0.00     0.031 C 
ATOM     35  C   UNL     1       6.883  -3.479  -2.024  1.00  0.00     0.029 A 
ATOM     36  N   UNL     1       7.576  -5.250  -0.847  1.00  0.00    -0.354 N 
ATOM     37  C   UNL     1       4.969  -8.573  -0.042  1.00  0.00     0.074 A 
ATOM     38  C   UNL     1       3.638  -8.328  -0.555  1.00  0.00     0.031 C 
ATOM     39  C   UNL     1       8.163  -3.262  -1.683  1.00  0.00     0.029 A 
ATOM     40  C   UNL     1       8.652  -4.398  -0.908  1.00  0.00     0.049 A 
ATOM     41  H   UNL     1       7.596  -6.111  -0.369  1.00  0.00     0.167 HD
ATOM     42  C   UNL     1       5.337  -9.694   0.626  1.00  0.00     0.037 A 
ATOM     43  C   UNL     1       9.896  -4.518  -0.404  1.00  0.00     0.037 A 
ATOM     44  C   UNL     1       6.664  -9.945   1.132  1.00  0.00     0.049 A 
ATOM     45  C   UNL     1      10.278  -5.767   0.341  1.00  0.00     0.074 A 
ATOM     46  C   UNL     1       7.144 -11.076   1.773  1.00  0.00     0.029 A 
ATOM     47  N   UNL     1       7.721  -9.050   1.064  1.00  0.00    -0.354 N 
ATOM     48  N   UNL     1       9.559  -6.833   0.593  1.00  0.00    -0.248 NA
ATOM     49  C   UNL     1      11.651  -5.833   0.862  1.00  0.00     0.031 C 
ATOM     50  C   UNL     1       8.475 -10.843   2.139  1.00  0.00     0.029 A 
ATOM     51  C   UNL     1       8.841  -9.590   1.677  1.00  0.00     0.049 A 
ATOM     52  H   UNL     1       7.682  -8.161   0.642  1.00  0.00     0.167 HD
ATOM     53  C   UNL     1      10.395  -7.703   1.282  1.00  0.00     0.074 A 
ATOM     54  C   UNL     1      11.683  -7.050   1.386  1.00  0.00     0.031 C 
ATOM     55  C   UNL     1      10.118  -8.931   1.785  1.00  0.00     0.037 A 
BRANCH  42  56
ATOM     56  C   UNL     1       4.286 -10.744   0.857  1.00  0.00     0.057 A 
ATOM     57  C   UNL     1       3.776 -11.523  -0.191  1.00  0.00     0.134 A 
ATOM     58  C   UNL     1       3.814 -11.016   2.147  1.00  0.00     0.134 A 
ATOM     59  F   UNL     1       4.181 -11.314  -1.453  1.00  0.00    -0.206 F 
ATOM     60  C   UNL     1       2.815 -12.512   0.032  1.00  0.00     0.040 A 
ATOM     61  C   UNL     1       2.874 -12.021   2.387  1.00  0.00     0.040 A 
ATOM     62  F   UNL     1       4.268 -10.320   3.200  1.00  0.00    -0.206 F 
ATOM     63  C   UNL     1       2.366 -12.767   1.326  1.00  0.00     0.006 A 
ENDBRANCH  42  56
BRANCH  43  64
ATOM     64  C   UNL     1      10.885  -3.427  -0.606  1.00  0.00     0.057 A 
ATOM     65  C   UNL     1      12.001  -3.600  -1.433  1.00  0.00     0.134 A 
ATOM     66  C   UNL     1      10.742  -2.188   0.031  1.00  0.00     0.134 A 
ATOM     67  F   UNL     1      12.206  -4.772  -2.053  1.00  0.00    -0.206 F 
ATOM     68  C   UNL     1      12.949  -2.590  -1.604  1.00  0.00     0.040 A 
ATOM     69  C   UNL     1      11.666  -1.159  -0.153  1.00  0.00     0.040 A 
ATOM     70  F   UNL     1       9.693  -1.957   0.834  1.00  0.00    -0.206 F 
ATOM     71  C   UNL     1      12.778  -1.362  -0.968  1.00  0.00     0.006 A 
ENDBRANCH  43  64
BRANCH  55  72
ATOM     72  C   UNL     1      11.238  -9.655   2.479  1.00  0.00     0.057 A 
ATOM     73  C   UNL     1      11.730  -9.237   3.723  1.00  0.00     0.134 A 
ATOM     74  C   UNL     1      11.821 -10.791   1.904  1.00  0.00     0.134 A 
ATOM     75  F   UNL     1      11.225  -8.149   4.324  1.00  0.00    -0.206 F 
ATOM     76  C   UNL     1      12.783  -9.904   4.354  1.00  0.00     0.040 A 
ATOM     77  C   UNL     1      12.854 -11.483   2.538  1.00  0.00     0.040 A 
ATOM     78  F   UNL     1      11.393 -11.252   0.719  1.00  0.00    -0.206 F 
ATOM     79  C   UNL     1      13.344 -11.034   3.763  1.00  0.00     0.006 A 
ENDBRANCH  55  72
ENDBRANCH  29  30
ENDBRANCH  21  24
ENDBRANCH  19  20
ENDBRANCH   1  19
TORSDOF 11
