REMARK SMILES C[C@@H](C(=O)NCCCNC(=O)c1ccc(-c2c3nc(c(-c4c(F)cccc4F)c4ccc([nH]4)c(-c4c(F)cccc4F)c4nc(c(-c5c(F)cccc5F)c5ccc2[nH]5)C=C4)C=C3)cc1)c1ccc(C[C@@H]2CCC[C@@H]2O)cc1Br
REMARK SMILES IDX 6 1 5 2 3 3 4 4 2 6 1 7 66 8 67 9 78 10 68 11 77 12 79 13
REMARK SMILES IDX 69 14 70 15 71 16 72 17 75 18 73 19 74 20 76 21 7 23 8 24
REMARK SMILES IDX 9 25 10 26 11 28 12 29 13 30 65 31 14 32 64 33 15 34 16 35
REMARK SMILES IDX 17 36 58 37 18 38 63 39 57 40 59 41 19 42 62 43 56 44 55 45
REMARK SMILES IDX 20 47 46 48 29 49 45 50 30 51 33 52 44 53 60 54 31 55 32 56
REMARK SMILES IDX 43 58 61 59 34 60 21 61 22 62 27 63 23 64 24 65 26 66 28 67
REMARK SMILES IDX 25 68 47 69 48 70 53 71 49 72 50 73 52 74 54 75 51 76 35 77
REMARK SMILES IDX 36 78 41 79 37 80 38 81 40 82 42 83 39 84
REMARK H PARENT 5 5 76 22 9 27 59 46 33 57
REMARK Flexibility Score: inf
ROOT
ATOM      1  C   UNL     1     -11.149   4.566   7.835  1.00  0.00     0.117 C 
ENDROOT
BRANCH   1   2
ATOM      2  N   UNL     1     -11.658   3.793   6.720  1.00  0.00    -0.356 N 
ATOM      3  C   UNL     1     -11.148   3.608   5.468  1.00  0.00     0.227 C 
ATOM      4  O   UNL     1     -11.857   2.994   4.669  1.00  0.00    -0.274 OA
ATOM      5  H   UNL     1     -12.508   3.328   6.893  1.00  0.00     0.163 HD
BRANCH   3   6
ATOM      6  C   UNL     1      -9.728   4.089   5.142  1.00  0.00     0.106 C 
ATOM      7  C   UNL     1      -9.576   5.614   5.130  1.00  0.00     0.023 C 
BRANCH   6   8
ATOM      8  C   UNL     1      -9.168   3.403   3.897  1.00  0.00    -0.022 A 
ATOM      9  C   UNL     1      -8.375   2.257   4.110  1.00  0.00     0.006 A 
ATOM     10  C   UNL     1      -9.396   3.796   2.568  1.00  0.00     0.022 A 
ATOM     11  C   UNL     1      -7.760   1.587   3.053  1.00  0.00     0.004 A 
ATOM     12  C   UNL     1      -8.732   3.151   1.516  1.00  0.00     0.019 A 
ATOM     13  Br  UNL     1     -10.610   5.165   2.054  1.00  0.00    -0.051 Br
ATOM     14  C   UNL     1      -7.876   2.067   1.750  1.00  0.00    -0.047 A 
BRANCH  14  15
ATOM     15  C   UNL     1      -7.106   1.452   0.609  1.00  0.00     0.041 C 
BRANCH  15  16
ATOM     16  C   UNL     1      -5.585   1.721   0.535  1.00  0.00     0.022 C 
ATOM     17  C   UNL     1      -4.758   1.071   1.651  1.00  0.00     0.007 C 
ATOM     18  C   UNL     1      -5.122   3.181   0.578  1.00  0.00     0.117 C 
ATOM     19  C   UNL     1      -4.435   2.173   2.664  1.00  0.00     0.003 C 
ATOM     20  C   UNL     1      -4.916   3.486   2.056  1.00  0.00     0.032 C 
BRANCH  18  21
ATOM     21  O   UNL     1      -6.024   4.071  -0.045  1.00  0.00    -0.393 OA
ATOM     22  H   UNL     1      -6.886   4.021   0.398  1.00  0.00     0.210 HD
ENDBRANCH  18  21
ENDBRANCH  15  16
ENDBRANCH  14  15
ENDBRANCH   6   8
ENDBRANCH   3   6
ENDBRANCH   1   2
BRANCH   1  23
ATOM     23  C   UNL     1     -11.822   5.935   7.910  1.00  0.00     0.042 C 
BRANCH  23  24
ATOM     24  C   UNL     1     -13.323   5.867   8.176  1.00  0.00     0.118 C 
BRANCH  24  25
ATOM     25  N   UNL     1     -13.630   5.316   9.491  1.00  0.00    -0.352 N 
ATOM     26  C   UNL     1     -14.376   5.844  10.509  1.00  0.00     0.251 C 
ATOM     27  H   UNL     1     -13.241   4.431   9.674  1.00  0.00     0.163 HD
ATOM     28  O   UNL     1     -14.357   5.306  11.618  1.00  0.00    -0.269 OA
BRANCH  26  29
ATOM     29  C   UNL     1     -15.189   7.059  10.300  1.00  0.00     0.039 A 
ATOM     30  C   UNL     1     -15.203   8.039  11.298  1.00  0.00     0.014 A 
ATOM     31  C   UNL     1     -15.960   7.227   9.145  1.00  0.00     0.014 A 
ATOM     32  C   UNL     1     -15.941   9.209  11.112  1.00  0.00     0.010 A 
ATOM     33  C   UNL     1     -16.640   8.423   8.932  1.00  0.00     0.010 A 
ATOM     34  C   UNL     1     -16.639   9.425   9.914  1.00  0.00    -0.014 A 
BRANCH  34  35
ATOM     35  C   UNL     1     -17.366  10.697   9.668  1.00  0.00     0.031 A 
ATOM     36  C   UNL     1     -18.861  10.700   9.514  1.00  0.00     0.074 A 
ATOM     37  C   UNL     1     -16.670  11.841   9.523  1.00  0.00     0.049 A 
ATOM     38  N   UNL     1     -19.661  11.697   9.230  1.00  0.00    -0.248 NA
ATOM     39  C   UNL     1     -19.547   9.408   9.677  1.00  0.00     0.031 C 
ATOM     40  C   UNL     1     -15.213  11.962   9.606  1.00  0.00     0.029 A 
ATOM     41  N   UNL     1     -17.095  13.120   9.263  1.00  0.00    -0.354 N 
ATOM     42  C   UNL     1     -20.937  11.152   9.166  1.00  0.00     0.074 A 
ATOM     43  C   UNL     1     -20.801   9.730   9.395  1.00  0.00     0.031 C 
ATOM     44  C   UNL     1     -14.867  13.245   9.420  1.00  0.00     0.029 A 
ATOM     45  C   UNL     1     -16.071  14.031   9.167  1.00  0.00     0.049 A 
ATOM     46  H   UNL     1     -18.043  13.361   9.155  1.00  0.00     0.167 HD
ATOM     47  C   UNL     1     -22.117  11.784   8.958  1.00  0.00     0.037 A 
ATOM     48  C   UNL     1     -16.099  15.349   8.896  1.00  0.00     0.037 A 
ATOM     49  C   UNL     1     -22.253  13.202   8.753  1.00  0.00     0.049 A 
ATOM     50  C   UNL     1     -17.421  16.024   8.662  1.00  0.00     0.074 A 
ATOM     51  C   UNL     1     -23.410  13.944   8.591  1.00  0.00     0.029 A 
ATOM     52  N   UNL     1     -21.193  14.094   8.681  1.00  0.00    -0.354 N 
ATOM     53  N   UNL     1     -18.626  15.508   8.670  1.00  0.00    -0.248 NA
ATOM     54  C   UNL     1     -17.388  17.467   8.385  1.00  0.00     0.031 C 
ATOM     55  C   UNL     1     -23.049  15.278   8.379  1.00  0.00     0.029 A 
ATOM     56  C   UNL     1     -21.670  15.376   8.456  1.00  0.00     0.049 A 
ATOM     57  H   UNL     1     -20.244  13.853   8.775  1.00  0.00     0.167 HD
ATOM     58  C   UNL     1     -19.494  16.564   8.430  1.00  0.00     0.074 A 
ATOM     59  C   UNL     1     -18.679  17.753   8.293  1.00  0.00     0.031 C 
ATOM     60  C   UNL     1     -20.846  16.551   8.331  1.00  0.00     0.037 A 
BRANCH  47  61
ATOM     61  C   UNL     1     -23.361  10.943   8.945  1.00  0.00     0.057 A 
ATOM     62  C   UNL     1     -23.872  10.364  10.114  1.00  0.00     0.134 A 
ATOM     63  C   UNL     1     -24.078  10.743   7.758  1.00  0.00     0.134 A 
ATOM     64  F   UNL     1     -23.227  10.507  11.282  1.00  0.00    -0.206 F 
ATOM     65  C   UNL     1     -25.038   9.596  10.099  1.00  0.00     0.040 A 
ATOM     66  C   UNL     1     -25.260  10.000   7.736  1.00  0.00     0.040 A 
ATOM     67  F   UNL     1     -23.649  11.275   6.604  1.00  0.00    -0.206 F 
ATOM     68  C   UNL     1     -25.739   9.419   8.908  1.00  0.00     0.006 A 
ENDBRANCH  47  61
BRANCH  48  69
ATOM     69  C   UNL     1     -14.834  16.125   8.851  1.00  0.00     0.057 A 
ATOM     70  C   UNL     1     -14.528  17.064   9.842  1.00  0.00     0.134 A 
ATOM     71  C   UNL     1     -13.909  15.956   7.814  1.00  0.00     0.134 A 
ATOM     72  F   UNL     1     -15.385  17.284  10.851  1.00  0.00    -0.206 F 
ATOM     73  C   UNL     1     -13.358  17.823   9.795  1.00  0.00     0.040 A 
ATOM     74  C   UNL     1     -12.722  16.690   7.768  1.00  0.00     0.040 A 
ATOM     75  F   UNL     1     -14.139  15.066   6.838  1.00  0.00    -0.206 F 
ATOM     76  C   UNL     1     -12.448  17.633   8.756  1.00  0.00     0.006 A 
ENDBRANCH  48  69
BRANCH  60  77
ATOM     77  C   UNL     1     -21.530  17.866   8.101  1.00  0.00     0.057 A 
ATOM     78  C   UNL     1     -21.476  18.522   6.865  1.00  0.00     0.134 A 
ATOM     79  C   UNL     1     -22.283  18.464   9.119  1.00  0.00     0.134 A 
ATOM     80  F   UNL     1     -20.759  18.008   5.853  1.00  0.00    -0.206 F 
ATOM     81  C   UNL     1     -22.128  19.738   6.656  1.00  0.00     0.040 A 
ATOM     82  C   UNL     1     -22.962  19.666   8.915  1.00  0.00     0.040 A 
ATOM     83  F   UNL     1     -22.383  17.884  10.324  1.00  0.00    -0.206 F 
ATOM     84  C   UNL     1     -22.880  20.309   7.681  1.00  0.00     0.006 A 
ENDBRANCH  60  77
ENDBRANCH  34  35
ENDBRANCH  26  29
ENDBRANCH  24  25
ENDBRANCH  23  24
ENDBRANCH   1  23
TORSDOF 14
