REMARK SMILES COc1ccc(CN(CC(=O)NCCCNC(=O)c2ccc(-c3c4nc(c(-c5c(F)cccc5F)c5ccc([nH]5)c(-c5c(F)cccc5F)c5nc(c(-c6c(F)cccc6F)c6ccc3[nH]6)C=C5)C=C4)cc2)N=O)cc1
REMARK SMILES IDX 13 1 12 2 10 3 11 4 9 6 8 7 7 8 6 9 3 10 4 11 76 12 5 13
REMARK SMILES IDX 75 14 2 15 1 16 73 17 74 18 14 19 15 20 16 21 17 22 18 24
REMARK SMILES IDX 19 25 20 26 72 27 21 28 71 29 22 30 23 31 24 32 65 33 25 34
REMARK SMILES IDX 70 35 64 36 66 37 26 38 69 39 63 40 62 41 27 43 53 44 36 45
REMARK SMILES IDX 52 46 37 47 40 48 51 49 67 50 38 51 39 52 50 54 68 55 41 56
REMARK SMILES IDX 28 57 29 58 34 59 30 60 31 61 33 62 35 63 32 64 54 65 55 66
REMARK SMILES IDX 60 67 56 68 57 69 59 70 61 71 58 72 42 73 43 74 48 75 44 76
REMARK SMILES IDX 45 77 47 78 49 79 46 80
REMARK H PARENT 12 5 16 23 66 42 40 53
REMARK Flexibility Score: inf
ROOT
ATOM      1  C   UNL     1       3.174   8.451  -4.311  1.00  0.00     0.117 C 
ENDROOT
BRANCH   1   2
ATOM      2  N   UNL     1       2.727   8.336  -5.684  1.00  0.00    -0.354 N 
ATOM      3  C   UNL     1       1.834   7.471  -6.250  1.00  0.00     0.241 C 
ATOM      4  O   UNL     1       1.584   7.626  -7.449  1.00  0.00    -0.273 OA
ATOM      5  H   UNL     1       3.131   8.982  -6.307  1.00  0.00     0.163 HD
BRANCH   3   6
ATOM      6  C   UNL     1       1.104   6.421  -5.410  1.00  0.00     0.242 C 
BRANCH   6   7
ATOM      7  N   UNL     1       2.012   5.401  -4.893  1.00  0.00    -0.247 NA
BRANCH   7   8
ATOM      8  C   UNL     1       2.094   5.242  -3.447  1.00  0.00     0.178 C 
BRANCH   8   9
ATOM      9  C   UNL     1       1.630   3.907  -2.905  1.00  0.00    -0.027 A 
ATOM     10  C   UNL     1       0.775   1.482  -1.767  1.00  0.00     0.118 A 
ATOM     11  C   UNL     1      -0.124   2.292  -2.461  1.00  0.00     0.047 A 
ATOM     12  C   UNL     1       2.113   1.862  -1.675  1.00  0.00     0.047 A 
ATOM     13  C   UNL     1       0.294   3.503  -3.018  1.00  0.00     0.009 A 
ATOM     14  C   UNL     1       2.537   3.068  -2.239  1.00  0.00     0.009 A 
BRANCH  10  15
ATOM     15  O   UNL     1       0.257   0.324  -1.255  1.00  0.00    -0.497 OA
ATOM     16  C   UNL     1       0.859  -0.118  -0.042  1.00  0.00     0.278 C 
ENDBRANCH  10  15
ENDBRANCH   8   9
ENDBRANCH   7   8
BRANCH   7  17
ATOM     17  N   UNL     1       2.675   4.563  -5.646  1.00  0.00     0.053 NA
ATOM     18  O   UNL     1       2.397   4.659  -6.844  1.00  0.00    -0.125 OA
ENDBRANCH   7  17
ENDBRANCH   6   7
ENDBRANCH   3   6
ENDBRANCH   1   2
BRANCH   1  19
ATOM     19  C   UNL     1       4.547   7.823  -4.089  1.00  0.00     0.042 C 
BRANCH  19  20
ATOM     20  C   UNL     1       5.692   8.539  -4.802  1.00  0.00     0.118 C 
BRANCH  20  21
ATOM     21  N   UNL     1       5.916   9.884  -4.293  1.00  0.00    -0.352 N 
ATOM     22  C   UNL     1       7.041  10.461  -3.762  1.00  0.00     0.251 C 
ATOM     23  H   UNL     1       5.131  10.477  -4.337  1.00  0.00     0.163 HD
ATOM     24  O   UNL     1       6.951  11.568  -3.230  1.00  0.00    -0.269 OA
BRANCH  22  25
ATOM     25  C   UNL     1       8.352   9.775  -3.799  1.00  0.00     0.039 A 
ATOM     26  C   UNL     1       9.191   9.877  -2.682  1.00  0.00     0.014 A 
ATOM     27  C   UNL     1       8.790   9.084  -4.931  1.00  0.00     0.014 A 
ATOM     28  C   UNL     1      10.434   9.239  -2.678  1.00  0.00     0.010 A 
ATOM     29  C   UNL     1      10.003   8.394  -4.903  1.00  0.00     0.010 A 
ATOM     30  C   UNL     1      10.838   8.465  -3.777  1.00  0.00    -0.014 A 
BRANCH  30  31
ATOM     31  C   UNL     1      12.122   7.717  -3.763  1.00  0.00     0.031 A 
ATOM     32  C   UNL     1      13.222   8.072  -4.726  1.00  0.00     0.074 A 
ATOM     33  C   UNL     1      12.272   6.669  -2.929  1.00  0.00     0.049 A 
ATOM     34  N   UNL     1      14.372   7.478  -4.923  1.00  0.00    -0.248 NA
ATOM     35  C   UNL     1      12.990   9.232  -5.602  1.00  0.00     0.031 C 
ATOM     36  C   UNL     1      11.264   6.191  -1.980  1.00  0.00     0.029 A 
ATOM     37  N   UNL     1      13.323   5.802  -2.760  1.00  0.00    -0.354 N 
ATOM     38  C   UNL     1      14.986   8.172  -5.957  1.00  0.00     0.074 A 
ATOM     39  C   UNL     1      14.071   9.215  -6.369  1.00  0.00     0.031 C 
ATOM     40  C   UNL     1      11.748   5.122  -1.326  1.00  0.00     0.029 A 
ATOM     41  C   UNL     1      13.083   4.819  -1.831  1.00  0.00     0.049 A 
ATOM     42  H   UNL     1      14.169   5.878  -3.257  1.00  0.00     0.167 HD
ATOM     43  C   UNL     1      16.207   7.967  -6.505  1.00  0.00     0.037 A 
ATOM     44  C   UNL     1      13.845   3.780  -1.440  1.00  0.00     0.037 A 
ATOM     45  C   UNL     1      17.138   6.960  -6.065  1.00  0.00     0.049 A 
ATOM     46  C   UNL     1      15.208   3.594  -2.049  1.00  0.00     0.074 A 
ATOM     47  C   UNL     1      18.433   6.737  -6.501  1.00  0.00     0.029 A 
ATOM     48  N   UNL     1      16.874   6.012  -5.090  1.00  0.00    -0.354 N 
ATOM     49  N   UNL     1      15.806   4.309  -2.969  1.00  0.00    -0.248 NA
ATOM     50  C   UNL     1      16.004   2.459  -1.559  1.00  0.00     0.031 C 
ATOM     51  C   UNL     1      18.940   5.629  -5.815  1.00  0.00     0.029 A 
ATOM     52  C   UNL     1      17.975   5.188  -4.925  1.00  0.00     0.049 A 
ATOM     53  H   UNL     1      16.029   5.935  -4.590  1.00  0.00     0.167 HD
ATOM     54  C   UNL     1      17.055   3.730  -3.147  1.00  0.00     0.074 A 
ATOM     55  C   UNL     1      17.136   2.613  -2.231  1.00  0.00     0.031 C 
ATOM     56  C   UNL     1      18.047   4.091  -3.996  1.00  0.00     0.037 A 
BRANCH  43  57
ATOM     57  C   UNL     1      16.625   8.852  -7.641  1.00  0.00     0.057 A 
ATOM     58  C   UNL     1      17.003  10.184  -7.437  1.00  0.00     0.134 A 
ATOM     59  C   UNL     1      16.724   8.342  -8.942  1.00  0.00     0.134 A 
ATOM     60  F   UNL     1      16.924  10.734  -6.215  1.00  0.00    -0.206 F 
ATOM     61  C   UNL     1      17.456  10.983  -8.489  1.00  0.00     0.040 A 
ATOM     62  C   UNL     1      17.195   9.124  -9.998  1.00  0.00     0.040 A 
ATOM     63  F   UNL     1      16.384   7.071  -9.203  1.00  0.00    -0.206 F 
ATOM     64  C   UNL     1      17.562  10.449  -9.772  1.00  0.00     0.006 A 
ENDBRANCH  43  57
BRANCH  44  65
ATOM     65  C   UNL     1      13.348   2.830  -0.413  1.00  0.00     0.057 A 
ATOM     66  C   UNL     1      13.910   2.788   0.866  1.00  0.00     0.134 A 
ATOM     67  C   UNL     1      12.323   1.919  -0.699  1.00  0.00     0.134 A 
ATOM     68  F   UNL     1      14.909   3.622   1.192  1.00  0.00    -0.206 F 
ATOM     69  C   UNL     1      13.492   1.856   1.819  1.00  0.00     0.040 A 
ATOM     70  C   UNL     1      11.879   0.999   0.251  1.00  0.00     0.040 A 
ATOM     71  F   UNL     1      11.737   1.914  -1.905  1.00  0.00    -0.206 F 
ATOM     72  C   UNL     1      12.472   0.960   1.512  1.00  0.00     0.006 A 
ENDBRANCH  44  65
BRANCH  56  73
ATOM     73  C   UNL     1      19.318   3.298  -3.945  1.00  0.00     0.057 A 
ATOM     74  C   UNL     1      19.402   2.005  -4.475  1.00  0.00     0.134 A 
ATOM     75  C   UNL     1      20.480   3.851  -3.393  1.00  0.00     0.134 A 
ATOM     76  F   UNL     1      18.320   1.415  -5.005  1.00  0.00    -0.206 F 
ATOM     77  C   UNL     1      20.595   1.281  -4.440  1.00  0.00     0.040 A 
ATOM     78  C   UNL     1      21.684   3.146  -3.374  1.00  0.00     0.040 A 
ATOM     79  F   UNL     1      20.467   5.089  -2.876  1.00  0.00    -0.206 F 
ATOM     80  C   UNL     1      21.742   1.855  -3.894  1.00  0.00     0.006 A 
ENDBRANCH  56  73
ENDBRANCH  30  31
ENDBRANCH  22  25
ENDBRANCH  20  21
ENDBRANCH  19  20
ENDBRANCH   1  19
TORSDOF 15
