REMARK SMILES O=C(NCCCNC(=O)[C@@H](CO)N1C(=O)c2c(Cl)c(Cl)c(Cl)c(Cl)c2C1=O)c1ccc(-c2c3nc(c(-c4c(F)cccc4F)c4ccc([nH]4)c(-c4c(F)cccc4F)c4nc(c(-c5c(F)cccc5F)c5ccc2[nH]5)C=C4)C=C3)cc1
REMARK SMILES IDX 5 1 4 2 3 3 1 4 2 5 28 7 29 8 81 9 30 10 80 11 31 12 32 13
REMARK SMILES IDX 33 14 74 15 34 16 79 17 73 18 75 19 35 20 78 21 72 22 71 23
REMARK SMILES IDX 36 25 62 26 45 27 61 28 46 29 49 30 60 31 76 32 47 33 48 34
REMARK SMILES IDX 59 36 77 37 50 38 37 39 38 40 43 41 39 42 40 43 42 44 44 45
REMARK SMILES IDX 41 46 63 47 64 48 69 49 65 50 66 51 68 52 70 53 67 54 51 55
REMARK SMILES IDX 52 56 57 57 53 58 54 59 56 60 58 61 55 62 6 63 7 64 8 65
REMARK SMILES IDX 9 67 10 68 11 69 12 70 13 72 14 73 26 74 15 75 16 76 25 77
REMARK SMILES IDX 27 78 17 79 23 80 18 81 19 82 21 83 24 84 20 85 22 86
REMARK H PARENT 3 6 75 24 49 35 7 66 12 71
REMARK Flexibility Score: inf
ROOT
ATOM      1  C   UNL     1       4.748   2.373   0.341  1.00  0.00     0.042 C 
ENDROOT
BRANCH   1   2
ATOM      2  C   UNL     1       4.394   0.946   0.728  1.00  0.00     0.118 C 
BRANCH   2   3
ATOM      3  N   UNL     1       2.959   0.702   0.691  1.00  0.00    -0.352 N 
ATOM      4  O   UNL     1       1.025  -0.079  -0.175  1.00  0.00    -0.269 OA
ATOM      5  C   UNL     1       2.249  -0.141  -0.128  1.00  0.00     0.251 C 
ATOM      6  H   UNL     1       2.424   1.212   1.342  1.00  0.00     0.163 HD
BRANCH   5   7
ATOM      7  C   UNL     1       2.974  -1.120  -0.963  1.00  0.00     0.039 A 
ATOM      8  C   UNL     1       4.029  -1.859  -0.421  1.00  0.00     0.014 A 
ATOM      9  C   UNL     1       2.583  -1.318  -2.289  1.00  0.00     0.014 A 
ATOM     10  C   UNL     1       4.777  -2.695  -1.236  1.00  0.00     0.010 A 
ATOM     11  C   UNL     1       3.271  -2.240  -3.082  1.00  0.00     0.010 A 
ATOM     12  C   UNL     1       4.377  -2.928  -2.560  1.00  0.00    -0.014 A 
BRANCH  12  13
ATOM     13  C   UNL     1       5.038  -4.012  -3.322  1.00  0.00     0.031 A 
ATOM     14  C   UNL     1       5.836  -3.732  -4.559  1.00  0.00     0.074 A 
ATOM     15  C   UNL     1       4.898  -5.271  -2.861  1.00  0.00     0.049 A 
ATOM     16  N   UNL     1       6.450  -4.581  -5.344  1.00  0.00    -0.248 NA
ATOM     17  C   UNL     1       5.958  -2.328  -4.980  1.00  0.00     0.031 C 
ATOM     18  C   UNL     1       4.119  -5.651  -1.677  1.00  0.00     0.029 A 
ATOM     19  N   UNL     1       5.403  -6.459  -3.317  1.00  0.00    -0.354 N 
ATOM     20  C   UNL     1       7.008  -3.822  -6.363  1.00  0.00     0.074 A 
ATOM     21  C   UNL     1       6.657  -2.442  -6.104  1.00  0.00     0.031 C 
ATOM     22  C   UNL     1       4.229  -6.971  -1.480  1.00  0.00     0.029 A 
ATOM     23  C   UNL     1       5.021  -7.540  -2.561  1.00  0.00     0.049 A 
ATOM     24  H   UNL     1       5.984  -6.532  -4.109  1.00  0.00     0.167 HD
ATOM     25  C   UNL     1       7.744  -4.249  -7.416  1.00  0.00     0.037 A 
ATOM     26  C   UNL     1       5.247  -8.854  -2.738  1.00  0.00     0.037 A 
ATOM     27  C   UNL     1       8.110  -5.624  -7.643  1.00  0.00     0.049 A 
ATOM     28  C   UNL     1       6.049  -9.291  -3.925  1.00  0.00     0.074 A 
ATOM     29  C   UNL     1       8.923  -6.147  -8.633  1.00  0.00     0.029 A 
ATOM     30  N   UNL     1       7.676  -6.695  -6.875  1.00  0.00    -0.354 N 
ATOM     31  N   UNL     1       6.618  -8.555  -4.849  1.00  0.00    -0.248 NA
ATOM     32  C   UNL     1       6.227 -10.736  -4.106  1.00  0.00     0.031 C 
ATOM     33  C   UNL     1       8.944  -7.538  -8.494  1.00  0.00     0.029 A 
ATOM     34  C   UNL     1       8.174  -7.879  -7.394  1.00  0.00     0.049 A 
ATOM     35  H   UNL     1       7.101  -6.624  -6.080  1.00  0.00     0.167 HD
ATOM     36  C   UNL     1       7.217  -9.447  -5.724  1.00  0.00     0.074 A 
ATOM     37  C   UNL     1       6.971 -10.776  -5.202  1.00  0.00     0.031 C 
ATOM     38  C   UNL     1       7.900  -9.190  -6.865  1.00  0.00     0.037 A 
BRANCH  25  39
ATOM     39  C   UNL     1       8.197  -3.234  -8.422  1.00  0.00     0.057 A 
ATOM     40  C   UNL     1       9.263  -2.363  -8.168  1.00  0.00     0.134 A 
ATOM     41  C   UNL     1       7.619  -3.195  -9.698  1.00  0.00     0.134 A 
ATOM     42  F   UNL     1       9.854  -2.345  -6.964  1.00  0.00    -0.206 F 
ATOM     43  C   UNL     1       9.737  -1.487  -9.147  1.00  0.00     0.040 A 
ATOM     44  C   UNL     1       8.095  -2.336 -10.690  1.00  0.00     0.040 A 
ATOM     45  F   UNL     1       6.598  -4.008 -10.007  1.00  0.00    -0.206 F 
ATOM     46  C   UNL     1       9.159  -1.479 -10.415  1.00  0.00     0.006 A 
ENDBRANCH  25  39
BRANCH  26  47
ATOM     47  C   UNL     1       4.663  -9.838  -1.795  1.00  0.00     0.057 A 
ATOM     48  C   UNL     1       5.468 -10.580  -0.926  1.00  0.00     0.134 A 
ATOM     49  C   UNL     1       3.279 -10.049  -1.735  1.00  0.00     0.134 A 
ATOM     50  F   UNL     1       6.801 -10.431  -0.949  1.00  0.00    -0.206 F 
ATOM     51  C   UNL     1       4.920 -11.508  -0.040  1.00  0.00     0.040 A 
ATOM     52  C   UNL     1       2.716 -10.953  -0.835  1.00  0.00     0.040 A 
ATOM     53  F   UNL     1       2.453  -9.361  -2.537  1.00  0.00    -0.206 F 
ATOM     54  C   UNL     1       3.539 -11.691   0.012  1.00  0.00     0.006 A 
ENDBRANCH  26  47
BRANCH  38  55
ATOM     55  C   UNL     1       8.414 -10.376  -7.620  1.00  0.00     0.057 A 
ATOM     56  C   UNL     1       7.556 -11.190  -8.369  1.00  0.00     0.134 A 
ATOM     57  C   UNL     1       9.777 -10.696  -7.614  1.00  0.00     0.134 A 
ATOM     58  F   UNL     1       6.237 -10.944  -8.396  1.00  0.00    -0.206 F 
ATOM     59  C   UNL     1       8.034 -12.296  -9.072  1.00  0.00     0.040 A 
ATOM     60  C   UNL     1      10.269 -11.785  -8.332  1.00  0.00     0.040 A 
ATOM     61  F   UNL     1      10.649  -9.951  -6.918  1.00  0.00    -0.206 F 
ATOM     62  C   UNL     1       9.396 -12.592  -9.059  1.00  0.00     0.006 A 
ENDBRANCH  38  55
ENDBRANCH  12  13
ENDBRANCH   5   7
ENDBRANCH   2   3
ENDBRANCH   1   2
BRANCH   1  63
ATOM     63  C   UNL     1       4.369   3.381   1.411  1.00  0.00     0.117 C 
BRANCH  63  64
ATOM     64  N   UNL     1       5.176   3.216   2.608  1.00  0.00    -0.354 N 
ATOM     65  C   UNL     1       5.826   4.128   3.378  1.00  0.00     0.245 C 
ATOM     66  H   UNL     1       5.267   2.285   2.913  1.00  0.00     0.163 HD
ATOM     67  O   UNL     1       6.487   3.672   4.321  1.00  0.00    -0.273 OA
BRANCH  65  68
ATOM     68  C   UNL     1       5.952   5.616   3.015  1.00  0.00     0.208 C 
BRANCH  68  69
ATOM     69  C   UNL     1       7.102   5.719   1.984  1.00  0.00     0.191 C 
BRANCH  69  70
ATOM     70  O   UNL     1       6.719   5.248   0.688  1.00  0.00    -0.394 OA
ATOM     71  H   UNL     1       6.476   4.311   0.744  1.00  0.00     0.210 HD
ENDBRANCH  69  70
ENDBRANCH  68  69
BRANCH  68  72
ATOM     72  N   UNL     1       4.738   6.336   2.609  1.00  0.00    -0.259 N 
ATOM     73  C   UNL     1       3.465   5.968   2.923  1.00  0.00     0.264 C 
ATOM     74  C   UNL     1       4.763   7.676   2.316  1.00  0.00     0.264 C 
ATOM     75  O   UNL     1       3.079   5.028   3.591  1.00  0.00    -0.268 OA
ATOM     76  C   UNL     1       2.575   7.009   2.414  1.00  0.00     0.075 A 
ATOM     77  C   UNL     1       3.371   8.103   2.125  1.00  0.00     0.075 A 
ATOM     78  O   UNL     1       5.717   8.421   2.311  1.00  0.00    -0.268 OA
ATOM     79  C   UNL     1       1.202   7.029   2.247  1.00  0.00     0.074 A 
ATOM     80  C   UNL     1       2.823   9.319   1.758  1.00  0.00     0.074 A 
ATOM     81  Cl  UNL     1       0.276   5.590   2.472  1.00  0.00    -0.082 Cl
ATOM     82  C   UNL     1       0.616   8.239   1.838  1.00  0.00     0.080 A 
ATOM     83  C   UNL     1       1.422   9.390   1.623  1.00  0.00     0.080 A 
ATOM     84  Cl  UNL     1       3.834  10.693   1.497  1.00  0.00    -0.082 Cl
ATOM     85  Cl  UNL     1      -1.106   8.320   1.592  1.00  0.00    -0.081 Cl
ATOM     86  Cl  UNL     1       0.675  10.903   1.190  1.00  0.00    -0.081 Cl
ENDBRANCH  68  72
ENDBRANCH  65  68
ENDBRANCH  63  64
ENDBRANCH   1  63
TORSDOF 13
