REMARK SMILES CCOc1ccc(-c2cc(Cl)cc3c2O[C@H](C(F)(F)F)C(C(=O)NCCCNC(=O)c2ccc(-c4c5nc(c(-c6c(F)cccc6F)c6ccc([nH]6)c(-c6c(F)cccc6F)c6nc(c(-c7c(F)cccc7F)c7ccc4[nH]7)C=C6)C=C5)cc2)=C3)cc1
REMARK SMILES IDX 25 1 24 2 22 3 23 4 21 6 8 7 9 8 14 9 10 10 13 11 15 12
REMARK SMILES IDX 11 13 12 14 85 15 16 16 7 17 4 18 5 19 87 20 6 21 86 22 3 23
REMARK SMILES IDX 2 24 1 25 17 26 18 27 19 28 20 29 26 30 27 31 28 32 29 33
REMARK SMILES IDX 30 35 31 36 32 37 84 38 33 39 83 40 34 41 35 42 36 43 77 44
REMARK SMILES IDX 37 45 82 46 76 47 78 48 38 49 81 50 75 51 74 52 39 54 65 55
REMARK SMILES IDX 48 56 64 57 49 58 52 59 63 60 79 61 50 62 51 63 62 65 80 66
REMARK SMILES IDX 53 67 40 68 41 69 46 70 42 71 43 72 45 73 47 74 44 75 66 76
REMARK SMILES IDX 67 77 72 78 68 79 69 80 71 81 73 82 70 83 54 84 55 85 60 86
REMARK SMILES IDX 56 87 57 88 59 89 61 90 58 91
REMARK H PARENT 24 5 28 34 78 53 52 64
REMARK Flexibility Score: inf
ROOT
ATOM      1  C   UNL     1      13.148   5.204  -2.617  1.00  0.00     0.118 C 
ENDROOT
BRANCH   1   2
ATOM      2  N   UNL     1      12.484   5.126  -1.332  1.00  0.00    -0.352 N 
ATOM      3  C   UNL     1      11.160   4.908  -1.127  1.00  0.00     0.251 C 
ATOM      4  O   UNL     1      10.555   5.565  -0.289  1.00  0.00    -0.270 OA
ATOM      5  H   UNL     1      13.045   5.241  -0.532  1.00  0.00     0.163 HD
BRANCH   3   6
ATOM      6  C   UNL     1      10.553   3.749  -1.844  1.00  0.00     0.067 C 
ATOM      7  C   UNL     1       6.944   3.583   0.036  1.00  0.00     0.026 A 
ATOM      8  C   UNL     1       7.194   3.736   1.424  1.00  0.00     0.033 A 
ATOM      9  C   UNL     1       8.066   3.329  -0.773  1.00  0.00     0.135 A 
ATOM     10  C   UNL     1       8.436   3.468   1.995  1.00  0.00     0.042 A 
ATOM     11  C   UNL     1       9.286   2.943  -0.164  1.00  0.00     0.019 A 
ATOM     12  O   UNL     1       8.062   3.481  -2.154  1.00  0.00    -0.475 OA
ATOM     13  Cl  UNL     1       8.665   3.688   3.683  1.00  0.00    -0.084 Cl
ATOM     14  C   UNL     1       9.471   2.994   1.213  1.00  0.00     0.032 A 
ATOM     15  C   UNL     1      10.441   2.667  -1.049  1.00  0.00     0.025 C 
ATOM     16  C   UNL     1       9.325   4.079  -2.684  1.00  0.00     0.314 C 
BRANCH   7  17
ATOM     17  C   UNL     1       5.509   3.464  -0.335  1.00  0.00    -0.014 A 
ATOM     18  C   UNL     1       2.777   2.713  -0.140  1.00  0.00     0.119 A 
ATOM     19  C   UNL     1       3.192   3.965   0.305  1.00  0.00     0.047 A 
ATOM     20  C   UNL     1       3.689   1.887  -0.790  1.00  0.00     0.047 A 
ATOM     21  C   UNL     1       4.540   4.341   0.199  1.00  0.00     0.013 A 
ATOM     22  C   UNL     1       5.040   2.261  -0.890  1.00  0.00     0.013 A 
BRANCH  18  23
ATOM     23  O   UNL     1       1.454   2.397  -0.009  1.00  0.00    -0.494 OA
BRANCH  23  24
ATOM     24  C   UNL     1       1.179   1.228   0.779  1.00  0.00     0.226 C 
ATOM     25  C   UNL     1       0.982  -0.002  -0.093  1.00  0.00     0.049 C 
ENDBRANCH  23  24
ENDBRANCH  18  23
ENDBRANCH   7  17
BRANCH  16  26
ATOM     26  C   UNL     1       9.611   3.642  -4.140  1.00  0.00     0.429 C 
ATOM     27  F   UNL     1       8.799   2.648  -4.560  1.00  0.00    -0.167 F 
ATOM     28  F   UNL     1       9.469   4.681  -4.998  1.00  0.00    -0.167 F 
ATOM     29  F   UNL     1      10.885   3.193  -4.307  1.00  0.00    -0.167 F 
ENDBRANCH  16  26
ENDBRANCH   3   6
ENDBRANCH   1   2
BRANCH   1  30
ATOM     30  C   UNL     1      13.680   6.620  -2.850  1.00  0.00     0.042 C 
BRANCH  30  31
ATOM     31  C   UNL     1      14.695   7.099  -1.813  1.00  0.00     0.118 C 
BRANCH  31  32
ATOM     32  N   UNL     1      15.893   6.276  -1.761  1.00  0.00    -0.352 N 
ATOM     33  C   UNL     1      17.210   6.654  -1.847  1.00  0.00     0.251 C 
ATOM     34  H   UNL     1      15.738   5.310  -1.647  1.00  0.00     0.163 HD
ATOM     35  O   UNL     1      18.092   5.802  -1.934  1.00  0.00    -0.269 OA
BRANCH  33  36
ATOM     36  C   UNL     1      17.563   8.088  -1.869  1.00  0.00     0.039 A 
ATOM     37  C   UNL     1      18.470   8.545  -2.827  1.00  0.00     0.014 A 
ATOM     38  C   UNL     1      16.986   8.981  -0.963  1.00  0.00     0.014 A 
ATOM     39  C   UNL     1      18.743   9.911  -2.923  1.00  0.00     0.010 A 
ATOM     40  C   UNL     1      17.194  10.348  -1.114  1.00  0.00     0.010 A 
ATOM     41  C   UNL     1      18.076  10.829  -2.094  1.00  0.00    -0.014 A 
BRANCH  41  42
ATOM     42  C   UNL     1      18.285  12.292  -2.238  1.00  0.00     0.031 A 
ATOM     43  C   UNL     1      18.861  13.089  -1.099  1.00  0.00     0.074 A 
ATOM     44  C   UNL     1      17.896  12.916  -3.368  1.00  0.00     0.049 A 
ATOM     45  N   UNL     1      19.048  14.381  -1.005  1.00  0.00    -0.248 NA
ATOM     46  C   UNL     1      19.250  12.337   0.104  1.00  0.00     0.031 C 
ATOM     47  C   UNL     1      17.279  12.266  -4.526  1.00  0.00     0.029 A 
ATOM     48  N   UNL     1      17.952  14.241  -3.724  1.00  0.00    -0.354 N 
ATOM     49  C   UNL     1      19.559  14.596   0.269  1.00  0.00     0.074 A 
ATOM     50  C   UNL     1      19.597  13.310   0.932  1.00  0.00     0.031 C 
ATOM     51  C   UNL     1      17.039  13.187  -5.473  1.00  0.00     0.029 A 
ATOM     52  C   UNL     1      17.443  14.498  -4.974  1.00  0.00     0.049 A 
ATOM     53  H   UNL     1      18.322  14.940  -3.139  1.00  0.00     0.167 HD
ATOM     54  C   UNL     1      19.983  15.754   0.828  1.00  0.00     0.037 A 
ATOM     55  C   UNL     1      17.308  15.661  -5.641  1.00  0.00     0.037 A 
ATOM     56  C   UNL     1      19.967  17.027   0.158  1.00  0.00     0.049 A 
ATOM     57  C   UNL     1      17.776  16.936  -4.993  1.00  0.00     0.074 A 
ATOM     58  C   UNL     1      20.432  18.248   0.615  1.00  0.00     0.029 A 
ATOM     59  N   UNL     1      19.456  17.245  -1.113  1.00  0.00    -0.354 N 
ATOM     60  N   UNL     1      18.323  17.113  -3.815  1.00  0.00    -0.248 NA
ATOM     61  C   UNL     1      17.610  18.172  -5.770  1.00  0.00     0.031 C 
ATOM     62  C   UNL     1      20.157  19.213  -0.359  1.00  0.00     0.029 A 
ATOM     63  C   UNL     1      19.570  18.585  -1.445  1.00  0.00     0.049 A 
ATOM     64  H   UNL     1      19.069  16.550  -1.693  1.00  0.00     0.167 HD
ATOM     65  C   UNL     1      18.591  18.473  -3.721  1.00  0.00     0.074 A 
ATOM     66  C   UNL     1      18.163  19.070  -4.968  1.00  0.00     0.031 C 
ATOM     67  C   UNL     1      19.142  19.164  -2.693  1.00  0.00     0.037 A 
BRANCH  54  68
ATOM     68  C   UNL     1      20.503  15.694   2.236  1.00  0.00     0.057 A 
ATOM     69  C   UNL     1      21.712  15.059   2.552  1.00  0.00     0.134 A 
ATOM     70  C   UNL     1      19.802  16.302   3.285  1.00  0.00     0.134 A 
ATOM     71  F   UNL     1      22.428  14.446   1.597  1.00  0.00    -0.206 F 
ATOM     72  C   UNL     1      22.189  15.005   3.863  1.00  0.00     0.040 A 
ATOM     73  C   UNL     1      20.284  16.281   4.595  1.00  0.00     0.040 A 
ATOM     74  F   UNL     1      18.641  16.934   3.054  1.00  0.00    -0.206 F 
ATOM     75  C   UNL     1      21.477  15.624   4.888  1.00  0.00     0.006 A 
ENDBRANCH  54  68
BRANCH  55  76
ATOM     76  C   UNL     1      16.721  15.675  -7.005  1.00  0.00     0.057 A 
ATOM     77  C   UNL     1      17.506  15.976  -8.125  1.00  0.00     0.134 A 
ATOM     78  C   UNL     1      15.365  15.405  -7.223  1.00  0.00     0.134 A 
ATOM     79  F   UNL     1      18.808  16.263  -7.980  1.00  0.00    -0.206 F 
ATOM     80  C   UNL     1      16.959  16.030  -9.409  1.00  0.00     0.040 A 
ATOM     81  C   UNL     1      14.811  15.428  -8.504  1.00  0.00     0.040 A 
ATOM     82  F   UNL     1      14.561  15.102  -6.194  1.00  0.00    -0.206 F 
ATOM     83  C   UNL     1      15.608  15.750  -9.601  1.00  0.00     0.006 A 
ENDBRANCH  55  76
BRANCH  67  84
ATOM     84  C   UNL     1      19.343  20.640  -2.887  1.00  0.00     0.057 A 
ATOM     85  C   UNL     1      18.268  21.537  -2.905  1.00  0.00     0.134 A 
ATOM     86  C   UNL     1      20.632  21.172  -3.017  1.00  0.00     0.134 A 
ATOM     87  F   UNL     1      17.007  21.091  -2.798  1.00  0.00    -0.206 F 
ATOM     88  C   UNL     1      18.466  22.909  -3.071  1.00  0.00     0.040 A 
ATOM     89  C   UNL     1      20.845  22.544  -3.154  1.00  0.00     0.040 A 
ATOM     90  F   UNL     1      21.707  20.369  -2.999  1.00  0.00    -0.206 F 
ATOM     91  C   UNL     1      19.759  23.416  -3.187  1.00  0.00     0.006 A 
ENDBRANCH  67  84
ENDBRANCH  41  42
ENDBRANCH  33  36
ENDBRANCH  31  32
ENDBRANCH  30  31
ENDBRANCH   1  30
TORSDOF 14
