REMARK SMILES O=C(NCCCNC(=O)c1cn(-c2cc(F)cc(F)c2F)c(=O)[nH]c1=O)c1ccc(-c2c3nc(c(-c4c(F)cccc4F)c4ccc([nH]4)c(-c4c(F)cccc4F)c4nc(c(-c5c(F)cccc5F)c5ccc2[nH]5)C=C4)C=C3)cc1
REMARK SMILES IDX 4 1 3 2 1 3 2 4 27 6 28 7 80 8 29 9 79 10 30 11 31 12 32 13
REMARK SMILES IDX 73 14 33 15 78 16 72 17 74 18 34 19 77 20 71 21 70 22 35 24
REMARK SMILES IDX 61 25 44 26 60 27 45 28 48 29 59 30 75 31 46 32 47 33 58 35
REMARK SMILES IDX 76 36 49 37 36 38 37 39 42 40 38 41 39 42 41 43 43 44 40 45
REMARK SMILES IDX 62 46 63 47 68 48 64 49 65 50 67 51 69 52 66 53 50 54 51 55
REMARK SMILES IDX 56 56 52 57 53 58 55 59 57 60 54 61 5 62 6 63 7 64 8 65 9 67
REMARK SMILES IDX 10 68 11 69 25 70 12 71 24 72 26 73 22 74 23 76 13 77 14 78
REMARK SMILES IDX 20 79 15 80 18 81 21 82 16 83 17 84 19 85
REMARK H PARENT 3 5 74 23 48 34 7 66 24 75
REMARK Flexibility Score: inf
ROOT
ATOM      1  C   UNL     1       4.644  -1.120  -1.055  1.00  0.00     0.118 C 
ENDROOT
BRANCH   1   2
ATOM      2  N   UNL     1       3.218  -0.839  -0.994  1.00  0.00    -0.352 N 
ATOM      3  O   UNL     1       1.245  -0.139  -0.220  1.00  0.00    -0.269 OA
ATOM      4  C   UNL     1       2.470  -0.035  -0.174  1.00  0.00     0.251 C 
ATOM      5  H   UNL     1       2.689  -1.318  -1.672  1.00  0.00     0.163 HD
BRANCH   4   6
ATOM      6  C   UNL     1       3.079   0.947   0.756  1.00  0.00     0.039 A 
ATOM      7  C   UNL     1       2.383   1.265   1.930  1.00  0.00     0.014 A 
ATOM      8  C   UNL     1       4.250   1.643   0.453  1.00  0.00     0.014 A 
ATOM      9  C   UNL     1       2.860   2.261   2.788  1.00  0.00     0.010 A 
ATOM     10  C   UNL     1       4.783   2.560   1.359  1.00  0.00     0.010 A 
ATOM     11  C   UNL     1       4.069   2.917   2.511  1.00  0.00    -0.014 A 
BRANCH  11  12
ATOM     12  C   UNL     1       4.529   4.059   3.343  1.00  0.00     0.031 A 
ATOM     13  C   UNL     1       4.626   5.436   2.733  1.00  0.00     0.074 A 
ATOM     14  C   UNL     1       4.865   3.874   4.634  1.00  0.00     0.049 A 
ATOM     15  N   UNL     1       5.041   6.557   3.269  1.00  0.00    -0.248 NA
ATOM     16  C   UNL     1       4.230   5.563   1.321  1.00  0.00     0.031 C 
ATOM     17  C   UNL     1       4.850   2.593   5.341  1.00  0.00     0.029 A 
ATOM     18  N   UNL     1       5.284   4.773   5.583  1.00  0.00    -0.354 N 
ATOM     19  C   UNL     1       4.963   7.510   2.261  1.00  0.00     0.074 A 
ATOM     20  C   UNL     1       4.537   6.824   1.062  1.00  0.00     0.031 C 
ATOM     21  C   UNL     1       5.215   2.793   6.619  1.00  0.00     0.029 A 
ATOM     22  C   UNL     1       5.515   4.209   6.813  1.00  0.00     0.049 A 
ATOM     23  H   UNL     1       5.407   5.732   5.398  1.00  0.00     0.167 HD
ATOM     24  C   UNL     1       5.184   8.845   2.328  1.00  0.00     0.037 A 
ATOM     25  C   UNL     1       5.919   4.773   7.967  1.00  0.00     0.037 A 
ATOM     26  C   UNL     1       5.581   9.541   3.522  1.00  0.00     0.049 A 
ATOM     27  C   UNL     1       6.161   6.258   8.016  1.00  0.00     0.074 A 
ATOM     28  C   UNL     1       5.820  10.893   3.699  1.00  0.00     0.029 A 
ATOM     29  N   UNL     1       5.784   8.934   4.752  1.00  0.00    -0.354 N 
ATOM     30  N   UNL     1       6.052   7.149   7.061  1.00  0.00    -0.248 NA
ATOM     31  C   UNL     1       6.570   6.815   9.313  1.00  0.00     0.031 C 
ATOM     32  C   UNL     1       6.190  11.101   5.033  1.00  0.00     0.029 A 
ATOM     33  C   UNL     1       6.145   9.884   5.693  1.00  0.00     0.049 A 
ATOM     34  H   UNL     1       5.687   7.971   4.929  1.00  0.00     0.167 HD
ATOM     35  C   UNL     1       6.352   8.372   7.647  1.00  0.00     0.074 A 
ATOM     36  C   UNL     1       6.623   8.111   9.045  1.00  0.00     0.031 C 
ATOM     37  C   UNL     1       6.405   9.603   7.081  1.00  0.00     0.037 A 
BRANCH  24  38
ATOM     38  C   UNL     1       4.976   9.634   1.067  1.00  0.00     0.057 A 
ATOM     39  C   UNL     1       6.059  10.190   0.375  1.00  0.00     0.134 A 
ATOM     40  C   UNL     1       3.696   9.837   0.532  1.00  0.00     0.134 A 
ATOM     41  F   UNL     1       7.311  10.037   0.832  1.00  0.00    -0.206 F 
ATOM     42  C   UNL     1       5.877  10.912  -0.806  1.00  0.00     0.040 A 
ATOM     43  C   UNL     1       3.503  10.532  -0.662  1.00  0.00     0.040 A 
ATOM     44  F   UNL     1       2.617   9.315   1.136  1.00  0.00    -0.206 F 
ATOM     45  C   UNL     1       4.597  11.076  -1.333  1.00  0.00     0.006 A 
ENDBRANCH  24  38
BRANCH  25  46
ATOM     46  C   UNL     1       6.100   3.945   9.185  1.00  0.00     0.057 A 
ATOM     47  C   UNL     1       7.166   3.047   9.306  1.00  0.00     0.134 A 
ATOM     48  C   UNL     1       5.234   4.069  10.279  1.00  0.00     0.134 A 
ATOM     49  F   UNL     1       8.027   2.877   8.291  1.00  0.00    -0.206 F 
ATOM     50  C   UNL     1       7.371   2.308  10.472  1.00  0.00     0.040 A 
ATOM     51  C   UNL     1       5.441   3.356  11.461  1.00  0.00     0.040 A 
ATOM     52  F   UNL     1       4.206   4.929  10.231  1.00  0.00    -0.206 F 
ATOM     53  C   UNL     1       6.513   2.471  11.559  1.00  0.00     0.006 A 
ENDBRANCH  25  46
BRANCH  37  54
ATOM     54  C   UNL     1       6.733  10.752   7.988  1.00  0.00     0.057 A 
ATOM     55  C   UNL     1       5.749  11.682   8.345  1.00  0.00     0.134 A 
ATOM     56  C   UNL     1       8.020  10.938   8.511  1.00  0.00     0.134 A 
ATOM     57  F   UNL     1       4.499  11.568   7.872  1.00  0.00    -0.206 F 
ATOM     58  C   UNL     1       6.030  12.750   9.199  1.00  0.00     0.040 A 
ATOM     59  C   UNL     1       8.306  11.986   9.387  1.00  0.00     0.040 A 
ATOM     60  F   UNL     1       9.004  10.073   8.218  1.00  0.00    -0.206 F 
ATOM     61  C   UNL     1       7.310  12.897   9.731  1.00  0.00     0.006 A 
ENDBRANCH  37  54
ENDBRANCH  11  12
ENDBRANCH   4   6
ENDBRANCH   1   2
BRANCH   1  62
ATOM     62  C   UNL     1       4.991  -2.516  -0.557  1.00  0.00     0.042 C 
BRANCH  62  63
ATOM     63  C   UNL     1       4.331  -3.645  -1.335  1.00  0.00     0.118 C 
BRANCH  63  64
ATOM     64  N   UNL     1       4.723  -3.694  -2.739  1.00  0.00    -0.352 N 
ATOM     65  C   UNL     1       5.505  -4.577  -3.433  1.00  0.00     0.258 C 
ATOM     66  H   UNL     1       4.359  -2.960  -3.285  1.00  0.00     0.163 HD
ATOM     67  O   UNL     1       5.695  -4.395  -4.633  1.00  0.00    -0.269 OA
BRANCH  65  68
ATOM     68  C   UNL     1       6.101  -5.730  -2.730  1.00  0.00     0.121 A 
ATOM     69  C   UNL     1       5.312  -6.570  -2.046  1.00  0.00     0.116 A 
ATOM     70  C   UNL     1       7.550  -5.996  -2.746  1.00  0.00     0.266 A 
ATOM     71  N   UNL     1       5.810  -7.546  -1.195  1.00  0.00    -0.265 N 
ATOM     72  N   UNL     1       7.953  -7.098  -2.045  1.00  0.00    -0.273 N 
ATOM     73  O   UNL     1       8.366  -5.258  -3.292  1.00  0.00    -0.268 OA
ATOM     74  C   UNL     1       7.181  -7.852  -1.194  1.00  0.00     0.333 A 
ATOM     75  H   UNL     1       8.889  -7.379  -2.160  1.00  0.00     0.175 HD
ATOM     76  O   UNL     1       7.718  -8.715  -0.504  1.00  0.00    -0.247 OA
BRANCH  71  77
ATOM     77  C   UNL     1       4.950  -8.153  -0.215  1.00  0.00     0.092 A 
ATOM     78  C   UNL     1       5.372  -8.244   1.122  1.00  0.00     0.069 A 
ATOM     79  C   UNL     1       3.640  -8.549  -0.520  1.00  0.00     0.183 A 
ATOM     80  C   UNL     1       4.497  -8.698   2.108  1.00  0.00     0.128 A 
ATOM     81  C   UNL     1       2.790  -9.030   0.475  1.00  0.00     0.163 A 
ATOM     82  F   UNL     1       3.188  -8.490  -1.783  1.00  0.00    -0.201 F 
ATOM     83  F   UNL     1       4.902  -8.714   3.384  1.00  0.00    -0.207 F 
ATOM     84  C   UNL     1       3.207  -9.098   1.796  1.00  0.00     0.081 A 
ATOM     85  F   UNL     1       1.546  -9.414   0.162  1.00  0.00    -0.204 F 
ENDBRANCH  71  77
ENDBRANCH  65  68
ENDBRANCH  63  64
ENDBRANCH  62  63
ENDBRANCH   1  62
TORSDOF 11
