REMARK SMILES O=C(Cc1ccn(C(F)F)c(=O)c1)NCCCNC(=O)c1ccc(-c2c3nc(c(-c4c(F)cccc4F)c4ccc([nH]4)c(-c4c(F)cccc4F)c4nc(c(-c5c(F)cccc5F)c5ccc2[nH]5)C=C4)C=C3)cc1
REMARK SMILES IDX 16 1 15 2 14 3 1 4 2 5 3 7 4 8 5 9 13 10 6 11 11 12 7 13
REMARK SMILES IDX 12 14 8 15 9 16 10 17 17 18 18 19 19 20 20 22 21 23 22 24
REMARK SMILES IDX 74 25 23 26 73 27 24 28 25 29 26 30 67 31 27 32 72 33 66 34
REMARK SMILES IDX 68 35 28 36 71 37 65 38 64 39 29 41 55 42 38 43 54 44 39 45
REMARK SMILES IDX 42 46 53 47 69 48 40 49 41 50 52 52 70 53 43 54 30 55 31 56
REMARK SMILES IDX 36 57 32 58 33 59 35 60 37 61 34 62 56 63 57 64 62 65 58 66
REMARK SMILES IDX 59 67 61 68 63 69 60 70 44 71 45 72 50 73 46 74 47 75 49 76
REMARK SMILES IDX 51 77 48 78
REMARK H PARENT 14 6 18 21 68 40 42 51
REMARK Flexibility Score: inf
ROOT
ATOM      1  C   UNL     1       2.300   2.956  -1.837  1.00  0.00     0.042 C 
ENDROOT
BRANCH   1   2
ATOM      2  C   UNL     1       2.128   1.443  -1.869  1.00  0.00     0.117 C 
BRANCH   2   3
ATOM      3  N   UNL     1       2.857   0.777  -0.808  1.00  0.00    -0.356 N 
ATOM      4  O   UNL     1       1.114  -0.542  -0.093  1.00  0.00    -0.275 OA
ATOM      5  C   UNL     1       2.296  -0.219  -0.034  1.00  0.00     0.224 C 
ATOM      6  H   UNL     1       3.788   1.045  -0.633  1.00  0.00     0.163 HD
BRANCH   5   7
ATOM      7  C   UNL     1       3.294  -0.930   0.874  1.00  0.00     0.135 C 
BRANCH   7   8
ATOM      8  C   UNL     1       3.954  -2.048   0.108  1.00  0.00    -0.032 A 
ATOM      9  C   UNL     1       5.045  -1.724  -0.791  1.00  0.00     0.022 A 
ATOM     10  C   UNL     1       3.558  -3.328   0.219  1.00  0.00     0.076 A 
ATOM     11  C   UNL     1       5.578  -2.667  -1.576  1.00  0.00     0.095 A 
ATOM     12  C   UNL     1       4.178  -4.400  -0.612  1.00  0.00     0.255 A 
ATOM     13  N   UNL     1       5.141  -3.977  -1.515  1.00  0.00    -0.258 N 
ATOM     14  O   UNL     1       3.800  -5.556  -0.459  1.00  0.00    -0.269 OA
BRANCH  13  15
ATOM     15  C   UNL     1       5.711  -4.976  -2.381  1.00  0.00     0.451 C 
ATOM     16  F   UNL     1       6.394  -5.904  -1.669  1.00  0.00    -0.185 F 
ATOM     17  F   UNL     1       4.751  -5.614  -3.094  1.00  0.00    -0.185 F 
ENDBRANCH  13  15
ENDBRANCH   7   8
ENDBRANCH   5   7
ENDBRANCH   2   3
ENDBRANCH   1   2
BRANCH   1  18
ATOM     18  C   UNL     1       3.737   3.448  -1.958  1.00  0.00     0.118 C 
BRANCH  18  19
ATOM     19  N   UNL     1       4.366   3.165  -3.241  1.00  0.00    -0.352 N 
ATOM     20  C   UNL     1       5.205   3.969  -3.982  1.00  0.00     0.251 C 
ATOM     21  H   UNL     1       4.164   2.284  -3.631  1.00  0.00     0.163 HD
ATOM     22  O   UNL     1       5.593   3.604  -5.088  1.00  0.00    -0.269 OA
BRANCH  20  23
ATOM     23  C   UNL     1       5.598   5.297  -3.460  1.00  0.00     0.039 A 
ATOM     24  C   UNL     1       6.032   5.446  -2.142  1.00  0.00     0.014 A 
ATOM     25  C   UNL     1       5.474   6.417  -4.288  1.00  0.00     0.014 A 
ATOM     26  C   UNL     1       6.161   6.722  -1.601  1.00  0.00     0.010 A 
ATOM     27  C   UNL     1       5.685   7.697  -3.763  1.00  0.00     0.010 A 
ATOM     28  C   UNL     1       5.969   7.863  -2.398  1.00  0.00    -0.014 A 
BRANCH  28  29
ATOM     29  C   UNL     1       6.033   9.208  -1.767  1.00  0.00     0.031 A 
ATOM     30  C   UNL     1       4.805  10.078  -1.678  1.00  0.00     0.074 A 
ATOM     31  C   UNL     1       7.183   9.618  -1.198  1.00  0.00     0.049 A 
ATOM     32  N   UNL     1       4.660  11.246  -1.103  1.00  0.00    -0.248 NA
ATOM     33  C   UNL     1       3.580   9.574  -2.320  1.00  0.00     0.031 C 
ATOM     34  C   UNL     1       8.442   8.871  -1.210  1.00  0.00     0.029 A 
ATOM     35  N   UNL     1       7.471  10.747  -0.474  1.00  0.00    -0.354 N 
ATOM     36  C   UNL     1       3.340  11.622  -1.325  1.00  0.00     0.074 A 
ATOM     37  C   UNL     1       2.733  10.573  -2.115  1.00  0.00     0.031 C 
ATOM     38  C   UNL     1       9.351   9.534  -0.477  1.00  0.00     0.029 A 
ATOM     39  C   UNL     1       8.756  10.773   0.011  1.00  0.00     0.049 A 
ATOM     40  H   UNL     1       6.820  11.468  -0.317  1.00  0.00     0.167 HD
ATOM     41  C   UNL     1       2.687  12.730  -0.898  1.00  0.00     0.037 A 
ATOM     42  C   UNL     1       9.387  11.694   0.762  1.00  0.00     0.037 A 
ATOM     43  C   UNL     1       3.278  13.768  -0.093  1.00  0.00     0.049 A 
ATOM     44  C   UNL     1       8.650  12.929   1.190  1.00  0.00     0.074 A 
ATOM     45  C   UNL     1       2.686  14.914   0.411  1.00  0.00     0.029 A 
ATOM     46  N   UNL     1       4.599  13.786   0.325  1.00  0.00    -0.354 N 
ATOM     47  N   UNL     1       7.397  13.257   0.988  1.00  0.00    -0.248 NA
ATOM     48  C   UNL     1       9.421  13.928   1.944  1.00  0.00     0.031 C 
ATOM     49  C   UNL     1       3.659  15.643   1.104  1.00  0.00     0.029 A 
ATOM     50  C   UNL     1       4.848  14.932   1.063  1.00  0.00     0.049 A 
ATOM     51  H   UNL     1       5.264  13.086   0.127  1.00  0.00     0.167 HD
ATOM     52  C   UNL     1       7.227  14.493   1.596  1.00  0.00     0.074 A 
ATOM     53  C   UNL     1       8.497  14.844   2.196  1.00  0.00     0.031 C 
ATOM     54  C   UNL     1       6.119  15.272   1.646  1.00  0.00     0.037 A 
BRANCH  41  55
ATOM     55  C   UNL     1       1.250  12.883  -1.305  1.00  0.00     0.057 A 
ATOM     56  C   UNL     1       0.875  13.836  -2.260  1.00  0.00     0.134 A 
ATOM     57  C   UNL     1       0.233  12.110  -0.729  1.00  0.00     0.134 A 
ATOM     58  F   UNL     1       1.799  14.613  -2.845  1.00  0.00    -0.206 F 
ATOM     59  C   UNL     1      -0.459  14.014  -2.630  1.00  0.00     0.040 A 
ATOM     60  C   UNL     1      -1.103  12.264  -1.106  1.00  0.00     0.040 A 
ATOM     61  F   UNL     1       0.527  11.171   0.183  1.00  0.00    -0.206 F 
ATOM     62  C   UNL     1      -1.452  13.222  -2.055  1.00  0.00     0.006 A 
ENDBRANCH  41  55
BRANCH  42  63
ATOM     63  C   UNL     1      10.801  11.485   1.158  1.00  0.00     0.057 A 
ATOM     64  C   UNL     1      11.838  11.555   0.220  1.00  0.00     0.134 A 
ATOM     65  C   UNL     1      11.148  11.224   2.488  1.00  0.00     0.134 A 
ATOM     66  F   UNL     1      11.568  11.799  -1.071  1.00  0.00    -0.206 F 
ATOM     67  C   UNL     1      13.169  11.364   0.589  1.00  0.00     0.040 A 
ATOM     68  C   UNL     1      12.478  11.055   2.876  1.00  0.00     0.040 A 
ATOM     69  F   UNL     1      10.199  11.165   3.434  1.00  0.00    -0.206 F 
ATOM     70  C   UNL     1      13.493  11.120   1.922  1.00  0.00     0.006 A 
ENDBRANCH  42  63
BRANCH  54  71
ATOM     71  C   UNL     1       6.239  16.571   2.385  1.00  0.00     0.057 A 
ATOM     72  C   UNL     1       5.645  16.739   3.642  1.00  0.00     0.134 A 
ATOM     73  C   UNL     1       6.940  17.658   1.848  1.00  0.00     0.134 A 
ATOM     74  F   UNL     1       4.956  15.737   4.209  1.00  0.00    -0.206 F 
ATOM     75  C   UNL     1       5.748  17.942   4.341  1.00  0.00     0.040 A 
ATOM     76  C   UNL     1       7.069  18.859   2.547  1.00  0.00     0.040 A 
ATOM     77  F   UNL     1       7.545  17.554   0.655  1.00  0.00    -0.206 F 
ATOM     78  C   UNL     1       6.468  19.004   3.797  1.00  0.00     0.006 A 
ENDBRANCH  54  71
ENDBRANCH  28  29
ENDBRANCH  20  23
ENDBRANCH  18  19
ENDBRANCH   1  18
TORSDOF 12
