REMARK SMILES Cc1ccccc1C[C@H](CCSc1ccccc1)C(=O)NCCCNC(=O)c1ccc(-c2c3nc(c(-c4c(F)cccc4F)c4ccc([nH]4)c(-c4c(F)cccc4F)c4nc(c(-c5c(F)cccc5F)c5ccc2[nH]5)C=C4)C=C3)cc1
REMARK SMILES IDX 22 1 21 2 19 3 20 4 9 6 8 7 7 8 1 9 2 10 3 11 4 12 6 13 5 14
REMARK SMILES IDX 10 15 11 16 12 17 13 18 14 19 18 20 15 21 17 22 16 23 23 24
REMARK SMILES IDX 24 25 25 26 26 27 27 29 28 30 29 31 81 32 30 33 80 34 31 35
REMARK SMILES IDX 32 36 33 37 74 38 34 39 79 40 73 41 75 42 35 43 78 44 72 45
REMARK SMILES IDX 71 46 36 48 62 49 45 50 61 51 46 52 49 53 60 54 76 55 47 56
REMARK SMILES IDX 48 57 59 59 77 60 50 61 37 62 38 63 43 64 39 65 40 66 42 67
REMARK SMILES IDX 44 68 41 69 63 70 64 71 69 72 65 73 66 74 68 75 70 76 67 77
REMARK SMILES IDX 51 78 52 79 57 80 53 81 54 82 56 83 58 84 55 85
REMARK H PARENT 21 5 25 28 75 47 49 58
REMARK Flexibility Score: inf
ROOT
ATOM      1  C   UNL     1       0.156   4.920   1.727  1.00  0.00     0.117 C 
ENDROOT
BRANCH   1   2
ATOM      2  N   UNL     1       1.216   5.111   0.752  1.00  0.00    -0.356 N 
ATOM      3  C   UNL     1       1.331   4.616  -0.509  1.00  0.00     0.223 C 
ATOM      4  O   UNL     1       2.302   4.977  -1.177  1.00  0.00    -0.275 OA
ATOM      5  H   UNL     1       1.961   5.682   1.048  1.00  0.00     0.163 HD
BRANCH   3   6
ATOM      6  C   UNL     1       0.333   3.606  -1.056  1.00  0.00     0.083 C 
BRANCH   6   7
ATOM      7  C   UNL     1      -1.149   4.055  -1.078  1.00  0.00     0.049 C 
BRANCH   7   8
ATOM      8  C   UNL     1      -1.504   5.319  -1.849  1.00  0.00    -0.044 A 
ATOM      9  C   UNL     1      -3.271   4.154  -3.335  1.00  0.00     0.044 C 
ATOM     10  C   UNL     1      -2.461   5.342  -2.888  1.00  0.00    -0.048 A 
ATOM     11  C   UNL     1      -2.776   6.567  -3.514  1.00  0.00     0.004 A 
ATOM     12  C   UNL     1      -2.177   7.761  -3.124  1.00  0.00     0.000 A 
ATOM     13  C   UNL     1      -0.942   6.552  -1.455  1.00  0.00     0.004 A 
ATOM     14  C   UNL     1      -1.263   7.754  -2.086  1.00  0.00     0.000 A 
ENDBRANCH   7   8
ENDBRANCH   6   7
BRANCH   6  15
ATOM     15  C   UNL     1       0.612   2.255  -0.347  1.00  0.00     0.025 C 
BRANCH  15  16
ATOM     16  C   UNL     1      -0.220   1.040  -0.764  1.00  0.00     0.076 C 
BRANCH  16  17
ATOM     17  S   UNL     1       0.444   0.140  -2.208  1.00  0.00    -0.126 SA
BRANCH  17  18
ATOM     18  C   UNL     1      -0.346   0.976  -3.566  1.00  0.00     0.007 A 
ATOM     19  C   UNL     1       0.269   2.077  -4.165  1.00  0.00     0.015 A 
ATOM     20  C   UNL     1      -1.528   0.476  -4.121  1.00  0.00     0.015 A 
ATOM     21  C   UNL     1      -0.323   2.725  -5.249  1.00  0.00     0.001 A 
ATOM     22  C   UNL     1      -2.095   1.090  -5.242  1.00  0.00     0.001 A 
ATOM     23  C   UNL     1      -1.500   2.223  -5.797  1.00  0.00     0.000 A 
ENDBRANCH  17  18
ENDBRANCH  16  17
ENDBRANCH  15  16
ENDBRANCH   6  15
ENDBRANCH   3   6
ENDBRANCH   1   2
BRANCH   1  24
ATOM     24  C   UNL     1       0.692   4.659   3.119  1.00  0.00     0.042 C 
BRANCH  24  25
ATOM     25  C   UNL     1       1.224   5.926   3.739  1.00  0.00     0.118 C 
BRANCH  25  26
ATOM     26  N   UNL     1       0.206   6.843   4.213  1.00  0.00    -0.352 N 
ATOM     27  C   UNL     1       0.324   8.083   4.831  1.00  0.00     0.251 C 
ATOM     28  H   UNL     1      -0.720   6.537   4.074  1.00  0.00     0.163 HD
ATOM     29  O   UNL     1      -0.667   8.618   5.254  1.00  0.00    -0.269 OA
BRANCH  27  30
ATOM     30  C   UNL     1       1.623   8.829   4.794  1.00  0.00     0.039 A 
ATOM     31  C   UNL     1       1.557  10.227   4.894  1.00  0.00     0.014 A 
ATOM     32  C   UNL     1       2.783   8.242   4.323  1.00  0.00     0.014 A 
ATOM     33  C   UNL     1       2.513  11.002   4.245  1.00  0.00     0.010 A 
ATOM     34  C   UNL     1       3.578   8.968   3.486  1.00  0.00     0.010 A 
ATOM     35  C   UNL     1       3.425  10.349   3.431  1.00  0.00    -0.014 A 
BRANCH  35  36
ATOM     36  C   UNL     1       4.365  10.976   2.534  1.00  0.00     0.031 A 
ATOM     37  C   UNL     1       5.766  11.058   2.977  1.00  0.00     0.074 A 
ATOM     38  C   UNL     1       3.982  11.200   1.260  1.00  0.00     0.049 A 
ATOM     39  N   UNL     1       6.649  11.803   2.423  1.00  0.00    -0.248 NA
ATOM     40  C   UNL     1       6.290  10.296   4.111  1.00  0.00     0.031 C 
ATOM     41  C   UNL     1       4.826  11.463   0.100  1.00  0.00     0.029 A 
ATOM     42  N   UNL     1       2.679  11.427   0.795  1.00  0.00    -0.354 N 
ATOM     43  C   UNL     1       7.879  11.422   2.908  1.00  0.00     0.074 A 
ATOM     44  C   UNL     1       7.601  10.519   3.995  1.00  0.00     0.031 C 
ATOM     45  C   UNL     1       4.096  12.112  -0.824  1.00  0.00     0.029 A 
ATOM     46  C   UNL     1       2.811  12.408  -0.214  1.00  0.00     0.049 A 
ATOM     47  H   UNL     1       1.850  10.995   1.105  1.00  0.00     0.167 HD
ATOM     48  C   UNL     1       8.987  11.826   2.230  1.00  0.00     0.037 A 
ATOM     49  C   UNL     1       2.316  13.665  -0.012  1.00  0.00     0.037 A 
ATOM     50  C   UNL     1       8.601  12.676   1.107  1.00  0.00     0.049 A 
ATOM     51  C   UNL     1       3.389  14.732  -0.012  1.00  0.00     0.074 A 
ATOM     52  C   UNL     1       8.386  12.414  -0.237  1.00  0.00     0.029 A 
ATOM     53  N   UNL     1       7.997  13.898   1.371  1.00  0.00    -0.354 N 
ATOM     54  N   UNL     1       4.652  14.502   0.230  1.00  0.00    -0.248 NA
ATOM     55  C   UNL     1       3.134  16.132  -0.328  1.00  0.00     0.031 C 
ATOM     56  C   UNL     1       7.614  13.478  -0.773  1.00  0.00     0.029 A 
ATOM     57  C   UNL     1       7.379  14.392   0.240  1.00  0.00     0.049 A 
ATOM     58  H   UNL     1       8.007  14.351   2.245  1.00  0.00     0.167 HD
ATOM     59  C   UNL     1       5.375  15.663   0.089  1.00  0.00     0.074 A 
ATOM     60  C   UNL     1       4.374  16.651  -0.269  1.00  0.00     0.031 C 
ATOM     61  C   UNL     1       6.732  15.696   0.271  1.00  0.00     0.037 A 
BRANCH  48  62
ATOM     62  C   UNL     1      10.368  11.257   2.420  1.00  0.00     0.057 A 
ATOM     63  C   UNL     1      11.284  11.234   1.349  1.00  0.00     0.134 A 
ATOM     64  C   UNL     1      10.858  10.700   3.614  1.00  0.00     0.134 A 
ATOM     65  F   UNL     1      10.998  11.788   0.164  1.00  0.00    -0.206 F 
ATOM     66  C   UNL     1      12.546  10.636   1.435  1.00  0.00     0.040 A 
ATOM     67  C   UNL     1      12.101  10.055   3.702  1.00  0.00     0.040 A 
ATOM     68  F   UNL     1      10.185  10.803   4.767  1.00  0.00    -0.206 F 
ATOM     69  C   UNL     1      12.950  10.017   2.607  1.00  0.00     0.006 A 
ENDBRANCH  48  62
BRANCH  49  70
ATOM     70  C   UNL     1       1.070  13.646   0.810  1.00  0.00     0.057 A 
ATOM     71  C   UNL     1      -0.055  12.990   0.270  1.00  0.00     0.134 A 
ATOM     72  C   UNL     1       1.106  13.793   2.200  1.00  0.00     0.134 A 
ATOM     73  F   UNL     1      -0.161  12.826  -1.059  1.00  0.00    -0.206 F 
ATOM     74  C   UNL     1      -1.007  12.361   1.078  1.00  0.00     0.040 A 
ATOM     75  C   UNL     1       0.140  13.187   3.019  1.00  0.00     0.040 A 
ATOM     76  F   UNL     1       2.144  14.395   2.798  1.00  0.00    -0.206 F 
ATOM     77  C   UNL     1      -0.884  12.422   2.461  1.00  0.00     0.006 A 
ENDBRANCH  49  70
BRANCH  61  78
ATOM     78  C   UNL     1       7.633  16.913   0.440  1.00  0.00     0.057 A 
ATOM     79  C   UNL     1       7.194  18.206   0.747  1.00  0.00     0.134 A 
ATOM     80  C   UNL     1       9.047  16.762   0.452  1.00  0.00     0.134 A 
ATOM     81  F   UNL     1       5.896  18.507   0.864  1.00  0.00    -0.206 F 
ATOM     82  C   UNL     1       8.079  19.264   1.013  1.00  0.00     0.040 A 
ATOM     83  C   UNL     1       9.932  17.789   0.789  1.00  0.00     0.040 A 
ATOM     84  F   UNL     1       9.648  15.599   0.166  1.00  0.00    -0.206 F 
ATOM     85  C   UNL     1       9.450  19.054   1.060  1.00  0.00     0.006 A 
ENDBRANCH  61  78
ENDBRANCH  35  36
ENDBRANCH  27  30
ENDBRANCH  25  26
ENDBRANCH  24  25
ENDBRANCH   1  24
TORSDOF 16
