REMARK SMILES O=C(NCCCNC(=O)[C@@H](Cc1c(F)cccc1Cl)c1ccc(Cl)cc1)c1ccc(-c2c3nc(c(-c4c(F)cccc4F)c4ccc([nH]4)c(-c4c(F)cccc4F)c4nc(c(-c5c(F)cccc5F)c5ccc2[nH]5)C=C4)C=C3)cc1
REMARK SMILES IDX 5 1 4 2 3 3 1 4 2 5 27 7 28 8 80 9 29 10 79 11 30 12 31 13
REMARK SMILES IDX 32 14 73 15 33 16 78 17 72 18 74 19 34 20 77 21 71 22 70 23
REMARK SMILES IDX 35 25 61 26 44 27 60 28 45 29 48 30 59 31 75 32 46 33 47 34
REMARK SMILES IDX 58 36 76 37 49 38 36 39 37 40 42 41 38 42 39 43 41 44 43 45
REMARK SMILES IDX 40 46 62 47 63 48 68 49 64 50 65 51 67 52 69 53 66 54 50 55
REMARK SMILES IDX 51 56 56 57 52 58 53 59 55 60 57 61 54 62 6 63 7 64 8 65
REMARK SMILES IDX 9 67 10 68 11 69 12 70 13 71 18 72 14 73 15 74 17 75 19 76
REMARK SMILES IDX 16 77 20 78 21 79 26 80 22 81 25 82 23 83 24 84
REMARK H PARENT 3 6 74 24 48 35 7 66
REMARK Flexibility Score: inf
ROOT
ATOM      1  C   UNL     1       4.306  -1.106  -1.618  1.00  0.00     0.042 C 
ENDROOT
BRANCH   1   2
ATOM      2  C   UNL     1       3.665   0.257  -1.847  1.00  0.00     0.118 C 
BRANCH   2   3
ATOM      3  N   UNL     1       2.368   0.369  -1.206  1.00  0.00    -0.352 N 
ATOM      4  O   UNL     1       0.777   0.381   0.349  1.00  0.00    -0.269 OA
ATOM      5  C   UNL     1       1.983   0.488   0.105  1.00  0.00     0.251 C 
ATOM      6  H   UNL     1       1.613   0.356  -1.839  1.00  0.00     0.163 HD
BRANCH   5   7
ATOM      7  C   UNL     1       2.923   0.711   1.240  1.00  0.00     0.039 A 
ATOM      8  C   UNL     1       4.138   1.385   1.128  1.00  0.00     0.014 A 
ATOM      9  C   UNL     1       2.498   0.325   2.523  1.00  0.00     0.014 A 
ATOM     10  C   UNL     1       4.946   1.598   2.249  1.00  0.00     0.010 A 
ATOM     11  C   UNL     1       3.262   0.623   3.662  1.00  0.00     0.010 A 
ATOM     12  C   UNL     1       4.502   1.261   3.536  1.00  0.00    -0.014 A 
BRANCH  12  13
ATOM     13  C   UNL     1       5.302   1.675   4.723  1.00  0.00     0.031 A 
ATOM     14  C   UNL     1       5.878   0.665   5.677  1.00  0.00     0.074 A 
ATOM     15  C   UNL     1       5.525   2.989   4.936  1.00  0.00     0.049 A 
ATOM     16  N   UNL     1       6.632   0.862   6.730  1.00  0.00    -0.248 NA
ATOM     17  C   UNL     1       5.558  -0.748   5.426  1.00  0.00     0.031 C 
ATOM     18  C   UNL     1       4.996   4.079   4.111  1.00  0.00     0.029 A 
ATOM     19  N   UNL     1       6.272   3.635   5.891  1.00  0.00    -0.354 N 
ATOM     20  C   UNL     1       6.858  -0.394   7.280  1.00  0.00     0.074 A 
ATOM     21  C   UNL     1       6.139  -1.345   6.458  1.00  0.00     0.031 C 
ATOM     22  C   UNL     1       5.487   5.246   4.552  1.00  0.00     0.029 A 
ATOM     23  C   UNL     1       6.315   4.999   5.727  1.00  0.00     0.049 A 
ATOM     24  H   UNL     1       6.732   3.165   6.624  1.00  0.00     0.167 HD
ATOM     25  C   UNL     1       7.602  -0.726   8.364  1.00  0.00     0.037 A 
ATOM     26  C   UNL     1       6.945   5.951   6.441  1.00  0.00     0.037 A 
ATOM     27  C   UNL     1       8.335   0.216   9.172  1.00  0.00     0.049 A 
ATOM     28  C   UNL     1       7.756   5.555   7.640  1.00  0.00     0.074 A 
ATOM     29  C   UNL     1       9.158  -0.037  10.257  1.00  0.00     0.029 A 
ATOM     30  N   UNL     1       8.328   1.591   8.990  1.00  0.00    -0.354 N 
ATOM     31  N   UNL     1       8.001   4.358   8.112  1.00  0.00    -0.248 NA
ATOM     32  C   UNL     1       8.373   6.645   8.409  1.00  0.00     0.031 C 
ATOM     33  C   UNL     1       9.615   1.188  10.757  1.00  0.00     0.029 A 
ATOM     34  C   UNL     1       9.114   2.200   9.956  1.00  0.00     0.049 A 
ATOM     35  H   UNL     1       7.838   2.064   8.279  1.00  0.00     0.167 HD
ATOM     36  C   UNL     1       8.816   4.547   9.220  1.00  0.00     0.074 A 
ATOM     37  C   UNL     1       9.038   5.974   9.338  1.00  0.00     0.031 C 
ATOM     38  C   UNL     1       9.331   3.621  10.064  1.00  0.00     0.037 A 
BRANCH  25  39
ATOM     39  C   UNL     1       7.648  -2.176   8.752  1.00  0.00     0.057 A 
ATOM     40  C   UNL     1       8.351  -3.124   7.999  1.00  0.00     0.134 A 
ATOM     41  C   UNL     1       7.010  -2.622   9.917  1.00  0.00     0.134 A 
ATOM     42  F   UNL     1       8.975  -2.766   6.866  1.00  0.00    -0.206 F 
ATOM     43  C   UNL     1       8.397  -4.469   8.375  1.00  0.00     0.040 A 
ATOM     44  C   UNL     1       7.069  -3.958  10.317  1.00  0.00     0.040 A 
ATOM     45  F   UNL     1       6.326  -1.765  10.690  1.00  0.00    -0.206 F 
ATOM     46  C   UNL     1       7.759  -4.887   9.541  1.00  0.00     0.006 A 
ENDBRANCH  25  39
BRANCH  26  47
ATOM     47  C   UNL     1       6.845   7.375   6.032  1.00  0.00     0.057 A 
ATOM     48  C   UNL     1       7.952   8.055   5.512  1.00  0.00     0.134 A 
ATOM     49  C   UNL     1       5.646   8.088   6.149  1.00  0.00     0.134 A 
ATOM     50  F   UNL     1       9.133   7.430   5.395  1.00  0.00    -0.206 F 
ATOM     51  C   UNL     1       7.875   9.396   5.135  1.00  0.00     0.040 A 
ATOM     52  C   UNL     1       5.547   9.422   5.751  1.00  0.00     0.040 A 
ATOM     53  F   UNL     1       4.548   7.491   6.635  1.00  0.00    -0.206 F 
ATOM     54  C   UNL     1       6.667  10.082   5.248  1.00  0.00     0.006 A 
ENDBRANCH  26  47
BRANCH  38  55
ATOM     55  C   UNL     1      10.213   4.123  11.170  1.00  0.00     0.057 A 
ATOM     56  C   UNL     1       9.695   4.811  12.275  1.00  0.00     0.134 A 
ATOM     57  C   UNL     1      11.595   3.902  11.134  1.00  0.00     0.134 A 
ATOM     58  F   UNL     1       8.381   5.068  12.361  1.00  0.00    -0.206 F 
ATOM     59  C   UNL     1      10.525   5.285  13.292  1.00  0.00     0.040 A 
ATOM     60  C   UNL     1      12.432   4.349  12.157  1.00  0.00     0.040 A 
ATOM     61  F   UNL     1      12.154   3.245  10.106  1.00  0.00    -0.206 F 
ATOM     62  C   UNL     1      11.898   5.050  13.237  1.00  0.00     0.006 A 
ENDBRANCH  38  55
ENDBRANCH  12  13
ENDBRANCH   5   7
ENDBRANCH   2   3
ENDBRANCH   1   2
BRANCH   1  63
ATOM     63  C   UNL     1       4.108  -2.048  -2.801  1.00  0.00     0.117 C 
BRANCH  63  64
ATOM     64  N   UNL     1       5.067  -1.760  -3.857  1.00  0.00    -0.355 N 
ATOM     65  C   UNL     1       5.890  -2.566  -4.579  1.00  0.00     0.227 C 
ATOM     66  H   UNL     1       5.131  -0.806  -4.091  1.00  0.00     0.163 HD
ATOM     67  O   UNL     1       6.586  -1.996  -5.430  1.00  0.00    -0.274 OA
BRANCH  65  68
ATOM     68  C   UNL     1       6.006  -4.083  -4.387  1.00  0.00     0.113 C 
BRANCH  68  69
ATOM     69  C   UNL     1       6.926  -4.484  -3.189  1.00  0.00     0.058 C 
BRANCH  69  70
ATOM     70  C   UNL     1       6.492  -4.259  -1.755  1.00  0.00     0.008 A 
ATOM     71  C   UNL     1       6.956  -3.117  -1.083  1.00  0.00     0.127 A 
ATOM     72  C   UNL     1       5.694  -5.141  -1.008  1.00  0.00     0.047 A 
ATOM     73  F   UNL     1       7.756  -2.250  -1.721  1.00  0.00    -0.207 F 
ATOM     74  C   UNL     1       6.593  -2.819   0.232  1.00  0.00     0.039 A 
ATOM     75  C   UNL     1       5.287  -4.825   0.298  1.00  0.00     0.021 A 
ATOM     76  Cl  UNL     1       5.229  -6.700  -1.572  1.00  0.00    -0.084 Cl
ATOM     77  C   UNL     1       5.726  -3.660   0.917  1.00  0.00     0.005 A 
ENDBRANCH  69  70
ENDBRANCH  68  69
BRANCH  68  78
ATOM     78  C   UNL     1       4.760  -4.929  -4.653  1.00  0.00    -0.035 A 
ATOM     79  C   UNL     1       3.495  -4.392  -4.936  1.00  0.00     0.006 A 
ATOM     80  C   UNL     1       4.883  -6.330  -4.699  1.00  0.00     0.006 A 
ATOM     81  C   UNL     1       2.371  -5.214  -5.075  1.00  0.00     0.021 A 
ATOM     82  C   UNL     1       3.766  -7.158  -4.844  1.00  0.00     0.021 A 
ATOM     83  C   UNL     1       2.508  -6.595  -4.999  1.00  0.00     0.041 A 
ATOM     84  Cl  UNL     1       1.120  -7.603  -5.107  1.00  0.00    -0.084 Cl
ENDBRANCH  68  78
ENDBRANCH  65  68
ENDBRANCH  63  64
ENDBRANCH   1  63
TORSDOF 13
