REMARK SMILES CC(C)C[C@H](C(=O)NCCCNC(=O)c1ccc(-c2c3nc(c(-c4c(F)cccc4F)c4ccc([nH]4)c(-c4c(F)cccc4F)c4nc(c(-c5c(F)cccc5F)c5ccc2[nH]5)C=C4)C=C3)cc1)N1C(=O)/C(=C2\C(=O)Nc3ccc(Br)cc32)SC1=S
REMARK SMILES IDX 10 1 9 2 8 3 6 4 7 5 5 7 4 8 2 9 1 10 3 11 69 12 70 13 85 14
REMARK SMILES IDX 71 15 72 16 84 17 86 18 73 19 74 20 83 21 75 22 76 23 77 24
REMARK SMILES IDX 82 25 78 27 80 28 79 29 81 30 11 31 12 32 13 33 14 35 15 36
REMARK SMILES IDX 16 37 68 38 17 39 67 40 18 41 19 42 20 43 61 44 21 45 66 46
REMARK SMILES IDX 60 47 62 48 22 49 65 50 59 51 58 52 23 54 49 55 32 56 48 57
REMARK SMILES IDX 33 58 36 59 47 60 63 61 34 62 35 63 46 65 64 66 37 67 24 68
REMARK SMILES IDX 25 69 30 70 26 71 27 72 29 73 31 74 28 75 50 76 51 77 56 78
REMARK SMILES IDX 52 79 53 80 55 81 57 82 54 83 38 84 39 85 44 86 40 87 41 88
REMARK SMILES IDX 43 89 45 90 42 91
REMARK H PARENT 8 6 76 26 12 34 62 53 36 64
REMARK Flexibility Score: inf
ROOT
ATOM      1  C   UNL     1      -3.344  -0.259  -2.553  1.00  0.00     0.042 C 
ENDROOT
BRANCH   1   2
ATOM      2  C   UNL     1      -2.133  -0.609  -1.696  1.00  0.00     0.117 C 
BRANCH   2   3
ATOM      3  N   UNL     1      -1.368   0.574  -1.361  1.00  0.00    -0.354 N 
ATOM      4  C   UNL     1      -1.353   1.371  -0.259  1.00  0.00     0.243 C 
ATOM      5  O   UNL     1      -0.478   2.243  -0.271  1.00  0.00    -0.273 OA
ATOM      6  H   UNL     1      -0.740   0.855  -2.065  1.00  0.00     0.163 HD
BRANCH   4   7
ATOM      7  C   UNL     1      -2.262   1.122   0.991  1.00  0.00     0.181 C 
BRANCH   7   8
ATOM      8  C   UNL     1      -1.822   2.061   2.146  1.00  0.00     0.038 C 
BRANCH   8   9
ATOM      9  C   UNL     1      -2.782   2.567   3.233  1.00  0.00    -0.015 C 
ATOM     10  C   UNL     1      -3.443   1.475   4.062  1.00  0.00     0.007 C 
ATOM     11  C   UNL     1      -1.982   3.485   4.176  1.00  0.00     0.007 C 
ENDBRANCH   8   9
ENDBRANCH   7   8
BRANCH   7  12
ATOM     12  N   UNL     1      -3.695   1.016   0.644  1.00  0.00    -0.280 N 
ATOM     13  C   UNL     1      -4.333  -0.178   0.928  1.00  0.00     0.267 C 
ATOM     14  C   UNL     1      -4.514   1.978   0.099  1.00  0.00     0.149 C 
ATOM     15  O   UNL     1      -4.021  -0.944   1.827  1.00  0.00    -0.268 OA
ATOM     16  C   UNL     1      -5.555  -0.330   0.086  1.00  0.00     0.093 C 
ATOM     17  S   UNL     1      -6.111   1.262  -0.268  1.00  0.00    -0.053 SA
ATOM     18  S   UNL     1      -4.144   3.551  -0.302  1.00  0.00    -0.052 S 
ATOM     19  C   UNL     1      -6.007  -1.509  -0.377  1.00  0.00     0.069 C 
ATOM     20  C   UNL     1      -5.207  -2.778  -0.138  1.00  0.00     0.257 C 
ATOM     21  C   UNL     1      -7.185  -1.928  -1.177  1.00  0.00     0.013 A 
ATOM     22  O   UNL     1      -4.035  -2.898   0.158  1.00  0.00    -0.269 OA
ATOM     23  N   UNL     1      -6.022  -3.810  -0.537  1.00  0.00    -0.321 N 
ATOM     24  C   UNL     1      -7.151  -3.336  -1.179  1.00  0.00     0.049 A 
ATOM     25  C   UNL     1      -8.185  -1.291  -1.897  1.00  0.00     0.026 A 
ATOM     26  H   UNL     1      -5.827  -4.763  -0.385  1.00  0.00     0.170 HD
ATOM     27  C   UNL     1      -8.071  -4.139  -1.822  1.00  0.00     0.028 A 
ATOM     28  C   UNL     1      -9.125  -2.098  -2.571  1.00  0.00     0.018 A 
ATOM     29  C   UNL     1      -9.074  -3.501  -2.532  1.00  0.00     0.018 A 
ATOM     30  Br  UNL     1     -10.530  -1.343  -3.583  1.00  0.00    -0.051 Br
ENDBRANCH   7  12
ENDBRANCH   4   7
ENDBRANCH   2   3
ENDBRANCH   1   2
BRANCH   1  31
ATOM     31  C   UNL     1      -2.993   0.290  -3.930  1.00  0.00     0.118 C 
BRANCH  31  32
ATOM     32  N   UNL     1      -2.983  -0.757  -4.935  1.00  0.00    -0.352 N 
ATOM     33  C   UNL     1      -3.960  -1.130  -5.826  1.00  0.00     0.251 C 
ATOM     34  H   UNL     1      -2.149  -1.278  -4.987  1.00  0.00     0.163 HD
ATOM     35  O   UNL     1      -3.861  -2.204  -6.414  1.00  0.00    -0.269 OA
BRANCH  33  36
ATOM     36  C   UNL     1      -5.140  -0.268  -6.078  1.00  0.00     0.039 A 
ATOM     37  C   UNL     1      -6.392  -0.873  -6.244  1.00  0.00     0.014 A 
ATOM     38  C   UNL     1      -5.015   1.115  -6.234  1.00  0.00     0.014 A 
ATOM     39  C   UNL     1      -7.518  -0.089  -6.519  1.00  0.00     0.010 A 
ATOM     40  C   UNL     1      -6.145   1.903  -6.444  1.00  0.00     0.010 A 
ATOM     41  C   UNL     1      -7.403   1.306  -6.606  1.00  0.00    -0.014 A 
BRANCH  41  42
ATOM     42  C   UNL     1      -8.573   2.158  -6.931  1.00  0.00     0.031 A 
ATOM     43  C   UNL     1      -8.643   2.853  -8.257  1.00  0.00     0.074 A 
ATOM     44  C   UNL     1      -9.536   2.361  -6.016  1.00  0.00     0.049 A 
ATOM     45  N   UNL     1      -9.516   3.727  -8.682  1.00  0.00    -0.248 NA
ATOM     46  C   UNL     1      -7.555   2.571  -9.205  1.00  0.00     0.031 C 
ATOM     47  C   UNL     1      -9.529   1.808  -4.667  1.00  0.00     0.029 A 
ATOM     48  N   UNL     1     -10.710   3.068  -6.081  1.00  0.00    -0.354 N 
ATOM     49  C   UNL     1      -9.034   4.171  -9.905  1.00  0.00     0.074 A 
ATOM     50  C   UNL     1      -7.807   3.448 -10.165  1.00  0.00     0.031 C 
ATOM     51  C   UNL     1     -10.689   2.112  -4.064  1.00  0.00     0.029 A 
ATOM     52  C   UNL     1     -11.499   2.922  -4.965  1.00  0.00     0.049 A 
ATOM     53  H   UNL     1     -10.962   3.626  -6.852  1.00  0.00     0.167 HD
ATOM     54  C   UNL     1      -9.556   5.122 -10.716  1.00  0.00     0.037 A 
ATOM     55  C   UNL     1     -12.739   3.379  -4.709  1.00  0.00     0.037 A 
ATOM     56  C   UNL     1     -10.800   5.799 -10.465  1.00  0.00     0.049 A 
ATOM     57  C   UNL     1     -13.387   4.295  -5.708  1.00  0.00     0.074 A 
ATOM     58  C   UNL     1     -11.426   6.771 -11.225  1.00  0.00     0.029 A 
ATOM     59  N   UNL     1     -11.618   5.559  -9.370  1.00  0.00    -0.354 N 
ATOM     60  N   UNL     1     -12.919   4.719  -6.857  1.00  0.00    -0.248 NA
ATOM     61  C   UNL     1     -14.709   4.834  -5.361  1.00  0.00     0.031 C 
ATOM     62  C   UNL     1     -12.614   7.131 -10.580  1.00  0.00     0.029 A 
ATOM     63  C   UNL     1     -12.745   6.360  -9.435  1.00  0.00     0.049 A 
ATOM     64  H   UNL     1     -11.425   4.913  -8.652  1.00  0.00     0.167 HD
ATOM     65  C   UNL     1     -13.871   5.595  -7.356  1.00  0.00     0.074 A 
ATOM     66  C   UNL     1     -14.969   5.603  -6.410  1.00  0.00     0.031 C 
ATOM     67  C   UNL     1     -13.824   6.350  -8.481  1.00  0.00     0.037 A 
BRANCH  54  68
ATOM     68  C   UNL     1      -8.738   5.517 -11.908  1.00  0.00     0.057 A 
ATOM     69  C   UNL     1      -8.579   4.681 -13.019  1.00  0.00     0.134 A 
ATOM     70  C   UNL     1      -8.066   6.747 -11.922  1.00  0.00     0.134 A 
ATOM     71  F   UNL     1      -9.176   3.481 -13.057  1.00  0.00    -0.206 F 
ATOM     72  C   UNL     1      -7.751   5.037 -14.086  1.00  0.00     0.040 A 
ATOM     73  C   UNL     1      -7.256   7.125 -12.994  1.00  0.00     0.040 A 
ATOM     74  F   UNL     1      -8.175   7.595 -10.888  1.00  0.00    -0.206 F 
ATOM     75  C   UNL     1      -7.089   6.263 -14.075  1.00  0.00     0.006 A 
ENDBRANCH  54  68
BRANCH  55  76
ATOM     76  C   UNL     1     -13.457   2.949  -3.482  1.00  0.00     0.057 A 
ATOM     77  C   UNL     1     -14.556   2.084  -3.568  1.00  0.00     0.134 A 
ATOM     78  C   UNL     1     -13.057   3.350  -2.202  1.00  0.00     0.134 A 
ATOM     79  F   UNL     1     -15.002   1.678  -4.766  1.00  0.00    -0.206 F 
ATOM     80  C   UNL     1     -15.231   1.637  -2.431  1.00  0.00     0.040 A 
ATOM     81  C   UNL     1     -13.707   2.891  -1.054  1.00  0.00     0.040 A 
ATOM     82  F   UNL     1     -12.007   4.170  -2.047  1.00  0.00    -0.206 F 
ATOM     83  C   UNL     1     -14.800   2.034  -1.167  1.00  0.00     0.006 A 
ENDBRANCH  55  76
BRANCH  67  84
ATOM     84  C   UNL     1     -14.986   7.257  -8.741  1.00  0.00     0.057 A 
ATOM     85  C   UNL     1     -15.137   8.464  -8.047  1.00  0.00     0.134 A 
ATOM     86  C   UNL     1     -15.920   6.957  -9.739  1.00  0.00     0.134 A 
ATOM     87  F   UNL     1     -14.278   8.800  -7.073  1.00  0.00    -0.206 F 
ATOM     88  C   UNL     1     -16.184   9.340  -8.333  1.00  0.00     0.040 A 
ATOM     89  C   UNL     1     -16.962   7.832 -10.045  1.00  0.00     0.040 A 
ATOM     90  F   UNL     1     -15.824   5.817 -10.441  1.00  0.00    -0.206 F 
ATOM     91  C   UNL     1     -17.096   9.028  -9.340  1.00  0.00     0.006 A 
ENDBRANCH  67  84
ENDBRANCH  41  42
ENDBRANCH  33  36
ENDBRANCH  31  32
ENDBRANCH   1  31
TORSDOF 13
