REMARK SMILES Cc1cc(F)cc(N[C@](C)(C(=O)NCCCNC(=O)c2ccc(-c3c4nc(c(-c5c(F)cccc5F)c5ccc([nH]5)c(-c5c(F)cccc5F)c5nc(c(-c6c(F)cccc6F)c6ccc3[nH]6)C=C5)C=C4)cc2)c2cccc(F)c2)c1
REMARK SMILES IDX 15 1 14 2 13 3 11 4 12 5 9 7 10 8 8 9 7 11 1 12 2 13 3 14
REMARK SMILES IDX 81 15 4 16 5 17 6 18 74 19 75 20 80 21 76 22 78 23 77 24
REMARK SMILES IDX 79 25 16 26 17 27 18 28 19 30 20 31 21 32 73 33 22 34 72 35
REMARK SMILES IDX 23 36 24 37 25 38 66 39 26 40 71 41 65 42 67 43 27 44 70 45
REMARK SMILES IDX 64 46 63 47 28 49 54 50 37 51 53 52 38 53 41 54 52 55 68 56
REMARK SMILES IDX 39 57 40 58 51 60 69 61 42 62 29 63 30 64 35 65 31 66 32 67
REMARK SMILES IDX 34 68 36 69 33 70 55 71 56 72 61 73 57 74 58 75 60 76 62 77
REMARK SMILES IDX 59 78 43 79 44 80 49 81 45 82 46 83 48 84 50 85 47 86
REMARK H PARENT 13 6 8 10 17 29 67 48 41 59
REMARK Flexibility Score: inf
ROOT
ATOM      1  C   UNL     1      -3.962  -6.375   1.230  1.00  0.00     0.042 C 
ENDROOT
BRANCH   1   2
ATOM      2  C   UNL     1      -3.855  -4.928   0.752  1.00  0.00     0.117 C 
BRANCH   2   3
ATOM      3  N   UNL     1      -2.831  -4.212   1.484  1.00  0.00    -0.354 N 
ATOM      4  C   UNL     1      -1.507  -4.009   1.246  1.00  0.00     0.250 C 
ATOM      5  O   UNL     1      -0.853  -3.699   2.256  1.00  0.00    -0.272 OA
ATOM      6  H   UNL     1      -3.155  -3.792   2.313  1.00  0.00     0.163 HD
BRANCH   4   7
ATOM      7  C   UNL     1      -0.792  -4.160  -0.170  1.00  0.00     0.139 C 
ATOM      8  C   UNL     1      -1.631  -3.864  -1.438  1.00  0.00     0.051 C 
BRANCH   7   9
ATOM      9  N   UNL     1       0.317  -3.149  -0.188  1.00  0.00    -0.368 N 
ATOM     10  H   UNL     1       1.229  -3.506  -0.287  1.00  0.00     0.161 HD
BRANCH   9  11
ATOM     11  C   UNL     1       0.205  -1.763  -0.080  1.00  0.00     0.038 A 
ATOM     12  C   UNL     1       2.680   1.171  -0.082  1.00  0.00     0.044 C 
ATOM     13  C   UNL     1       1.398   0.396  -0.051  1.00  0.00    -0.046 A 
ATOM     14  C   UNL     1       0.182   1.067   0.073  1.00  0.00     0.042 A 
ATOM     15  C   UNL     1       1.393  -1.007  -0.144  1.00  0.00     0.029 A 
ATOM     16  C   UNL     1      -0.996   0.336   0.115  1.00  0.00     0.125 A 
ATOM     17  F   UNL     1      -2.164   0.980   0.240  1.00  0.00    -0.207 F 
ATOM     18  C   UNL     1      -0.991  -1.056   0.039  1.00  0.00     0.065 A 
ENDBRANCH   9  11
ENDBRANCH   7   9
BRANCH   7  19
ATOM     19  C   UNL     1      -0.213  -5.612  -0.244  1.00  0.00    -0.011 A 
ATOM     20  C   UNL     1       1.099  -5.952   0.148  1.00  0.00     0.007 A 
ATOM     21  C   UNL     1      -1.042  -6.691  -0.619  1.00  0.00     0.046 A 
ATOM     22  C   UNL     1       1.548  -7.284   0.162  1.00  0.00     0.003 A 
ATOM     23  C   UNL     1      -0.597  -8.012  -0.580  1.00  0.00     0.123 A 
ATOM     24  C   UNL     1       0.693  -8.319  -0.193  1.00  0.00     0.039 A 
ATOM     25  F   UNL     1      -1.447  -8.997  -0.899  1.00  0.00    -0.207 F 
ENDBRANCH   7  19
ENDBRANCH   4   7
ENDBRANCH   2   3
ENDBRANCH   1   2
BRANCH   1  26
ATOM     26  C   UNL     1      -4.642  -6.528   2.585  1.00  0.00     0.118 C 
BRANCH  26  27
ATOM     27  N   UNL     1      -6.069  -6.259   2.514  1.00  0.00    -0.352 N 
ATOM     28  C   UNL     1      -7.141  -7.077   2.768  1.00  0.00     0.251 C 
ATOM     29  H   UNL     1      -6.303  -5.343   2.240  1.00  0.00     0.163 HD
ATOM     30  O   UNL     1      -8.262  -6.711   2.427  1.00  0.00    -0.269 OA
BRANCH  28  31
ATOM     31  C   UNL     1      -6.972  -8.388   3.437  1.00  0.00     0.039 A 
ATOM     32  C   UNL     1      -7.805  -9.445   3.053  1.00  0.00     0.014 A 
ATOM     33  C   UNL     1      -6.062  -8.572   4.482  1.00  0.00     0.014 A 
ATOM     34  C   UNL     1      -7.705 -10.683   3.691  1.00  0.00     0.010 A 
ATOM     35  C   UNL     1      -5.904  -9.830   5.061  1.00  0.00     0.010 A 
ATOM     36  C   UNL     1      -6.740 -10.892   4.689  1.00  0.00    -0.014 A 
BRANCH  36  37
ATOM     37  C   UNL     1      -6.625 -12.203   5.377  1.00  0.00     0.031 A 
ATOM     38  C   UNL     1      -6.924 -12.318   6.847  1.00  0.00     0.074 A 
ATOM     39  C   UNL     1      -6.214 -13.285   4.688  1.00  0.00     0.049 A 
ATOM     40  N   UNL     1      -6.869 -13.371   7.623  1.00  0.00    -0.248 NA
ATOM     41  C   UNL     1      -7.310 -11.081   7.543  1.00  0.00     0.031 C 
ATOM     42  C   UNL     1      -5.846 -13.296   3.272  1.00  0.00     0.029 A 
ATOM     43  N   UNL     1      -6.040 -14.586   5.088  1.00  0.00    -0.354 N 
ATOM     44  C   UNL     1      -7.191 -12.919   8.897  1.00  0.00     0.074 A 
ATOM     45  C   UNL     1      -7.387 -11.489   8.800  1.00  0.00     0.031 C 
ATOM     46  C   UNL     1      -5.529 -14.550   2.911  1.00  0.00     0.029 A 
ATOM     47  C   UNL     1      -5.642 -15.423   4.075  1.00  0.00     0.049 A 
ATOM     48  H   UNL     1      -6.187 -14.890   6.013  1.00  0.00     0.167 HD
ATOM     49  C   UNL     1      -7.336 -13.632  10.040  1.00  0.00     0.037 A 
ATOM     50  C   UNL     1      -5.405 -16.748   4.083  1.00  0.00     0.037 A 
ATOM     51  C   UNL     1      -7.175 -15.059  10.128  1.00  0.00     0.049 A 
ATOM     52  C   UNL     1      -5.587 -17.522   5.357  1.00  0.00     0.074 A 
ATOM     53  C   UNL     1      -7.371 -15.885  11.221  1.00  0.00     0.029 A 
ATOM     54  N   UNL     1      -6.778 -15.873   9.078  1.00  0.00    -0.354 N 
ATOM     55  N   UNL     1      -5.961 -17.094   6.538  1.00  0.00    -0.248 NA
ATOM     56  C   UNL     1      -5.318 -18.966   5.297  1.00  0.00     0.031 C 
ATOM     57  C   UNL     1      -7.056 -17.195  10.841  1.00  0.00     0.029 A 
ATOM     58  C   UNL     1      -6.702 -17.189   9.502  1.00  0.00     0.049 A 
ATOM     59  H   UNL     1      -6.578 -15.561   8.166  1.00  0.00     0.167 HD
ATOM     60  C   UNL     1      -5.998 -18.216   7.355  1.00  0.00     0.074 A 
ATOM     61  C   UNL     1      -5.617 -19.346   6.532  1.00  0.00     0.031 C 
ATOM     62  C   UNL     1      -6.323 -18.302   8.668  1.00  0.00     0.037 A 
BRANCH  49  63
ATOM     63  C   UNL     1      -7.687 -12.868  11.284  1.00  0.00     0.057 A 
ATOM     64  C   UNL     1      -8.947 -12.279  11.460  1.00  0.00     0.134 A 
ATOM     65  C   UNL     1      -6.756 -12.718  12.319  1.00  0.00     0.134 A 
ATOM     66  F   UNL     1      -9.881 -12.374  10.501  1.00  0.00    -0.206 F 
ATOM     67  C   UNL     1      -9.255 -11.537  12.601  1.00  0.00     0.040 A 
ATOM     68  C   UNL     1      -7.061 -12.002  13.478  1.00  0.00     0.040 A 
ATOM     69  F   UNL     1      -5.534 -13.262  12.221  1.00  0.00    -0.206 F 
ATOM     70  C   UNL     1      -8.310 -11.399  13.617  1.00  0.00     0.006 A 
ENDBRANCH  49  63
BRANCH  50  71
ATOM     71  C   UNL     1      -5.028 -17.432   2.822  1.00  0.00     0.057 A 
ATOM     72  C   UNL     1      -5.944 -18.250   2.151  1.00  0.00     0.134 A 
ATOM     73  C   UNL     1      -3.764 -17.267   2.245  1.00  0.00     0.134 A 
ATOM     74  F   UNL     1      -7.165 -18.457   2.665  1.00  0.00    -0.206 F 
ATOM     75  C   UNL     1      -5.616 -18.885   0.953  1.00  0.00     0.040 A 
ATOM     76  C   UNL     1      -3.428 -17.880   1.037  1.00  0.00     0.040 A 
ATOM     77  F   UNL     1      -2.846 -16.489   2.837  1.00  0.00    -0.206 F 
ATOM     78  C   UNL     1      -4.356 -18.695   0.389  1.00  0.00     0.006 A 
ENDBRANCH  50  71
BRANCH  62  79
ATOM     79  C   UNL     1      -6.305 -19.667   9.289  1.00  0.00     0.057 A 
ATOM     80  C   UNL     1      -5.106 -20.324   9.592  1.00  0.00     0.134 A 
ATOM     81  C   UNL     1      -7.502 -20.314   9.620  1.00  0.00     0.134 A 
ATOM     82  F   UNL     1      -3.927 -19.762   9.287  1.00  0.00    -0.206 F 
ATOM     83  C   UNL     1      -5.099 -21.586  10.188  1.00  0.00     0.040 A 
ATOM     84  C   UNL     1      -7.507 -21.566  10.236  1.00  0.00     0.040 A 
ATOM     85  F   UNL     1      -8.684 -19.736   9.362  1.00  0.00    -0.206 F 
ATOM     86  C   UNL     1      -6.302 -22.208  10.517  1.00  0.00     0.006 A 
ENDBRANCH  62  79
ENDBRANCH  36  37
ENDBRANCH  28  31
ENDBRANCH  26  27
ENDBRANCH   1  26
TORSDOF 13
