REMARK SMILES CCOC(=O)c1c(NC(=O)[C@@H]2[C@@H]3CC[C@@H](C3)[C@@H]2C(=O)NCCCNC(=O)c2ccc(-c3c4nc(c(-c5c(F)cccc5F)c5ccc([nH]5)c(-c5c(F)cccc5F)c5nc(c(-c6c(F)cccc6F)c6ccc3[nH]6)C=C5)C=C4)cc2)sc2c1CCCC2
REMARK SMILES IDX 18 1 19 2 20 3 17 5 11 6 12 7 13 8 16 9 15 10 14 11 9 12
REMARK SMILES IDX 8 13 10 15 7 16 6 17 83 18 81 19 82 20 84 21 87 22 85 23
REMARK SMILES IDX 86 24 4 25 5 26 3 27 2 28 1 29 21 30 22 31 23 32 24 33 25 34
REMARK SMILES IDX 26 36 27 37 28 38 80 39 29 40 79 41 30 42 31 43 32 44 73 45
REMARK SMILES IDX 33 46 78 47 72 48 74 49 34 50 77 51 71 52 70 53 35 55 61 56
REMARK SMILES IDX 44 57 60 58 45 59 48 60 59 61 75 62 46 63 47 64 58 66 76 67
REMARK SMILES IDX 49 68 36 69 37 70 42 71 38 72 39 73 41 74 43 75 40 76 62 77
REMARK SMILES IDX 63 78 68 79 64 80 65 81 67 82 69 83 66 84 50 85 51 86 56 87
REMARK SMILES IDX 52 88 53 89 55 90 57 91 54 92
REMARK H PARENT 20 4 8 14 24 35 74 54 48 65
REMARK Flexibility Score: inf
ROOT
ATOM      1  C   UNL     1       1.532  -0.821   0.392  1.00  0.00     0.224 C 
ATOM      2  O   UNL     1       1.808  -2.029   0.351  1.00  0.00    -0.275 OA
ATOM      3  N   UNL     1       1.270  -0.335   1.617  1.00  0.00    -0.356 N 
ATOM      4  H   UNL     1       1.295  -1.013   2.331  1.00  0.00     0.163 HD
ENDROOT
BRANCH   1   5
ATOM      5  C   UNL     1       1.544  -0.029  -0.910  1.00  0.00     0.094 C 
ATOM      6  C   UNL     1       2.741   0.870  -1.284  1.00  0.00     0.094 C 
ATOM      7  C   UNL     1       2.053   2.014  -2.066  1.00  0.00     0.002 C 
ATOM      8  C   UNL     1       1.180   2.894  -1.154  1.00  0.00     0.005 C 
ATOM      9  C   UNL     1       0.980   1.227  -2.835  1.00  0.00     0.009 C 
ATOM     10  C   UNL     1       0.322   0.686  -1.544  1.00  0.00     0.002 C 
ATOM     11  C   UNL     1      -0.065   2.030  -0.932  1.00  0.00     0.005 C 
BRANCH   6  12
ATOM     12  C   UNL     1       3.752   1.310  -0.259  1.00  0.00     0.229 C 
ATOM     13  N   UNL     1       4.986   1.749  -0.606  1.00  0.00    -0.317 N 
ATOM     14  H   UNL     1       5.512   2.024   0.179  1.00  0.00     0.170 HD
ATOM     15  O   UNL     1       3.507   1.330   0.949  1.00  0.00    -0.274 OA
BRANCH  13  16
ATOM     16  C   UNL     1       5.689   1.906  -1.775  1.00  0.00     0.110 A 
ATOM     17  C   UNL     1       5.606   1.663  -3.137  1.00  0.00     0.098 A 
ATOM     18  C   UNL     1       6.750   2.230  -3.826  1.00  0.00    -0.017 A 
ATOM     19  S   UNL     1       7.163   2.700  -1.358  1.00  0.00    -0.122 S 
ATOM     20  C   UNL     1       7.639   2.838  -2.969  1.00  0.00     0.011 A 
ATOM     21  C   UNL     1       6.970   2.216  -5.314  1.00  0.00     0.038 C 
ATOM     22  C   UNL     1       8.908   3.520  -3.373  1.00  0.00     0.047 C 
ATOM     23  C   UNL     1       8.414   2.583  -5.681  1.00  0.00     0.005 C 
ATOM     24  C   UNL     1       8.904   3.800  -4.884  1.00  0.00     0.006 C 
BRANCH  17  25
ATOM     25  C   UNL     1       4.567   1.003  -3.912  1.00  0.00     0.341 C 
ATOM     26  O   UNL     1       3.850   1.617  -4.691  1.00  0.00    -0.246 OA
BRANCH  25  27
ATOM     27  O   UNL     1       4.611  -0.358  -3.806  1.00  0.00    -0.462 OA
BRANCH  27  28
ATOM     28  C   UNL     1       3.805  -1.072  -4.759  1.00  0.00     0.230 C 
ATOM     29  C   UNL     1       3.146  -2.258  -4.084  1.00  0.00     0.049 C 
ENDBRANCH  27  28
ENDBRANCH  25  27
ENDBRANCH  17  25
ENDBRANCH  13  16
ENDBRANCH   6  12
ENDBRANCH   1   5
BRANCH   3  30
ATOM     30  C   UNL     1       0.960   0.995   2.083  1.00  0.00     0.117 C 
BRANCH  30  31
ATOM     31  C   UNL     1      -0.512   1.091   2.442  1.00  0.00     0.042 C 
BRANCH  31  32
ATOM     32  C   UNL     1      -0.781   0.466   3.798  1.00  0.00     0.118 C 
BRANCH  32  33
ATOM     33  N   UNL     1      -0.411   1.380   4.871  1.00  0.00    -0.352 N 
ATOM     34  C   UNL     1      -1.186   2.302   5.532  1.00  0.00     0.251 C 
ATOM     35  H   UNL     1       0.528   1.329   5.165  1.00  0.00     0.163 HD
ATOM     36  O   UNL     1      -0.656   3.212   6.163  1.00  0.00    -0.269 OA
BRANCH  34  37
ATOM     37  C   UNL     1      -2.660   2.199   5.482  1.00  0.00     0.039 A 
ATOM     38  C   UNL     1      -3.434   3.362   5.430  1.00  0.00     0.014 A 
ATOM     39  C   UNL     1      -3.282   0.951   5.541  1.00  0.00     0.014 A 
ATOM     40  C   UNL     1      -4.828   3.266   5.405  1.00  0.00     0.010 A 
ATOM     41  C   UNL     1      -4.656   0.851   5.392  1.00  0.00     0.010 A 
ATOM     42  C   UNL     1      -5.447   2.007   5.369  1.00  0.00    -0.014 A 
BRANCH  42  43
ATOM     43  C   UNL     1      -6.921   1.847   5.416  1.00  0.00     0.031 A 
ATOM     44  C   UNL     1      -7.536   1.095   6.569  1.00  0.00     0.074 A 
ATOM     45  C   UNL     1      -7.688   2.287   4.402  1.00  0.00     0.049 A 
ATOM     46  N   UNL     1      -8.764   0.672   6.724  1.00  0.00    -0.248 NA
ATOM     47  C   UNL     1      -6.631   0.720   7.670  1.00  0.00     0.031 C 
ATOM     48  C   UNL     1      -7.204   2.980   3.207  1.00  0.00     0.029 A 
ATOM     49  N   UNL     1      -9.042   2.196   4.210  1.00  0.00    -0.354 N 
ATOM     50  C   UNL     1      -8.762  -0.056   7.909  1.00  0.00     0.074 A 
ATOM     51  C   UNL     1      -7.404  -0.065   8.402  1.00  0.00     0.031 C 
ATOM     52  C   UNL     1      -8.249   3.268   2.414  1.00  0.00     0.029 A 
ATOM     53  C   UNL     1      -9.468   2.751   3.028  1.00  0.00     0.049 A 
ATOM     54  H   UNL     1      -9.651   1.773   4.857  1.00  0.00     0.167 HD
ATOM     55  C   UNL     1      -9.804  -0.639   8.546  1.00  0.00     0.037 A 
ATOM     56  C   UNL     1     -10.704   2.825   2.502  1.00  0.00     0.037 A 
ATOM     57  C   UNL     1     -11.164  -0.561   8.089  1.00  0.00     0.049 A 
ATOM     58  C   UNL     1     -11.859   2.241   3.267  1.00  0.00     0.074 A 
ATOM     59  C   UNL     1     -12.307  -1.063   8.685  1.00  0.00     0.029 A 
ATOM     60  N   UNL     1     -11.564   0.087   6.930  1.00  0.00    -0.354 N 
ATOM     61  N   UNL     1     -11.849   1.580   4.399  1.00  0.00    -0.248 NA
ATOM     62  C   UNL     1     -13.197   2.421   2.688  1.00  0.00     0.031 C 
ATOM     63  C   UNL     1     -13.400  -0.724   7.880  1.00  0.00     0.029 A 
ATOM     64  C   UNL     1     -12.938   0.009   6.798  1.00  0.00     0.049 A 
ATOM     65  H   UNL     1     -10.959   0.536   6.296  1.00  0.00     0.167 HD
ATOM     66  C   UNL     1     -13.176   1.283   4.678  1.00  0.00     0.074 A 
ATOM     67  C   UNL     1     -13.966   1.850   3.604  1.00  0.00     0.031 C 
ATOM     68  C   UNL     1     -13.696   0.598   5.726  1.00  0.00     0.037 A 
BRANCH  55  69
ATOM     69  C   UNL     1      -9.507  -1.385   9.813  1.00  0.00     0.057 A 
ATOM     70  C   UNL     1      -9.140  -0.718  10.991  1.00  0.00     0.134 A 
ATOM     71  C   UNL     1      -9.593  -2.781   9.862  1.00  0.00     0.134 A 
ATOM     72  F   UNL     1      -9.022   0.618  11.006  1.00  0.00    -0.206 F 
ATOM     73  C   UNL     1      -8.838  -1.415  12.161  1.00  0.00     0.040 A 
ATOM     74  C   UNL     1      -9.320  -3.488  11.035  1.00  0.00     0.040 A 
ATOM     75  F   UNL     1      -9.942  -3.482   8.773  1.00  0.00    -0.206 F 
ATOM     76  C   UNL     1      -8.933  -2.805  12.187  1.00  0.00     0.006 A 
ENDBRANCH  55  69
BRANCH  56  77
ATOM     77  C   UNL     1     -10.917   3.509   1.204  1.00  0.00     0.057 A 
ATOM     78  C   UNL     1     -11.528   4.767   1.147  1.00  0.00     0.134 A 
ATOM     79  C   UNL     1     -10.513   2.932  -0.004  1.00  0.00     0.134 A 
ATOM     80  F   UNL     1     -11.950   5.363   2.272  1.00  0.00    -0.206 F 
ATOM     81  C   UNL     1     -11.746   5.420  -0.067  1.00  0.00     0.040 A 
ATOM     82  C   UNL     1     -10.706   3.582  -1.225  1.00  0.00     0.040 A 
ATOM     83  F   UNL     1      -9.912   1.733  -0.015  1.00  0.00    -0.206 F 
ATOM     84  C   UNL     1     -11.331   4.828  -1.258  1.00  0.00     0.006 A 
ENDBRANCH  56  77
BRANCH  68  85
ATOM     85  C   UNL     1     -15.186   0.458   5.774  1.00  0.00     0.057 A 
ATOM     86  C   UNL     1     -15.864  -0.450   4.952  1.00  0.00     0.134 A 
ATOM     87  C   UNL     1     -15.942   1.206   6.684  1.00  0.00     0.134 A 
ATOM     88  F   UNL     1     -15.193  -1.185   4.053  1.00  0.00    -0.206 F 
ATOM     89  C   UNL     1     -17.249  -0.597   5.023  1.00  0.00     0.040 A 
ATOM     90  C   UNL     1     -17.325   1.053   6.777  1.00  0.00     0.040 A 
ATOM     91  F   UNL     1     -15.347   2.086   7.503  1.00  0.00    -0.206 F 
ATOM     92  C   UNL     1     -17.983   0.151   5.942  1.00  0.00     0.006 A 
ENDBRANCH  68  85
ENDBRANCH  42  43
ENDBRANCH  34  37
ENDBRANCH  32  33
ENDBRANCH  31  32
ENDBRANCH  30  31
ENDBRANCH   3  30
TORSDOF 15
