REMARK SMILES Nc1nc(N2CCCCC2)nc2c1[C@H](C(=O)NCCCNC(=O)c1ccc(-c3c4nc(c(-c5c(F)cccc5F)c5ccc([nH]5)c(-c5c(F)cccc5F)c5nc(c(-c6c(F)cccc6F)c6ccc3[nH]6)C=C5)C=C4)cc1)CC(=O)N2
REMARK SMILES IDX 19 1 18 2 17 3 15 4 16 5 14 7 2 8 3 9 13 10 4 11 12 12 11 13
REMARK SMILES IDX 81 14 78 15 79 16 80 18 1 19 5 22 6 23 10 24 7 25 9 26 8 27
REMARK SMILES IDX 20 28 21 29 22 30 23 32 24 33 25 34 77 35 26 36 76 37 27 38
REMARK SMILES IDX 28 39 29 40 70 41 30 42 75 43 69 44 71 45 31 46 74 47 68 48
REMARK SMILES IDX 67 49 32 51 58 52 41 53 57 54 42 55 45 56 56 57 72 58 43 59
REMARK SMILES IDX 44 60 55 62 73 63 46 64 33 65 34 66 39 67 35 68 36 69 38 70
REMARK SMILES IDX 40 71 37 72 59 73 60 74 65 75 61 76 62 77 64 78 66 79 63 80
REMARK SMILES IDX 47 81 48 82 53 83 49 84 50 85 52 86 54 87 51 88
REMARK H PARENT 17 6 81 17 1 20 1 21 21 31 71 50 45 61
REMARK Flexibility Score: inf
ROOT
ATOM      1  C   UNL     1      -5.218  -1.293   0.488  1.00  0.00     0.042 C 
ENDROOT
BRANCH   1   2
ATOM      2  C   UNL     1      -4.153  -2.378   0.414  1.00  0.00     0.117 C 
BRANCH   2   3
ATOM      3  N   UNL     1      -2.990  -1.948  -0.346  1.00  0.00    -0.355 N 
ATOM      4  C   UNL     1      -1.758  -1.481  -0.053  1.00  0.00     0.228 C 
ATOM      5  O   UNL     1      -1.062  -1.234  -1.052  1.00  0.00    -0.274 OA
ATOM      6  H   UNL     1      -3.139  -2.013  -1.317  1.00  0.00     0.163 HD
BRANCH   4   7
ATOM      7  C   UNL     1      -1.166  -1.226   1.339  1.00  0.00     0.125 C 
ATOM      8  C   UNL     1       0.195   0.892   0.899  1.00  0.00     0.135 A 
ATOM      9  N   UNL     1       0.499   2.167   1.158  1.00  0.00    -0.196 NA
ATOM     10  C   UNL     1      -0.819   0.227   1.553  1.00  0.00     0.050 A 
ATOM     11  C   UNL     1      -0.199   2.810   2.103  1.00  0.00     0.229 A 
ATOM     12  C   UNL     1      -1.523   0.996   2.451  1.00  0.00     0.144 A 
ATOM     13  N   UNL     1      -1.239   2.269   2.746  1.00  0.00    -0.195 NA
ATOM     14  N   UNL     1      -2.609   0.441   3.117  1.00  0.00    -0.310 N 
ATOM     15  C   UNL     1      -1.832  -1.803   2.575  1.00  0.00     0.119 C 
ATOM     16  C   UNL     1      -2.902  -0.890   3.127  1.00  0.00     0.226 C 
ATOM     17  H   UNL     1      -3.205   1.047   3.614  1.00  0.00     0.171 HD
ATOM     18  O   UNL     1      -3.931  -1.319   3.641  1.00  0.00    -0.275 OA
BRANCH   8  19
ATOM     19  N   UNL     1       1.018   0.257  -0.013  1.00  0.00    -0.383 N 
ATOM     20  H   UNL     1       1.734   0.760  -0.464  1.00  0.00     0.158 HD
ATOM     21  H   UNL     1       0.887  -0.699  -0.212  1.00  0.00     0.158 HD
ENDBRANCH   8  19
BRANCH  11  22
ATOM     22  N   UNL     1       0.261   4.047   2.477  1.00  0.00    -0.341 N 
ATOM     23  C   UNL     1       0.155   5.121   1.510  1.00  0.00     0.119 C 
ATOM     24  C   UNL     1       0.291   4.388   3.884  1.00  0.00     0.119 C 
ATOM     25  C   UNL     1       1.301   6.109   1.725  1.00  0.00     0.022 C 
ATOM     26  C   UNL     1       1.480   5.324   4.120  1.00  0.00     0.022 C 
ATOM     27  C   UNL     1       1.425   6.536   3.189  1.00  0.00     0.004 C 
ENDBRANCH  11  22
ENDBRANCH   4   7
ENDBRANCH   2   3
ENDBRANCH   1   2
BRANCH   1  28
ATOM     28  C   UNL     1      -5.921  -1.066  -0.847  1.00  0.00     0.118 C 
BRANCH  28  29
ATOM     29  N   UNL     1      -6.743  -2.206  -1.238  1.00  0.00    -0.352 N 
ATOM     30  C   UNL     1      -8.094  -2.414  -1.107  1.00  0.00     0.251 C 
ATOM     31  H   UNL     1      -6.250  -2.944  -1.664  1.00  0.00     0.163 HD
ATOM     32  O   UNL     1      -8.552  -3.542  -1.256  1.00  0.00    -0.269 OA
BRANCH  30  33
ATOM     33  C   UNL     1      -9.001  -1.292  -0.787  1.00  0.00     0.039 A 
ATOM     34  C   UNL     1     -10.054  -1.502   0.107  1.00  0.00     0.014 A 
ATOM     35  C   UNL     1      -8.857  -0.053  -1.417  1.00  0.00     0.014 A 
ATOM     36  C   UNL     1     -10.932  -0.457   0.402  1.00  0.00     0.010 A 
ATOM     37  C   UNL     1      -9.677   1.011  -1.057  1.00  0.00     0.010 A 
ATOM     38  C   UNL     1     -10.738   0.814  -0.162  1.00  0.00    -0.014 A 
BRANCH  38  39
ATOM     39  C   UNL     1     -11.668   1.931   0.131  1.00  0.00     0.031 A 
ATOM     40  C   UNL     1     -12.520   2.507  -0.968  1.00  0.00     0.074 A 
ATOM     41  C   UNL     1     -11.727   2.446   1.374  1.00  0.00     0.049 A 
ATOM     42  N   UNL     1     -13.384   3.488  -0.915  1.00  0.00    -0.248 NA
ATOM     43  C   UNL     1     -12.363   1.920  -2.310  1.00  0.00     0.031 C 
ATOM     44  C   UNL     1     -10.919   2.003   2.511  1.00  0.00     0.029 A 
ATOM     45  N   UNL     1     -12.506   3.451   1.891  1.00  0.00    -0.354 N 
ATOM     46  C   UNL     1     -13.866   3.635  -2.209  1.00  0.00     0.074 A 
ATOM     47  C   UNL     1     -13.151   2.694  -3.041  1.00  0.00     0.031 C 
ATOM     48  C   UNL     1     -11.274   2.704   3.601  1.00  0.00     0.029 A 
ATOM     49  C   UNL     1     -12.310   3.664   3.234  1.00  0.00     0.049 A 
ATOM     50  H   UNL     1     -13.144   3.970   1.350  1.00  0.00     0.167 HD
ATOM     51  C   UNL     1     -14.845   4.454  -2.659  1.00  0.00     0.037 A 
ATOM     52  C   UNL     1     -12.907   4.531   4.074  1.00  0.00     0.037 A 
ATOM     53  C   UNL     1     -15.583   5.360  -1.823  1.00  0.00     0.049 A 
ATOM     54  C   UNL     1     -13.975   5.448   3.547  1.00  0.00     0.074 A 
ATOM     55  C   UNL     1     -16.643   6.179  -2.167  1.00  0.00     0.029 A 
ATOM     56  N   UNL     1     -15.337   5.562  -0.473  1.00  0.00    -0.354 N 
ATOM     57  N   UNL     1     -14.472   5.524   2.336  1.00  0.00    -0.248 NA
ATOM     58  C   UNL     1     -14.562   6.404   4.498  1.00  0.00     0.031 C 
ATOM     59  C   UNL     1     -17.014   6.907  -1.034  1.00  0.00     0.029 A 
ATOM     60  C   UNL     1     -16.207   6.516   0.024  1.00  0.00     0.049 A 
ATOM     61  H   UNL     1     -14.647   5.097   0.052  1.00  0.00     0.167 HD
ATOM     62  C   UNL     1     -15.436   6.522   2.382  1.00  0.00     0.074 A 
ATOM     63  C   UNL     1     -15.467   7.013   3.744  1.00  0.00     0.031 C 
ATOM     64  C   UNL     1     -16.222   6.991   1.383  1.00  0.00     0.037 A 
BRANCH  51  65
ATOM     65  C   UNL     1     -15.195   4.385  -4.115  1.00  0.00     0.057 A 
ATOM     66  C   UNL     1     -15.873   3.282  -4.653  1.00  0.00     0.134 A 
ATOM     67  C   UNL     1     -14.897   5.445  -4.979  1.00  0.00     0.134 A 
ATOM     68  F   UNL     1     -16.179   2.229  -3.879  1.00  0.00    -0.206 F 
ATOM     69  C   UNL     1     -16.223   3.228  -6.002  1.00  0.00     0.040 A 
ATOM     70  C   UNL     1     -15.263   5.412  -6.326  1.00  0.00     0.040 A 
ATOM     71  F   UNL     1     -14.255   6.533  -4.528  1.00  0.00    -0.206 F 
ATOM     72  C   UNL     1     -15.924   4.299  -6.842  1.00  0.00     0.006 A 
ENDBRANCH  51  65
BRANCH  52  73
ATOM     73  C   UNL     1     -12.536   4.539   5.511  1.00  0.00     0.057 A 
ATOM     74  C   UNL     1     -13.416   4.046   6.481  1.00  0.00     0.134 A 
ATOM     75  C   UNL     1     -11.296   5.018   5.949  1.00  0.00     0.134 A 
ATOM     76  F   UNL     1     -14.625   3.589   6.125  1.00  0.00    -0.206 F 
ATOM     77  C   UNL     1     -13.079   4.034   7.836  1.00  0.00     0.040 A 
ATOM     78  C   UNL     1     -10.937   4.993   7.298  1.00  0.00     0.040 A 
ATOM     79  F   UNL     1     -10.406   5.500   5.068  1.00  0.00    -0.206 F 
ATOM     80  C   UNL     1     -11.833   4.503   8.247  1.00  0.00     0.006 A 
ENDBRANCH  52  73
BRANCH  64  81
ATOM     81  C   UNL     1     -17.178   8.098   1.709  1.00  0.00     0.057 A 
ATOM     82  C   UNL     1     -16.737   9.418   1.854  1.00  0.00     0.134 A 
ATOM     83  C   UNL     1     -18.557   7.861   1.763  1.00  0.00     0.134 A 
ATOM     84  F   UNL     1     -15.427   9.705   1.821  1.00  0.00    -0.206 F 
ATOM     85  C   UNL     1     -17.637  10.468   2.038  1.00  0.00     0.040 A 
ATOM     86  C   UNL     1     -19.468   8.905   1.925  1.00  0.00     0.040 A 
ATOM     87  F   UNL     1     -19.042   6.618   1.619  1.00  0.00    -0.206 F 
ATOM     88  C   UNL     1     -19.008  10.214   2.061  1.00  0.00     0.006 A 
ENDBRANCH  64  81
ENDBRANCH  38  39
ENDBRANCH  30  33
ENDBRANCH  28  29
ENDBRANCH   1  28
TORSDOF 12
