REMARK SMILES N#Cc1cnc2cc(C(=O)NCCCNC(=O)c3ccc(-c4c5nc(c(-c6c(F)cccc6F)c6ccc([nH]6)c(-c6c(F)cccc6F)c6nc(c(-c7c(F)cccc7F)c7ccc4[nH]7)C=C6)C=C5)cc3)[nH]c2c1
REMARK SMILES IDX 13 1 12 2 11 3 9 4 10 5 8 7 3 8 4 9 74 10 5 11 73 12 6 13
REMARK SMILES IDX 72 14 7 15 2 17 1 18 14 19 15 20 16 21 17 23 18 24 19 25
REMARK SMILES IDX 71 26 20 27 70 28 21 29 22 30 23 31 64 32 24 33 69 34 63 35
REMARK SMILES IDX 65 36 25 37 68 38 62 39 61 40 26 42 52 43 35 44 51 45 36 46
REMARK SMILES IDX 39 47 50 48 66 49 37 50 38 51 49 53 67 54 40 55 27 56 28 57
REMARK SMILES IDX 33 58 29 59 30 60 32 61 34 62 31 63 53 64 54 65 59 66 55 67
REMARK SMILES IDX 56 68 58 69 60 70 57 71 41 72 42 73 47 74 43 75 44 76 46 77
REMARK SMILES IDX 48 78 45 79
REMARK H PARENT 11 6 72 16 15 22 65 41 39 52
REMARK Flexibility Score: inf
ROOT
ATOM      1  C   UNL     1      10.845  -0.494  -1.956  1.00  0.00     0.042 C 
ENDROOT
BRANCH   1   2
ATOM      2  C   UNL     1      10.871   0.368  -0.688  1.00  0.00     0.118 C 
BRANCH   2   3
ATOM      3  N   UNL     1      10.386   1.720  -0.909  1.00  0.00    -0.351 N 
ATOM      4  C   UNL     1       9.153   2.287  -0.731  1.00  0.00     0.267 C 
ATOM      5  O   UNL     1       9.071   3.505  -0.894  1.00  0.00    -0.268 OA
ATOM      6  H   UNL     1      11.069   2.341  -1.250  1.00  0.00     0.163 HD
BRANCH   4   7
ATOM      7  C   UNL     1       7.981   1.505  -0.407  1.00  0.00     0.107 A 
ATOM      8  C   UNL     1       3.626   0.154  -0.034  1.00  0.00     0.072 A 
ATOM      9  C   UNL     1       4.315  -1.053   0.028  1.00  0.00     0.131 A 
ATOM     10  C   UNL     1       4.348   1.352  -0.100  1.00  0.00     0.049 A 
ATOM     11  N   UNL     1       5.659  -1.192   0.019  1.00  0.00    -0.253 NA
ATOM     12  C   UNL     1       5.737   1.218  -0.142  1.00  0.00     0.066 A 
ATOM     13  C   UNL     1       6.342  -0.030  -0.087  1.00  0.00     0.089 A 
ATOM     14  N   UNL     1       6.751   2.135  -0.266  1.00  0.00    -0.349 N 
ATOM     15  C   UNL     1       7.733   0.156  -0.217  1.00  0.00     0.062 A 
ATOM     16  H   UNL     1       6.623   3.111  -0.256  1.00  0.00     0.167 HD
BRANCH   8  17
ATOM     17  C   UNL     1       2.205   0.150  -0.056  1.00  0.00     0.101 C 
ATOM     18  N   UNL     1       1.035   0.134  -0.087  1.00  0.00    -0.192 NA
ENDBRANCH   8  17
ENDBRANCH   4   7
ENDBRANCH   2   3
ENDBRANCH   1   2
BRANCH   1  19
ATOM     19  C   UNL     1      12.079  -0.240  -2.806  1.00  0.00     0.118 C 
BRANCH  19  20
ATOM     20  N   UNL     1      13.321  -0.727  -2.186  1.00  0.00    -0.352 N 
ATOM     21  C   UNL     1      14.594  -0.809  -2.725  1.00  0.00     0.251 C 
ATOM     22  H   UNL     1      13.235  -1.039  -1.256  1.00  0.00     0.163 HD
ATOM     23  O   UNL     1      15.453  -1.506  -2.198  1.00  0.00    -0.269 OA
BRANCH  21  24
ATOM     24  C   UNL     1      14.905  -0.028  -3.938  1.00  0.00     0.039 A 
ATOM     25  C   UNL     1      15.793  -0.469  -4.920  1.00  0.00     0.014 A 
ATOM     26  C   UNL     1      14.238   1.179  -4.097  1.00  0.00     0.014 A 
ATOM     27  C   UNL     1      15.976   0.334  -6.046  1.00  0.00     0.010 A 
ATOM     28  C   UNL     1      14.161   1.760  -5.325  1.00  0.00     0.010 A 
ATOM     29  C   UNL     1      15.147   1.459  -6.233  1.00  0.00    -0.014 A 
BRANCH  29  30
ATOM     30  C   UNL     1      15.162   2.267  -7.442  1.00  0.00     0.031 A 
ATOM     31  C   UNL     1      14.946   1.431  -8.639  1.00  0.00     0.074 A 
ATOM     32  C   UNL     1      15.200   3.621  -7.474  1.00  0.00     0.049 A 
ATOM     33  N   UNL     1      15.870   0.993  -9.420  1.00  0.00    -0.248 NA
ATOM     34  C   UNL     1      13.635   0.796  -8.848  1.00  0.00     0.031 C 
ATOM     35  C   UNL     1      15.133   4.590  -6.372  1.00  0.00     0.029 A 
ATOM     36  N   UNL     1      15.294   4.437  -8.566  1.00  0.00    -0.354 N 
ATOM     37  C   UNL     1      15.221   0.245 -10.389  1.00  0.00     0.074 A 
ATOM     38  C   UNL     1      13.910  -0.027  -9.864  1.00  0.00     0.031 C 
ATOM     39  C   UNL     1      14.987   5.847  -6.863  1.00  0.00     0.029 A 
ATOM     40  C   UNL     1      15.120   5.803  -8.307  1.00  0.00     0.049 A 
ATOM     41  H   UNL     1      15.471   4.090  -9.470  1.00  0.00     0.167 HD
ATOM     42  C   UNL     1      15.746   0.184 -11.642  1.00  0.00     0.037 A 
ATOM     43  C   UNL     1      15.138   6.812  -9.224  1.00  0.00     0.037 A 
ATOM     44  C   UNL     1      17.120   0.644 -11.627  1.00  0.00     0.049 A 
ATOM     45  C   UNL     1      15.876   6.298 -10.406  1.00  0.00     0.074 A 
ATOM     46  C   UNL     1      18.281   0.226 -11.007  1.00  0.00     0.029 A 
ATOM     47  N   UNL     1      17.330   1.956 -11.980  1.00  0.00    -0.354 N 
ATOM     48  N   UNL     1      17.148   6.018 -10.388  1.00  0.00    -0.248 NA
ATOM     49  C   UNL     1      15.091   5.619 -11.423  1.00  0.00     0.031 C 
ATOM     50  C   UNL     1      18.943   1.427 -10.611  1.00  0.00     0.029 A 
ATOM     51  C   UNL     1      18.215   2.514 -11.095  1.00  0.00     0.049 A 
ATOM     52  H   UNL     1      16.913   2.418 -12.743  1.00  0.00     0.167 HD
ATOM     53  C   UNL     1      17.245   4.810 -11.062  1.00  0.00     0.074 A 
ATOM     54  C   UNL     1      15.948   4.639 -11.721  1.00  0.00     0.031 C 
ATOM     55  C   UNL     1      18.241   3.923 -10.770  1.00  0.00     0.037 A 
BRANCH  42  56
ATOM     56  C   UNL     1      14.927   0.161 -12.909  1.00  0.00     0.057 A 
ATOM     57  C   UNL     1      15.605   0.101 -14.142  1.00  0.00     0.134 A 
ATOM     58  C   UNL     1      13.560   0.492 -12.999  1.00  0.00     0.134 A 
ATOM     59  F   UNL     1      16.911  -0.200 -14.197  1.00  0.00    -0.206 F 
ATOM     60  C   UNL     1      14.993   0.437 -15.355  1.00  0.00     0.040 A 
ATOM     61  C   UNL     1      12.928   0.785 -14.211  1.00  0.00     0.040 A 
ATOM     62  F   UNL     1      12.777   0.649 -11.927  1.00  0.00    -0.206 F 
ATOM     63  C   UNL     1      13.652   0.791 -15.391  1.00  0.00     0.006 A 
ENDBRANCH  42  56
BRANCH  43  64
ATOM     64  C   UNL     1      14.268   8.015  -9.347  1.00  0.00     0.057 A 
ATOM     65  C   UNL     1      14.550   9.024 -10.288  1.00  0.00     0.134 A 
ATOM     66  C   UNL     1      12.974   8.037  -8.803  1.00  0.00     0.134 A 
ATOM     67  F   UNL     1      15.743   9.073 -10.898  1.00  0.00    -0.206 F 
ATOM     68  C   UNL     1      13.590   9.964 -10.697  1.00  0.00     0.040 A 
ATOM     69  C   UNL     1      12.006   8.970  -9.204  1.00  0.00     0.040 A 
ATOM     70  F   UNL     1      12.577   7.092  -7.939  1.00  0.00    -0.206 F 
ATOM     71  C   UNL     1      12.306   9.927 -10.167  1.00  0.00     0.006 A 
ENDBRANCH  43  64
BRANCH  55  72
ATOM     72  C   UNL     1      19.370   4.388  -9.885  1.00  0.00     0.057 A 
ATOM     73  C   UNL     1      19.239   4.734  -8.530  1.00  0.00     0.134 A 
ATOM     74  C   UNL     1      20.673   4.310 -10.389  1.00  0.00     0.134 A 
ATOM     75  F   UNL     1      18.041   4.765  -7.933  1.00  0.00    -0.206 F 
ATOM     76  C   UNL     1      20.353   5.000  -7.724  1.00  0.00     0.040 A 
ATOM     77  C   UNL     1      21.793   4.542  -9.589  1.00  0.00     0.040 A 
ATOM     78  F   UNL     1      20.879   3.945 -11.664  1.00  0.00    -0.206 F 
ATOM     79  C   UNL     1      21.636   4.892  -8.251  1.00  0.00     0.006 A 
ENDBRANCH  55  72
ENDBRANCH  29  30
ENDBRANCH  21  24
ENDBRANCH  19  20
ENDBRANCH   1  19
TORSDOF 11
