REMARK SMILES O=C(NCCCNC(=O)c1cc(Br)ccc1N1CC2(CCCCC2)C1)c1ccc(-c2c3nc(c(-c4c(F)cccc4F)c4ccc([nH]4)c(-c4c(F)cccc4F)c4nc(c(-c5c(F)cccc5F)c5ccc2[nH]5)C=C4)C=C3)cc1
REMARK SMILES IDX 4 1 3 2 1 3 2 4 26 6 27 7 79 8 28 9 78 10 29 11 30 12 31 13
REMARK SMILES IDX 72 14 32 15 77 16 71 17 73 18 33 19 76 20 70 21 69 22 34 24
REMARK SMILES IDX 60 25 43 26 59 27 44 28 47 29 58 30 74 31 45 32 46 33 57 35
REMARK SMILES IDX 75 36 48 37 35 38 36 39 41 40 37 41 38 42 40 43 42 44 39 45
REMARK SMILES IDX 61 46 62 47 67 48 63 49 64 50 66 51 68 52 65 53 49 54 50 55
REMARK SMILES IDX 55 56 51 57 52 58 54 59 56 60 53 61 5 62 6 63 7 64 8 65 9 67
REMARK SMILES IDX 10 68 11 69 16 70 12 71 15 72 13 73 14 74 17 75 18 76 25 77
REMARK SMILES IDX 19 78 20 79 24 80 21 81 23 82 22 83
REMARK H PARENT 3 5 73 23 47 34 7 66
REMARK Flexibility Score: inf
ROOT
ATOM      1  C   UNL     1       4.779  -1.490   0.488  1.00  0.00     0.118 C 
ENDROOT
BRANCH   1   2
ATOM      2  N   UNL     1       3.362  -1.275   0.233  1.00  0.00    -0.352 N 
ATOM      3  O   UNL     1       1.417  -0.209  -0.076  1.00  0.00    -0.269 OA
ATOM      4  C   UNL     1       2.644  -0.147  -0.074  1.00  0.00     0.251 C 
ATOM      5  H   UNL     1       2.816  -2.092   0.293  1.00  0.00     0.163 HD
BRANCH   4   6
ATOM      6  C   UNL     1       3.302   1.144  -0.385  1.00  0.00     0.039 A 
ATOM      7  C   UNL     1       4.443   1.225  -1.185  1.00  0.00     0.014 A 
ATOM      8  C   UNL     1       2.695   2.323   0.070  1.00  0.00     0.014 A 
ATOM      9  C   UNL     1       5.044   2.462  -1.424  1.00  0.00     0.010 A 
ATOM     10  C   UNL     1       3.261   3.568  -0.222  1.00  0.00     0.010 A 
ATOM     11  C   UNL     1       4.460   3.645  -0.944  1.00  0.00    -0.014 A 
BRANCH  11  12
ATOM     12  C   UNL     1       5.103   4.952  -1.226  1.00  0.00     0.031 A 
ATOM     13  C   UNL     1       5.744   5.748  -0.125  1.00  0.00     0.074 A 
ATOM     14  C   UNL     1       5.137   5.414  -2.491  1.00  0.00     0.049 A 
ATOM     15  N   UNL     1       6.385   6.888  -0.197  1.00  0.00    -0.248 NA
ATOM     16  C   UNL     1       5.648   5.199   1.237  1.00  0.00     0.031 C 
ATOM     17  C   UNL     1       4.534   4.752  -3.649  1.00  0.00     0.029 A 
ATOM     18  N   UNL     1       5.723   6.538  -3.015  1.00  0.00    -0.354 N 
ATOM     19  C   UNL     1       6.745   7.205   1.105  1.00  0.00     0.074 A 
ATOM     20  C   UNL     1       6.247   6.142   1.952  1.00  0.00     0.031 C 
ATOM     21  C   UNL     1       4.823   5.456  -4.755  1.00  0.00     0.029 A 
ATOM     22  C   UNL     1       5.607   6.630  -4.380  1.00  0.00     0.049 A 
ATOM     23  H   UNL     1       6.183   7.213  -2.466  1.00  0.00     0.167 HD
ATOM     24  C   UNL     1       7.434   8.281   1.556  1.00  0.00     0.037 A 
ATOM     25  C   UNL     1       6.086   7.550  -5.236  1.00  0.00     0.037 A 
ATOM     26  C   UNL     1       7.966   9.325   0.722  1.00  0.00     0.049 A 
ATOM     27  C   UNL     1       6.880   8.710  -4.717  1.00  0.00     0.074 A 
ATOM     28  C   UNL     1       8.707  10.434   1.093  1.00  0.00     0.029 A 
ATOM     29  N   UNL     1       7.819   9.383  -0.654  1.00  0.00    -0.354 N 
ATOM     30  N   UNL     1       7.224   8.986  -3.484  1.00  0.00    -0.248 NA
ATOM     31  C   UNL     1       7.346   9.690  -5.709  1.00  0.00     0.031 C 
ATOM     32  C   UNL     1       9.001  11.171  -0.061  1.00  0.00     0.029 A 
ATOM     33  C   UNL     1       8.452  10.512  -1.148  1.00  0.00     0.049 A 
ATOM     34  H   UNL     1       7.337   8.721  -1.200  1.00  0.00     0.167 HD
ATOM     35  C   UNL     1       7.942  10.171  -3.548  1.00  0.00     0.074 A 
ATOM     36  C   UNL     1       8.001  10.553  -4.944  1.00  0.00     0.031 C 
ATOM     37  C   UNL     1       8.496  10.881  -2.538  1.00  0.00     0.037 A 
BRANCH  24  38
ATOM     38  C   UNL     1       7.646   8.384   3.033  1.00  0.00     0.057 A 
ATOM     39  C   UNL     1       8.669   7.678   3.675  1.00  0.00     0.134 A 
ATOM     40  C   UNL     1       6.840   9.220   3.813  1.00  0.00     0.134 A 
ATOM     41  F   UNL     1       9.464   6.851   2.980  1.00  0.00    -0.206 F 
ATOM     42  C   UNL     1       8.878   7.793   5.050  1.00  0.00     0.040 A 
ATOM     43  C   UNL     1       7.045   9.351   5.187  1.00  0.00     0.040 A 
ATOM     44  F   UNL     1       5.842   9.920   3.253  1.00  0.00    -0.206 F 
ATOM     45  C   UNL     1       8.066   8.636   5.809  1.00  0.00     0.006 A 
ENDBRANCH  24  38
BRANCH  25  46
ATOM     46  C   UNL     1       5.843   7.390  -6.686  1.00  0.00     0.057 A 
ATOM     47  C   UNL     1       6.839   6.883  -7.527  1.00  0.00     0.134 A 
ATOM     48  C   UNL     1       4.609   7.715  -7.258  1.00  0.00     0.134 A 
ATOM     49  F   UNL     1       8.045   6.569  -7.032  1.00  0.00    -0.206 F 
ATOM     50  C   UNL     1       6.616   6.705  -8.892  1.00  0.00     0.040 A 
ATOM     51  C   UNL     1       4.369   7.532  -8.619  1.00  0.00     0.040 A 
ATOM     52  F   UNL     1       3.619   8.203  -6.496  1.00  0.00    -0.206 F 
ATOM     53  C   UNL     1       5.375   7.026  -9.441  1.00  0.00     0.006 A 
ENDBRANCH  25  46
BRANCH  37  54
ATOM     54  C   UNL     1       9.205  12.144  -2.908  1.00  0.00     0.057 A 
ATOM     55  C   UNL     1       8.501  13.335  -3.116  1.00  0.00     0.134 A 
ATOM     56  C   UNL     1      10.598  12.177  -3.034  1.00  0.00     0.134 A 
ATOM     57  F   UNL     1       7.163  13.359  -3.021  1.00  0.00    -0.206 F 
ATOM     58  C   UNL     1       9.160  14.519  -3.447  1.00  0.00     0.040 A 
ATOM     59  C   UNL     1      11.269  13.357  -3.355  1.00  0.00     0.040 A 
ATOM     60  F   UNL     1      11.325  11.065  -2.847  1.00  0.00    -0.206 F 
ATOM     61  C   UNL     1      10.549  14.532  -3.564  1.00  0.00     0.006 A 
ENDBRANCH  37  54
ENDBRANCH  11  12
ENDBRANCH   4   6
ENDBRANCH   1   2
BRANCH   1  62
ATOM     62  C   UNL     1       5.088  -1.791   1.953  1.00  0.00     0.042 C 
BRANCH  62  63
ATOM     63  C   UNL     1       4.371  -3.010   2.525  1.00  0.00     0.118 C 
BRANCH  63  64
ATOM     64  N   UNL     1       4.624  -4.224   1.767  1.00  0.00    -0.352 N 
ATOM     65  C   UNL     1       5.410  -5.312   2.053  1.00  0.00     0.253 C 
ATOM     66  H   UNL     1       4.153  -4.274   0.904  1.00  0.00     0.163 HD
ATOM     67  O   UNL     1       5.482  -6.226   1.234  1.00  0.00    -0.269 OA
BRANCH  65  68
ATOM     68  C   UNL     1       6.102  -5.423   3.354  1.00  0.00     0.064 A 
ATOM     69  C   UNL     1       5.274  -5.472   4.492  1.00  0.00     0.031 A 
ATOM     70  C   UNL     1       7.483  -5.683   3.458  1.00  0.00     0.050 A 
ATOM     71  C   UNL     1       5.822  -5.711   5.747  1.00  0.00     0.018 A 
ATOM     72  C   UNL     1       7.996  -5.947   4.745  1.00  0.00     0.028 A 
ATOM     73  Br  UNL     1       4.705  -5.742   7.270  1.00  0.00    -0.051 Br
ATOM     74  C   UNL     1       7.183  -5.946   5.881  1.00  0.00     0.018 A 
BRANCH  70  75
ATOM     75  N   UNL     1       8.386  -5.718   2.384  1.00  0.00    -0.370 N 
ATOM     76  C   UNL     1       8.473  -5.061   1.126  1.00  0.00     0.125 C 
ATOM     77  C   UNL     1       9.396  -6.688   2.106  1.00  0.00     0.125 C 
ATOM     78  C   UNL     1       9.378  -6.220   0.634  1.00  0.00     0.005 C 
ATOM     79  C   UNL     1      10.769  -5.849   0.113  1.00  0.00     0.011 C 
ATOM     80  C   UNL     1       8.672  -7.204  -0.312  1.00  0.00     0.011 C 
ATOM     81  C   UNL     1      10.675  -5.269  -1.296  1.00  0.00     0.001 C 
ATOM     82  C   UNL     1       8.574  -6.603  -1.714  1.00  0.00     0.001 C 
ATOM     83  C   UNL     1       9.951  -6.217  -2.250  1.00  0.00     0.000 C 
ENDBRANCH  70  75
ENDBRANCH  65  68
ENDBRANCH  63  64
ENDBRANCH  62  63
ENDBRANCH   1  62
TORSDOF 11
