REMARK SMILES O=C(CNC(=O)c1ccco1)Nc1cccc(C(=O)NCCCNC(=O)c2ccc(-c3c4nc(c(-c5c(F)cccc5F)c5ccc([nH]5)c(-c5c(F)cccc5F)c5nc(c(-c6c(F)cccc6F)c6ccc3[nH]6)C=C5)C=C4)cc2)c1
REMARK SMILES IDX 21 1 20 2 18 3 19 4 17 6 13 7 14 8 81 9 15 10 16 11 12 12
REMARK SMILES IDX 1 13 2 14 3 16 4 17 5 18 6 20 7 21 8 22 11 23 9 24 10 25
REMARK SMILES IDX 22 26 23 27 24 28 25 29 26 31 27 32 28 33 80 34 29 35 79 36
REMARK SMILES IDX 30 37 31 38 32 39 73 40 33 41 78 42 72 43 74 44 34 45 77 46
REMARK SMILES IDX 71 47 70 48 35 50 61 51 44 52 60 53 45 54 48 55 59 56 75 57
REMARK SMILES IDX 46 58 47 59 58 61 76 62 49 63 36 64 37 65 42 66 38 67 39 68
REMARK SMILES IDX 41 69 43 70 40 71 62 72 63 73 68 74 64 75 65 76 67 77 69 78
REMARK SMILES IDX 66 79 50 80 51 81 56 82 52 83 53 84 55 85 57 86 54 87
REMARK H PARENT 20 5 12 15 4 19 24 30 74 49 48 60
REMARK Flexibility Score: inf
ROOT
ATOM      1  C   UNL     1      -0.395   0.900   2.979  1.00  0.00     0.118 C 
ENDROOT
BRANCH   1   2
ATOM      2  N   UNL     1      -0.919   2.256   3.117  1.00  0.00    -0.352 N 
ATOM      3  C   UNL     1      -0.559   3.447   2.522  1.00  0.00     0.251 C 
ATOM      4  O   UNL     1      -1.149   4.474   2.853  1.00  0.00    -0.269 OA
ATOM      5  H   UNL     1      -1.668   2.334   3.752  1.00  0.00     0.163 HD
BRANCH   3   6
ATOM      6  C   UNL     1       0.563   3.536   1.550  1.00  0.00     0.041 A 
ATOM      7  C   UNL     1       2.081   2.444   0.012  1.00  0.00     0.042 A 
ATOM      8  C   UNL     1       2.903   3.575   0.034  1.00  0.00     0.026 A 
ATOM      9  C   UNL     1       0.851   2.501   0.662  1.00  0.00     0.040 A 
ATOM     10  C   UNL     1       2.532   4.702   0.775  1.00  0.00     0.003 A 
ATOM     11  C   UNL     1       1.382   4.668   1.566  1.00  0.00     0.014 A 
BRANCH   7  12
ATOM     12  N   UNL     1       2.597   1.246  -0.538  1.00  0.00    -0.325 N 
ATOM     13  O   UNL     1       0.877  -0.262  -0.054  1.00  0.00    -0.273 OA
ATOM     14  C   UNL     1       2.017  -0.014  -0.442  1.00  0.00     0.243 C 
ATOM     15  H   UNL     1       3.445   1.311  -1.034  1.00  0.00     0.169 HD
BRANCH  14  16
ATOM     16  C   UNL     1       3.014  -1.165  -0.599  1.00  0.00     0.216 C 
BRANCH  16  17
ATOM     17  N   UNL     1       4.086  -0.900  -1.539  1.00  0.00    -0.340 N 
ATOM     18  C   UNL     1       5.444  -1.053  -1.377  1.00  0.00     0.287 C 
ATOM     19  H   UNL     1       3.802  -0.563  -2.419  1.00  0.00     0.164 HD
ATOM     20  O   UNL     1       6.154  -0.618  -2.282  1.00  0.00    -0.266 OA
BRANCH  18  21
ATOM     21  C   UNL     1       5.966  -1.671  -0.175  1.00  0.00     0.191 A 
ATOM     22  C   UNL     1       5.574  -2.755   0.594  1.00  0.00     0.056 A 
ATOM     23  O   UNL     1       7.111  -1.141   0.361  1.00  0.00    -0.459 OA
ATOM     24  C   UNL     1       6.497  -2.860   1.663  1.00  0.00     0.043 A 
ATOM     25  C   UNL     1       7.415  -1.856   1.472  1.00  0.00     0.196 A 
ENDBRANCH  18  21
ENDBRANCH  16  17
ENDBRANCH  14  16
ENDBRANCH   7  12
ENDBRANCH   3   6
ENDBRANCH   1   2
BRANCH   1  26
ATOM     26  C   UNL     1       0.054   0.265   4.285  1.00  0.00     0.042 C 
BRANCH  26  27
ATOM     27  C   UNL     1      -1.053   0.001   5.290  1.00  0.00     0.118 C 
BRANCH  27  28
ATOM     28  N   UNL     1      -2.041  -0.960   4.820  1.00  0.00    -0.352 N 
ATOM     29  C   UNL     1      -2.326  -2.247   5.206  1.00  0.00     0.251 C 
ATOM     30  H   UNL     1      -2.610  -0.625   4.089  1.00  0.00     0.163 HD
ATOM     31  O   UNL     1      -3.118  -2.906   4.535  1.00  0.00    -0.269 OA
BRANCH  29  32
ATOM     32  C   UNL     1      -1.690  -2.871   6.391  1.00  0.00     0.039 A 
ATOM     33  C   UNL     1      -1.407  -4.242   6.351  1.00  0.00     0.014 A 
ATOM     34  C   UNL     1      -1.416  -2.153   7.556  1.00  0.00     0.014 A 
ATOM     35  C   UNL     1      -0.795  -4.865   7.442  1.00  0.00     0.010 A 
ATOM     36  C   UNL     1      -0.711  -2.749   8.600  1.00  0.00     0.010 A 
ATOM     37  C   UNL     1      -0.403  -4.115   8.562  1.00  0.00    -0.014 A 
BRANCH  37  38
ATOM     38  C   UNL     1       0.312  -4.748   9.701  1.00  0.00     0.031 A 
ATOM     39  C   UNL     1      -0.296  -4.758  11.078  1.00  0.00     0.074 A 
ATOM     40  C   UNL     1       1.539  -5.271   9.507  1.00  0.00     0.049 A 
ATOM     41  N   UNL     1       0.193  -5.234  12.196  1.00  0.00    -0.248 NA
ATOM     42  C   UNL     1      -1.615  -4.121  11.227  1.00  0.00     0.031 C 
ATOM     43  C   UNL     1       2.269  -5.270   8.238  1.00  0.00     0.029 A 
ATOM     44  N   UNL     1       2.390  -5.905  10.377  1.00  0.00    -0.354 N 
ATOM     45  C   UNL     1      -0.746  -4.939  13.178  1.00  0.00     0.074 A 
ATOM     46  C   UNL     1      -1.805  -4.190  12.536  1.00  0.00     0.031 C 
ATOM     47  C   UNL     1       3.440  -5.906   8.402  1.00  0.00     0.029 A 
ATOM     48  C   UNL     1       3.558  -6.331   9.793  1.00  0.00     0.049 A 
ATOM     49  H   UNL     1       2.183  -6.041  11.330  1.00  0.00     0.167 HD
ATOM     50  C   UNL     1      -0.744  -5.282  14.488  1.00  0.00     0.037 A 
ATOM     51  C   UNL     1       4.605  -6.995  10.317  1.00  0.00     0.037 A 
ATOM     52  C   UNL     1       0.295  -6.053  15.121  1.00  0.00     0.049 A 
ATOM     53  C   UNL     1       4.573  -7.389  11.767  1.00  0.00     0.074 A 
ATOM     54  C   UNL     1       0.361  -6.506  16.427  1.00  0.00     0.029 A 
ATOM     55  N   UNL     1       1.450  -6.489  14.488  1.00  0.00    -0.354 N 
ATOM     56  N   UNL     1       3.646  -7.162  12.665  1.00  0.00    -0.248 NA
ATOM     57  C   UNL     1       5.729  -8.142  12.271  1.00  0.00     0.031 C 
ATOM     58  C   UNL     1       1.574  -7.184  16.595  1.00  0.00     0.029 A 
ATOM     59  C   UNL     1       2.242  -7.192  15.381  1.00  0.00     0.049 A 
ATOM     60  H   UNL     1       1.673  -6.323  13.544  1.00  0.00     0.167 HD
ATOM     61  C   UNL     1       4.094  -7.764  13.834  1.00  0.00     0.074 A 
ATOM     62  C   UNL     1       5.367  -8.383  13.523  1.00  0.00     0.031 C 
ATOM     63  C   UNL     1       3.507  -7.799  15.056  1.00  0.00     0.037 A 
BRANCH  50  64
ATOM     64  C   UNL     1      -1.909  -4.830  15.322  1.00  0.00     0.057 A 
ATOM     65  C   UNL     1      -3.192  -5.371  15.153  1.00  0.00     0.134 A 
ATOM     66  C   UNL     1      -1.746  -3.859  16.317  1.00  0.00     0.134 A 
ATOM     67  F   UNL     1      -3.420  -6.296  14.208  1.00  0.00    -0.206 F 
ATOM     68  C   UNL     1      -4.275  -4.938  15.920  1.00  0.00     0.040 A 
ATOM     69  C   UNL     1      -2.816  -3.439  17.110  1.00  0.00     0.040 A 
ATOM     70  F   UNL     1      -0.545  -3.304  16.538  1.00  0.00    -0.206 F 
ATOM     71  C   UNL     1      -4.087  -3.973  16.907  1.00  0.00     0.006 A 
ENDBRANCH  50  64
BRANCH  51  72
ATOM     72  C   UNL     1       5.753  -7.371   9.454  1.00  0.00     0.057 A 
ATOM     73  C   UNL     1       5.975  -8.706   9.094  1.00  0.00     0.134 A 
ATOM     74  C   UNL     1       6.653  -6.414   8.972  1.00  0.00     0.134 A 
ATOM     75  F   UNL     1       5.156  -9.669   9.540  1.00  0.00    -0.206 F 
ATOM     76  C   UNL     1       7.061  -9.078   8.301  1.00  0.00     0.040 A 
ATOM     77  C   UNL     1       7.730  -6.770   8.158  1.00  0.00     0.040 A 
ATOM     78  F   UNL     1       6.489  -5.117   9.273  1.00  0.00    -0.206 F 
ATOM     79  C   UNL     1       7.940  -8.107   7.827  1.00  0.00     0.006 A 
ENDBRANCH  51  72
BRANCH  63  80
ATOM     80  C   UNL     1       4.229  -8.555  16.133  1.00  0.00     0.057 A 
ATOM     81  C   UNL     1       5.408  -8.070  16.713  1.00  0.00     0.134 A 
ATOM     82  C   UNL     1       3.732  -9.778  16.601  1.00  0.00     0.134 A 
ATOM     83  F   UNL     1       5.943  -6.912  16.299  1.00  0.00    -0.206 F 
ATOM     84  C   UNL     1       6.087  -8.792  17.697  1.00  0.00     0.040 A 
ATOM     85  C   UNL     1       4.387 -10.495  17.603  1.00  0.00     0.040 A 
ATOM     86  F   UNL     1       2.602 -10.294  16.095  1.00  0.00    -0.206 F 
ATOM     87  C   UNL     1       5.573 -10.007  18.147  1.00  0.00     0.006 A 
ENDBRANCH  63  80
ENDBRANCH  37  38
ENDBRANCH  29  32
ENDBRANCH  27  28
ENDBRANCH  26  27
ENDBRANCH   1  26
TORSDOF 14
