REMARK SMILES C[C@@H]1CCCC[C@H]1NC(=O)C[N@@H+]1CCO[C@H](CC(=O)NCCCNC(=O)c2ccc(-c3c4nc(c(-c5c(F)cccc5F)c5ccc([nH]5)c(-c5c(F)cccc5F)c5nc(c(-c6c(F)cccc6F)c6ccc3[nH]6)C=C5)C=C4)cc2)C1
REMARK SMILES IDX 21 1 20 2 18 3 19 4 17 6 16 7 12 8 13 9 81 10 14 12 15 13
REMARK SMILES IDX 11 14 9 15 8 16 10 18 7 19 1 20 2 21 3 22 4 23 6 24 5 25
REMARK SMILES IDX 22 26 23 27 24 28 25 29 26 31 27 32 28 33 80 34 29 35 79 36
REMARK SMILES IDX 30 37 31 38 32 39 73 40 33 41 78 42 72 43 74 44 34 45 77 46
REMARK SMILES IDX 71 47 70 48 35 50 61 51 44 52 60 53 45 54 48 55 59 56 75 57
REMARK SMILES IDX 46 58 47 59 58 61 76 62 49 63 36 64 37 65 42 66 38 67 39 68
REMARK SMILES IDX 41 69 43 70 40 71 62 72 63 73 68 74 64 75 65 76 67 77 69 78
REMARK SMILES IDX 66 79 50 80 51 81 56 82 52 83 53 84 55 85 57 86 54 87
REMARK H PARENT 20 5 12 11 8 17 24 30 74 49 48 60
REMARK Flexibility Score: inf
ROOT
ATOM      1  C   UNL     1       1.204  -5.318   0.435  1.00  0.00     0.117 C 
ENDROOT
BRANCH   1   2
ATOM      2  N   UNL     1       1.031  -4.711  -0.876  1.00  0.00    -0.356 N 
ATOM      3  C   UNL     1       1.730  -4.891  -2.039  1.00  0.00     0.222 C 
ATOM      4  O   UNL     1       1.114  -4.715  -3.092  1.00  0.00    -0.275 OA
ATOM      5  H   UNL     1       0.290  -4.065  -0.936  1.00  0.00     0.163 HD
BRANCH   3   6
ATOM      6  C   UNL     1       3.209  -5.222  -2.047  1.00  0.00     0.138 C 
BRANCH   6   7
ATOM      7  C   UNL     1       4.206  -4.038  -1.966  1.00  0.00     0.182 C 
ATOM      8  N   UNL     1       3.315  -1.622  -1.871  1.00  0.00    -0.323 N 
ATOM      9  C   UNL     1       4.423  -1.291  -2.784  1.00  0.00     0.291 C 
ATOM     10  C   UNL     1       3.773  -2.813  -1.131  1.00  0.00     0.295 C 
ATOM     11  H   UNL     1       3.091  -0.845  -1.249  1.00  0.00     0.348 HD
ATOM     12  C   UNL     1       4.734  -2.422  -3.776  1.00  0.00     0.222 C 
ATOM     13  O   UNL     1       4.827  -3.747  -3.233  1.00  0.00    -0.366 OA
BRANCH   8  14
ATOM     14  C   UNL     1       2.075  -1.919  -2.626  1.00  0.00     0.363 C 
BRANCH  14  15
ATOM     15  C   UNL     1       1.416  -0.705  -3.269  1.00  0.00     0.275 C 
ATOM     16  N   UNL     1       0.354  -0.133  -2.614  1.00  0.00    -0.348 N 
ATOM     17  H   UNL     1      -0.361   0.268  -3.158  1.00  0.00     0.163 HD
ATOM     18  O   UNL     1       1.757  -0.269  -4.368  1.00  0.00    -0.268 OA
BRANCH  16  19
ATOM     19  C   UNL     1       0.217  -0.082  -1.165  1.00  0.00     0.085 C 
ATOM     20  C   UNL     1       1.694   1.025   0.584  1.00  0.00     0.010 C 
ATOM     21  C   UNL     1       0.880   1.231  -0.692  1.00  0.00     0.008 C 
ATOM     22  C   UNL     1      -0.090   2.420  -0.647  1.00  0.00     0.005 C 
ATOM     23  C   UNL     1      -1.476   2.104  -0.104  1.00  0.00     0.000 C 
ATOM     24  C   UNL     1      -1.240  -0.309  -0.744  1.00  0.00     0.025 C 
ATOM     25  C   UNL     1      -2.109   0.933  -0.841  1.00  0.00     0.002 C 
ENDBRANCH  16  19
ENDBRANCH  14  15
ENDBRANCH   8  14
ENDBRANCH   6   7
ENDBRANCH   3   6
ENDBRANCH   1   2
BRANCH   1  26
ATOM     26  C   UNL     1       1.728  -4.425   1.572  1.00  0.00     0.042 C 
BRANCH  26  27
ATOM     27  C   UNL     1       1.051  -3.061   1.821  1.00  0.00     0.118 C 
BRANCH  27  28
ATOM     28  N   UNL     1      -0.297  -3.156   2.361  1.00  0.00    -0.352 N 
ATOM     29  C   UNL     1      -0.962  -2.362   3.273  1.00  0.00     0.251 C 
ATOM     30  H   UNL     1      -0.823  -3.915   2.018  1.00  0.00     0.163 HD
ATOM     31  O   UNL     1      -2.115  -2.641   3.585  1.00  0.00    -0.269 OA
BRANCH  29  32
ATOM     32  C   UNL     1      -0.341  -1.162   3.884  1.00  0.00     0.039 A 
ATOM     33  C   UNL     1      -0.003  -1.144   5.235  1.00  0.00     0.014 A 
ATOM     34  C   UNL     1      -0.260   0.028   3.168  1.00  0.00     0.014 A 
ATOM     35  C   UNL     1       0.495   0.036   5.825  1.00  0.00     0.010 A 
ATOM     36  C   UNL     1       0.306   1.185   3.736  1.00  0.00     0.010 A 
ATOM     37  C   UNL     1       0.717   1.210   5.072  1.00  0.00    -0.014 A 
BRANCH  37  38
ATOM     38  C   UNL     1       1.445   2.394   5.653  1.00  0.00     0.031 A 
ATOM     39  C   UNL     1       0.907   3.813   5.614  1.00  0.00     0.074 A 
ATOM     40  C   UNL     1       2.686   2.217   6.158  1.00  0.00     0.049 A 
ATOM     41  N   UNL     1       1.449   4.916   6.086  1.00  0.00    -0.248 NA
ATOM     42  C   UNL     1      -0.371   4.039   4.925  1.00  0.00     0.031 C 
ATOM     43  C   UNL     1       3.432   0.957   6.147  1.00  0.00     0.029 A 
ATOM     44  N   UNL     1       3.544   3.096   6.781  1.00  0.00    -0.354 N 
ATOM     45  C   UNL     1       0.608   5.960   5.712  1.00  0.00     0.074 A 
ATOM     46  C   UNL     1      -0.466   5.363   4.944  1.00  0.00     0.031 C 
ATOM     47  C   UNL     1       4.595   1.124   6.793  1.00  0.00     0.029 A 
ATOM     48  C   UNL     1       4.702   2.510   7.235  1.00  0.00     0.049 A 
ATOM     49  H   UNL     1       3.346   4.055   6.891  1.00  0.00     0.167 HD
ATOM     50  C   UNL     1       0.700   7.287   5.992  1.00  0.00     0.037 A 
ATOM     51  C   UNL     1       5.734   3.009   7.943  1.00  0.00     0.037 A 
ATOM     52  C   UNL     1       1.713   7.895   6.821  1.00  0.00     0.049 A 
ATOM     53  C   UNL     1       5.745   4.448   8.366  1.00  0.00     0.074 A 
ATOM     54  C   UNL     1       1.789   9.207   7.266  1.00  0.00     0.029 A 
ATOM     55  N   UNL     1       2.820   7.242   7.334  1.00  0.00    -0.354 N 
ATOM     56  N   UNL     1       4.874   5.388   8.106  1.00  0.00    -0.248 NA
ATOM     57  C   UNL     1       6.881   4.891   9.190  1.00  0.00     0.031 C 
ATOM     58  C   UNL     1       2.955   9.353   8.026  1.00  0.00     0.029 A 
ATOM     59  C   UNL     1       3.588   8.124   8.081  1.00  0.00     0.049 A 
ATOM     60  H   UNL     1       3.032   6.291   7.189  1.00  0.00     0.167 HD
ATOM     61  C   UNL     1       5.345   6.527   8.747  1.00  0.00     0.074 A 
ATOM     62  C   UNL     1       6.569   6.158   9.423  1.00  0.00     0.031 C 
ATOM     63  C   UNL     1       4.803   7.768   8.764  1.00  0.00     0.037 A 
BRANCH  50  64
ATOM     64  C   UNL     1      -0.351   8.202   5.423  1.00  0.00     0.057 A 
ATOM     65  C   UNL     1      -1.664   8.211   5.912  1.00  0.00     0.134 A 
ATOM     66  C   UNL     1      -0.024   9.148   4.441  1.00  0.00     0.134 A 
ATOM     67  F   UNL     1      -2.042   7.337   6.857  1.00  0.00    -0.206 F 
ATOM     68  C   UNL     1      -2.620   9.105   5.425  1.00  0.00     0.040 A 
ATOM     69  C   UNL     1      -0.964  10.064   3.965  1.00  0.00     0.040 A 
ATOM     70  F   UNL     1       1.221   9.213   3.945  1.00  0.00    -0.206 F 
ATOM     71  C   UNL     1      -2.269  10.040   4.454  1.00  0.00     0.006 A 
ENDBRANCH  50  64
BRANCH  51  72
ATOM     72  C   UNL     1       6.831   2.103   8.364  1.00  0.00     0.057 A 
ATOM     73  C   UNL     1       6.921   1.664   9.691  1.00  0.00     0.134 A 
ATOM     74  C   UNL     1       7.798   1.649   7.462  1.00  0.00     0.134 A 
ATOM     75  F   UNL     1       6.030   2.083  10.601  1.00  0.00    -0.206 F 
ATOM     76  C   UNL     1       7.943   0.813  10.109  1.00  0.00     0.040 A 
ATOM     77  C   UNL     1       8.814   0.781   7.862  1.00  0.00     0.040 A 
ATOM     78  F   UNL     1       7.755   2.028   6.176  1.00  0.00    -0.206 F 
ATOM     79  C   UNL     1       8.891   0.365   9.191  1.00  0.00     0.006 A 
ENDBRANCH  51  72
BRANCH  63  80
ATOM     80  C   UNL     1       5.513   8.820   9.563  1.00  0.00     0.057 A 
ATOM     81  C   UNL     1       6.705   9.406   9.117  1.00  0.00     0.134 A 
ATOM     82  C   UNL     1       4.990   9.268  10.782  1.00  0.00     0.134 A 
ATOM     83  F   UNL     1       7.268   9.010   7.965  1.00  0.00    -0.206 F 
ATOM     84  C   UNL     1       7.362  10.386   9.865  1.00  0.00     0.040 A 
ATOM     85  C   UNL     1       5.626  10.261  11.530  1.00  0.00     0.040 A 
ATOM     86  F   UNL     1       3.850   8.751  11.265  1.00  0.00    -0.206 F 
ATOM     87  C   UNL     1       6.819  10.819  11.074  1.00  0.00     0.006 A 
ENDBRANCH  63  80
ENDBRANCH  37  38
ENDBRANCH  29  32
ENDBRANCH  27  28
ENDBRANCH  26  27
ENDBRANCH   1  26
TORSDOF 14
