REMARK SMILES N#Cc1ccc2c(c1)C=C(C(=O)NCCCNC(=O)c1ccc(-c3c4nc(c(-c5c(F)cccc5F)c5ccc([nH]5)c(-c5c(F)cccc5F)c5nc(c(-c6c(F)cccc6F)c6ccc3[nH]6)C=C5)C=C4)cc1)[C@@H](C(F)(F)F)O2
REMARK SMILES IDX 15 1 14 2 13 3 11 4 12 5 10 7 3 8 4 9 8 10 5 11 7 12 6 13
REMARK SMILES IDX 9 14 79 15 74 16 2 17 1 18 75 19 76 20 77 21 78 22 16 23
REMARK SMILES IDX 17 24 18 25 19 27 20 28 21 29 73 30 22 31 72 32 23 33 24 34
REMARK SMILES IDX 25 35 66 36 26 37 71 38 65 39 67 40 27 41 70 42 64 43 63 44
REMARK SMILES IDX 28 46 54 47 37 48 53 49 38 50 41 51 52 52 68 53 39 54 40 55
REMARK SMILES IDX 51 57 69 58 42 59 29 60 30 61 35 62 31 63 32 64 34 65 36 66
REMARK SMILES IDX 33 67 55 68 56 69 61 70 57 71 58 72 60 73 62 74 59 75 43 76
REMARK SMILES IDX 44 77 49 78 45 79 46 80 48 81 50 82 47 83
REMARK H PARENT 13 6 17 26 67 45 41 56
REMARK Flexibility Score: inf
ROOT
ATOM      1  C   UNL     1      11.936  -2.589   1.145  1.00  0.00     0.042 C 
ENDROOT
BRANCH   1   2
ATOM      2  C   UNL     1      11.141  -2.710  -0.140  1.00  0.00     0.118 C 
BRANCH   2   3
ATOM      3  N   UNL     1      10.031  -3.642  -0.006  1.00  0.00    -0.352 N 
ATOM      4  C   UNL     1       8.679  -3.575   0.025  1.00  0.00     0.251 C 
ATOM      5  O   UNL     1       8.097  -4.658   0.137  1.00  0.00    -0.270 OA
ATOM      6  H   UNL     1      10.348  -4.569   0.086  1.00  0.00     0.163 HD
BRANCH   4   7
ATOM      7  C   UNL     1       7.889  -2.313  -0.061  1.00  0.00     0.067 C 
ATOM      8  C   UNL     1       3.592  -0.097  -0.040  1.00  0.00     0.053 A 
ATOM      9  C   UNL     1       4.237   1.145  -0.030  1.00  0.00     0.023 A 
ATOM     10  C   UNL     1       4.344  -1.280  -0.017  1.00  0.00     0.031 A 
ATOM     11  C   UNL     1       5.627   1.205   0.005  1.00  0.00     0.048 A 
ATOM     12  C   UNL     1       5.740  -1.221   0.012  1.00  0.00     0.018 A 
ATOM     13  C   UNL     1       6.367   0.027   0.018  1.00  0.00     0.128 A 
ATOM     14  C   UNL     1       6.556  -2.428   0.083  1.00  0.00     0.025 C 
ATOM     15  O   UNL     1       7.720   0.176   0.085  1.00  0.00    -0.475 OA
ATOM     16  C   UNL     1       8.511  -0.971  -0.314  1.00  0.00     0.314 C 
BRANCH   8  17
ATOM     17  C   UNL     1       2.161  -0.150  -0.061  1.00  0.00     0.099 C 
ATOM     18  N   UNL     1       0.999  -0.181  -0.073  1.00  0.00    -0.192 NA
ENDBRANCH   8  17
BRANCH  16  19
ATOM     19  C   UNL     1       8.953  -0.794  -1.782  1.00  0.00     0.429 C 
ATOM     20  F   UNL     1       9.874   0.198  -1.878  1.00  0.00    -0.167 F 
ATOM     21  F   UNL     1       9.534  -1.905  -2.293  1.00  0.00    -0.167 F 
ATOM     22  F   UNL     1       7.926  -0.480  -2.601  1.00  0.00    -0.167 F 
ENDBRANCH  16  19
ENDBRANCH   4   7
ENDBRANCH   2   3
ENDBRANCH   1   2
BRANCH   1  23
ATOM     23  C   UNL     1      12.896  -3.752   1.314  1.00  0.00     0.118 C 
BRANCH  23  24
ATOM     24  N   UNL     1      13.920  -3.782   0.267  1.00  0.00    -0.352 N 
ATOM     25  C   UNL     1      15.276  -3.565   0.336  1.00  0.00     0.251 C 
ATOM     26  H   UNL     1      13.582  -3.993  -0.634  1.00  0.00     0.163 HD
ATOM     27  O   UNL     1      15.931  -3.410  -0.689  1.00  0.00    -0.269 OA
BRANCH  25  28
ATOM     28  C   UNL     1      15.924  -3.490   1.657  1.00  0.00     0.039 A 
ATOM     29  C   UNL     1      15.512  -4.351   2.670  1.00  0.00     0.014 A 
ATOM     30  C   UNL     1      16.892  -2.516   1.907  1.00  0.00     0.014 A 
ATOM     31  C   UNL     1      15.848  -4.061   3.978  1.00  0.00     0.010 A 
ATOM     32  C   UNL     1      17.356  -2.333   3.212  1.00  0.00     0.010 A 
ATOM     33  C   UNL     1      16.781  -3.053   4.270  1.00  0.00    -0.014 A 
BRANCH  33  34
ATOM     34  C   UNL     1      17.113  -2.783   5.691  1.00  0.00     0.031 A 
ATOM     35  C   UNL     1      16.869  -1.429   6.302  1.00  0.00     0.074 A 
ATOM     36  C   UNL     1      17.560  -3.798   6.456  1.00  0.00     0.049 A 
ATOM     37  N   UNL     1      17.069  -1.032   7.535  1.00  0.00    -0.248 NA
ATOM     38  C   UNL     1      16.339  -0.379   5.418  1.00  0.00     0.031 C 
ATOM     39  C   UNL     1      17.816  -5.163   5.985  1.00  0.00     0.029 A 
ATOM     40  N   UNL     1      17.845  -3.854   7.795  1.00  0.00    -0.354 N 
ATOM     41  C   UNL     1      16.712   0.311   7.567  1.00  0.00     0.074 A 
ATOM     42  C   UNL     1      16.322   0.674   6.223  1.00  0.00     0.031 C 
ATOM     43  C   UNL     1      18.151  -5.934   7.027  1.00  0.00     0.029 A 
ATOM     44  C   UNL     1      18.230  -5.102   8.219  1.00  0.00     0.049 A 
ATOM     45  H   UNL     1      17.779  -3.075   8.394  1.00  0.00     0.167 HD
ATOM     46  C   UNL     1      16.701   1.161   8.623  1.00  0.00     0.037 A 
ATOM     47  C   UNL     1      18.633  -5.526   9.429  1.00  0.00     0.037 A 
ATOM     48  C   UNL     1      17.092   0.792   9.961  1.00  0.00     0.049 A 
ATOM     49  C   UNL     1      18.688  -4.541  10.559  1.00  0.00     0.074 A 
ATOM     50  C   UNL     1      17.105   1.575  11.102  1.00  0.00     0.029 A 
ATOM     51  N   UNL     1      17.553  -0.462  10.334  1.00  0.00    -0.354 N 
ATOM     52  N   UNL     1      18.335  -3.278  10.578  1.00  0.00    -0.248 NA
ATOM     53  C   UNL     1      19.203  -5.043  11.838  1.00  0.00     0.031 C 
ATOM     54  C   UNL     1      17.641   0.816  12.148  1.00  0.00     0.029 A 
ATOM     55  C   UNL     1      17.886  -0.464  11.680  1.00  0.00     0.049 A 
ATOM     56  H   UNL     1      17.632  -1.237   9.732  1.00  0.00     0.167 HD
ATOM     57  C   UNL     1      18.562  -2.841  11.876  1.00  0.00     0.074 A 
ATOM     58  C   UNL     1      19.053  -3.984  12.619  1.00  0.00     0.031 C 
ATOM     59  C   UNL     1      18.384  -1.606  12.406  1.00  0.00     0.037 A 
BRANCH  46  60
ATOM     60  C   UNL     1      16.291   2.584   8.363  1.00  0.00     0.057 A 
ATOM     61  C   UNL     1      17.223   3.625   8.481  1.00  0.00     0.134 A 
ATOM     62  C   UNL     1      14.980   2.935   8.012  1.00  0.00     0.134 A 
ATOM     63  F   UNL     1      18.494   3.367   8.824  1.00  0.00    -0.206 F 
ATOM     64  C   UNL     1      16.868   4.956   8.256  1.00  0.00     0.040 A 
ATOM     65  C   UNL     1      14.621   4.259   7.750  1.00  0.00     0.040 A 
ATOM     66  F   UNL     1      14.038   1.990   7.870  1.00  0.00    -0.206 F 
ATOM     67  C   UNL     1      15.566   5.275   7.877  1.00  0.00     0.006 A 
ENDBRANCH  46  60
BRANCH  47  68
ATOM     68  C   UNL     1      19.050  -6.937   9.626  1.00  0.00     0.057 A 
ATOM     69  C   UNL     1      20.188  -7.455   8.995  1.00  0.00     0.134 A 
ATOM     70  C   UNL     1      18.339  -7.793  10.475  1.00  0.00     0.134 A 
ATOM     71  F   UNL     1      20.907  -6.692   8.159  1.00  0.00    -0.206 F 
ATOM     72  C   UNL     1      20.604  -8.771   9.200  1.00  0.00     0.040 A 
ATOM     73  C   UNL     1      18.765  -9.099  10.718  1.00  0.00     0.040 A 
ATOM     74  F   UNL     1      17.247  -7.352  11.118  1.00  0.00    -0.206 F 
ATOM     75  C   UNL     1      19.899  -9.592  10.076  1.00  0.00     0.006 A 
ENDBRANCH  47  68
BRANCH  59  76
ATOM     76  C   UNL     1      18.682  -1.449  13.871  1.00  0.00     0.057 A 
ATOM     77  C   UNL     1      17.648  -1.204  14.784  1.00  0.00     0.134 A 
ATOM     78  C   UNL     1      19.982  -1.558  14.385  1.00  0.00     0.134 A 
ATOM     79  F   UNL     1      16.381  -1.075  14.363  1.00  0.00    -0.206 F 
ATOM     80  C   UNL     1      17.893  -1.087  16.153  1.00  0.00     0.040 A 
ATOM     81  C   UNL     1      20.234  -1.483  15.756  1.00  0.00     0.040 A 
ATOM     82  F   UNL     1      21.018  -1.803  13.569  1.00  0.00    -0.206 F 
ATOM     83  C   UNL     1      19.187  -1.243  16.644  1.00  0.00     0.006 A 
ENDBRANCH  59  76
ENDBRANCH  33  34
ENDBRANCH  25  28
ENDBRANCH  23  24
ENDBRANCH   1  23
TORSDOF 12
