REMARK SMILES Cc1ccc(C(=O)NC2CC2)cc1NC(=O)[C@@H]1[C@@H](C(=O)NCCCNC(=O)c2ccc(-c3c4nc(c(-c5c(F)cccc5F)c5ccc([nH]5)c(-c5c(F)cccc5F)c5nc(c(-c6c(F)cccc6F)c6ccc3[nH]6)C=C5)C=C4)cc2)[C@H]2C=C[C@@H]1C2
REMARK SMILES IDX 22 1 21 2 19 3 20 4 18 6 17 7 85 8 82 9 84 10 86 11 83 12
REMARK SMILES IDX 15 13 14 14 16 16 13 17 1 18 2 19 3 20 4 21 12 22 5 23 6 24
REMARK SMILES IDX 7 25 8 26 9 28 10 29 11 30 23 31 24 32 25 33 26 34 27 36
REMARK SMILES IDX 28 37 29 38 81 39 30 40 80 41 31 42 32 43 33 44 74 45 34 46
REMARK SMILES IDX 79 47 73 48 75 49 35 50 78 51 72 52 71 53 36 55 62 56 45 57
REMARK SMILES IDX 61 58 46 59 49 60 60 61 76 62 47 63 48 64 59 66 77 67 50 68
REMARK SMILES IDX 37 69 38 70 43 71 39 72 40 73 42 74 44 75 41 76 63 77 64 78
REMARK SMILES IDX 69 79 65 80 66 81 68 82 70 83 67 84 51 85 52 86 57 87 53 88
REMARK SMILES IDX 54 89 56 90 58 91 55 92
REMARK H PARENT 21 5 14 15 8 27 25 35 75 54 49 65
REMARK Flexibility Score: inf
ROOT
ATOM      1  C   UNL     1      -4.035   7.233   0.848  1.00  0.00     0.117 C 
ENDROOT
BRANCH   1   2
ATOM      2  N   UNL     1      -3.353   6.571  -0.249  1.00  0.00    -0.356 N 
ATOM      3  C   UNL     1      -2.275   5.754  -0.316  1.00  0.00     0.224 C 
ATOM      4  O   UNL     1      -1.950   5.403  -1.458  1.00  0.00    -0.275 OA
ATOM      5  H   UNL     1      -3.758   6.755  -1.127  1.00  0.00     0.163 HD
BRANCH   3   6
ATOM      6  C   UNL     1      -1.407   5.331   0.867  1.00  0.00     0.098 C 
ATOM      7  C   UNL     1      -0.955   3.830   0.652  1.00  0.00     0.099 C 
ATOM      8  C   UNL     1      -1.166   3.200   2.054  1.00  0.00     0.025 C 
ATOM      9  C   UNL     1      -1.974   5.274   2.301  1.00  0.00     0.025 C 
ATOM     10  C   UNL     1      -2.652   3.068   2.273  1.00  0.00    -0.027 C 
ATOM     11  C   UNL     1      -0.913   4.394   2.978  1.00  0.00     0.017 C 
ATOM     12  C   UNL     1      -3.140   4.309   2.403  1.00  0.00    -0.027 C 
BRANCH   7  13
ATOM     13  C   UNL     1       0.468   3.615   0.167  1.00  0.00     0.228 C 
ATOM     14  N   UNL     1       0.918   2.358  -0.173  1.00  0.00    -0.326 N 
ATOM     15  H   UNL     1       1.873   2.331  -0.414  1.00  0.00     0.169 HD
ATOM     16  O   UNL     1       1.287   4.538   0.157  1.00  0.00    -0.274 OA
BRANCH  14  17
ATOM     17  C   UNL     1       0.277   1.097  -0.244  1.00  0.00     0.044 A 
ATOM     18  C   UNL     1       2.501  -0.114   0.258  1.00  0.00     0.046 C 
ATOM     19  C   UNL     1       1.012  -0.070   0.036  1.00  0.00    -0.027 A 
ATOM     20  C   UNL     1       0.334  -1.301   0.090  1.00  0.00     0.006 A 
ATOM     21  C   UNL     1      -1.042  -1.377  -0.130  1.00  0.00     0.014 A 
ATOM     22  C   UNL     1      -1.077   0.967  -0.603  1.00  0.00     0.040 A 
ATOM     23  C   UNL     1      -1.775  -0.241  -0.493  1.00  0.00     0.041 A 
BRANCH  23  24
ATOM     24  C   UNL     1      -3.242  -0.436  -0.746  1.00  0.00     0.251 C 
ATOM     25  O   UNL     1      -3.696  -1.584  -0.730  1.00  0.00    -0.269 OA
ATOM     26  N   UNL     1      -4.146   0.583  -0.961  1.00  0.00    -0.349 N 
ATOM     27  H   UNL     1      -5.073   0.279  -1.100  1.00  0.00     0.164 HD
BRANCH  26  28
ATOM     28  C   UNL     1      -3.980   1.989  -1.017  1.00  0.00     0.082 C 
ATOM     29  C   UNL     1      -3.876   2.674  -2.352  1.00  0.00     0.027 C 
ATOM     30  C   UNL     1      -5.071   2.913  -1.481  1.00  0.00     0.027 C 
ENDBRANCH  26  28
ENDBRANCH  23  24
ENDBRANCH  14  17
ENDBRANCH   7  13
ENDBRANCH   3   6
ENDBRANCH   1   2
BRANCH   1  31
ATOM     31  C   UNL     1      -3.411   8.578   1.188  1.00  0.00     0.042 C 
BRANCH  31  32
ATOM     32  C   UNL     1      -4.156   9.730   0.528  1.00  0.00     0.118 C 
BRANCH  32  33
ATOM     33  N   UNL     1      -5.281  10.239   1.310  1.00  0.00    -0.352 N 
ATOM     34  C   UNL     1      -6.278  11.135   0.946  1.00  0.00     0.251 C 
ATOM     35  H   UNL     1      -5.342   9.895   2.231  1.00  0.00     0.163 HD
ATOM     36  O   UNL     1      -7.142  11.448   1.742  1.00  0.00    -0.269 OA
BRANCH  34  37
ATOM     37  C   UNL     1      -6.352  11.594  -0.464  1.00  0.00     0.039 A 
ATOM     38  C   UNL     1      -7.592  11.530  -1.108  1.00  0.00     0.014 A 
ATOM     39  C   UNL     1      -5.194  11.845  -1.192  1.00  0.00     0.014 A 
ATOM     40  C   UNL     1      -7.630  11.436  -2.497  1.00  0.00     0.010 A 
ATOM     41  C   UNL     1      -5.215  11.640  -2.556  1.00  0.00     0.010 A 
ATOM     42  C   UNL     1      -6.425  11.367  -3.197  1.00  0.00    -0.014 A 
BRANCH  42  43
ATOM     43  C   UNL     1      -6.335  10.885  -4.569  1.00  0.00     0.031 A 
ATOM     44  C   UNL     1      -6.084  11.824  -5.677  1.00  0.00     0.074 A 
ATOM     45  C   UNL     1      -6.442   9.561  -4.822  1.00  0.00     0.049 A 
ATOM     46  N   UNL     1      -6.534  11.655  -6.875  1.00  0.00    -0.248 NA
ATOM     47  C   UNL     1      -5.319  13.056  -5.511  1.00  0.00     0.031 C 
ATOM     48  C   UNL     1      -6.177   8.878  -6.084  1.00  0.00     0.029 A 
ATOM     49  N   UNL     1      -7.014   8.576  -4.005  1.00  0.00    -0.354 N 
ATOM     50  C   UNL     1      -5.920  12.585  -7.678  1.00  0.00     0.074 A 
ATOM     51  C   UNL     1      -5.221  13.474  -6.777  1.00  0.00     0.031 C 
ATOM     52  C   UNL     1      -6.822   7.701  -6.082  1.00  0.00     0.029 A 
ATOM     53  C   UNL     1      -7.625   7.646  -4.873  1.00  0.00     0.049 A 
ATOM     54  H   UNL     1      -6.994   8.540  -3.021  1.00  0.00     0.167 HD
ATOM     55  C   UNL     1      -5.940  12.441  -9.031  1.00  0.00     0.037 A 
ATOM     56  C   UNL     1      -8.969   7.417  -4.833  1.00  0.00     0.037 A 
ATOM     57  C   UNL     1      -6.650  11.236  -9.437  1.00  0.00     0.049 A 
ATOM     58  C   UNL     1      -9.685   7.759  -6.119  1.00  0.00     0.074 A 
ATOM     59  C   UNL     1      -6.209   9.955  -9.725  1.00  0.00     0.029 A 
ATOM     60  N   UNL     1      -8.024  11.147  -9.250  1.00  0.00    -0.354 N 
ATOM     61  N   UNL     1      -9.164   8.486  -7.068  1.00  0.00    -0.248 NA
ATOM     62  C   UNL     1     -11.055   7.348  -6.423  1.00  0.00     0.031 C 
ATOM     63  C   UNL     1      -7.316   9.078  -9.641  1.00  0.00     0.029 A 
ATOM     64  C   UNL     1      -8.435   9.829  -9.331  1.00  0.00     0.049 A 
ATOM     65  H   UNL     1      -8.620  11.912  -9.083  1.00  0.00     0.167 HD
ATOM     66  C   UNL     1     -10.091   8.684  -8.057  1.00  0.00     0.074 A 
ATOM     67  C   UNL     1     -11.251   7.929  -7.621  1.00  0.00     0.031 C 
ATOM     68  C   UNL     1      -9.831   9.468  -9.143  1.00  0.00     0.037 A 
BRANCH  55  69
ATOM     69  C   UNL     1      -5.029  13.244  -9.917  1.00  0.00     0.057 A 
ATOM     70  C   UNL     1      -4.318  12.649 -10.974  1.00  0.00     0.134 A 
ATOM     71  C   UNL     1      -4.774  14.612  -9.723  1.00  0.00     0.134 A 
ATOM     72  F   UNL     1      -4.511  11.371 -11.322  1.00  0.00    -0.206 F 
ATOM     73  C   UNL     1      -3.349  13.337 -11.714  1.00  0.00     0.040 A 
ATOM     74  C   UNL     1      -3.774  15.301 -10.423  1.00  0.00     0.040 A 
ATOM     75  F   UNL     1      -5.490  15.329  -8.844  1.00  0.00    -0.206 F 
ATOM     76  C   UNL     1      -3.047  14.658 -11.416  1.00  0.00     0.006 A 
ENDBRANCH  55  69
BRANCH  56  77
ATOM     77  C   UNL     1      -9.544   7.547  -3.470  1.00  0.00     0.057 A 
ATOM     78  C   UNL     1      -9.152   6.620  -2.486  1.00  0.00     0.134 A 
ATOM     79  C   UNL     1     -10.130   8.735  -3.027  1.00  0.00     0.134 A 
ATOM     80  F   UNL     1      -8.583   5.458  -2.844  1.00  0.00    -0.206 F 
ATOM     81  C   UNL     1      -9.230   6.912  -1.122  1.00  0.00     0.040 A 
ATOM     82  C   UNL     1     -10.222   9.034  -1.662  1.00  0.00     0.040 A 
ATOM     83  F   UNL     1     -10.514   9.675  -3.902  1.00  0.00    -0.206 F 
ATOM     84  C   UNL     1      -9.734   8.140  -0.708  1.00  0.00     0.006 A 
ENDBRANCH  56  77
BRANCH  68  85
ATOM     85  C   UNL     1     -10.835   9.907 -10.174  1.00  0.00     0.057 A 
ATOM     86  C   UNL     1     -12.183  10.170  -9.895  1.00  0.00     0.134 A 
ATOM     87  C   UNL     1     -10.413  10.236 -11.482  1.00  0.00     0.134 A 
ATOM     88  F   UNL     1     -12.690   9.993  -8.667  1.00  0.00    -0.206 F 
ATOM     89  C   UNL     1     -13.061  10.681 -10.860  1.00  0.00     0.040 A 
ATOM     90  C   UNL     1     -11.267  10.793 -12.437  1.00  0.00     0.040 A 
ATOM     91  F   UNL     1      -9.145  10.049 -11.879  1.00  0.00    -0.206 F 
ATOM     92  C   UNL     1     -12.602  11.008 -12.131  1.00  0.00     0.006 A 
ENDBRANCH  68  85
ENDBRANCH  42  43
ENDBRANCH  34  37
ENDBRANCH  32  33
ENDBRANCH  31  32
ENDBRANCH   1  31
TORSDOF 14
