REMARK SMILES O=C(NCCCNC(=O)[C@H]1CC[C@@H](CNC(=O)[C@@H]2C[C@H]3CC[C@@H]2[NH2+]3)O1)c1ccc(-c2c3nc(c(-c4c(F)cccc4F)c4ccc([nH]4)c(-c4c(F)cccc4F)c4nc(c(-c5c(F)cccc5F)c5ccc2[nH]5)C=C4)C=C3)cc1
REMARK SMILES IDX 5 1 4 2 3 3 1 4 2 5 26 7 27 8 79 9 28 10 78 11 29 12 30 13
REMARK SMILES IDX 31 14 72 15 32 16 77 17 71 18 73 19 33 20 76 21 70 22 69 23
REMARK SMILES IDX 34 25 60 26 43 27 59 28 44 29 47 30 58 31 74 32 45 33 46 34
REMARK SMILES IDX 57 36 75 37 48 38 35 39 36 40 41 41 37 42 38 43 40 44 42 45
REMARK SMILES IDX 39 46 61 47 62 48 67 49 63 50 64 51 66 52 68 53 65 54 49 55
REMARK SMILES IDX 50 56 55 57 51 58 52 59 54 60 56 61 53 62 6 63 7 64 8 65
REMARK SMILES IDX 9 67 10 68 11 69 25 70 12 71 13 72 14 73 15 74 16 75 17 77
REMARK SMILES IDX 18 78 19 79 23 80 20 81 22 82 24 83 21 84
REMARK H PARENT 3 6 73 24 47 35 7 66 15 76 24 85 24 86
REMARK Flexibility Score: inf
ROOT
ATOM      1  C   UNL     1       5.301   4.137  -1.181  1.00  0.00     0.042 C 
ENDROOT
BRANCH   1   2
ATOM      2  C   UNL     1       6.208   3.793  -2.355  1.00  0.00     0.118 C 
BRANCH   2   3
ATOM      3  N   UNL     1       6.271   2.359  -2.606  1.00  0.00    -0.352 N 
ATOM      4  O   UNL     1       5.835   0.427  -3.677  1.00  0.00    -0.269 OA
ATOM      5  C   UNL     1       5.903   1.650  -3.722  1.00  0.00     0.251 C 
ATOM      6  H   UNL     1       6.631   1.819  -1.865  1.00  0.00     0.163 HD
BRANCH   5   7
ATOM      7  C   UNL     1       5.591   2.364  -4.977  1.00  0.00     0.039 A 
ATOM      8  C   UNL     1       6.397   3.419  -5.409  1.00  0.00     0.014 A 
ATOM      9  C   UNL     1       4.509   1.941  -5.755  1.00  0.00     0.014 A 
ATOM     10  C   UNL     1       6.058   4.125  -6.555  1.00  0.00     0.010 A 
ATOM     11  C   UNL     1       4.223   2.592  -6.957  1.00  0.00     0.010 A 
ATOM     12  C   UNL     1       4.994   3.693  -7.363  1.00  0.00    -0.014 A 
BRANCH  12  13
ATOM     13  C   UNL     1       4.803   4.321  -8.693  1.00  0.00     0.031 A 
ATOM     14  C   UNL     1       3.564   5.098  -9.026  1.00  0.00     0.074 A 
ATOM     15  C   UNL     1       5.785   4.174  -9.604  1.00  0.00     0.049 A 
ATOM     16  N   UNL     1       3.249   5.694 -10.148  1.00  0.00    -0.248 NA
ATOM     17  C   UNL     1       2.542   5.221  -7.974  1.00  0.00     0.031 C 
ATOM     18  C   UNL     1       7.025   3.420  -9.391  1.00  0.00     0.029 A 
ATOM     19  N   UNL     1       5.907   4.650 -10.883  1.00  0.00    -0.354 N 
ATOM     20  C   UNL     1       1.992   6.247  -9.947  1.00  0.00     0.074 A 
ATOM     21  C   UNL     1       1.591   5.904  -8.599  1.00  0.00     0.031 C 
ATOM     22  C   UNL     1       7.792   3.510 -10.486  1.00  0.00     0.029 A 
ATOM     23  C   UNL     1       7.070   4.262 -11.503  1.00  0.00     0.049 A 
ATOM     24  H   UNL     1       5.226   5.215 -11.316  1.00  0.00     0.167 HD
ATOM     25  C   UNL     1       1.248   6.975 -10.815  1.00  0.00     0.037 A 
ATOM     26  C   UNL     1       7.496   4.456 -12.764  1.00  0.00     0.037 A 
ATOM     27  C   UNL     1       1.668   7.323 -12.149  1.00  0.00     0.049 A 
ATOM     28  C   UNL     1       6.626   5.234 -13.708  1.00  0.00     0.074 A 
ATOM     29  C   UNL     1       1.013   8.115 -13.077  1.00  0.00     0.029 A 
ATOM     30  N   UNL     1       2.840   6.890 -12.751  1.00  0.00    -0.354 N 
ATOM     31  N   UNL     1       5.472   5.813 -13.480  1.00  0.00    -0.248 NA
ATOM     32  C   UNL     1       7.111   5.379 -15.086  1.00  0.00     0.031 C 
ATOM     33  C   UNL     1       1.755   8.107 -14.261  1.00  0.00     0.029 A 
ATOM     34  C   UNL     1       2.903   7.361 -14.053  1.00  0.00     0.049 A 
ATOM     35  H   UNL     1       3.525   6.331 -12.318  1.00  0.00     0.167 HD
ATOM     36  C   UNL     1       5.101   6.401 -14.680  1.00  0.00     0.074 A 
ATOM     37  C   UNL     1       6.168   6.138 -15.623  1.00  0.00     0.031 C 
ATOM     38  C   UNL     1       3.972   7.088 -14.979  1.00  0.00     0.037 A 
BRANCH  25  39
ATOM     39  C   UNL     1      -0.109   7.440 -10.373  1.00  0.00     0.057 A 
ATOM     40  C   UNL     1      -0.274   8.486  -9.457  1.00  0.00     0.134 A 
ATOM     41  C   UNL     1      -1.265   6.907 -10.960  1.00  0.00     0.134 A 
ATOM     42  F   UNL     1       0.790   9.037  -8.856  1.00  0.00    -0.206 F 
ATOM     43  C   UNL     1      -1.540   8.983  -9.139  1.00  0.00     0.040 A 
ATOM     44  C   UNL     1      -2.533   7.410 -10.667  1.00  0.00     0.040 A 
ATOM     45  F   UNL     1      -1.177   5.909 -11.853  1.00  0.00    -0.206 F 
ATOM     46  C   UNL     1      -2.673   8.453  -9.754  1.00  0.00     0.006 A 
ENDBRANCH  25  39
BRANCH  26  47
ATOM     47  C   UNL     1       8.779   3.864 -13.221  1.00  0.00     0.057 A 
ATOM     48  C   UNL     1       9.857   4.668 -13.604  1.00  0.00     0.134 A 
ATOM     49  C   UNL     1       8.944   2.476 -13.317  1.00  0.00     0.134 A 
ATOM     50  F   UNL     1       9.756   6.005 -13.550  1.00  0.00    -0.206 F 
ATOM     51  C   UNL     1      11.041   4.116 -14.097  1.00  0.00     0.040 A 
ATOM     52  C   UNL     1      10.134   1.910 -13.774  1.00  0.00     0.040 A 
ATOM     53  F   UNL     1       7.952   1.648 -12.956  1.00  0.00    -0.206 F 
ATOM     54  C   UNL     1      11.182   2.732 -14.179  1.00  0.00     0.006 A 
ENDBRANCH  26  47
BRANCH  38  55
ATOM     55  C   UNL     1       3.847   7.614 -16.378  1.00  0.00     0.057 A 
ATOM     56  C   UNL     1       3.629   6.762 -17.468  1.00  0.00     0.134 A 
ATOM     57  C   UNL     1       3.922   8.989 -16.635  1.00  0.00     0.134 A 
ATOM     58  F   UNL     1       3.566   5.434 -17.291  1.00  0.00    -0.206 F 
ATOM     59  C   UNL     1       3.515   7.256 -18.768  1.00  0.00     0.040 A 
ATOM     60  C   UNL     1       3.779   9.498 -17.926  1.00  0.00     0.040 A 
ATOM     61  F   UNL     1       4.123   9.860 -15.635  1.00  0.00    -0.206 F 
ATOM     62  C   UNL     1       3.583   8.629 -18.998  1.00  0.00     0.006 A 
ENDBRANCH  38  55
ENDBRANCH  12  13
ENDBRANCH   5   7
ENDBRANCH   2   3
ENDBRANCH   1   2
BRANCH   1  63
ATOM     63  C   UNL     1       5.818   3.611   0.153  1.00  0.00     0.117 C 
BRANCH  63  64
ATOM     64  N   UNL     1       7.054   4.269   0.534  1.00  0.00    -0.354 N 
ATOM     65  C   UNL     1       7.240   5.226   1.493  1.00  0.00     0.249 C 
ATOM     66  H   UNL     1       7.859   3.991   0.041  1.00  0.00     0.163 HD
ATOM     67  O   UNL     1       8.358   5.734   1.591  1.00  0.00    -0.272 OA
BRANCH  65  68
ATOM     68  C   UNL     1       6.065   5.573   2.433  1.00  0.00     0.207 C 
ATOM     69  C   UNL     1       6.403   6.676   3.416  1.00  0.00     0.045 C 
ATOM     70  O   UNL     1       4.916   6.036   1.709  1.00  0.00    -0.363 OA
ATOM     71  C   UNL     1       6.044   7.911   2.631  1.00  0.00     0.037 C 
ATOM     72  C   UNL     1       4.826   7.476   1.826  1.00  0.00     0.138 C 
BRANCH  72  73
ATOM     73  C   UNL     1       4.751   8.075   0.412  1.00  0.00     0.147 C 
BRANCH  73  74
ATOM     74  N   UNL     1       3.704   9.070   0.222  1.00  0.00    -0.353 N 
ATOM     75  C   UNL     1       3.698  10.354  -0.213  1.00  0.00     0.229 C 
ATOM     76  H   UNL     1       2.808   8.738   0.461  1.00  0.00     0.163 HD
ATOM     77  O   UNL     1       2.577  10.840  -0.427  1.00  0.00    -0.275 OA
BRANCH  75  78
ATOM     78  C   UNL     1       4.918  11.264  -0.350  1.00  0.00     0.142 C 
ATOM     79  C   UNL     1       6.249  10.708  -0.860  1.00  0.00     0.084 C 
ATOM     80  C   UNL     1       5.301  11.842   1.016  1.00  0.00     0.195 C 
ATOM     81  C   UNL     1       7.159  10.843   0.376  1.00  0.00     0.183 C 
ATOM     82  C   UNL     1       6.295  13.007   0.862  1.00  0.00     0.072 C 
ATOM     83  N   UNL     1       6.197  10.774   1.489  1.00  0.00    -0.341 N 
ATOM     84  C   UNL     1       7.614  12.293   0.527  1.00  0.00     0.071 C 
ATOM     85  H   UNL     1       6.624  10.993   2.389  1.00  0.00     0.346 HD
ATOM     86  H   UNL     1       5.769   9.866   1.669  1.00  0.00     0.346 HD
ENDBRANCH  75  78
ENDBRANCH  73  74
ENDBRANCH  72  73
ENDBRANCH  65  68
ENDBRANCH  63  64
ENDBRANCH   1  63
TORSDOF 13
