REMARK SMILES CC(C)(C)OC(=O)N1C[C@@H](C(=O)NCCCNC(=O)c2ccc(-c3c4nc(c(-c5c(F)cccc5F)c5ccc([nH]5)c(-c5c(F)cccc5F)c5nc(c(-c6c(F)cccc6F)c6ccc3[nH]6)C=C5)C=C4)cc2)[C@@]2(C1)C(=O)Nc1ccccc12
REMARK SMILES IDX 14 1 13 2 11 3 12 4 10 6 8 7 9 8 75 9 74 10 76 11 84 12
REMARK SMILES IDX 77 13 78 14 79 15 83 16 80 18 82 19 81 20 6 21 7 22 5 23
REMARK SMILES IDX 2 24 1 25 3 26 4 27 15 28 16 29 17 30 18 31 19 33 20 34
REMARK SMILES IDX 21 35 73 36 22 37 72 38 23 39 24 40 25 41 66 42 26 43 71 44
REMARK SMILES IDX 65 45 67 46 27 47 70 48 64 49 63 50 28 52 54 53 37 54 53 55
REMARK SMILES IDX 38 56 41 57 52 58 68 59 39 60 40 61 51 63 69 64 42 65 29 66
REMARK SMILES IDX 30 67 35 68 31 69 32 70 34 71 36 72 33 73 55 74 56 75 61 76
REMARK SMILES IDX 57 77 58 78 60 79 62 80 59 81 43 82 44 83 49 84 45 85 46 86
REMARK SMILES IDX 48 87 50 88 47 89
REMARK H PARENT 13 5 78 17 17 32 67 51 41 62
REMARK Flexibility Score: inf
ROOT
ATOM      1  C   UNL     1       1.085  -6.167   2.382  1.00  0.00     0.117 C 
ENDROOT
BRANCH   1   2
ATOM      2  N   UNL     1       1.066  -6.834   3.677  1.00  0.00    -0.356 N 
ATOM      3  C   UNL     1       1.129  -6.436   4.972  1.00  0.00     0.226 C 
ATOM      4  O   UNL     1       1.037  -7.351   5.801  1.00  0.00    -0.275 OA
ATOM      5  H   UNL     1       0.989  -7.811   3.591  1.00  0.00     0.163 HD
BRANCH   3   6
ATOM      6  C   UNL     1       1.328  -5.013   5.477  1.00  0.00     0.120 C 
ATOM      7  N   UNL     1       1.083  -3.192   3.983  1.00  0.00    -0.306 N 
ATOM      8  C   UNL     1       0.333  -4.024   4.904  1.00  0.00     0.138 C 
ATOM      9  C   UNL     1       2.522  -3.464   4.033  1.00  0.00     0.145 C 
ATOM     10  C   UNL     1       2.700  -4.343   5.286  1.00  0.00     0.107 C 
ATOM     11  C   UNL     1       2.940  -3.325   6.450  1.00  0.00     0.237 C 
ATOM     12  C   UNL     1       3.926  -5.225   5.443  1.00  0.00    -0.006 A 
ATOM     13  O   UNL     1       2.204  -2.420   6.811  1.00  0.00    -0.274 OA
ATOM     14  N   UNL     1       4.166  -3.600   7.021  1.00  0.00    -0.325 N 
ATOM     15  C   UNL     1       4.737  -4.726   6.466  1.00  0.00     0.045 A 
ATOM     16  C   UNL     1       4.277  -6.438   4.870  1.00  0.00     0.007 A 
ATOM     17  H   UNL     1       4.581  -3.061   7.732  1.00  0.00     0.169 HD
ATOM     18  C   UNL     1       5.890  -5.346   6.910  1.00  0.00     0.026 A 
ATOM     19  C   UNL     1       5.428  -7.105   5.314  1.00  0.00     0.000 A 
ATOM     20  C   UNL     1       6.234  -6.559   6.322  1.00  0.00     0.002 A 
BRANCH   7  21
ATOM     21  C   UNL     1       0.434  -2.155   3.353  1.00  0.00     0.410 C 
ATOM     22  O   UNL     1      -0.725  -1.864   3.618  1.00  0.00    -0.224 OA
BRANCH  21  23
ATOM     23  O   UNL     1       1.192  -1.547   2.405  1.00  0.00    -0.444 OA
BRANCH  23  24
ATOM     24  C   UNL     1       0.696  -0.364   1.709  1.00  0.00     0.106 C 
ATOM     25  C   UNL     1       1.470  -0.316   0.383  1.00  0.00     0.056 C 
ATOM     26  C   UNL     1       1.049   0.865   2.551  1.00  0.00     0.056 C 
ATOM     27  C   UNL     1      -0.804  -0.372   1.364  1.00  0.00     0.056 C 
ENDBRANCH  23  24
ENDBRANCH  21  23
ENDBRANCH   7  21
ENDBRANCH   3   6
ENDBRANCH   1   2
BRANCH   1  28
ATOM     28  C   UNL     1       2.431  -6.272   1.661  1.00  0.00     0.042 C 
BRANCH  28  29
ATOM     29  C   UNL     1       2.853  -7.695   1.302  1.00  0.00     0.118 C 
BRANCH  29  30
ATOM     30  N   UNL     1       2.128  -8.204   0.152  1.00  0.00    -0.352 N 
ATOM     31  C   UNL     1       2.595  -8.588  -1.081  1.00  0.00     0.251 C 
ATOM     32  H   UNL     1       1.155  -8.286   0.274  1.00  0.00     0.163 HD
ATOM     33  O   UNL     1       1.799  -8.761  -1.999  1.00  0.00    -0.269 OA
BRANCH  31  34
ATOM     34  C   UNL     1       4.043  -8.793  -1.324  1.00  0.00     0.039 A 
ATOM     35  C   UNL     1       4.586  -8.362  -2.540  1.00  0.00     0.014 A 
ATOM     36  C   UNL     1       4.850  -9.475  -0.409  1.00  0.00     0.014 A 
ATOM     37  C   UNL     1       5.938  -8.581  -2.822  1.00  0.00     0.010 A 
ATOM     38  C   UNL     1       6.212  -9.646  -0.667  1.00  0.00     0.010 A 
ATOM     39  C   UNL     1       6.767  -9.211  -1.881  1.00  0.00    -0.014 A 
BRANCH  39  40
ATOM     40  C   UNL     1       8.208  -9.442  -2.161  1.00  0.00     0.031 A 
ATOM     41  C   UNL     1       8.733 -10.842  -2.333  1.00  0.00     0.074 A 
ATOM     42  C   UNL     1       9.056  -8.397  -2.219  1.00  0.00     0.049 A 
ATOM     43  N   UNL     1       9.965 -11.248  -2.513  1.00  0.00    -0.248 NA
ATOM     44  C   UNL     1       7.745 -11.930  -2.272  1.00  0.00     0.031 C 
ATOM     45  C   UNL     1       8.681  -6.994  -2.045  1.00  0.00     0.029 A 
ATOM     46  N   UNL     1      10.411  -8.357  -2.433  1.00  0.00    -0.354 N 
ATOM     47  C   UNL     1       9.902 -12.634  -2.574  1.00  0.00     0.074 A 
ATOM     48  C   UNL     1       8.517 -13.002  -2.369  1.00  0.00     0.031 C 
ATOM     49  C   UNL     1       9.776  -6.228  -2.177  1.00  0.00     0.029 A 
ATOM     50  C   UNL     1      10.933  -7.087  -2.412  1.00  0.00     0.049 A 
ATOM     51  H   UNL     1      10.957  -9.161  -2.587  1.00  0.00     0.167 HD
ATOM     52  C   UNL     1      10.902 -13.520  -2.798  1.00  0.00     0.037 A 
ATOM     53  C   UNL     1      12.202  -6.662  -2.560  1.00  0.00     0.037 A 
ATOM     54  C   UNL     1      12.276 -13.156  -3.029  1.00  0.00     0.049 A 
ATOM     55  C   UNL     1      13.296  -7.664  -2.802  1.00  0.00     0.074 A 
ATOM     56  C   UNL     1      13.352 -13.980  -3.309  1.00  0.00     0.029 A 
ATOM     57  N   UNL     1      12.762 -11.857  -3.010  1.00  0.00    -0.354 N 
ATOM     58  N   UNL     1      13.214  -8.969  -2.895  1.00  0.00    -0.248 NA
ATOM     59  C   UNL     1      14.657  -7.133  -2.963  1.00  0.00     0.031 C 
ATOM     60  C   UNL     1      14.496 -13.183  -3.430  1.00  0.00     0.029 A 
ATOM     61  C   UNL     1      14.124 -11.859  -3.260  1.00  0.00     0.049 A 
ATOM     62  H   UNL     1      12.219 -11.053  -2.843  1.00  0.00     0.167 HD
ATOM     63  C   UNL     1      14.505  -9.413  -3.149  1.00  0.00     0.074 A 
ATOM     64  C   UNL     1      15.349  -8.238  -3.207  1.00  0.00     0.031 C 
ATOM     65  C   UNL     1      14.950 -10.681  -3.321  1.00  0.00     0.037 A 
BRANCH  52  66
ATOM     66  C   UNL     1      10.544 -14.977  -2.809  1.00  0.00     0.057 A 
ATOM     67  C   UNL     1       9.825 -15.550  -3.865  1.00  0.00     0.134 A 
ATOM     68  C   UNL     1      10.950 -15.823  -1.769  1.00  0.00     0.134 A 
ATOM     69  F   UNL     1       9.396 -14.792  -4.886  1.00  0.00    -0.206 F 
ATOM     70  C   UNL     1       9.501 -16.908  -3.876  1.00  0.00     0.040 A 
ATOM     71  C   UNL     1      10.653 -17.187  -1.780  1.00  0.00     0.040 A 
ATOM     72  F   UNL     1      11.648 -15.339  -0.730  1.00  0.00    -0.206 F 
ATOM     73  C   UNL     1       9.921 -17.732  -2.834  1.00  0.00     0.006 A 
ENDBRANCH  52  66
BRANCH  53  74
ATOM     74  C   UNL     1      12.506  -5.211  -2.510  1.00  0.00     0.057 A 
ATOM     75  C   UNL     1      12.849  -4.508  -3.671  1.00  0.00     0.134 A 
ATOM     76  C   UNL     1      12.462  -4.494  -1.309  1.00  0.00     0.134 A 
ATOM     77  F   UNL     1      12.927  -5.148  -4.848  1.00  0.00    -0.206 F 
ATOM     78  C   UNL     1      13.151  -3.147  -3.639  1.00  0.00     0.040 A 
ATOM     79  C   UNL     1      12.741  -3.127  -1.265  1.00  0.00     0.040 A 
ATOM     80  F   UNL     1      12.135  -5.110  -0.164  1.00  0.00    -0.206 F 
ATOM     81  C   UNL     1      13.092  -2.451  -2.433  1.00  0.00     0.006 A 
ENDBRANCH  53  74
BRANCH  65  82
ATOM     82  C   UNL     1      16.409 -10.861  -3.617  1.00  0.00     0.057 A 
ATOM     83  C   UNL     1      17.386 -10.716  -2.625  1.00  0.00     0.134 A 
ATOM     84  C   UNL     1      16.836 -11.217  -4.902  1.00  0.00     0.134 A 
ATOM     85  F   UNL     1      17.040 -10.362  -1.378  1.00  0.00    -0.206 F 
ATOM     86  C   UNL     1      18.740 -10.902  -2.905  1.00  0.00     0.040 A 
ATOM     87  C   UNL     1      18.186 -11.427  -5.189  1.00  0.00     0.040 A 
ATOM     88  F   UNL     1      15.949 -11.377  -5.896  1.00  0.00    -0.206 F 
ATOM     89  C   UNL     1      19.142 -11.265  -4.189  1.00  0.00     0.006 A 
ENDBRANCH  65  82
ENDBRANCH  39  40
ENDBRANCH  31  34
ENDBRANCH  29  30
ENDBRANCH  28  29
ENDBRANCH   1  28
TORSDOF 13
