REMARK SMILES COc1ccc(-c2cc(Cl)cc3c2O[C@@H](C(F)(F)F)C(C(=O)NCCCNC(=O)c2ccc(-c4c5nc(c(-c6c(F)cccc6F)c6ccc([nH]6)c(-c6c(F)cccc6F)c6nc(c(-c7c(F)cccc7F)c7ccc4[nH]7)C=C6)C=C5)cc2)=C3)cc1C
REMARK SMILES IDX 25 1 24 2 23 3 21 4 22 5 20 7 7 8 8 9 13 10 9 11 12 12 14 13
REMARK SMILES IDX 10 14 11 15 84 16 15 17 6 18 3 19 4 20 86 21 5 22 85 23
REMARK SMILES IDX 87 24 2 25 1 26 16 27 17 28 18 29 19 30 26 31 27 32 28 33
REMARK SMILES IDX 29 35 30 36 31 37 83 38 32 39 82 40 33 41 34 42 35 43 76 44
REMARK SMILES IDX 36 45 81 46 75 47 77 48 37 49 80 50 74 51 73 52 38 54 64 55
REMARK SMILES IDX 47 56 63 57 48 58 51 59 62 60 78 61 49 62 50 63 61 65 79 66
REMARK SMILES IDX 52 67 39 68 40 69 45 70 41 71 42 72 44 73 46 74 43 75 65 76
REMARK SMILES IDX 66 77 71 78 67 79 68 80 70 81 72 82 69 83 53 84 54 85 59 86
REMARK SMILES IDX 55 87 56 88 58 89 60 90 57 91
REMARK H PARENT 23 6 27 34 77 53 51 64
REMARK Flexibility Score: inf
ROOT
ATOM      1  C   UNL     1      -2.768  -7.773   2.062  1.00  0.00     0.042 C 
ENDROOT
BRANCH   1   2
ATOM      2  C   UNL     1      -1.446  -8.313   1.525  1.00  0.00     0.118 C 
BRANCH   2   3
ATOM      3  N   UNL     1      -0.340  -7.383   1.659  1.00  0.00    -0.352 N 
ATOM      4  C   UNL     1       0.901  -7.513   2.210  1.00  0.00     0.251 C 
ATOM      5  O   UNL     1       1.805  -6.869   1.670  1.00  0.00    -0.270 OA
ATOM      6  H   UNL     1      -0.519  -6.491   1.282  1.00  0.00     0.163 HD
BRANCH   4   7
ATOM      7  C   UNL     1       1.178  -8.300   3.493  1.00  0.00     0.067 C 
ATOM      8  C   UNL     1       0.986  -4.659   5.207  1.00  0.00     0.026 A 
ATOM      9  C   UNL     1       1.923  -4.276   6.187  1.00  0.00     0.033 A 
ATOM     10  C   UNL     1       1.007  -6.007   4.853  1.00  0.00     0.135 A 
ATOM     11  C   UNL     1       3.002  -5.107   6.503  1.00  0.00     0.042 A 
ATOM     12  C   UNL     1       2.234  -6.722   4.908  1.00  0.00     0.019 A 
ATOM     13  O   UNL     1      -0.196  -6.706   4.607  1.00  0.00    -0.475 OA
ATOM     14  Cl  UNL     1       4.157  -4.587   7.666  1.00  0.00    -0.084 Cl
ATOM     15  C   UNL     1       3.216  -6.287   5.790  1.00  0.00     0.032 A 
ATOM     16  C   UNL     1       2.374  -7.950   4.042  1.00  0.00     0.025 C 
ATOM     17  C   UNL     1       0.120  -8.135   4.575  1.00  0.00     0.314 C 
BRANCH   8  18
ATOM     18  C   UNL     1       0.700  -3.617   4.181  1.00  0.00    -0.014 A 
ATOM     19  C   UNL     1       0.477  -1.407   2.416  1.00  0.00     0.121 A 
ATOM     20  C   UNL     1      -0.641  -1.922   3.092  1.00  0.00     0.047 A 
ATOM     21  C   UNL     1       1.730  -1.993   2.600  1.00  0.00    -0.008 A 
ATOM     22  C   UNL     1      -0.537  -3.018   3.969  1.00  0.00     0.013 A 
ATOM     23  C   UNL     1       1.806  -3.117   3.440  1.00  0.00     0.016 A 
ATOM     24  C   UNL     1       3.002  -1.463   2.002  1.00  0.00     0.048 C 
BRANCH  19  25
ATOM     25  O   UNL     1       0.261  -0.252   1.712  1.00  0.00    -0.496 OA
ATOM     26  C   UNL     1       0.693  -0.293   0.354  1.00  0.00     0.278 C 
ENDBRANCH  19  25
ENDBRANCH   8  18
BRANCH  17  27
ATOM     27  C   UNL     1      -0.956  -9.222   4.673  1.00  0.00     0.429 C 
ATOM     28  F   UNL     1      -0.893  -9.839   5.886  1.00  0.00    -0.167 F 
ATOM     29  F   UNL     1      -2.210  -8.761   4.545  1.00  0.00    -0.167 F 
ATOM     30  F   UNL     1      -0.770 -10.215   3.769  1.00  0.00    -0.167 F 
ENDBRANCH  17  27
ENDBRANCH   4   7
ENDBRANCH   2   3
ENDBRANCH   1   2
BRANCH   1  31
ATOM     31  C   UNL     1      -3.744  -7.329   0.980  1.00  0.00     0.118 C 
BRANCH  31  32
ATOM     32  N   UNL     1      -4.339  -8.449   0.239  1.00  0.00    -0.352 N 
ATOM     33  C   UNL     1      -5.328  -8.443  -0.743  1.00  0.00     0.251 C 
ATOM     34  H   UNL     1      -3.985  -9.338   0.470  1.00  0.00     0.163 HD
ATOM     35  O   UNL     1      -5.600  -9.438  -1.366  1.00  0.00    -0.269 OA
BRANCH  33  36
ATOM     36  C   UNL     1      -5.945  -7.140  -1.089  1.00  0.00     0.039 A 
ATOM     37  C   UNL     1      -5.791  -6.683  -2.401  1.00  0.00     0.014 A 
ATOM     38  C   UNL     1      -6.313  -6.281  -0.064  1.00  0.00     0.014 A 
ATOM     39  C   UNL     1      -5.682  -5.315  -2.617  1.00  0.00     0.010 A 
ATOM     40  C   UNL     1      -6.075  -4.938  -0.252  1.00  0.00     0.010 A 
ATOM     41  C   UNL     1      -5.669  -4.471  -1.510  1.00  0.00    -0.014 A 
BRANCH  41  42
ATOM     42  C   UNL     1      -5.083  -3.135  -1.532  1.00  0.00     0.031 A 
ATOM     43  C   UNL     1      -5.934  -1.954  -1.296  1.00  0.00     0.074 A 
ATOM     44  C   UNL     1      -3.739  -3.005  -1.625  1.00  0.00     0.049 A 
ATOM     45  N   UNL     1      -5.583  -0.738  -1.535  1.00  0.00    -0.248 NA
ATOM     46  C   UNL     1      -7.305  -2.067  -0.819  1.00  0.00     0.031 C 
ATOM     47  C   UNL     1      -2.937  -1.825  -1.314  1.00  0.00     0.029 A 
ATOM     48  N   UNL     1      -2.835  -3.885  -2.243  1.00  0.00    -0.354 N 
ATOM     49  C   UNL     1      -6.540   0.096  -1.001  1.00  0.00     0.074 A 
ATOM     50  C   UNL     1      -7.623  -0.784  -0.636  1.00  0.00     0.031 C 
ATOM     51  C   UNL     1      -1.772  -1.906  -1.974  1.00  0.00     0.029 A 
ATOM     52  C   UNL     1      -1.853  -3.065  -2.843  1.00  0.00     0.049 A 
ATOM     53  H   UNL     1      -2.877  -4.868  -2.255  1.00  0.00     0.167 HD
ATOM     54  C   UNL     1      -6.234   1.415  -0.826  1.00  0.00     0.037 A 
ATOM     55  C   UNL     1      -1.670  -3.031  -4.194  1.00  0.00     0.037 A 
ATOM     56  C   UNL     1      -4.962   1.736  -1.483  1.00  0.00     0.049 A 
ATOM     57  C   UNL     1      -1.858  -1.658  -4.798  1.00  0.00     0.074 A 
ATOM     58  C   UNL     1      -3.665   1.884  -1.018  1.00  0.00     0.029 A 
ATOM     59  N   UNL     1      -4.873   1.643  -2.869  1.00  0.00    -0.354 N 
ATOM     60  N   UNL     1      -2.510  -0.691  -4.214  1.00  0.00    -0.248 NA
ATOM     61  C   UNL     1      -1.341  -1.270  -6.107  1.00  0.00     0.031 C 
ATOM     62  C   UNL     1      -2.789   1.815  -2.132  1.00  0.00     0.029 A 
ATOM     63  C   UNL     1      -3.553   1.649  -3.275  1.00  0.00     0.049 A 
ATOM     64  H   UNL     1      -5.645   1.580  -3.476  1.00  0.00     0.167 HD
ATOM     65  C   UNL     1      -2.538   0.407  -5.034  1.00  0.00     0.074 A 
ATOM     66  C   UNL     1      -1.771   0.002  -6.198  1.00  0.00     0.031 C 
ATOM     67  C   UNL     1      -3.204   1.549  -4.687  1.00  0.00     0.037 A 
BRANCH  54  68
ATOM     68  C   UNL     1      -6.929   2.345   0.155  1.00  0.00     0.057 A 
ATOM     69  C   UNL     1      -6.261   3.484   0.655  1.00  0.00     0.134 A 
ATOM     70  C   UNL     1      -8.203   2.151   0.720  1.00  0.00     0.134 A 
ATOM     71  F   UNL     1      -5.081   3.882   0.163  1.00  0.00    -0.206 F 
ATOM     72  C   UNL     1      -6.768   4.282   1.692  1.00  0.00     0.040 A 
ATOM     73  C   UNL     1      -8.705   2.915   1.784  1.00  0.00     0.040 A 
ATOM     74  F   UNL     1      -9.067   1.256   0.239  1.00  0.00    -0.206 F 
ATOM     75  C   UNL     1      -7.981   3.979   2.287  1.00  0.00     0.006 A 
ENDBRANCH  54  68
BRANCH  55  76
ATOM     76  C   UNL     1      -1.991  -4.318  -4.862  1.00  0.00     0.057 A 
ATOM     77  C   UNL     1      -1.210  -5.445  -4.552  1.00  0.00     0.134 A 
ATOM     78  C   UNL     1      -3.235  -4.549  -5.456  1.00  0.00     0.134 A 
ATOM     79  F   UNL     1      -0.003  -5.291  -3.983  1.00  0.00    -0.206 F 
ATOM     80  C   UNL     1      -1.695  -6.746  -4.706  1.00  0.00     0.040 A 
ATOM     81  C   UNL     1      -3.725  -5.850  -5.630  1.00  0.00     0.040 A 
ATOM     82  F   UNL     1      -4.046  -3.527  -5.762  1.00  0.00    -0.206 F 
ATOM     83  C   UNL     1      -2.973  -6.949  -5.214  1.00  0.00     0.006 A 
ENDBRANCH  55  76
BRANCH  67  84
ATOM     84  C   UNL     1      -3.530   2.707  -5.603  1.00  0.00     0.057 A 
ATOM     85  C   UNL     1      -3.667   2.605  -6.995  1.00  0.00     0.134 A 
ATOM     86  C   UNL     1      -3.877   3.969  -5.065  1.00  0.00     0.134 A 
ATOM     87  F   UNL     1      -3.487   1.443  -7.638  1.00  0.00    -0.206 F 
ATOM     88  C   UNL     1      -4.061   3.686  -7.797  1.00  0.00     0.040 A 
ATOM     89  C   UNL     1      -4.326   5.037  -5.849  1.00  0.00     0.040 A 
ATOM     90  F   UNL     1      -3.822   4.215  -3.748  1.00  0.00    -0.206 F 
ATOM     91  C   UNL     1      -4.405   4.903  -7.225  1.00  0.00     0.006 A 
ENDBRANCH  67  84
ENDBRANCH  41  42
ENDBRANCH  33  36
ENDBRANCH  31  32
ENDBRANCH   1  31
TORSDOF 13
