REMARK SMILES CC1=C(C)C[C@@H](C(=O)NCCCNC(=O)c2ccc(-c3c4nc(c(-c5c(F)cccc5F)c5ccc([nH]5)c(-c5c(F)cccc5F)c5nc(c(-c6c(F)cccc6F)c6ccc3[nH]6)C=C5)C=C4)cc2)[C@@H](C(=O)NCC[NH+]2CCOCC2)C1
REMARK SMILES IDX 10 1 9 2 7 3 8 4 6 6 1 7 2 8 3 9 82 10 4 11 5 12 70 13 71 14
REMARK SMILES IDX 72 15 73 16 74 18 75 19 76 20 77 21 81 22 78 24 80 25 79 26
REMARK SMILES IDX 11 27 12 28 13 29 14 30 15 32 16 33 17 34 69 35 18 36 68 37
REMARK SMILES IDX 19 38 20 39 21 40 62 41 22 42 67 43 61 44 63 45 23 46 66 47
REMARK SMILES IDX 60 48 59 49 24 51 50 52 33 53 49 54 34 55 37 56 48 57 64 58
REMARK SMILES IDX 35 59 36 60 47 62 65 63 38 64 25 65 26 66 31 67 27 68 28 69
REMARK SMILES IDX 30 70 32 71 29 72 51 73 52 74 57 75 53 76 54 77 56 78 58 79
REMARK SMILES IDX 55 80 39 81 40 82 45 83 41 84 42 85 44 86 46 87 43 88
REMARK H PARENT 9 5 73 17 76 23 13 31 63 50 37 61
REMARK Flexibility Score: inf
ROOT
ATOM      1  C   UNL     1      -0.098   2.270   2.984  1.00  0.00     0.117 C 
ENDROOT
BRANCH   1   2
ATOM      2  N   UNL     1      -0.489   3.646   2.779  1.00  0.00    -0.356 N 
ATOM      3  C   UNL     1      -0.832   4.335   1.663  1.00  0.00     0.224 C 
ATOM      4  O   UNL     1      -1.405   5.414   1.854  1.00  0.00    -0.275 OA
ATOM      5  H   UNL     1      -0.511   4.182   3.604  1.00  0.00     0.163 HD
BRANCH   3   6
ATOM      6  C   UNL     1      -0.608   3.829   0.231  1.00  0.00     0.095 C 
ATOM      7  C   UNL     1       0.690  -0.367  -0.435  1.00  0.00     0.039 C 
ATOM      8  C   UNL     1       0.172   1.046  -0.340  1.00  0.00    -0.074 C 
ATOM      9  C   UNL     1      -1.140   1.344  -0.264  1.00  0.00    -0.074 C 
ATOM     10  C   UNL     1       1.250   2.093  -0.255  1.00  0.00     0.045 C 
ATOM     11  C   UNL     1      -2.237   0.310  -0.221  1.00  0.00     0.039 C 
ATOM     12  C   UNL     1      -1.639   2.761  -0.144  1.00  0.00     0.045 C 
ATOM     13  C   UNL     1       0.845   3.566  -0.240  1.00  0.00     0.095 C 
BRANCH  13  14
ATOM     14  C   UNL     1       1.798   4.532   0.470  1.00  0.00     0.224 C 
ATOM     15  O   UNL     1       1.426   5.673   0.769  1.00  0.00    -0.275 OA
ATOM     16  N   UNL     1       3.087   4.296   0.777  1.00  0.00    -0.350 N 
ATOM     17  H   UNL     1       3.447   4.982   1.385  1.00  0.00     0.163 HD
BRANCH  16  18
ATOM     18  C   UNL     1       4.088   3.293   0.446  1.00  0.00     0.177 C 
BRANCH  18  19
ATOM     19  C   UNL     1       5.384   3.926  -0.109  1.00  0.00     0.283 C 
BRANCH  19  20
ATOM     20  N   UNL     1       6.357   4.478   0.858  1.00  0.00    -0.330 N 
ATOM     21  C   UNL     1       5.847   5.518   1.775  1.00  0.00     0.291 C 
ATOM     22  C   UNL     1       7.502   5.089   0.128  1.00  0.00     0.291 C 
ATOM     23  H   UNL     1       6.612   3.671   1.427  1.00  0.00     0.348 HD
ATOM     24  C   UNL     1       5.475   6.830   1.064  1.00  0.00     0.221 C 
ATOM     25  C   UNL     1       7.164   6.438  -0.543  1.00  0.00     0.221 C 
ATOM     26  O   UNL     1       6.615   7.377   0.391  1.00  0.00    -0.370 OA
ENDBRANCH  19  20
ENDBRANCH  18  19
ENDBRANCH  16  18
ENDBRANCH  13  14
ENDBRANCH   3   6
ENDBRANCH   1   2
BRANCH   1  27
ATOM     27  C   UNL     1       1.359   2.120   3.390  1.00  0.00     0.042 C 
BRANCH  27  28
ATOM     28  C   UNL     1       1.667   2.662   4.778  1.00  0.00     0.118 C 
BRANCH  28  29
ATOM     29  N   UNL     1       1.053   1.861   5.826  1.00  0.00    -0.352 N 
ATOM     30  C   UNL     1       1.627   1.068   6.787  1.00  0.00     0.251 C 
ATOM     31  H   UNL     1       0.069   1.893   5.849  1.00  0.00     0.163 HD
ATOM     32  O   UNL     1       0.927   0.287   7.425  1.00  0.00    -0.269 OA
BRANCH  30  33
ATOM     33  C   UNL     1       3.080   1.139   7.059  1.00  0.00     0.039 A 
ATOM     34  C   UNL     1       3.767  -0.042   7.359  1.00  0.00     0.014 A 
ATOM     35  C   UNL     1       3.757   2.361   7.080  1.00  0.00     0.014 A 
ATOM     36  C   UNL     1       5.136  -0.001   7.634  1.00  0.00     0.010 A 
ATOM     37  C   UNL     1       5.135   2.392   7.270  1.00  0.00     0.010 A 
ATOM     38  C   UNL     1       5.835   1.214   7.569  1.00  0.00    -0.014 A 
BRANCH  38  39
ATOM     39  C   UNL     1       7.292   1.282   7.845  1.00  0.00     0.031 A 
ATOM     40  C   UNL     1       7.798   2.057   9.031  1.00  0.00     0.074 A 
ATOM     41  C   UNL     1       8.162   0.700   6.999  1.00  0.00     0.049 A 
ATOM     42  N   UNL     1       9.031   2.288   9.404  1.00  0.00    -0.248 NA
ATOM     43  C   UNL     1       6.783   2.680   9.895  1.00  0.00     0.031 C 
ATOM     44  C   UNL     1       7.801  -0.045   5.792  1.00  0.00     0.029 A 
ATOM     45  N   UNL     1       9.532   0.649   7.025  1.00  0.00    -0.354 N 
ATOM     46  C   UNL     1       8.939   3.103  10.525  1.00  0.00     0.074 A 
ATOM     47  C   UNL     1       7.533   3.365  10.743  1.00  0.00     0.031 C 
ATOM     48  C   UNL     1       8.919  -0.506   5.211  1.00  0.00     0.029 A 
ATOM     49  C   UNL     1      10.076  -0.060   5.982  1.00  0.00     0.049 A 
ATOM     50  H   UNL     1      10.075   1.081   7.724  1.00  0.00     0.167 HD
ATOM     51  C   UNL     1       9.934   3.574  11.315  1.00  0.00     0.037 A 
ATOM     52  C   UNL     1      11.361  -0.322   5.684  1.00  0.00     0.037 A 
ATOM     53  C   UNL     1      11.328   3.279  11.121  1.00  0.00     0.049 A 
ATOM     54  C   UNL     1      12.448   0.206   6.577  1.00  0.00     0.074 A 
ATOM     55  C   UNL     1      12.405   3.638  11.912  1.00  0.00     0.029 A 
ATOM     56  N   UNL     1      11.838   2.553  10.055  1.00  0.00    -0.354 N 
ATOM     57  N   UNL     1      12.344   0.919   7.671  1.00  0.00    -0.248 NA
ATOM     58  C   UNL     1      13.831  -0.110   6.192  1.00  0.00     0.031 C 
ATOM     59  C   UNL     1      13.572   3.162  11.303  1.00  0.00     0.029 A 
ATOM     60  C   UNL     1      13.217   2.473  10.155  1.00  0.00     0.049 A 
ATOM     61  H   UNL     1      11.300   2.154   9.334  1.00  0.00     0.167 HD
ATOM     62  C   UNL     1      13.643   1.117   8.121  1.00  0.00     0.074 A 
ATOM     63  C   UNL     1      14.517   0.440   7.184  1.00  0.00     0.031 C 
ATOM     64  C   UNL     1      14.072   1.794   9.214  1.00  0.00     0.037 A 
BRANCH  51  65
ATOM     65  C   UNL     1       9.538   4.461  12.460  1.00  0.00     0.057 A 
ATOM     66  C   UNL     1       8.859   3.965  13.581  1.00  0.00     0.134 A 
ATOM     67  C   UNL     1       9.842   5.828  12.441  1.00  0.00     0.134 A 
ATOM     68  F   UNL     1       8.526   2.668  13.655  1.00  0.00    -0.206 F 
ATOM     69  C   UNL     1       8.463   4.803  14.625  1.00  0.00     0.040 A 
ATOM     70  C   UNL     1       9.475   6.671  13.492  1.00  0.00     0.040 A 
ATOM     71  F   UNL     1      10.496   6.367  11.402  1.00  0.00    -0.206 F 
ATOM     72  C   UNL     1       8.775   6.161  14.583  1.00  0.00     0.006 A 
ENDBRANCH  51  65
BRANCH  52  73
ATOM     73  C   UNL     1      11.686  -1.166   4.509  1.00  0.00     0.057 A 
ATOM     74  C   UNL     1      12.132  -2.482   4.677  1.00  0.00     0.134 A 
ATOM     75  C   UNL     1      11.543  -0.693   3.200  1.00  0.00     0.134 A 
ATOM     76  F   UNL     1      12.304  -2.983   5.909  1.00  0.00    -0.206 F 
ATOM     77  C   UNL     1      12.431  -3.297   3.585  1.00  0.00     0.040 A 
ATOM     78  C   UNL     1      11.819  -1.504   2.098  1.00  0.00     0.040 A 
ATOM     79  F   UNL     1      11.113   0.557   2.974  1.00  0.00    -0.206 F 
ATOM     80  C   UNL     1      12.268  -2.810   2.290  1.00  0.00     0.006 A 
ENDBRANCH  52  73
BRANCH  64  81
ATOM     81  C   UNL     1      15.550   1.814   9.469  1.00  0.00     0.057 A 
ATOM     82  C   UNL     1      16.420   2.600   8.704  1.00  0.00     0.134 A 
ATOM     83  C   UNL     1      16.102   1.065  10.516  1.00  0.00     0.134 A 
ATOM     84  F   UNL     1      15.954   3.328   7.678  1.00  0.00    -0.206 F 
ATOM     85  C   UNL     1      17.791   2.627   8.960  1.00  0.00     0.040 A 
ATOM     86  C   UNL     1      17.468   1.101  10.796  1.00  0.00     0.040 A 
ATOM     87  F   UNL     1      15.321   0.296  11.289  1.00  0.00    -0.206 F 
ATOM     88  C   UNL     1      18.318   1.880  10.013  1.00  0.00     0.006 A 
ENDBRANCH  64  81
ENDBRANCH  38  39
ENDBRANCH  30  33
ENDBRANCH  28  29
ENDBRANCH  27  28
ENDBRANCH   1  27
TORSDOF 14
