REMARK SMILES Cc1c(-c2nn(-c3ccccc3)cc2/C=N/O)nnn1-c1ccc(C(=O)NCCCNC(=O)c2ccc(-c3c4nc(c(-c5c(F)cccc5F)c5ccc([nH]5)c(-c5c(F)cccc5F)c5nc(c(-c6c(F)cccc6F)c6ccc3[nH]6)C=C5)C=C4)cc2)cc1
REMARK SMILES IDX 28 1 27 2 25 3 26 4 24 6 21 7 22 8 89 9 23 10 88 11 20 12
REMARK SMILES IDX 1 13 2 14 3 15 18 16 19 17 4 18 5 19 14 20 6 21 13 22 15 23
REMARK SMILES IDX 16 24 17 25 7 27 8 28 12 29 9 30 11 31 10 32 29 33 30 34
REMARK SMILES IDX 31 35 32 36 33 38 34 39 35 40 87 41 36 42 86 43 37 44 38 45
REMARK SMILES IDX 39 46 80 47 40 48 85 49 79 50 81 51 41 52 84 53 78 54 77 55
REMARK SMILES IDX 42 57 68 58 51 59 67 60 52 61 55 62 66 63 82 64 53 65 54 66
REMARK SMILES IDX 65 68 83 69 56 70 43 71 44 72 49 73 45 74 46 75 48 76 50 77
REMARK SMILES IDX 47 78 69 79 70 80 75 81 71 82 72 83 74 84 76 85 73 86 57 87
REMARK SMILES IDX 58 88 63 89 59 90 60 91 62 92 64 93 61 94
REMARK H PARENT 27 5 17 26 31 37 81 56 55 67
REMARK Flexibility Score: inf
ROOT
ATOM      1  C   UNL     1      -2.461   3.288  -4.323  1.00  0.00     0.118 C 
ENDROOT
BRANCH   1   2
ATOM      2  N   UNL     1      -3.768   2.766  -3.964  1.00  0.00    -0.352 N 
ATOM      3  C   UNL     1      -4.163   1.616  -3.330  1.00  0.00     0.251 C 
ATOM      4  O   UNL     1      -5.371   1.450  -3.165  1.00  0.00    -0.269 OA
ATOM      5  H   UNL     1      -4.515   3.352  -4.225  1.00  0.00     0.163 HD
BRANCH   3   6
ATOM      6  C   UNL     1      -3.197   0.621  -2.780  1.00  0.00     0.039 A 
ATOM      7  C   UNL     1      -1.429  -1.073  -1.421  1.00  0.00     0.067 A 
ATOM      8  C   UNL     1      -2.797  -1.137  -1.144  1.00  0.00     0.029 A 
ATOM      9  C   UNL     1      -0.954  -0.255  -2.442  1.00  0.00     0.029 A 
ATOM     10  C   UNL     1      -3.670  -0.258  -1.794  1.00  0.00     0.016 A 
ATOM     11  C   UNL     1      -1.857   0.523  -3.163  1.00  0.00     0.016 A 
BRANCH   7  12
ATOM     12  N   UNL     1      -0.533  -1.903  -0.724  1.00  0.00    -0.217 N 
ATOM     13  C   UNL     1       1.142  -0.204   0.174  1.00  0.00     0.069 C 
ATOM     14  C   UNL     1       0.663  -1.580  -0.106  1.00  0.00     0.071 A 
ATOM     15  C   UNL     1       1.153  -2.816   0.277  1.00  0.00     0.137 A 
ATOM     16  N   UNL     1       0.279  -3.803  -0.079  1.00  0.00    -0.128 NA
ATOM     17  N   UNL     1      -0.778  -3.228  -0.633  1.00  0.00    -0.061 NA
BRANCH  15  18
ATOM     18  C   UNL     1       2.362  -3.150   1.026  1.00  0.00     0.124 A 
ATOM     19  N   UNL     1       2.490  -2.883   2.332  1.00  0.00    -0.165 NA
ATOM     20  C   UNL     1       3.495  -3.815   0.495  1.00  0.00     0.044 A 
ATOM     21  N   UNL     1       3.743  -3.289   2.635  1.00  0.00    -0.240 N 
ATOM     22  C   UNL     1       4.387  -3.839   1.551  1.00  0.00     0.125 A 
BRANCH  20  23
ATOM     23  C   UNL     1       3.740  -4.376  -0.811  1.00  0.00     0.166 C 
ATOM     24  N   UNL     1       2.880  -4.192  -1.758  1.00  0.00    -0.097 NA
BRANCH  24  25
ATOM     25  O   UNL     1       3.298  -4.865  -2.911  1.00  0.00    -0.411 OA
ATOM     26  H   UNL     1       2.778  -4.828  -3.689  1.00  0.00     0.330 HD
ENDBRANCH  24  25
ENDBRANCH  20  23
BRANCH  21  27
ATOM     27  C   UNL     1       4.278  -3.084   3.926  1.00  0.00     0.065 A 
ATOM     28  C   UNL     1       3.512  -3.416   5.050  1.00  0.00     0.028 A 
ATOM     29  C   UNL     1       5.547  -2.512   4.073  1.00  0.00     0.028 A 
ATOM     30  C   UNL     1       4.025  -3.179   6.327  1.00  0.00     0.002 A 
ATOM     31  C   UNL     1       6.024  -2.225   5.353  1.00  0.00     0.002 A 
ATOM     32  C   UNL     1       5.269  -2.564   6.478  1.00  0.00     0.000 A 
ENDBRANCH  21  27
ENDBRANCH  15  18
ENDBRANCH   7  12
ENDBRANCH   3   6
ENDBRANCH   1   2
BRANCH   1  33
ATOM     33  C   UNL     1      -2.115   2.913  -5.766  1.00  0.00     0.042 C 
BRANCH  33  34
ATOM     34  C   UNL     1      -2.824   3.852  -6.717  1.00  0.00     0.118 C 
BRANCH  34  35
ATOM     35  N   UNL     1      -2.299   5.220  -6.657  1.00  0.00    -0.352 N 
ATOM     36  C   UNL     1      -2.353   6.209  -7.643  1.00  0.00     0.251 C 
ATOM     37  H   UNL     1      -1.853   5.474  -5.817  1.00  0.00     0.163 HD
ATOM     38  O   UNL     1      -1.629   7.159  -7.621  1.00  0.00    -0.269 OA
BRANCH  36  39
ATOM     39  C   UNL     1      -3.459   6.077  -8.629  1.00  0.00     0.039 A 
ATOM     40  C   UNL     1      -3.529   6.627  -9.904  1.00  0.00     0.014 A 
ATOM     41  C   UNL     1      -4.613   5.494  -8.151  1.00  0.00     0.014 A 
ATOM     42  C   UNL     1      -4.806   6.588 -10.551  1.00  0.00     0.010 A 
ATOM     43  C   UNL     1      -5.471   4.949  -9.045  1.00  0.00     0.010 A 
ATOM     44  C   UNL     1      -5.901   5.864  -9.963  1.00  0.00    -0.014 A 
BRANCH  44  45
ATOM     45  C   UNL     1      -7.179   5.380 -10.606  1.00  0.00     0.031 A 
ATOM     46  C   UNL     1      -6.658   4.692 -11.885  1.00  0.00     0.074 A 
ATOM     47  C   UNL     1      -8.489   5.409 -10.082  1.00  0.00     0.049 A 
ATOM     48  N   UNL     1      -6.505   5.322 -13.010  1.00  0.00    -0.248 NA
ATOM     49  C   UNL     1      -5.816   3.447 -11.906  1.00  0.00     0.031 C 
ATOM     50  C   UNL     1      -9.073   5.971  -8.812  1.00  0.00     0.029 A 
ATOM     51  N   UNL     1      -9.714   4.975 -10.656  1.00  0.00    -0.354 N 
ATOM     52  C   UNL     1      -6.076   4.367 -13.928  1.00  0.00     0.074 A 
ATOM     53  C   UNL     1      -5.366   3.397 -13.169  1.00  0.00     0.031 C 
ATOM     54  C   UNL     1     -10.382   5.591  -8.615  1.00  0.00     0.029 A 
ATOM     55  C   UNL     1     -10.869   4.845  -9.765  1.00  0.00     0.049 A 
ATOM     56  H   UNL     1      -9.783   4.769 -11.617  1.00  0.00     0.167 HD
ATOM     57  C   UNL     1      -6.792   4.231 -15.081  1.00  0.00     0.037 A 
ATOM     58  C   UNL     1     -12.190   4.465 -10.061  1.00  0.00     0.037 A 
ATOM     59  C   UNL     1      -7.605   5.420 -15.242  1.00  0.00     0.049 A 
ATOM     60  C   UNL     1     -12.320   4.570 -11.532  1.00  0.00     0.074 A 
ATOM     61  C   UNL     1      -7.336   6.769 -15.373  1.00  0.00     0.029 A 
ATOM     62  N   UNL     1      -8.791   5.316 -14.566  1.00  0.00    -0.354 N 
ATOM     63  N   UNL     1     -12.288   5.724 -12.135  1.00  0.00    -0.248 NA
ATOM     64  C   UNL     1     -11.805   3.421 -12.258  1.00  0.00     0.031 C 
ATOM     65  C   UNL     1      -8.300   7.444 -14.563  1.00  0.00     0.029 A 
ATOM     66  C   UNL     1      -9.257   6.525 -14.150  1.00  0.00     0.049 A 
ATOM     67  H   UNL     1      -9.255   4.463 -14.401  1.00  0.00     0.167 HD
ATOM     68  C   UNL     1     -11.264   5.565 -13.049  1.00  0.00     0.074 A 
ATOM     69  C   UNL     1     -11.021   4.105 -13.097  1.00  0.00     0.031 C 
ATOM     70  C   UNL     1     -10.463   6.627 -13.377  1.00  0.00     0.037 A 
BRANCH  57  71
ATOM     71  C   UNL     1      -7.229   2.898 -15.669  1.00  0.00     0.057 A 
ATOM     72  C   UNL     1      -7.866   2.897 -16.922  1.00  0.00     0.134 A 
ATOM     73  C   UNL     1      -7.310   1.673 -14.968  1.00  0.00     0.134 A 
ATOM     74  F   UNL     1      -7.907   4.013 -17.666  1.00  0.00    -0.206 F 
ATOM     75  C   UNL     1      -8.538   1.776 -17.431  1.00  0.00     0.040 A 
ATOM     76  C   UNL     1      -7.935   0.532 -15.488  1.00  0.00     0.040 A 
ATOM     77  F   UNL     1      -6.881   1.531 -13.710  1.00  0.00    -0.206 F 
ATOM     78  C   UNL     1      -8.567   0.584 -16.718  1.00  0.00     0.006 A 
ENDBRANCH  57  71
BRANCH  58  79
ATOM     79  C   UNL     1     -13.231   3.578  -9.353  1.00  0.00     0.057 A 
ATOM     80  C   UNL     1     -14.600   3.379  -9.724  1.00  0.00     0.134 A 
ATOM     81  C   UNL     1     -12.750   2.607  -8.470  1.00  0.00     0.134 A 
ATOM     82  F   UNL     1     -15.204   4.176 -10.620  1.00  0.00    -0.206 F 
ATOM     83  C   UNL     1     -15.398   2.304  -9.230  1.00  0.00     0.040 A 
ATOM     84  C   UNL     1     -13.521   1.527  -7.995  1.00  0.00     0.040 A 
ATOM     85  F   UNL     1     -11.460   2.624  -8.115  1.00  0.00    -0.206 F 
ATOM     86  C   UNL     1     -14.848   1.363  -8.370  1.00  0.00     0.006 A 
ENDBRANCH  58  79
BRANCH  70  87
ATOM     87  C   UNL     1     -10.874   8.009 -12.943  1.00  0.00     0.057 A 
ATOM     88  C   UNL     1     -10.767   8.564 -11.656  1.00  0.00     0.134 A 
ATOM     89  C   UNL     1     -11.277   8.873 -13.961  1.00  0.00     0.134 A 
ATOM     90  F   UNL     1     -10.234   7.874 -10.642  1.00  0.00    -0.206 F 
ATOM     91  C   UNL     1     -11.139   9.892 -11.389  1.00  0.00     0.040 A 
ATOM     92  C   UNL     1     -11.609  10.203 -13.720  1.00  0.00     0.040 A 
ATOM     93  F   UNL     1     -11.289   8.443 -15.232  1.00  0.00    -0.206 F 
ATOM     94  C   UNL     1     -11.574  10.711 -12.426  1.00  0.00     0.006 A 
ENDBRANCH  70  87
ENDBRANCH  44  45
ENDBRANCH  36  39
ENDBRANCH  34  35
ENDBRANCH  33  34
ENDBRANCH   1  33
TORSDOF 15
