REMARK SMILES NC(=O)[C@@H]1CCCCN1c1cncc(C(=O)NCCCNC(=O)c2ccc(-c3c4nc(c(-c5c(F)cccc5F)c5ccc([nH]5)c(-c5c(F)cccc5F)c5nc(c(-c6c(F)cccc6F)c6ccc3[nH]6)C=C5)C=C4)cc2)n1
REMARK SMILES IDX 19 1 18 2 17 3 15 4 16 5 14 7 10 8 11 9 78 10 12 11 13 12
REMARK SMILES IDX 9 13 4 14 5 15 6 16 8 17 7 18 2 19 1 20 3 23 20 24 21 25
REMARK SMILES IDX 22 26 23 28 24 29 25 30 77 31 26 32 76 33 27 34 28 35 29 36
REMARK SMILES IDX 70 37 30 38 75 39 69 40 71 41 31 42 74 43 68 44 67 45 32 47
REMARK SMILES IDX 58 48 41 49 57 50 42 51 45 52 56 53 72 54 43 55 44 56 55 58
REMARK SMILES IDX 73 59 46 60 33 61 34 62 39 63 35 64 36 65 38 66 40 67 37 68
REMARK SMILES IDX 59 69 60 70 65 71 61 72 62 73 64 74 66 75 63 76 47 77 48 78
REMARK SMILES IDX 53 79 49 80 50 81 52 82 54 83 51 84
REMARK H PARENT 17 6 1 21 1 22 21 27 71 46 45 57
REMARK Flexibility Score: inf
ROOT
ATOM      1  C   UNL     1       2.521  -3.461   2.343  1.00  0.00     0.042 C 
ENDROOT
BRANCH   1   2
ATOM      2  C   UNL     1       2.015  -2.025   2.388  1.00  0.00     0.118 C 
BRANCH   2   3
ATOM      3  N   UNL     1       3.020  -1.106   2.892  1.00  0.00    -0.351 N 
ATOM      4  C   UNL     1       3.905  -0.276   2.245  1.00  0.00     0.271 C 
ATOM      5  O   UNL     1       4.678   0.378   2.948  1.00  0.00    -0.267 OA
ATOM      6  H   UNL     1       3.078  -1.071   3.874  1.00  0.00     0.163 HD
BRANCH   4   7
ATOM      7  C   UNL     1       3.961  -0.120   0.760  1.00  0.00     0.148 A 
ATOM      8  C   UNL     1       3.202  -0.632  -1.371  1.00  0.00     0.148 A 
ATOM      9  C   UNL     1       4.122   0.306  -1.864  1.00  0.00     0.157 A 
ATOM     10  N   UNL     1       3.113  -0.835  -0.037  1.00  0.00    -0.222 NA
ATOM     11  N   UNL     1       4.958   1.041  -1.090  1.00  0.00    -0.258 NA
ATOM     12  C   UNL     1       4.854   0.805   0.237  1.00  0.00     0.145 A 
BRANCH   8  13
ATOM     13  N   UNL     1       2.385  -1.328  -2.241  1.00  0.00    -0.343 N 
ATOM     14  C   UNL     1       0.955  -1.668  -2.011  1.00  0.00     0.172 C 
ATOM     15  C   UNL     1       0.822  -3.068  -1.407  1.00  0.00     0.035 C 
ATOM     16  C   UNL     1       1.516  -4.096  -2.301  1.00  0.00     0.004 C 
ATOM     17  C   UNL     1       3.091  -2.284  -3.110  1.00  0.00     0.119 C 
ATOM     18  C   UNL     1       2.973  -3.705  -2.546  1.00  0.00     0.022 C 
BRANCH  14  19
ATOM     19  C   UNL     1       0.038  -0.650  -1.305  1.00  0.00     0.240 C 
ATOM     20  N   UNL     1       0.487   0.024  -0.218  1.00  0.00    -0.368 N 
ATOM     21  H   UNL     1      -0.097   0.675   0.234  1.00  0.00     0.159 HD
ATOM     22  H   UNL     1       1.398  -0.138   0.120  1.00  0.00     0.159 HD
ATOM     23  O   UNL     1      -1.137  -0.499  -1.643  1.00  0.00    -0.273 OA
ENDBRANCH  14  19
ENDBRANCH   8  13
ENDBRANCH   4   7
ENDBRANCH   2   3
ENDBRANCH   1   2
BRANCH   1  24
ATOM     24  C   UNL     1       2.613  -4.101   3.724  1.00  0.00     0.118 C 
BRANCH  24  25
ATOM     25  N   UNL     1       1.307  -4.219   4.363  1.00  0.00    -0.352 N 
ATOM     26  C   UNL     1       0.621  -5.326   4.786  1.00  0.00     0.251 C 
ATOM     27  H   UNL     1       0.843  -3.364   4.514  1.00  0.00     0.163 HD
ATOM     28  O   UNL     1      -0.568  -5.219   5.098  1.00  0.00    -0.269 OA
BRANCH  26  29
ATOM     29  C   UNL     1       1.282  -6.641   4.868  1.00  0.00     0.039 A 
ATOM     30  C   UNL     1       0.568  -7.782   4.492  1.00  0.00     0.014 A 
ATOM     31  C   UNL     1       2.587  -6.760   5.352  1.00  0.00     0.014 A 
ATOM     32  C   UNL     1       1.182  -9.034   4.546  1.00  0.00     0.010 A 
ATOM     33  C   UNL     1       3.225  -7.996   5.330  1.00  0.00     0.010 A 
ATOM     34  C   UNL     1       2.527  -9.146   4.933  1.00  0.00    -0.014 A 
BRANCH  34  35
ATOM     35  C   UNL     1       3.224 -10.455   4.931  1.00  0.00     0.031 A 
ATOM     36  C   UNL     1       3.738 -11.039   6.217  1.00  0.00     0.074 A 
ATOM     37  C   UNL     1       3.459 -11.079   3.761  1.00  0.00     0.049 A 
ATOM     38  N   UNL     1       4.446 -12.123   6.408  1.00  0.00    -0.248 NA
ATOM     39  C   UNL     1       3.442 -10.290   7.449  1.00  0.00     0.031 C 
ATOM     40  C   UNL     1       3.052 -10.588   2.443  1.00  0.00     0.029 A 
ATOM     41  N   UNL     1       4.111 -12.255   3.491  1.00  0.00    -0.354 N 
ATOM     42  C   UNL     1       4.695 -12.176   7.773  1.00  0.00     0.074 A 
ATOM     43  C   UNL     1       4.107 -10.990   8.357  1.00  0.00     0.031 C 
ATOM     44  C   UNL     1       3.444 -11.466   1.507  1.00  0.00     0.029 A 
ATOM     45  C   UNL     1       4.164 -12.559   2.153  1.00  0.00     0.049 A 
ATOM     46  H   UNL     1       4.503 -12.827   4.190  1.00  0.00     0.167 HD
ATOM     47  C   UNL     1       5.336 -13.137   8.479  1.00  0.00     0.037 A 
ATOM     48  C   UNL     1       4.736 -13.598   1.517  1.00  0.00     0.037 A 
ATOM     49  C   UNL     1       5.896 -14.329   7.898  1.00  0.00     0.049 A 
ATOM     50  C   UNL     1       5.443 -14.652   2.323  1.00  0.00     0.074 A 
ATOM     51  C   UNL     1       6.512 -15.392   8.534  1.00  0.00     0.029 A 
ATOM     52  N   UNL     1       5.910 -14.613   6.540  1.00  0.00    -0.354 N 
ATOM     53  N   UNL     1       5.615 -14.723   3.621  1.00  0.00    -0.248 NA
ATOM     54  C   UNL     1       6.029 -15.774   1.577  1.00  0.00     0.031 C 
ATOM     55  C   UNL     1       6.935 -16.300   7.558  1.00  0.00     0.029 A 
ATOM     56  C   UNL     1       6.541 -15.825   6.317  1.00  0.00     0.049 A 
ATOM     57  H   UNL     1       5.527 -14.037   5.838  1.00  0.00     0.167 HD
ATOM     58  C   UNL     1       6.303 -15.907   3.849  1.00  0.00     0.074 A 
ATOM     59  C   UNL     1       6.506 -16.528   2.557  1.00  0.00     0.031 C 
ATOM     60  C   UNL     1       6.727 -16.433   5.024  1.00  0.00     0.037 A 
BRANCH  47  61
ATOM     61  C   UNL     1       5.462 -12.938   9.962  1.00  0.00     0.057 A 
ATOM     62  C   UNL     1       4.354 -13.023  10.816  1.00  0.00     0.134 A 
ATOM     63  C   UNL     1       6.710 -12.687  10.547  1.00  0.00     0.134 A 
ATOM     64  F   UNL     1       3.129 -13.249  10.319  1.00  0.00    -0.206 F 
ATOM     65  C   UNL     1       4.478 -12.837  12.194  1.00  0.00     0.040 A 
ATOM     66  C   UNL     1       6.850 -12.527  11.927  1.00  0.00     0.040 A 
ATOM     67  F   UNL     1       7.813 -12.600   9.789  1.00  0.00    -0.206 F 
ATOM     68  C   UNL     1       5.731 -12.594  12.754  1.00  0.00     0.006 A 
ENDBRANCH  47  61
BRANCH  48  69
ATOM     69  C   UNL     1       4.643 -13.706   0.040  1.00  0.00     0.057 A 
ATOM     70  C   UNL     1       3.843 -14.685  -0.561  1.00  0.00     0.134 A 
ATOM     71  C   UNL     1       5.344 -12.837  -0.804  1.00  0.00     0.134 A 
ATOM     72  F   UNL     1       3.160 -15.556   0.196  1.00  0.00    -0.206 F 
ATOM     73  C   UNL     1       3.757 -14.809  -1.948  1.00  0.00     0.040 A 
ATOM     74  C   UNL     1       5.249 -12.934  -2.193  1.00  0.00     0.040 A 
ATOM     75  F   UNL     1       6.120 -11.872  -0.290  1.00  0.00    -0.206 F 
ATOM     76  C   UNL     1       4.458 -13.927  -2.769  1.00  0.00     0.006 A 
ENDBRANCH  48  69
BRANCH  60  77
ATOM     77  C   UNL     1       7.420 -17.763   4.970  1.00  0.00     0.057 A 
ATOM     78  C   UNL     1       8.722 -17.899   4.473  1.00  0.00     0.134 A 
ATOM     79  C   UNL     1       6.788 -18.914   5.458  1.00  0.00     0.134 A 
ATOM     80  F   UNL     1       9.376 -16.838   3.978  1.00  0.00    -0.206 F 
ATOM     81  C   UNL     1       9.364 -19.139   4.444  1.00  0.00     0.040 A 
ATOM     82  C   UNL     1       7.429 -20.153   5.459  1.00  0.00     0.040 A 
ATOM     83  F   UNL     1       5.543 -18.850   5.955  1.00  0.00    -0.206 F 
ATOM     84  C   UNL     1       8.719 -20.268   4.945  1.00  0.00     0.006 A 
ENDBRANCH  60  77
ENDBRANCH  34  35
ENDBRANCH  26  29
ENDBRANCH  24  25
ENDBRANCH   1  24
TORSDOF 12
