REMARK SMILES CCCOCCO[C@H]1CC[C@@]([NH3+])(C(=O)NCCCNC(=O)c2ccc(-c3c4nc(c(-c5c(F)cccc5F)c5ccc([nH]5)c(-c5c(F)cccc5F)c5nc(c(-c6c(F)cccc6F)c6ccc3[nH]6)C=C5)C=C4)cc2)C1
REMARK SMILES IDX 13 1 14 2 15 3 11 5 8 6 9 7 76 8 10 9 7 10 6 11 5 12 4 13
REMARK SMILES IDX 3 14 2 15 1 16 12 17 16 21 17 22 18 23 19 24 20 25 21 27
REMARK SMILES IDX 22 28 23 29 75 30 24 31 74 32 25 33 26 34 27 35 68 36 28 37
REMARK SMILES IDX 73 38 67 39 69 40 29 41 72 42 66 43 65 44 30 46 56 47 39 48
REMARK SMILES IDX 55 49 40 50 43 51 54 52 70 53 41 54 42 55 53 57 71 58 44 59
REMARK SMILES IDX 31 60 32 61 37 62 33 63 34 64 36 65 38 66 35 67 57 68 58 69
REMARK SMILES IDX 63 70 59 71 60 72 62 73 64 74 61 75 45 76 46 77 51 78 47 79
REMARK SMILES IDX 48 80 50 81 52 82 49 83
REMARK H PARENT 15 4 12 18 12 19 12 20 19 26 69 45 43 56
REMARK Flexibility Score: inf
ROOT
ATOM      1  C   UNL     1      -0.217   3.298  -3.054  1.00  0.00     0.281 C 
ATOM      2  O   UNL     1      -1.039   2.562  -3.624  1.00  0.00    -0.268 OA
ATOM      3  N   UNL     1       0.112   4.419  -3.750  1.00  0.00    -0.351 N 
ATOM      4  H   UNL     1       0.122   4.300  -4.727  1.00  0.00     0.163 HD
ENDROOT
BRANCH   1   5
ATOM      5  C   UNL     1       0.214   2.981  -1.579  1.00  0.00     0.176 C 
ATOM      6  C   UNL     1       1.635   0.987  -1.595  1.00  0.00     0.125 C 
ATOM      7  C   UNL     1       2.419   2.085  -0.887  1.00  0.00     0.039 C 
ATOM      8  C   UNL     1       0.192   1.434  -1.376  1.00  0.00     0.111 C 
ATOM      9  C   UNL     1       1.627   3.383  -1.121  1.00  0.00     0.082 C 
BRANCH   6  10
ATOM     10  O   UNL     1       2.020   1.013  -2.957  1.00  0.00    -0.376 OA
BRANCH  10  11
ATOM     11  C   UNL     1       1.599  -0.078  -3.769  1.00  0.00     0.189 C 
BRANCH  11  12
ATOM     12  C   UNL     1       0.888   0.439  -5.030  1.00  0.00     0.188 C 
BRANCH  12  13
ATOM     13  O   UNL     1       1.399   1.675  -5.539  1.00  0.00    -0.379 OA
BRANCH  13  14
ATOM     14  C   UNL     1       2.744   1.641  -5.999  1.00  0.00     0.160 C 
BRANCH  14  15
ATOM     15  C   UNL     1       3.395   2.994  -5.709  1.00  0.00     0.025 C 
ATOM     16  C   UNL     1       3.531   3.246  -4.218  1.00  0.00     0.006 C 
ENDBRANCH  14  15
ENDBRANCH  13  14
ENDBRANCH  12  13
ENDBRANCH  11  12
ENDBRANCH  10  11
ENDBRANCH   6  10
BRANCH   5  17
ATOM     17  N   UNL     1      -0.804   3.614  -0.705  1.00  0.00    -0.345 N 
ATOM     18  H   UNL     1      -0.786   4.625  -0.840  1.00  0.00     0.345 HD
ATOM     19  H   UNL     1      -0.596   3.397   0.270  1.00  0.00     0.345 HD
ATOM     20  H   UNL     1      -1.728   3.254  -0.943  1.00  0.00     0.345 HD
ENDBRANCH   5  17
ENDBRANCH   1   5
BRANCH   3  21
ATOM     21  C   UNL     1       0.450   5.757  -3.308  1.00  0.00     0.118 C 
BRANCH  21  22
ATOM     22  C   UNL     1       1.541   6.434  -4.150  1.00  0.00     0.042 C 
BRANCH  22  23
ATOM     23  C   UNL     1       1.347   6.440  -5.672  1.00  0.00     0.118 C 
BRANCH  23  24
ATOM     24  N   UNL     1       0.296   7.335  -6.130  1.00  0.00    -0.352 N 
ATOM     25  C   UNL     1       0.343   8.509  -6.844  1.00  0.00     0.251 C 
ATOM     26  H   UNL     1      -0.614   7.048  -5.885  1.00  0.00     0.163 HD
ATOM     27  O   UNL     1      -0.696   9.143  -7.015  1.00  0.00    -0.269 OA
BRANCH  25  28
ATOM     28  C   UNL     1       1.610   9.059  -7.391  1.00  0.00     0.039 A 
ATOM     29  C   UNL     1       1.833  10.437  -7.277  1.00  0.00     0.014 A 
ATOM     30  C   UNL     1       2.537   8.275  -8.081  1.00  0.00     0.014 A 
ATOM     31  C   UNL     1       3.004  11.012  -7.785  1.00  0.00     0.010 A 
ATOM     32  C   UNL     1       3.735   8.840  -8.539  1.00  0.00     0.010 A 
ATOM     33  C   UNL     1       3.988  10.213  -8.389  1.00  0.00    -0.014 A 
BRANCH  33  34
ATOM     34  C   UNL     1       5.283  10.799  -8.841  1.00  0.00     0.031 A 
ATOM     35  C   UNL     1       5.667  10.801 -10.298  1.00  0.00     0.074 A 
ATOM     36  C   UNL     1       6.149  11.289  -7.929  1.00  0.00     0.049 A 
ATOM     37  N   UNL     1       6.782  11.198 -10.861  1.00  0.00    -0.248 NA
ATOM     38  C   UNL     1       4.674  10.272 -11.246  1.00  0.00     0.031 C 
ATOM     39  C   UNL     1       5.922  11.327  -6.484  1.00  0.00     0.029 A 
ATOM     40  N   UNL     1       7.400  11.838  -8.081  1.00  0.00    -0.354 N 
ATOM     41  C   UNL     1       6.632  10.955 -12.221  1.00  0.00     0.074 A 
ATOM     42  C   UNL     1       5.333  10.339 -12.395  1.00  0.00     0.031 C 
ATOM     43  C   UNL     1       6.989  11.879  -5.884  1.00  0.00     0.029 A 
ATOM     44  C   UNL     1       7.995  12.195  -6.893  1.00  0.00     0.049 A 
ATOM     45  H   UNL     1       7.831  11.963  -8.957  1.00  0.00     0.167 HD
ATOM     46  C   UNL     1       7.489  11.233 -13.234  1.00  0.00     0.037 A 
ATOM     47  C   UNL     1       9.216  12.704  -6.640  1.00  0.00     0.037 A 
ATOM     48  C   UNL     1       8.772  11.866 -13.069  1.00  0.00     0.049 A 
ATOM     49  C   UNL     1      10.157  12.979  -7.782  1.00  0.00     0.074 A 
ATOM     50  C   UNL     1       9.682  12.236 -14.046  1.00  0.00     0.029 A 
ATOM     51  N   UNL     1       9.331  12.221 -11.851  1.00  0.00    -0.354 N 
ATOM     52  N   UNL     1       9.974  12.798  -9.066  1.00  0.00    -0.248 NA
ATOM     53  C   UNL     1      11.475  13.535  -7.438  1.00  0.00     0.031 C 
ATOM     54  C   UNL     1      10.812  12.768 -13.416  1.00  0.00     0.029 A 
ATOM     55  C   UNL     1      10.583  12.782 -12.051  1.00  0.00     0.049 A 
ATOM     56  H   UNL     1       8.902  12.094 -10.974  1.00  0.00     0.167 HD
ATOM     57  C   UNL     1      11.134  13.249  -9.684  1.00  0.00     0.074 A 
ATOM     58  C   UNL     1      12.011  13.724  -8.635  1.00  0.00     0.031 C 
ATOM     59  C   UNL     1      11.443  13.268 -11.003  1.00  0.00     0.037 A 
BRANCH  46  60
ATOM     60  C   UNL     1       7.071  10.854 -14.627  1.00  0.00     0.057 A 
ATOM     61  C   UNL     1       6.056  11.540 -15.307  1.00  0.00     0.134 A 
ATOM     62  C   UNL     1       7.738   9.836 -15.322  1.00  0.00     0.134 A 
ATOM     63  F   UNL     1       5.374  12.522 -14.699  1.00  0.00    -0.206 F 
ATOM     64  C   UNL     1       5.705  11.213 -16.619  1.00  0.00     0.040 A 
ATOM     65  C   UNL     1       7.415   9.519 -16.643  1.00  0.00     0.040 A 
ATOM     66  F   UNL     1       8.729   9.147 -14.736  1.00  0.00    -0.206 F 
ATOM     67  C   UNL     1       6.392  10.205 -17.293  1.00  0.00     0.006 A 
ENDBRANCH  46  60
BRANCH  47  68
ATOM     68  C   UNL     1       9.633  12.991  -5.242  1.00  0.00     0.057 A 
ATOM     69  C   UNL     1       9.834  14.304  -4.801  1.00  0.00     0.134 A 
ATOM     70  C   UNL     1       9.875  11.960  -4.324  1.00  0.00     0.134 A 
ATOM     71  F   UNL     1       9.641  15.334  -5.638  1.00  0.00    -0.206 F 
ATOM     72  C   UNL     1      10.286  14.583  -3.510  1.00  0.00     0.040 A 
ATOM     73  C   UNL     1      10.299  12.226  -3.021  1.00  0.00     0.040 A 
ATOM     74  F   UNL     1       9.697  10.680  -4.681  1.00  0.00    -0.206 F 
ATOM     75  C   UNL     1      10.516  13.540  -2.614  1.00  0.00     0.006 A 
ENDBRANCH  47  68
BRANCH  59  76
ATOM     76  C   UNL     1      12.764  13.865 -11.396  1.00  0.00     0.057 A 
ATOM     77  C   UNL     1      13.979  13.218 -11.137  1.00  0.00     0.134 A 
ATOM     78  C   UNL     1      12.817  15.086 -12.081  1.00  0.00     0.134 A 
ATOM     79  F   UNL     1      14.001  12.052 -10.473  1.00  0.00    -0.206 F 
ATOM     80  C   UNL     1      15.200  13.776 -11.524  1.00  0.00     0.040 A 
ATOM     81  C   UNL     1      14.028  15.639 -12.498  1.00  0.00     0.040 A 
ATOM     82  F   UNL     1      11.690  15.755 -12.369  1.00  0.00    -0.206 F 
ATOM     83  C   UNL     1      15.225  14.986 -12.214  1.00  0.00     0.006 A 
ENDBRANCH  59  76
ENDBRANCH  33  34
ENDBRANCH  25  28
ENDBRANCH  23  24
ENDBRANCH  22  23
ENDBRANCH  21  22
ENDBRANCH   3  21
TORSDOF 17
