REMARK SMILES COc1ccc2c(c1)c(CC(=O)NCCCNC(=O)c1ccc(-c3c4nc(c(-c5c(F)cccc5F)c5ccc([nH]5)c(-c5c(F)cccc5F)c5nc(c(-c6c(F)cccc6F)c6ccc3[nH]6)C=C5)C=C4)cc1)c(C)n2C(=O)c1ccc(Cl)cc1
REMARK SMILES IDX 14 1 13 2 11 3 12 4 10 6 9 7 3 8 4 9 8 10 5 11 7 12 6 13
REMARK SMILES IDX 76 14 74 15 75 16 2 17 1 18 77 19 78 20 79 21 80 22 85 23
REMARK SMILES IDX 81 24 84 25 82 26 83 27 15 28 16 29 17 30 18 31 19 33 20 34
REMARK SMILES IDX 21 35 73 36 22 37 72 38 23 39 24 40 25 41 66 42 26 43 71 44
REMARK SMILES IDX 65 45 67 46 27 47 70 48 64 49 63 50 28 52 54 53 37 54 53 55
REMARK SMILES IDX 38 56 41 57 52 58 68 59 39 60 40 61 51 63 69 64 42 65 29 66
REMARK SMILES IDX 30 67 35 68 31 69 32 70 34 71 36 72 33 73 55 74 56 75 61 76
REMARK SMILES IDX 57 77 58 78 60 79 62 80 59 81 43 82 44 83 49 84 45 85 46 86
REMARK SMILES IDX 48 87 50 88 47 89
REMARK H PARENT 13 5 17 32 67 51 41 62
REMARK Flexibility Score: inf
ROOT
ATOM      1  C   UNL     1      -1.124  -6.264  -4.734  1.00  0.00     0.117 C 
ENDROOT
BRANCH   1   2
ATOM      2  N   UNL     1      -1.994  -5.635  -3.758  1.00  0.00    -0.356 N 
ATOM      3  C   UNL     1      -2.424  -4.343  -3.685  1.00  0.00     0.224 C 
ATOM      4  O   UNL     1      -3.155  -4.029  -2.743  1.00  0.00    -0.275 OA
ATOM      5  H   UNL     1      -2.324  -6.228  -3.045  1.00  0.00     0.163 HD
BRANCH   3   6
ATOM      6  C   UNL     1      -2.057  -3.346  -4.771  1.00  0.00     0.138 C 
BRANCH   6   7
ATOM      7  C   UNL     1      -0.593  -3.010  -4.812  1.00  0.00    -0.009 A 
ATOM      8  C   UNL     1       0.804  -1.546  -1.575  1.00  0.00     0.119 A 
ATOM      9  C   UNL     1       2.082  -1.312  -2.054  1.00  0.00     0.048 A 
ATOM     10  C   UNL     1      -0.150  -2.139  -2.402  1.00  0.00     0.057 A 
ATOM     11  C   UNL     1       2.419  -1.635  -3.371  1.00  0.00     0.031 A 
ATOM     12  C   UNL     1       0.172  -2.483  -3.736  1.00  0.00     0.008 A 
ATOM     13  C   UNL     1       1.471  -2.260  -4.207  1.00  0.00     0.057 A 
ATOM     14  N   UNL     1       1.551  -2.775  -5.516  1.00  0.00    -0.280 N 
ATOM     15  C   UNL     1       0.241  -3.071  -5.923  1.00  0.00     0.028 A 
ATOM     16  C   UNL     1      -0.165  -3.416  -7.324  1.00  0.00     0.065 C 
BRANCH   8  17
ATOM     17  O   UNL     1       0.406  -1.256  -0.298  1.00  0.00    -0.497 OA
ATOM     18  C   UNL     1       0.865   0.011   0.170  1.00  0.00     0.278 C 
ENDBRANCH   8  17
BRANCH  14  19
ATOM     19  C   UNL     1       2.740  -2.967  -6.279  1.00  0.00     0.262 C 
ATOM     20  O   UNL     1       2.657  -3.448  -7.412  1.00  0.00    -0.268 OA
BRANCH  19  21
ATOM     21  C   UNL     1       4.103  -2.645  -5.829  1.00  0.00     0.040 A 
ATOM     22  C   UNL     1       4.704  -3.369  -4.792  1.00  0.00     0.015 A 
ATOM     23  C   UNL     1       4.767  -1.572  -6.433  1.00  0.00     0.015 A 
ATOM     24  C   UNL     1       5.940  -2.950  -4.295  1.00  0.00     0.021 A 
ATOM     25  C   UNL     1       6.008  -1.167  -5.940  1.00  0.00     0.021 A 
ATOM     26  C   UNL     1       6.578  -1.842  -4.860  1.00  0.00     0.041 A 
ATOM     27  Cl  UNL     1       8.065  -1.287  -4.199  1.00  0.00    -0.084 Cl
ENDBRANCH  19  21
ENDBRANCH  14  19
ENDBRANCH   6   7
ENDBRANCH   3   6
ENDBRANCH   1   2
BRANCH   1  28
ATOM     28  C   UNL     1       0.258  -6.582  -4.158  1.00  0.00     0.042 C 
BRANCH  28  29
ATOM     29  C   UNL     1       0.205  -7.567  -2.989  1.00  0.00     0.118 C 
BRANCH  29  30
ATOM     30  N   UNL     1      -0.480  -8.802  -3.318  1.00  0.00    -0.352 N 
ATOM     31  C   UNL     1      -0.113 -10.026  -3.791  1.00  0.00     0.251 C 
ATOM     32  H   UNL     1      -1.450  -8.741  -3.160  1.00  0.00     0.163 HD
ATOM     33  O   UNL     1      -1.019 -10.858  -3.885  1.00  0.00    -0.269 OA
BRANCH  31  34
ATOM     34  C   UNL     1       1.244 -10.397  -4.265  1.00  0.00     0.039 A 
ATOM     35  C   UNL     1       2.340  -9.538  -4.350  1.00  0.00     0.014 A 
ATOM     36  C   UNL     1       1.362 -11.702  -4.783  1.00  0.00     0.014 A 
ATOM     37  C   UNL     1       3.458  -9.910  -5.083  1.00  0.00     0.010 A 
ATOM     38  C   UNL     1       2.486 -12.088  -5.491  1.00  0.00     0.010 A 
ATOM     39  C   UNL     1       3.486 -11.152  -5.719  1.00  0.00    -0.014 A 
BRANCH  39  40
ATOM     40  C   UNL     1       4.564 -11.416  -6.658  1.00  0.00     0.031 A 
ATOM     41  C   UNL     1       5.939 -11.375  -6.089  1.00  0.00     0.074 A 
ATOM     42  C   UNL     1       4.318 -11.722  -7.947  1.00  0.00     0.049 A 
ATOM     43  N   UNL     1       6.894 -10.548  -6.369  1.00  0.00    -0.248 NA
ATOM     44  C   UNL     1       6.245 -12.292  -4.982  1.00  0.00     0.031 C 
ATOM     45  C   UNL     1       3.037 -11.996  -8.607  1.00  0.00     0.029 A 
ATOM     46  N   UNL     1       5.218 -11.919  -8.947  1.00  0.00    -0.354 N 
ATOM     47  C   UNL     1       7.986 -10.944  -5.598  1.00  0.00     0.074 A 
ATOM     48  C   UNL     1       7.493 -11.935  -4.675  1.00  0.00     0.031 C 
ATOM     49  C   UNL     1       3.264 -12.545  -9.822  1.00  0.00     0.029 A 
ATOM     50  C   UNL     1       4.692 -12.523 -10.079  1.00  0.00     0.049 A 
ATOM     51  H   UNL     1       6.163 -11.655  -8.873  1.00  0.00     0.167 HD
ATOM     52  C   UNL     1       9.258 -10.563  -5.899  1.00  0.00     0.037 A 
ATOM     53  C   UNL     1       5.407 -13.030 -11.113  1.00  0.00     0.037 A 
ATOM     54  C   UNL     1       9.282  -9.430  -6.784  1.00  0.00     0.049 A 
ATOM     55  C   UNL     1       6.739 -12.371 -11.090  1.00  0.00     0.074 A 
ATOM     56  C   UNL     1       8.878  -8.112  -6.692  1.00  0.00     0.029 A 
ATOM     57  N   UNL     1       9.481  -9.659  -8.123  1.00  0.00    -0.354 N 
ATOM     58  N   UNL     1       6.906 -11.101 -11.347  1.00  0.00    -0.248 NA
ATOM     59  C   UNL     1       7.790 -12.990 -10.294  1.00  0.00     0.031 C 
ATOM     60  C   UNL     1       8.365  -7.795  -7.986  1.00  0.00     0.029 A 
ATOM     61  C   UNL     1       8.539  -8.920  -8.792  1.00  0.00     0.049 A 
ATOM     62  H   UNL     1      10.167 -10.241  -8.525  1.00  0.00     0.167 HD
ATOM     63  C   UNL     1       7.845 -10.668 -10.421  1.00  0.00     0.074 A 
ATOM     64  C   UNL     1       8.400 -11.890  -9.839  1.00  0.00     0.031 C 
ATOM     65  C   UNL     1       7.883  -9.369  -9.996  1.00  0.00     0.037 A 
BRANCH  52  66
ATOM     66  C   UNL     1      10.476 -11.423  -5.678  1.00  0.00     0.057 A 
ATOM     67  C   UNL     1      10.431 -12.829  -5.608  1.00  0.00     0.134 A 
ATOM     68  C   UNL     1      11.756 -10.870  -5.862  1.00  0.00     0.134 A 
ATOM     69  F   UNL     1       9.280 -13.503  -5.499  1.00  0.00    -0.206 F 
ATOM     70  C   UNL     1      11.566 -13.630  -5.756  1.00  0.00     0.040 A 
ATOM     71  C   UNL     1      12.893 -11.665  -6.057  1.00  0.00     0.040 A 
ATOM     72  F   UNL     1      11.929  -9.542  -5.941  1.00  0.00    -0.206 F 
ATOM     73  C   UNL     1      12.797 -13.050  -6.020  1.00  0.00     0.006 A 
ENDBRANCH  52  66
BRANCH  53  74
ATOM     74  C   UNL     1       5.118 -14.281 -11.850  1.00  0.00     0.057 A 
ATOM     75  C   UNL     1       4.443 -15.351 -11.230  1.00  0.00     0.134 A 
ATOM     76  C   UNL     1       5.694 -14.561 -13.094  1.00  0.00     0.134 A 
ATOM     77  F   UNL     1       3.935 -15.227  -9.995  1.00  0.00    -0.206 F 
ATOM     78  C   UNL     1       4.334 -16.615 -11.814  1.00  0.00     0.040 A 
ATOM     79  C   UNL     1       5.598 -15.828 -13.691  1.00  0.00     0.040 A 
ATOM     80  F   UNL     1       6.407 -13.626 -13.739  1.00  0.00    -0.206 F 
ATOM     81  C   UNL     1       4.920 -16.861 -13.048  1.00  0.00     0.006 A 
ENDBRANCH  53  74
BRANCH  65  82
ATOM     82  C   UNL     1       6.961  -8.393 -10.673  1.00  0.00     0.057 A 
ATOM     83  C   UNL     1       7.490  -7.280 -11.331  1.00  0.00     0.134 A 
ATOM     84  C   UNL     1       5.563  -8.450 -10.555  1.00  0.00     0.134 A 
ATOM     85  F   UNL     1       8.819  -7.115 -11.416  1.00  0.00    -0.206 F 
ATOM     86  C   UNL     1       6.668  -6.286 -11.870  1.00  0.00     0.040 A 
ATOM     87  C   UNL     1       4.728  -7.481 -11.116  1.00  0.00     0.040 A 
ATOM     88  F   UNL     1       4.973  -9.411  -9.836  1.00  0.00    -0.206 F 
ATOM     89  C   UNL     1       5.282  -6.391 -11.776  1.00  0.00     0.006 A 
ENDBRANCH  65  82
ENDBRANCH  39  40
ENDBRANCH  31  34
ENDBRANCH  29  30
ENDBRANCH  28  29
ENDBRANCH   1  28
TORSDOF 14
