REMARK SMILES O=C(NCCCNC(=O)[C@@]12CN(CC3CC3)C(=O)[C@@H]1CN(c1nc3ccccc3o1)C2)c1ccc(-c2c3nc(c(-c4c(F)cccc4F)c4ccc([nH]4)c(-c4c(F)cccc4F)c4nc(c(-c5c(F)cccc5F)c5ccc2[nH]5)C=C4)C=C3)cc1
REMARK SMILES IDX 5 1 4 2 3 3 1 4 2 5 32 7 33 8 85 9 34 10 84 11 35 12 36 13
REMARK SMILES IDX 37 14 78 15 38 16 83 17 77 18 79 19 39 20 82 21 76 22 75 23
REMARK SMILES IDX 40 25 66 26 49 27 65 28 50 29 53 30 64 31 80 32 51 33 52 34
REMARK SMILES IDX 63 36 81 37 54 38 41 39 42 40 47 41 43 42 44 43 46 44 48 45
REMARK SMILES IDX 45 46 67 47 68 48 73 49 69 50 70 51 72 52 74 53 71 54 55 55
REMARK SMILES IDX 56 56 61 57 57 58 58 59 60 60 62 61 59 62 6 63 7 64 8 65
REMARK SMILES IDX 9 67 10 68 11 69 19 70 31 71 12 72 17 73 20 74 21 75 18 76
REMARK SMILES IDX 13 77 14 78 15 79 16 80 22 81 23 82 30 83 24 84 29 85 25 86
REMARK SMILES IDX 28 87 26 88 27 89
REMARK H PARENT 3 6 79 24 53 35 7 66
REMARK Flexibility Score: inf
ROOT
ATOM      1  C   UNL     1       4.517  -2.155  -1.198  1.00  0.00     0.042 C 
ENDROOT
BRANCH   1   2
ATOM      2  C   UNL     1       4.298  -0.671  -0.970  1.00  0.00     0.118 C 
BRANCH   2   3
ATOM      3  N   UNL     1       2.882  -0.329  -0.960  1.00  0.00    -0.352 N 
ATOM      4  O   UNL     1       0.960   0.409  -0.033  1.00  0.00    -0.269 OA
ATOM      5  C   UNL     1       2.186   0.398  -0.020  1.00  0.00     0.251 C 
ATOM      6  H   UNL     1       2.355  -0.659  -1.723  1.00  0.00     0.163 HD
BRANCH   5   7
ATOM      7  C   UNL     1       2.931   1.145   1.018  1.00  0.00     0.039 A 
ATOM      8  C   UNL     1       4.113   1.809   0.688  1.00  0.00     0.014 A 
ATOM      9  C   UNL     1       2.461   1.165   2.334  1.00  0.00     0.014 A 
ATOM     10  C   UNL     1       4.917   2.322   1.693  1.00  0.00     0.010 A 
ATOM     11  C   UNL     1       3.211   1.804   3.328  1.00  0.00     0.010 A 
ATOM     12  C   UNL     1       4.464   2.356   3.021  1.00  0.00    -0.014 A 
BRANCH  12  13
ATOM     13  C   UNL     1       5.310   3.030   4.039  1.00  0.00     0.031 A 
ATOM     14  C   UNL     1       5.854   2.283   5.225  1.00  0.00     0.074 A 
ATOM     15  C   UNL     1       5.634   4.324   3.842  1.00  0.00     0.049 A 
ATOM     16  N   UNL     1       6.634   2.718   6.182  1.00  0.00    -0.248 NA
ATOM     17  C   UNL     1       5.464   0.872   5.367  1.00  0.00     0.031 C 
ATOM     18  C   UNL     1       5.155   5.150   2.728  1.00  0.00     0.029 A 
ATOM     19  N   UNL     1       6.466   5.162   4.536  1.00  0.00    -0.354 N 
ATOM     20  C   UNL     1       6.800   1.650   7.055  1.00  0.00     0.074 A 
ATOM     21  C   UNL     1       6.024   0.550   6.526  1.00  0.00     0.031 C 
ATOM     22  C   UNL     1       5.766   6.341   2.767  1.00  0.00     0.029 A 
ATOM     23  C   UNL     1       6.606   6.399   3.955  1.00  0.00     0.049 A 
ATOM     24  H   UNL     1       6.920   4.902   5.370  1.00  0.00     0.167 HD
ATOM     25  C   UNL     1       7.537   1.597   8.192  1.00  0.00     0.037 A 
ATOM     26  C   UNL     1       7.318   7.471   4.342  1.00  0.00     0.037 A 
ATOM     27  C   UNL     1       8.330   2.692   8.691  1.00  0.00     0.049 A 
ATOM     28  C   UNL     1       8.119   7.382   5.606  1.00  0.00     0.074 A 
ATOM     29  C   UNL     1       9.139   2.731   9.814  1.00  0.00     0.029 A 
ATOM     30  N   UNL     1       8.417   3.942   8.094  1.00  0.00    -0.354 N 
ATOM     31  N   UNL     1       8.275   6.361   6.413  1.00  0.00    -0.248 NA
ATOM     32  C   UNL     1       8.834   8.595   6.018  1.00  0.00     0.031 C 
ATOM     33  C   UNL     1       9.675   4.019   9.923  1.00  0.00     0.029 A 
ATOM     34  C   UNL     1       9.248   4.766   8.837  1.00  0.00     0.049 A 
ATOM     35  H   UNL     1       7.956   4.205   7.265  1.00  0.00     0.167 HD
ATOM     36  C   UNL     1       9.124   6.800   7.418  1.00  0.00     0.074 A 
ATOM     37  C   UNL     1       9.464   8.174   7.104  1.00  0.00     0.031 C 
ATOM     38  C   UNL     1       9.579   6.129   8.504  1.00  0.00     0.037 A 
BRANCH  25  39
ATOM     39  C   UNL     1       7.494   0.324   8.992  1.00  0.00     0.057 A 
ATOM     40  C   UNL     1       8.101  -0.859   8.550  1.00  0.00     0.134 A 
ATOM     41  C   UNL     1       6.863   0.294  10.243  1.00  0.00     0.134 A 
ATOM     42  F   UNL     1       8.712  -0.905   7.357  1.00  0.00    -0.206 F 
ATOM     43  C   UNL     1       8.058  -2.031   9.310  1.00  0.00     0.040 A 
ATOM     44  C   UNL     1       6.837  -0.863  11.024  1.00  0.00     0.040 A 
ATOM     45  F   UNL     1       6.267   1.392  10.732  1.00  0.00    -0.206 F 
ATOM     46  C   UNL     1       7.430  -2.033  10.554  1.00  0.00     0.006 A 
ENDBRANCH  25  39
BRANCH  26  47
ATOM     47  C   UNL     1       7.295   8.712   3.527  1.00  0.00     0.057 A 
ATOM     48  C   UNL     1       8.437   9.156   2.850  1.00  0.00     0.134 A 
ATOM     49  C   UNL     1       6.130   9.478   3.395  1.00  0.00     0.134 A 
ATOM     50  F   UNL     1       9.587   8.474   2.947  1.00  0.00    -0.206 F 
ATOM     51  C   UNL     1       8.425  10.323   2.085  1.00  0.00     0.040 A 
ATOM     52  C   UNL     1       6.095  10.629   2.608  1.00  0.00     0.040 A 
ATOM     53  F   UNL     1       4.998   9.101   4.009  1.00  0.00    -0.206 F 
ATOM     54  C   UNL     1       7.248  11.059   1.957  1.00  0.00     0.006 A 
ENDBRANCH  26  47
BRANCH  38  55
ATOM     55  C   UNL     1      10.530   6.864   9.401  1.00  0.00     0.057 A 
ATOM     56  C   UNL     1      10.112   7.918  10.223  1.00  0.00     0.134 A 
ATOM     57  C   UNL     1      11.883   6.504   9.445  1.00  0.00     0.134 A 
ATOM     58  F   UNL     1       8.833   8.322  10.213  1.00  0.00    -0.206 F 
ATOM     59  C   UNL     1      11.013   8.611  11.032  1.00  0.00     0.040 A 
ATOM     60  C   UNL     1      12.787   7.169  10.273  1.00  0.00     0.040 A 
ATOM     61  F   UNL     1      12.346   5.498   8.688  1.00  0.00    -0.206 F 
ATOM     62  C   UNL     1      12.355   8.233  11.062  1.00  0.00     0.006 A 
ENDBRANCH  38  55
ENDBRANCH  12  13
ENDBRANCH   5   7
ENDBRANCH   2   3
ENDBRANCH   1   2
BRANCH   1  63
ATOM     63  C   UNL     1       4.458  -2.507  -2.687  1.00  0.00     0.117 C 
BRANCH  63  64
ATOM     64  N   UNL     1       5.790  -2.891  -3.142  1.00  0.00    -0.355 N 
ATOM     65  C   UNL     1       6.527  -4.011  -2.854  1.00  0.00     0.230 C 
ATOM     66  H   UNL     1       6.226  -2.249  -3.747  1.00  0.00     0.163 HD
ATOM     67  O   UNL     1       7.741  -3.844  -2.715  1.00  0.00    -0.274 OA
BRANCH  65  68
ATOM     68  C   UNL     1       5.939  -5.410  -2.980  1.00  0.00     0.097 C 
ATOM     69  C   UNL     1       5.910  -5.666  -4.488  1.00  0.00     0.139 C 
ATOM     70  C   UNL     1       6.832  -6.553  -2.461  1.00  0.00     0.117 C 
ATOM     71  C   UNL     1       4.625  -5.679  -2.254  1.00  0.00     0.141 C 
ATOM     72  N   UNL     1       6.183  -7.070  -4.652  1.00  0.00    -0.341 N 
ATOM     73  C   UNL     1       6.569  -7.669  -3.457  1.00  0.00     0.228 C 
ATOM     74  C   UNL     1       6.332  -6.899  -1.064  1.00  0.00     0.136 C 
ATOM     75  N   UNL     1       4.960  -6.429  -1.053  1.00  0.00    -0.324 N 
ATOM     76  O   UNL     1       6.711  -8.850  -3.241  1.00  0.00    -0.274 OA
BRANCH  72  77
ATOM     77  C   UNL     1       5.871  -7.750  -5.897  1.00  0.00     0.123 C 
BRANCH  77  78
ATOM     78  C   UNL     1       7.023  -8.410  -6.601  1.00  0.00     0.008 C 
ATOM     79  C   UNL     1       8.402  -8.664  -6.033  1.00  0.00     0.006 C 
ATOM     80  C   UNL     1       7.433  -9.802  -6.178  1.00  0.00     0.006 C 
ENDBRANCH  77  78
ENDBRANCH  72  77
BRANCH  75  81
ATOM     81  C   UNL     1       4.313  -6.139   0.095  1.00  0.00     0.298 A 
ATOM     82  N   UNL     1       4.767  -6.108   1.331  1.00  0.00    -0.193 NA
ATOM     83  O   UNL     1       3.041  -5.644  -0.052  1.00  0.00    -0.423 OA
ATOM     84  C   UNL     1       3.779  -5.448   2.023  1.00  0.00     0.111 A 
ATOM     85  C   UNL     1       2.720  -5.169   1.178  1.00  0.00     0.156 A 
ATOM     86  C   UNL     1       3.708  -5.006   3.350  1.00  0.00     0.032 A 
ATOM     87  C   UNL     1       1.569  -4.477   1.531  1.00  0.00     0.049 A 
ATOM     88  C   UNL     1       2.568  -4.286   3.748  1.00  0.00     0.003 A 
ATOM     89  C   UNL     1       1.521  -4.027   2.854  1.00  0.00     0.004 A 
ENDBRANCH  75  81
ENDBRANCH  65  68
ENDBRANCH  63  64
ENDBRANCH   1  63
TORSDOF 13
