REMARK SMILES CC[C@@H](C)[C@H](NC(=O)C1CCN(C(=O)OC(C)(C)C)CC1)C(=O)NCCCNC(=O)c1ccc(-c2c3nc(c(-c4c(F)cccc4F)c4ccc([nH]4)c(-c4c(F)cccc4F)c4nc(c(-c5c(F)cccc5F)c5ccc2[nH]5)C=C4)C=C3)cc1
REMARK SMILES IDX 25 1 24 2 22 3 23 4 5 6 3 7 4 8 2 9 1 10 6 11 7 12 8 14 9 15
REMARK SMILES IDX 10 16 21 17 11 18 20 19 12 20 13 21 14 22 15 23 16 24 17 25
REMARK SMILES IDX 18 26 19 27 26 28 27 29 28 30 29 31 30 33 31 34 32 35 84 36
REMARK SMILES IDX 33 37 83 38 34 39 35 40 36 41 77 42 37 43 82 44 76 45 78 46
REMARK SMILES IDX 38 47 81 48 75 49 74 50 39 52 65 53 48 54 64 55 49 56 52 57
REMARK SMILES IDX 63 58 79 59 50 60 51 61 62 63 80 64 53 65 40 66 41 67 46 68
REMARK SMILES IDX 42 69 43 70 45 71 47 72 44 73 66 74 67 75 72 76 68 77 69 78
REMARK SMILES IDX 71 79 73 80 70 81 54 82 55 83 60 84 56 85 57 86 59 87 61 88
REMARK SMILES IDX 58 89
REMARK H PARENT 24 5 6 13 28 32 78 51 52 62
REMARK Flexibility Score: inf
ROOT
ATOM      1  C   UNL     1       3.626   3.533   2.354  1.00  0.00     0.117 C 
ENDROOT
BRANCH   1   2
ATOM      2  N   UNL     1       2.610   4.559   2.528  1.00  0.00    -0.354 N 
ATOM      3  C   UNL     1       1.263   4.400   2.720  1.00  0.00     0.242 C 
ATOM      4  O   UNL     1       0.625   5.345   3.190  1.00  0.00    -0.273 OA
ATOM      5  H   UNL     1       2.932   5.489   2.505  1.00  0.00     0.163 HD
BRANCH   3   6
ATOM      6  C   UNL     1       0.601   3.035   2.479  1.00  0.00     0.174 C 
BRANCH   6   7
ATOM      7  C   UNL     1       0.787   2.098   3.758  1.00  0.00     0.018 C 
ATOM      8  C   UNL     1       1.758   2.618   4.846  1.00  0.00     0.010 C 
BRANCH   7   9
ATOM      9  C   UNL     1       1.091   0.609   3.442  1.00  0.00     0.002 C 
ATOM     10  C   UNL     1       1.400  -0.261   4.661  1.00  0.00     0.004 C 
ENDBRANCH   7   9
ENDBRANCH   6   7
BRANCH   6  11
ATOM     11  N   UNL     1       1.109   2.494   1.208  1.00  0.00    -0.344 N 
ATOM     12  C   UNL     1       1.025   2.864  -0.092  1.00  0.00     0.223 C 
ATOM     13  H   UNL     1       1.633   1.670   1.332  1.00  0.00     0.164 HD
ATOM     14  O   UNL     1       1.655   2.115  -0.852  1.00  0.00    -0.275 OA
BRANCH  12  15
ATOM     15  C   UNL     1       0.197   4.037  -0.651  1.00  0.00     0.082 C 
ATOM     16  C   UNL     1       0.186   3.932  -2.200  1.00  0.00     0.035 C 
ATOM     17  C   UNL     1       0.576   5.490  -0.299  1.00  0.00     0.035 C 
ATOM     18  C   UNL     1       1.518   4.390  -2.806  1.00  0.00     0.124 C 
ATOM     19  C   UNL     1       1.822   6.033  -1.006  1.00  0.00     0.124 C 
ATOM     20  N   UNL     1       1.777   5.772  -2.435  1.00  0.00    -0.308 N 
ATOM     21  C   UNL     1       1.964   6.712  -3.438  1.00  0.00     0.410 C 
ATOM     22  O   UNL     1       1.956   6.422  -4.626  1.00  0.00    -0.224 OA
BRANCH  21  23
ATOM     23  O   UNL     1       2.131   7.983  -2.971  1.00  0.00    -0.444 OA
BRANCH  23  24
ATOM     24  C   UNL     1       2.232   9.085  -3.920  1.00  0.00     0.106 C 
ATOM     25  C   UNL     1       3.492   8.971  -4.790  1.00  0.00     0.056 C 
ATOM     26  C   UNL     1       0.959   9.212  -4.770  1.00  0.00     0.056 C 
ATOM     27  C   UNL     1       2.358  10.359  -3.067  1.00  0.00     0.056 C 
ENDBRANCH  23  24
ENDBRANCH  21  23
ENDBRANCH  12  15
ENDBRANCH   6  11
ENDBRANCH   3   6
ENDBRANCH   1   2
BRANCH   1  28
ATOM     28  C   UNL     1       4.397   3.653   1.057  1.00  0.00     0.042 C 
BRANCH  28  29
ATOM     29  C   UNL     1       5.142   4.968   0.934  1.00  0.00     0.118 C 
BRANCH  29  30
ATOM     30  N   UNL     1       6.083   5.183   2.025  1.00  0.00    -0.352 N 
ATOM     31  C   UNL     1       7.451   5.272   2.006  1.00  0.00     0.251 C 
ATOM     32  H   UNL     1       5.673   5.279   2.915  1.00  0.00     0.163 HD
ATOM     33  O   UNL     1       8.079   5.254   3.059  1.00  0.00    -0.269 OA
BRANCH  31  34
ATOM     34  C   UNL     1       8.160   5.362   0.716  1.00  0.00     0.039 A 
ATOM     35  C   UNL     1       9.336   4.632   0.537  1.00  0.00     0.014 A 
ATOM     36  C   UNL     1       7.653   6.147  -0.322  1.00  0.00     0.014 A 
ATOM     37  C   UNL     1       9.959   4.631  -0.710  1.00  0.00     0.010 A 
ATOM     38  C   UNL     1       8.204   6.049  -1.591  1.00  0.00     0.010 A 
ATOM     39  C   UNL     1       9.371   5.301  -1.796  1.00  0.00    -0.014 A 
BRANCH  39  40
ATOM     40  C   UNL     1       9.968   5.249  -3.152  1.00  0.00     0.031 A 
ATOM     41  C   UNL     1      10.415   6.518  -3.824  1.00  0.00     0.074 A 
ATOM     42  C   UNL     1      10.053   4.070  -3.798  1.00  0.00     0.049 A 
ATOM     43  N   UNL     1      10.900   6.690  -5.027  1.00  0.00    -0.248 NA
ATOM     44  C   UNL     1      10.271   7.766  -3.054  1.00  0.00     0.031 C 
ATOM     45  C   UNL     1       9.607   2.779  -3.270  1.00  0.00     0.029 A 
ATOM     46  N   UNL     1      10.540   3.768  -5.044  1.00  0.00    -0.354 N 
ATOM     47  C   UNL     1      11.104   8.057  -5.160  1.00  0.00     0.074 A 
ATOM     48  C   UNL     1      10.629   8.678  -3.944  1.00  0.00     0.031 C 
ATOM     49  C   UNL     1       9.879   1.819  -4.168  1.00  0.00     0.029 A 
ATOM     50  C   UNL     1      10.470   2.431  -5.353  1.00  0.00     0.049 A 
ATOM     51  H   UNL     1      10.905   4.445  -5.659  1.00  0.00     0.167 HD
ATOM     52  C   UNL     1      11.666   8.732  -6.189  1.00  0.00     0.037 A 
ATOM     53  C   UNL     1      10.837   1.775  -6.470  1.00  0.00     0.037 A 
ATOM     54  C   UNL     1      12.156   8.107  -7.388  1.00  0.00     0.049 A 
ATOM     55  C   UNL     1      11.435   2.553  -7.610  1.00  0.00     0.074 A 
ATOM     56  C   UNL     1      12.786   8.695  -8.470  1.00  0.00     0.029 A 
ATOM     57  N   UNL     1      12.068   6.751  -7.663  1.00  0.00    -0.354 N 
ATOM     58  N   UNL     1      11.682   3.838  -7.696  1.00  0.00    -0.248 NA
ATOM     59  C   UNL     1      11.810   1.787  -8.806  1.00  0.00     0.031 C 
ATOM     60  C   UNL     1      13.032   7.703  -9.423  1.00  0.00     0.029 A 
ATOM     61  C   UNL     1      12.612   6.486  -8.909  1.00  0.00     0.049 A 
ATOM     62  H   UNL     1      11.676   6.076  -7.063  1.00  0.00     0.167 HD
ATOM     63  C   UNL     1      12.270   4.030  -8.940  1.00  0.00     0.074 A 
ATOM     64  C   UNL     1      12.356   2.726  -9.565  1.00  0.00     0.031 C 
ATOM     65  C   UNL     1      12.700   5.181  -9.512  1.00  0.00     0.037 A 
BRANCH  52  66
ATOM     66  C   UNL     1      11.788  10.223  -6.056  1.00  0.00     0.057 A 
ATOM     67  C   UNL     1      12.664  10.815  -5.136  1.00  0.00     0.134 A 
ATOM     68  C   UNL     1      11.046  11.079  -6.881  1.00  0.00     0.134 A 
ATOM     69  F   UNL     1      13.393  10.054  -4.305  1.00  0.00    -0.206 F 
ATOM     70  C   UNL     1      12.779  12.201  -5.022  1.00  0.00     0.040 A 
ATOM     71  C   UNL     1      11.176  12.466  -6.798  1.00  0.00     0.040 A 
ATOM     72  F   UNL     1      10.191  10.581  -7.787  1.00  0.00    -0.206 F 
ATOM     73  C   UNL     1      12.040  13.031  -5.862  1.00  0.00     0.006 A 
ENDBRANCH  52  66
BRANCH  53  74
ATOM     74  C   UNL     1      10.679   0.301  -6.557  1.00  0.00     0.057 A 
ATOM     75  C   UNL     1      11.796  -0.543  -6.588  1.00  0.00     0.134 A 
ATOM     76  C   UNL     1       9.416  -0.300  -6.623  1.00  0.00     0.134 A 
ATOM     77  F   UNL     1      13.033  -0.026  -6.545  1.00  0.00    -0.206 F 
ATOM     78  C   UNL     1      11.665  -1.927  -6.706  1.00  0.00     0.040 A 
ATOM     79  C   UNL     1       9.270  -1.686  -6.712  1.00  0.00     0.040 A 
ATOM     80  F   UNL     1       8.305   0.450  -6.588  1.00  0.00    -0.206 F 
ATOM     81  C   UNL     1      10.397  -2.503  -6.764  1.00  0.00     0.006 A 
ENDBRANCH  53  74
BRANCH  65  82
ATOM     82  C   UNL     1      13.347   5.077 -10.863  1.00  0.00     0.057 A 
ATOM     83  C   UNL     1      12.613   4.778 -12.018  1.00  0.00     0.134 A 
ATOM     84  C   UNL     1      14.718   5.324 -11.014  1.00  0.00     0.134 A 
ATOM     85  F   UNL     1      11.299   4.519 -11.941  1.00  0.00    -0.206 F 
ATOM     86  C   UNL     1      13.225   4.701 -13.270  1.00  0.00     0.040 A 
ATOM     87  C   UNL     1      15.334   5.282 -12.265  1.00  0.00     0.040 A 
ATOM     88  F   UNL     1      15.477   5.628  -9.951  1.00  0.00    -0.206 F 
ATOM     89  C   UNL     1      14.588   4.962 -13.397  1.00  0.00     0.006 A 
ENDBRANCH  65  82
ENDBRANCH  39  40
ENDBRANCH  31  34
ENDBRANCH  29  30
ENDBRANCH  28  29
ENDBRANCH   1  28
TORSDOF 16
