REMARK SMILES Cc1ccc(Br)cc1S(=O)(=O)N[C@H]1C=C[C@H](C(=O)NCCCNC(=O)c2ccc(-c3c4nc(c(-c5c(F)cccc5F)c5ccc([nH]5)c(-c5c(F)cccc5F)c5nc(c(-c6c(F)cccc6F)c6ccc3[nH]6)C=C5)C=C4)cc2)C1
REMARK SMILES IDX 20 1 19 2 17 3 18 4 16 6 13 7 14 8 80 9 15 10 12 11 9 13
REMARK SMILES IDX 10 14 11 15 8 16 1 17 2 18 3 19 4 20 7 21 5 22 6 23 21 24
REMARK SMILES IDX 22 25 23 26 24 27 25 29 26 30 27 31 79 32 28 33 78 34 29 35
REMARK SMILES IDX 30 36 31 37 72 38 32 39 77 40 71 41 73 42 33 43 76 44 70 45
REMARK SMILES IDX 69 46 34 48 60 49 43 50 59 51 44 52 47 53 58 54 74 55 45 56
REMARK SMILES IDX 46 57 57 59 75 60 48 61 35 62 36 63 41 64 37 65 38 66 40 67
REMARK SMILES IDX 42 68 39 69 61 70 62 71 67 72 63 73 64 74 66 75 68 76 65 77
REMARK SMILES IDX 49 78 50 79 55 80 51 81 52 82 54 83 56 84 53 85
REMARK H PARENT 19 5 12 12 23 28 73 47 47 58
REMARK Flexibility Score: inf
ROOT
ATOM      1  C   UNL     1       3.233  -0.029  -3.772  1.00  0.00     0.117 C 
ENDROOT
BRANCH   1   2
ATOM      2  N   UNL     1       4.361  -0.908  -4.036  1.00  0.00    -0.356 N 
ATOM      3  C   UNL     1       5.546  -1.160  -3.433  1.00  0.00     0.226 C 
ATOM      4  O   UNL     1       6.329  -1.864  -4.087  1.00  0.00    -0.274 OA
ATOM      5  H   UNL     1       4.231  -1.450  -4.847  1.00  0.00     0.163 HD
BRANCH   3   6
ATOM      6  C   UNL     1       5.995  -0.641  -2.063  1.00  0.00     0.103 C 
ATOM      7  C   UNL     1       5.004   1.400  -1.188  1.00  0.00     0.093 C 
ATOM      8  C   UNL     1       6.409   1.637  -1.636  1.00  0.00    -0.011 C 
ATOM      9  C   UNL     1       4.984  -0.127  -1.053  1.00  0.00     0.042 C 
ATOM     10  C   UNL     1       6.939   0.523  -2.161  1.00  0.00    -0.016 C 
BRANCH   7  11
ATOM     11  N   UNL     1       4.747   2.033   0.083  1.00  0.00    -0.204 NA
ATOM     12  H   UNL     1       4.979   1.348   0.802  1.00  0.00     0.142 HD
BRANCH  11  13
ATOM     13  S   UNL     1       3.223   2.614   0.449  1.00  0.00     0.241 S 
ATOM     14  O   UNL     1       2.790   3.381  -0.706  1.00  0.00    -0.207 OA
ATOM     15  O   UNL     1       3.292   3.201   1.762  1.00  0.00    -0.207 OA
BRANCH  13  16
ATOM     16  C   UNL     1       2.184   1.164   0.559  1.00  0.00     0.086 A 
ATOM     17  C   UNL     1       3.708  -0.085   2.235  1.00  0.00     0.046 C 
ATOM     18  C   UNL     1       2.526   0.025   1.313  1.00  0.00    -0.031 A 
ATOM     19  C   UNL     1       1.684  -1.103   1.232  1.00  0.00     0.006 A 
ATOM     20  C   UNL     1       0.512  -1.083   0.474  1.00  0.00     0.016 A 
ATOM     21  C   UNL     1       0.990   1.189  -0.184  1.00  0.00     0.037 A 
ATOM     22  C   UNL     1       0.159   0.073  -0.211  1.00  0.00     0.019 A 
ATOM     23  Br  UNL     1      -1.461   0.128  -1.183  1.00  0.00    -0.051 Br
ENDBRANCH  13  16
ENDBRANCH  11  13
ENDBRANCH   7  11
ENDBRANCH   3   6
ENDBRANCH   1   2
BRANCH   1  24
ATOM     24  C   UNL     1       3.367   1.296  -4.513  1.00  0.00     0.042 C 
BRANCH  24  25
ATOM     25  C   UNL     1       3.212   1.152  -6.021  1.00  0.00     0.118 C 
BRANCH  25  26
ATOM     26  N   UNL     1       1.856   0.782  -6.405  1.00  0.00    -0.352 N 
ATOM     27  C   UNL     1       0.930   1.470  -7.149  1.00  0.00     0.251 C 
ATOM     28  H   UNL     1       1.557  -0.099  -6.081  1.00  0.00     0.163 HD
ATOM     29  O   UNL     1      -0.233   1.080  -7.188  1.00  0.00    -0.269 OA
BRANCH  27  30
ATOM     30  C   UNL     1       1.327   2.682  -7.896  1.00  0.00     0.039 A 
ATOM     31  C   UNL     1       0.464   3.782  -7.915  1.00  0.00     0.014 A 
ATOM     32  C   UNL     1       2.530   2.724  -8.604  1.00  0.00     0.014 A 
ATOM     33  C   UNL     1       0.837   4.943  -8.595  1.00  0.00     0.010 A 
ATOM     34  C   UNL     1       2.940   3.909  -9.204  1.00  0.00     0.010 A 
ATOM     35  C   UNL     1       2.092   5.025  -9.219  1.00  0.00    -0.014 A 
BRANCH  35  36
ATOM     36  C   UNL     1       2.531   6.253  -9.926  1.00  0.00     0.031 A 
ATOM     37  C   UNL     1       2.814   6.203 -11.403  1.00  0.00     0.074 A 
ATOM     38  C   UNL     1       2.758   7.384  -9.231  1.00  0.00     0.049 A 
ATOM     39  N   UNL     1       3.324   7.123 -12.181  1.00  0.00    -0.248 NA
ATOM     40  C   UNL     1       2.520   4.934 -12.089  1.00  0.00     0.031 C 
ATOM     41  C   UNL     1       2.574   7.545  -7.788  1.00  0.00     0.029 A 
ATOM     42  N   UNL     1       3.206   8.611  -9.648  1.00  0.00    -0.354 N 
ATOM     43  C   UNL     1       3.449   6.532 -13.432  1.00  0.00     0.074 A 
ATOM     44  C   UNL     1       3.002   5.163 -13.302  1.00  0.00     0.031 C 
ATOM     45  C   UNL     1       2.882   8.806  -7.443  1.00  0.00     0.029 A 
ATOM     46  C   UNL     1       3.318   9.530  -8.633  1.00  0.00     0.049 A 
ATOM     47  H   UNL     1       3.427   8.815 -10.585  1.00  0.00     0.167 HD
ATOM     48  C   UNL     1       3.878   7.086 -14.591  1.00  0.00     0.037 A 
ATOM     49  C   UNL     1       3.728  10.811  -8.661  1.00  0.00     0.037 A 
ATOM     50  C   UNL     1       4.262   8.465 -14.731  1.00  0.00     0.049 A 
ATOM     51  C   UNL     1       4.150  11.418  -9.969  1.00  0.00     0.074 A 
ATOM     52  C   UNL     1       4.631   9.146 -15.878  1.00  0.00     0.029 A 
ATOM     53  N   UNL     1       4.313   9.376 -13.688  1.00  0.00    -0.354 N 
ATOM     54  N   UNL     1       4.212  10.864 -11.155  1.00  0.00    -0.248 NA
ATOM     55  C   UNL     1       4.555  12.831  -9.943  1.00  0.00     0.031 C 
ATOM     56  C   UNL     1       4.929  10.466 -15.523  1.00  0.00     0.029 A 
ATOM     57  C   UNL     1       4.715  10.613 -14.162  1.00  0.00     0.049 A 
ATOM     58  H   UNL     1       4.096   9.174 -12.749  1.00  0.00     0.167 HD
ATOM     59  C   UNL     1       4.638  11.863 -12.020  1.00  0.00     0.074 A 
ATOM     60  C   UNL     1       4.809  13.061 -11.223  1.00  0.00     0.031 C 
ATOM     61  C   UNL     1       4.868  11.794 -13.353  1.00  0.00     0.037 A 
BRANCH  48  62
ATOM     62  C   UNL     1       3.942   6.198 -15.798  1.00  0.00     0.057 A 
ATOM     63  C   UNL     1       2.784   5.747 -16.446  1.00  0.00     0.134 A 
ATOM     64  C   UNL     1       5.176   5.803 -16.330  1.00  0.00     0.134 A 
ATOM     65  F   UNL     1       1.571   6.077 -15.978  1.00  0.00    -0.206 F 
ATOM     66  C   UNL     1       2.851   4.911 -17.562  1.00  0.00     0.040 A 
ATOM     67  C   UNL     1       5.256   4.989 -17.461  1.00  0.00     0.040 A 
ATOM     68  F   UNL     1       6.323   6.204 -15.761  1.00  0.00    -0.206 F 
ATOM     69  C   UNL     1       4.091   4.534 -18.076  1.00  0.00     0.006 A 
ENDBRANCH  48  62
BRANCH  49  70
ATOM     70  C   UNL     1       3.723  11.618  -7.416  1.00  0.00     0.057 A 
ATOM     71  C   UNL     1       2.764  12.618  -7.217  1.00  0.00     0.134 A 
ATOM     72  C   UNL     1       4.663  11.412  -6.402  1.00  0.00     0.134 A 
ATOM     73  F   UNL     1       1.848  12.873  -8.163  1.00  0.00    -0.206 F 
ATOM     74  C   UNL     1       2.749  13.396  -6.058  1.00  0.00     0.040 A 
ATOM     75  C   UNL     1       4.648  12.168  -5.228  1.00  0.00     0.040 A 
ATOM     76  F   UNL     1       5.603  10.463  -6.532  1.00  0.00    -0.206 F 
ATOM     77  C   UNL     1       3.692  13.167  -5.057  1.00  0.00     0.006 A 
ENDBRANCH  49  70
BRANCH  61  78
ATOM     78  C   UNL     1       5.297  13.056 -14.036  1.00  0.00     0.057 A 
ATOM     79  C   UNL     1       6.598  13.556 -13.909  1.00  0.00     0.134 A 
ATOM     80  C   UNL     1       4.408  13.757 -14.861  1.00  0.00     0.134 A 
ATOM     81  F   UNL     1       7.491  12.935 -13.122  1.00  0.00    -0.206 F 
ATOM     82  C   UNL     1       6.997  14.720 -14.566  1.00  0.00     0.040 A 
ATOM     83  C   UNL     1       4.801  14.910 -15.540  1.00  0.00     0.040 A 
ATOM     84  F   UNL     1       3.150  13.325 -15.029  1.00  0.00    -0.206 F 
ATOM     85  C   UNL     1       6.099  15.397 -15.389  1.00  0.00     0.006 A 
ENDBRANCH  61  78
ENDBRANCH  35  36
ENDBRANCH  27  30
ENDBRANCH  25  26
ENDBRANCH  24  25
ENDBRANCH   1  24
TORSDOF 13
