REMARK SMILES CC[C@@H]1CCC[C@@](Cc2cccc(O)c2)(C(=O)NCCCNC(=O)c2ccc(-c3c4nc(c(-c5c(F)cccc5F)c5ccc([nH]5)c(-c5c(F)cccc5F)c5nc(c(-c6c(F)cccc6F)c6ccc3[nH]6)C=C5)C=C4)cc2)C1
REMARK SMILES IDX 19 1 18 2 16 3 17 4 7 6 3 7 4 8 79 9 5 10 6 11 2 12 1 13
REMARK SMILES IDX 8 14 9 15 10 16 15 17 11 18 13 19 12 20 14 21 20 23 21 24
REMARK SMILES IDX 22 25 23 26 24 28 25 29 26 30 78 31 27 32 77 33 28 34 29 35
REMARK SMILES IDX 30 36 71 37 31 38 76 39 70 40 72 41 32 42 75 43 69 44 68 45
REMARK SMILES IDX 33 47 59 48 42 49 58 50 43 51 46 52 57 53 73 54 44 55 45 56
REMARK SMILES IDX 56 58 74 59 47 60 34 61 35 62 40 63 36 64 37 65 39 66 41 67
REMARK SMILES IDX 38 68 60 69 61 70 66 71 62 72 63 73 65 74 67 75 64 76 48 77
REMARK SMILES IDX 49 78 54 79 50 80 51 81 53 82 55 83 52 84
REMARK H PARENT 18 5 14 22 22 27 72 46 46 57
REMARK Flexibility Score: inf
ROOT
ATOM      1  C   UNL     1       2.390   1.240   6.943  1.00  0.00     0.117 C 
ENDROOT
BRANCH   1   2
ATOM      2  N   UNL     1       2.910   0.939   5.632  1.00  0.00    -0.356 N 
ATOM      3  C   UNL     1       2.321   1.133   4.420  1.00  0.00     0.226 C 
ATOM      4  O   UNL     1       3.103   1.286   3.475  1.00  0.00    -0.274 OA
ATOM      5  H   UNL     1       3.809   0.539   5.611  1.00  0.00     0.163 HD
BRANCH   3   6
ATOM      6  C   UNL     1       0.781   1.171   4.215  1.00  0.00     0.053 C 
ATOM      7  C   UNL     1       0.907  -0.637   2.319  1.00  0.00    -0.010 C 
ATOM      8  C   UNL     1       0.276  -1.668   3.267  1.00  0.00     0.003 C 
ATOM      9  C   UNL     1       0.515   0.807   2.708  1.00  0.00     0.020 C 
ATOM     10  C   UNL     1       0.470  -1.315   4.734  1.00  0.00     0.001 C 
ATOM     11  C   UNL     1      -0.005   0.110   5.024  1.00  0.00     0.017 C 
BRANCH   7  12
ATOM     12  C   UNL     1       0.510  -0.978   0.869  1.00  0.00     0.000 C 
ATOM     13  C   UNL     1       1.114  -0.051  -0.175  1.00  0.00     0.004 C 
ENDBRANCH   7  12
BRANCH   6  14
ATOM     14  C   UNL     1       0.239   2.634   4.392  1.00  0.00     0.052 C 
BRANCH  14  15
ATOM     15  C   UNL     1       0.346   3.313   5.740  1.00  0.00    -0.043 A 
ATOM     16  C   UNL     1       1.431   4.158   6.030  1.00  0.00     0.004 A 
ATOM     17  C   UNL     1      -0.600   3.066   6.746  1.00  0.00     0.049 A 
ATOM     18  C   UNL     1       1.613   4.668   7.322  1.00  0.00     0.004 A 
ATOM     19  C   UNL     1      -0.403   3.569   8.031  1.00  0.00     0.115 A 
ATOM     20  C   UNL     1       0.705   4.354   8.333  1.00  0.00     0.046 A 
BRANCH  19  21
ATOM     21  O   UNL     1      -1.311   3.230   8.991  1.00  0.00    -0.508 OA
ATOM     22  H   UNL     1      -1.210   3.550   9.866  1.00  0.00     0.293 HD
ENDBRANCH  19  21
ENDBRANCH  14  15
ENDBRANCH   6  14
ENDBRANCH   3   6
ENDBRANCH   1   2
BRANCH   1  23
ATOM     23  C   UNL     1       2.754   0.253   8.021  1.00  0.00     0.042 C 
BRANCH  23  24
ATOM     24  C   UNL     1       4.189   0.409   8.487  1.00  0.00     0.118 C 
BRANCH  24  25
ATOM     25  N   UNL     1       4.488   1.747   9.004  1.00  0.00    -0.352 N 
ATOM     26  C   UNL     1       4.862   2.163  10.257  1.00  0.00     0.251 C 
ATOM     27  H   UNL     1       4.408   2.470   8.339  1.00  0.00     0.163 HD
ATOM     28  O   UNL     1       4.873   3.360  10.531  1.00  0.00    -0.269 OA
BRANCH  26  29
ATOM     29  C   UNL     1       5.222   1.163  11.278  1.00  0.00     0.039 A 
ATOM     30  C   UNL     1       4.822   1.353  12.602  1.00  0.00     0.014 A 
ATOM     31  C   UNL     1       5.922   0.014  10.914  1.00  0.00     0.014 A 
ATOM     32  C   UNL     1       5.046   0.341  13.534  1.00  0.00     0.010 A 
ATOM     33  C   UNL     1       6.003  -1.047  11.798  1.00  0.00     0.010 A 
ATOM     34  C   UNL     1       5.589  -0.889  13.125  1.00  0.00    -0.014 A 
BRANCH  34  35
ATOM     35  C   UNL     1       5.755  -2.019  14.069  1.00  0.00     0.031 A 
ATOM     36  C   UNL     1       7.120  -2.611  14.298  1.00  0.00     0.074 A 
ATOM     37  C   UNL     1       4.669  -2.558  14.657  1.00  0.00     0.049 A 
ATOM     38  N   UNL     1       7.464  -3.631  15.043  1.00  0.00    -0.248 NA
ATOM     39  C   UNL     1       8.242  -2.011  13.557  1.00  0.00     0.031 C 
ATOM     40  C   UNL     1       3.284  -2.129  14.440  1.00  0.00     0.029 A 
ATOM     41  N   UNL     1       4.559  -3.584  15.559  1.00  0.00    -0.354 N 
ATOM     42  C   UNL     1       8.828  -3.803  14.837  1.00  0.00     0.074 A 
ATOM     43  C   UNL     1       9.233  -2.841  13.839  1.00  0.00     0.031 C 
ATOM     44  C   UNL     1       2.471  -2.851  15.227  1.00  0.00     0.029 A 
ATOM     45  C   UNL     1       3.270  -3.815  15.975  1.00  0.00     0.049 A 
ATOM     46  H   UNL     1       5.330  -4.105  15.878  1.00  0.00     0.167 HD
ATOM     47  C   UNL     1       9.676  -4.657  15.454  1.00  0.00     0.037 A 
ATOM     48  C   UNL     1       2.793  -4.699  16.870  1.00  0.00     0.037 A 
ATOM     49  C   UNL     1       9.271  -5.580  16.480  1.00  0.00     0.049 A 
ATOM     50  C   UNL     1       3.761  -5.602  17.581  1.00  0.00     0.074 A 
ATOM     51  C   UNL     1      10.055  -6.446  17.221  1.00  0.00     0.029 A 
ATOM     52  N   UNL     1       7.964  -5.749  16.912  1.00  0.00    -0.354 N 
ATOM     53  N   UNL     1       5.061  -5.699  17.438  1.00  0.00    -0.248 NA
ATOM     54  C   UNL     1       3.198  -6.507  18.591  1.00  0.00     0.031 C 
ATOM     55  C   UNL     1       9.215  -7.165  18.079  1.00  0.00     0.029 A 
ATOM     56  C   UNL     1       7.917  -6.711  17.906  1.00  0.00     0.049 A 
ATOM     57  H   UNL     1       7.186  -5.257  16.564  1.00  0.00     0.167 HD
ATOM     58  C   UNL     1       5.476  -6.649  18.361  1.00  0.00     0.074 A 
ATOM     59  C   UNL     1       4.290  -7.085  19.070  1.00  0.00     0.031 C 
ATOM     60  C   UNL     1       6.724  -7.120  18.603  1.00  0.00     0.037 A 
BRANCH  47  61
ATOM     61  C   UNL     1      11.121  -4.612  15.047  1.00  0.00     0.057 A 
ATOM     62  C   UNL     1      11.936  -3.506  15.332  1.00  0.00     0.134 A 
ATOM     63  C   UNL     1      11.710  -5.687  14.371  1.00  0.00     0.134 A 
ATOM     64  F   UNL     1      11.431  -2.434  15.962  1.00  0.00    -0.206 F 
ATOM     65  C   UNL     1      13.272  -3.458  14.931  1.00  0.00     0.040 A 
ATOM     66  C   UNL     1      13.054  -5.664  13.993  1.00  0.00     0.040 A 
ATOM     67  F   UNL     1      10.991  -6.777  14.066  1.00  0.00    -0.206 F 
ATOM     68  C   UNL     1      13.836  -4.544  14.265  1.00  0.00     0.006 A 
ENDBRANCH  47  61
BRANCH  48  69
ATOM     69  C   UNL     1       1.343  -4.730  17.187  1.00  0.00     0.057 A 
ATOM     70  C   UNL     1       0.867  -4.287  18.428  1.00  0.00     0.134 A 
ATOM     71  C   UNL     1       0.399  -5.200  16.267  1.00  0.00     0.134 A 
ATOM     72  F   UNL     1       1.724  -3.836  19.356  1.00  0.00    -0.206 F 
ATOM     73  C   UNL     1      -0.489  -4.335  18.753  1.00  0.00     0.040 A 
ATOM     74  C   UNL     1      -0.964  -5.228  16.568  1.00  0.00     0.040 A 
ATOM     75  F   UNL     1       0.787  -5.624  15.056  1.00  0.00    -0.206 F 
ATOM     76  C   UNL     1      -1.410  -4.803  17.818  1.00  0.00     0.006 A 
ENDBRANCH  48  69
BRANCH  60  77
ATOM     77  C   UNL     1       6.869  -8.123  19.709  1.00  0.00     0.057 A 
ATOM     78  C   UNL     1       6.393  -9.434  19.590  1.00  0.00     0.134 A 
ATOM     79  C   UNL     1       7.513  -7.772  20.902  1.00  0.00     0.134 A 
ATOM     80  F   UNL     1       5.757  -9.829  18.476  1.00  0.00    -0.206 F 
ATOM     81  C   UNL     1       6.519 -10.352  20.633  1.00  0.00     0.040 A 
ATOM     82  C   UNL     1       7.673  -8.690  21.941  1.00  0.00     0.040 A 
ATOM     83  F   UNL     1       8.003  -6.536  21.075  1.00  0.00    -0.206 F 
ATOM     84  C   UNL     1       7.166  -9.981  21.811  1.00  0.00     0.006 A 
ENDBRANCH  60  77
ENDBRANCH  34  35
ENDBRANCH  26  29
ENDBRANCH  24  25
ENDBRANCH  23  24
ENDBRANCH   1  23
TORSDOF 14
