REMARK SMILES Cc1ccc(S(=O)(=O)Nc2cc3c(cc2C(=O)NCCCNC(=O)c2ccc(-c4c5nc(c(-c6c(F)cccc6F)c6ccc([nH]6)c(-c6c(F)cccc6F)c6nc(c(-c7c(F)cccc7F)c7ccc4[nH]7)C=C6)C=C5)cc2)OCCO3)s1
REMARK SMILES IDX 19 1 18 2 16 3 17 4 15 6 10 7 11 8 12 9 14 10 13 11 82 12
REMARK SMILES IDX 79 13 81 14 80 15 9 16 6 18 7 19 8 20 5 21 1 22 2 23 3 24
REMARK SMILES IDX 83 25 4 26 20 27 21 28 22 29 23 30 24 32 25 33 26 34 78 35
REMARK SMILES IDX 27 36 77 37 28 38 29 39 30 40 71 41 31 42 76 43 70 44 72 45
REMARK SMILES IDX 32 46 75 47 69 48 68 49 33 51 59 52 42 53 58 54 43 55 46 56
REMARK SMILES IDX 57 57 73 58 44 59 45 60 56 62 74 63 47 64 34 65 35 66 40 67
REMARK SMILES IDX 36 68 37 69 39 70 41 71 38 72 60 73 61 74 66 75 62 76 63 77
REMARK SMILES IDX 65 78 67 79 64 80 48 81 49 82 54 83 50 84 51 85 53 86 55 87
REMARK SMILES IDX 52 88
REMARK H PARENT 18 5 9 17 22 31 72 50 46 61
REMARK Flexibility Score: inf
ROOT
ATOM      1  C   UNL     1      -0.739  -3.426   3.082  1.00  0.00     0.118 C 
ENDROOT
BRANCH   1   2
ATOM      2  N   UNL     1      -1.632  -2.280   3.174  1.00  0.00    -0.352 N 
ATOM      3  C   UNL     1      -2.768  -1.871   2.518  1.00  0.00     0.253 C 
ATOM      4  O   UNL     1      -3.299  -0.847   2.945  1.00  0.00    -0.269 OA
ATOM      5  H   UNL     1      -1.356  -1.645   3.873  1.00  0.00     0.163 HD
BRANCH   3   6
ATOM      6  C   UNL     1      -3.356  -2.582   1.345  1.00  0.00     0.067 A 
ATOM      7  C   UNL     1      -4.025  -1.865   0.322  1.00  0.00     0.066 A 
ATOM      8  C   UNL     1      -4.559  -2.542  -0.785  1.00  0.00     0.078 A 
ATOM      9  C   UNL     1      -4.420  -3.923  -0.891  1.00  0.00     0.163 A 
ATOM     10  C   UNL     1      -3.324  -3.977   1.263  1.00  0.00     0.066 A 
ATOM     11  C   UNL     1      -3.781  -4.634   0.124  1.00  0.00     0.162 A 
ATOM     12  O   UNL     1      -4.932  -4.521  -2.013  1.00  0.00    -0.486 OA
ATOM     13  O   UNL     1      -3.563  -5.987   0.073  1.00  0.00    -0.486 OA
ATOM     14  C   UNL     1      -4.985  -5.949  -1.880  1.00  0.00     0.271 C 
ATOM     15  C   UNL     1      -3.699  -6.476  -1.268  1.00  0.00     0.271 C 
BRANCH   7  16
ATOM     16  N   UNL     1      -4.180  -0.442   0.393  1.00  0.00    -0.278 N 
ATOM     17  H   UNL     1      -4.831  -0.038   1.012  1.00  0.00     0.180 HD
BRANCH  16  18
ATOM     18  S   UNL     1      -3.225   0.527  -0.604  1.00  0.00     0.271 S 
ATOM     19  O   UNL     1      -3.241   1.863  -0.063  1.00  0.00    -0.200 OA
ATOM     20  O   UNL     1      -3.657   0.278  -1.970  1.00  0.00    -0.200 OA
BRANCH  18  21
ATOM     21  C   UNL     1      -1.549  -0.077  -0.566  1.00  0.00     0.140 A 
ATOM     22  C   UNL     1       2.294   0.085   0.199  1.00  0.00     0.056 C 
ATOM     23  C   UNL     1       0.885  -0.216  -0.181  1.00  0.00     0.003 A 
ATOM     24  C   UNL     1       0.418  -1.275  -0.932  1.00  0.00     0.016 A 
ATOM     25  S   UNL     1      -0.386   0.829   0.293  1.00  0.00    -0.127 S 
ATOM     26  C   UNL     1      -0.984  -1.194  -1.153  1.00  0.00     0.034 A 
ENDBRANCH  18  21
ENDBRANCH  16  18
ENDBRANCH   7  16
ENDBRANCH   3   6
ENDBRANCH   1   2
BRANCH   1  27
ATOM     27  C   UNL     1       0.672  -3.084   2.623  1.00  0.00     0.042 C 
BRANCH  27  28
ATOM     28  C   UNL     1       1.408  -2.079   3.498  1.00  0.00     0.118 C 
BRANCH  28  29
ATOM     29  N   UNL     1       1.583  -2.548   4.867  1.00  0.00    -0.352 N 
ATOM     30  C   UNL     1       2.653  -3.126   5.504  1.00  0.00     0.251 C 
ATOM     31  H   UNL     1       0.790  -2.428   5.438  1.00  0.00     0.163 HD
ATOM     32  O   UNL     1       2.479  -3.651   6.601  1.00  0.00    -0.269 OA
BRANCH  30  33
ATOM     33  C   UNL     1       4.005  -3.142   4.900  1.00  0.00     0.039 A 
ATOM     34  C   UNL     1       4.821  -4.261   5.109  1.00  0.00     0.014 A 
ATOM     35  C   UNL     1       4.512  -2.042   4.207  1.00  0.00     0.014 A 
ATOM     36  C   UNL     1       6.114  -4.297   4.578  1.00  0.00     0.010 A 
ATOM     37  C   UNL     1       5.767  -2.112   3.606  1.00  0.00     0.010 A 
ATOM     38  C   UNL     1       6.587  -3.233   3.796  1.00  0.00    -0.014 A 
BRANCH  38  39
ATOM     39  C   UNL     1       7.941  -3.256   3.187  1.00  0.00     0.031 A 
ATOM     40  C   UNL     1       8.966  -2.228   3.583  1.00  0.00     0.074 A 
ATOM     41  C   UNL     1       8.220  -4.139   2.210  1.00  0.00     0.049 A 
ATOM     42  N   UNL     1      10.153  -2.003   3.078  1.00  0.00    -0.248 NA
ATOM     43  C   UNL     1       8.588  -1.305   4.664  1.00  0.00     0.031 C 
ATOM     44  C   UNL     1       7.296  -5.149   1.692  1.00  0.00     0.029 A 
ATOM     45  N   UNL     1       9.357  -4.312   1.461  1.00  0.00    -0.354 N 
ATOM     46  C   UNL     1      10.646  -0.894   3.754  1.00  0.00     0.074 A 
ATOM     47  C   UNL     1       9.615  -0.468   4.675  1.00  0.00     0.031 C 
ATOM     48  C   UNL     1       7.903  -5.838   0.713  1.00  0.00     0.029 A 
ATOM     49  C   UNL     1       9.246  -5.301   0.515  1.00  0.00     0.049 A 
ATOM     50  H   UNL     1      10.174  -3.778   1.589  1.00  0.00     0.167 HD
ATOM     51  C   UNL     1      11.856  -0.296   3.633  1.00  0.00     0.037 A 
ATOM     52  C   UNL     1      10.122  -5.722  -0.416  1.00  0.00     0.037 A 
ATOM     53  C   UNL     1      12.899  -0.750   2.752  1.00  0.00     0.049 A 
ATOM     54  C   UNL     1      11.477  -5.080  -0.499  1.00  0.00     0.074 A 
ATOM     55  C   UNL     1      14.190  -0.270   2.622  1.00  0.00     0.029 A 
ATOM     56  N   UNL     1      12.768  -1.796   1.850  1.00  0.00    -0.354 N 
ATOM     57  N   UNL     1      11.957  -4.077   0.195  1.00  0.00    -0.248 NA
ATOM     58  C   UNL     1      12.414  -5.633  -1.486  1.00  0.00     0.031 C 
ATOM     59  C   UNL     1      14.832  -1.005   1.618  1.00  0.00     0.029 A 
ATOM     60  C   UNL     1      13.950  -1.966   1.148  1.00  0.00     0.049 A 
ATOM     61  H   UNL     1      11.956  -2.337   1.727  1.00  0.00     0.167 HD
ATOM     62  C   UNL     1      13.255  -3.887  -0.260  1.00  0.00     0.074 A 
ATOM     63  C   UNL     1      13.492  -4.889  -1.279  1.00  0.00     0.031 C 
ATOM     64  C   UNL     1      14.167  -2.964   0.132  1.00  0.00     0.037 A 
BRANCH  51  65
ATOM     65  C   UNL     1      12.108   0.917   4.479  1.00  0.00     0.057 A 
ATOM     66  C   UNL     1      12.276   0.830   5.868  1.00  0.00     0.134 A 
ATOM     67  C   UNL     1      12.184   2.189   3.898  1.00  0.00     0.134 A 
ATOM     68  F   UNL     1      12.202  -0.357   6.488  1.00  0.00    -0.206 F 
ATOM     69  C   UNL     1      12.473   1.968   6.653  1.00  0.00     0.040 A 
ATOM     70  C   UNL     1      12.407   3.332   4.670  1.00  0.00     0.040 A 
ATOM     71  F   UNL     1      12.039   2.344   2.574  1.00  0.00    -0.206 F 
ATOM     72  C   UNL     1      12.541   3.224   6.053  1.00  0.00     0.006 A 
ENDBRANCH  51  65
BRANCH  52  73
ATOM     73  C   UNL     1       9.742  -6.829  -1.326  1.00  0.00     0.057 A 
ATOM     74  C   UNL     1      10.259  -8.116  -1.148  1.00  0.00     0.134 A 
ATOM     75  C   UNL     1       8.826  -6.636  -2.366  1.00  0.00     0.134 A 
ATOM     76  F   UNL     1      11.152  -8.356  -0.177  1.00  0.00    -0.206 F 
ATOM     77  C   UNL     1       9.884  -9.174  -1.977  1.00  0.00     0.040 A 
ATOM     78  C   UNL     1       8.427  -7.688  -3.191  1.00  0.00     0.040 A 
ATOM     79  F   UNL     1       8.288  -5.426  -2.579  1.00  0.00    -0.206 F 
ATOM     80  C   UNL     1       8.959  -8.962  -2.998  1.00  0.00     0.006 A 
ENDBRANCH  52  73
BRANCH  64  81
ATOM     81  C   UNL     1      15.509  -3.005  -0.534  1.00  0.00     0.057 A 
ATOM     82  C   UNL     1      15.694  -2.539  -1.841  1.00  0.00     0.134 A 
ATOM     83  C   UNL     1      16.634  -3.480   0.152  1.00  0.00     0.134 A 
ATOM     84  F   UNL     1      14.653  -2.085  -2.555  1.00  0.00    -0.206 F 
ATOM     85  C   UNL     1      16.951  -2.557  -2.449  1.00  0.00     0.040 A 
ATOM     86  C   UNL     1      17.898  -3.484  -0.437  1.00  0.00     0.040 A 
ATOM     87  F   UNL     1      16.523  -3.935   1.409  1.00  0.00    -0.206 F 
ATOM     88  C   UNL     1      18.058  -3.025  -1.744  1.00  0.00     0.006 A 
ENDBRANCH  64  81
ENDBRANCH  38  39
ENDBRANCH  30  33
ENDBRANCH  28  29
ENDBRANCH  27  28
ENDBRANCH   1  27
TORSDOF 13
