REMARK SMILES CNC(=O)CNC(=O)NC[C@H](CC(C)C)C(=O)NCCCNC(=O)c1ccc(-c2c3nc(c(-c4c(F)cccc4F)c4ccc([nH]4)c(-c4c(F)cccc4F)c4nc(c(-c5c(F)cccc5F)c5ccc2[nH]5)C=C4)C=C3)cc1
REMARK SMILES IDX 19 1 18 2 16 3 17 4 11 6 10 7 9 8 6 9 7 10 8 12 5 14 3 15
REMARK SMILES IDX 1 16 2 17 4 19 12 20 13 21 14 22 15 23 20 24 21 25 22 26
REMARK SMILES IDX 23 27 24 29 25 30 26 31 78 32 27 33 77 34 28 35 29 36 30 37
REMARK SMILES IDX 71 38 31 39 76 40 70 41 72 42 32 43 75 44 69 45 68 46 33 48
REMARK SMILES IDX 59 49 42 50 58 51 43 52 46 53 57 54 73 55 44 56 45 57 56 59
REMARK SMILES IDX 74 60 47 61 34 62 35 63 40 64 36 65 37 66 39 67 41 68 38 69
REMARK SMILES IDX 60 70 61 71 66 72 62 73 63 74 65 75 67 76 64 77 48 78 49 79
REMARK SMILES IDX 54 80 50 81 51 82 53 83 55 84 52 85
REMARK H PARENT 18 5 6 11 9 13 2 18 22 28 72 47 46 58
REMARK Flexibility Score: inf
ROOT
ATOM      1  C   UNL     1      -3.934   1.117   2.609  1.00  0.00     0.117 C 
ENDROOT
BRANCH   1   2
ATOM      2  N   UNL     1      -4.278  -0.040   1.794  1.00  0.00    -0.356 N 
ATOM      3  C   UNL     1      -3.694  -1.246   1.573  1.00  0.00     0.224 C 
ATOM      4  O   UNL     1      -4.156  -1.903   0.633  1.00  0.00    -0.275 OA
ATOM      5  H   UNL     1      -5.117   0.078   1.294  1.00  0.00     0.163 HD
BRANCH   3   6
ATOM      6  C   UNL     1      -2.533  -1.816   2.387  1.00  0.00     0.098 C 
BRANCH   6   7
ATOM      7  C   UNL     1      -2.504  -1.536   3.890  1.00  0.00     0.131 C 
BRANCH   7   8
ATOM      8  N   UNL     1      -3.841  -1.578   4.480  1.00  0.00    -0.337 N 
ATOM      9  N   UNL     1      -3.814  -2.881   6.446  1.00  0.00    -0.329 N 
ATOM     10  C   UNL     1      -4.393  -2.025   5.607  1.00  0.00     0.315 C 
ATOM     11  H   UNL     1      -4.250  -2.917   7.328  1.00  0.00     0.165 HD
ATOM     12  O   UNL     1      -5.513  -1.599   5.896  1.00  0.00    -0.249 OA
ATOM     13  H   UNL     1      -4.511  -1.167   3.887  1.00  0.00     0.165 HD
BRANCH   9  14
ATOM     14  C   UNL     1      -2.678  -3.769   6.333  1.00  0.00     0.217 C 
BRANCH  14  15
ATOM     15  C   UNL     1      -1.507  -3.535   7.295  1.00  0.00     0.239 C 
ATOM     16  C   UNL     1      -1.753  -1.011   7.535  1.00  0.00     0.142 C 
ATOM     17  N   UNL     1      -1.165  -2.306   7.767  1.00  0.00    -0.358 N 
ATOM     18  H   UNL     1      -0.386  -2.300   8.369  1.00  0.00     0.163 HD
ATOM     19  O   UNL     1      -0.751  -4.472   7.579  1.00  0.00    -0.273 OA
ENDBRANCH  14  15
ENDBRANCH   9  14
ENDBRANCH   7   8
ENDBRANCH   6   7
BRANCH   6  20
ATOM     20  C   UNL     1      -1.170  -1.703   1.663  1.00  0.00     0.018 C 
BRANCH  20  21
ATOM     21  C   UNL     1      -0.768  -0.344   1.059  1.00  0.00    -0.017 C 
ATOM     22  C   UNL     1      -0.273   0.655   2.103  1.00  0.00     0.007 C 
ATOM     23  C   UNL     1       0.336  -0.531   0.009  1.00  0.00     0.007 C 
ENDBRANCH  20  21
ENDBRANCH   6  20
ENDBRANCH   3   6
ENDBRANCH   1   2
BRANCH   1  24
ATOM     24  C   UNL     1      -3.379   2.250   1.760  1.00  0.00     0.042 C 
BRANCH  24  25
ATOM     25  C   UNL     1      -4.470   2.982   0.996  1.00  0.00     0.118 C 
BRANCH  25  26
ATOM     26  N   UNL     1      -5.011   4.087   1.774  1.00  0.00    -0.352 N 
ATOM     27  C   UNL     1      -4.730   5.428   1.691  1.00  0.00     0.251 C 
ATOM     28  H   UNL     1      -5.673   3.836   2.458  1.00  0.00     0.163 HD
ATOM     29  O   UNL     1      -5.062   6.178   2.612  1.00  0.00    -0.269 OA
BRANCH  27  30
ATOM     30  C   UNL     1      -4.021   5.981   0.516  1.00  0.00     0.039 A 
ATOM     31  C   UNL     1      -3.078   6.998   0.696  1.00  0.00     0.014 A 
ATOM     32  C   UNL     1      -4.314   5.531  -0.773  1.00  0.00     0.014 A 
ATOM     33  C   UNL     1      -2.397   7.522  -0.408  1.00  0.00     0.010 A 
ATOM     34  C   UNL     1      -3.563   5.975  -1.854  1.00  0.00     0.010 A 
ATOM     35  C   UNL     1      -2.614   6.995  -1.690  1.00  0.00    -0.014 A 
BRANCH  35  36
ATOM     36  C   UNL     1      -1.925   7.523  -2.896  1.00  0.00     0.031 A 
ATOM     37  C   UNL     1      -2.744   8.106  -4.018  1.00  0.00     0.074 A 
ATOM     38  C   UNL     1      -0.590   7.399  -3.030  1.00  0.00     0.049 A 
ATOM     39  N   UNL     1      -2.376   8.446  -5.226  1.00  0.00    -0.248 NA
ATOM     40  C   UNL     1      -4.182   8.290  -3.756  1.00  0.00     0.031 C 
ATOM     41  C   UNL     1       0.316   6.827  -2.033  1.00  0.00     0.029 A 
ATOM     42  N   UNL     1       0.234   7.730  -4.076  1.00  0.00    -0.354 N 
ATOM     43  C   UNL     1      -3.539   8.839  -5.878  1.00  0.00     0.074 A 
ATOM     44  C   UNL     1      -4.630   8.654  -4.948  1.00  0.00     0.031 C 
ATOM     45  C   UNL     1       1.571   6.860  -2.510  1.00  0.00     0.029 A 
ATOM     46  C   UNL     1       1.553   7.412  -3.861  1.00  0.00     0.049 A 
ATOM     47  H   UNL     1      -0.089   8.156  -4.903  1.00  0.00     0.167 HD
ATOM     48  C   UNL     1      -3.683   9.332  -7.130  1.00  0.00     0.037 A 
ATOM     49  C   UNL     1       2.623   7.535  -4.669  1.00  0.00     0.037 A 
ATOM     50  C   UNL     1      -2.589   9.573  -8.031  1.00  0.00     0.049 A 
ATOM     51  C   UNL     1       2.442   8.102  -6.050  1.00  0.00     0.074 A 
ATOM     52  C   UNL     1      -2.620  10.135  -9.295  1.00  0.00     0.029 A 
ATOM     53  N   UNL     1      -1.263   9.277  -7.756  1.00  0.00    -0.354 N 
ATOM     54  N   UNL     1       1.342   8.506  -6.640  1.00  0.00    -0.248 NA
ATOM     55  C   UNL     1       3.649   8.229  -6.880  1.00  0.00     0.031 C 
ATOM     56  C   UNL     1      -1.315  10.152  -9.797  1.00  0.00     0.029 A 
ATOM     57  C   UNL     1      -0.468   9.635  -8.830  1.00  0.00     0.049 A 
ATOM     58  H   UNL     1      -0.936   8.872  -6.920  1.00  0.00     0.167 HD
ATOM     59  C   UNL     1       1.728   8.962  -7.893  1.00  0.00     0.074 A 
ATOM     60  C   UNL     1       3.163   8.792  -7.978  1.00  0.00     0.031 C 
ATOM     61  C   UNL     1       0.962   9.477  -8.886  1.00  0.00     0.037 A 
BRANCH  48  62
ATOM     62  C   UNL     1      -5.074   9.653  -7.593  1.00  0.00     0.057 A 
ATOM     63  C   UNL     1      -5.796  10.736  -7.075  1.00  0.00     0.134 A 
ATOM     64  C   UNL     1      -5.690   8.884  -8.589  1.00  0.00     0.134 A 
ATOM     65  F   UNL     1      -5.269  11.503  -6.109  1.00  0.00    -0.206 F 
ATOM     66  C   UNL     1      -7.090  11.025  -7.509  1.00  0.00     0.040 A 
ATOM     67  C   UNL     1      -6.973   9.181  -9.051  1.00  0.00     0.040 A 
ATOM     68  F   UNL     1      -5.053   7.836  -9.134  1.00  0.00    -0.206 F 
ATOM     69  C   UNL     1      -7.680  10.250  -8.505  1.00  0.00     0.006 A 
ENDBRANCH  48  62
BRANCH  49  70
ATOM     70  C   UNL     1       3.968   7.129  -4.189  1.00  0.00     0.057 A 
ATOM     71  C   UNL     1       4.946   8.088  -3.901  1.00  0.00     0.134 A 
ATOM     72  C   UNL     1       4.310   5.784  -4.010  1.00  0.00     0.134 A 
ATOM     73  F   UNL     1       4.683   9.392  -4.071  1.00  0.00    -0.206 F 
ATOM     74  C   UNL     1       6.222   7.724  -3.469  1.00  0.00     0.040 A 
ATOM     75  C   UNL     1       5.575   5.406  -3.557  1.00  0.00     0.040 A 
ATOM     76  F   UNL     1       3.414   4.818  -4.261  1.00  0.00    -0.206 F 
ATOM     77  C   UNL     1       6.538   6.379  -3.292  1.00  0.00     0.006 A 
ENDBRANCH  49  70
BRANCH  61  78
ATOM     78  C   UNL     1       1.661   9.937 -10.129  1.00  0.00     0.057 A 
ATOM     79  C   UNL     1       2.148   9.031 -11.079  1.00  0.00     0.134 A 
ATOM     80  C   UNL     1       1.790  11.303 -10.406  1.00  0.00     0.134 A 
ATOM     81  F   UNL     1       2.064   7.710 -10.865  1.00  0.00    -0.206 F 
ATOM     82  C   UNL     1       2.750   9.471 -12.259  1.00  0.00     0.040 A 
ATOM     83  C   UNL     1       2.370  11.754 -11.592  1.00  0.00     0.040 A 
ATOM     84  F   UNL     1       1.337  12.220  -9.538  1.00  0.00    -0.206 F 
ATOM     85  C   UNL     1       2.854  10.836 -12.521  1.00  0.00     0.006 A 
ENDBRANCH  61  78
ENDBRANCH  35  36
ENDBRANCH  27  30
ENDBRANCH  25  26
ENDBRANCH  24  25
ENDBRANCH   1  24
TORSDOF 16
