REMARK SMILES O=C(CCc1ccco1)N[C@H]1CCCCC[C@H]1C(=O)NCCCNC(=O)c1ccc(-c2c3nc(c(-c4c(F)cccc4F)c4ccc([nH]4)c(-c4c(F)cccc4F)c4nc(c(-c5c(F)cccc5F)c5ccc2[nH]5)C=C4)C=C3)cc1
REMARK SMILES IDX 18 1 19 2 20 3 17 5 11 6 10 8 1 9 2 10 3 12 4 13 5 14 6 15
REMARK SMILES IDX 9 16 7 17 8 18 16 19 15 20 14 21 13 22 12 23 21 25 22 26
REMARK SMILES IDX 23 27 24 28 25 29 26 31 27 32 28 33 80 34 29 35 79 36 30 37
REMARK SMILES IDX 31 38 32 39 73 40 33 41 78 42 72 43 74 44 34 45 77 46 71 47
REMARK SMILES IDX 70 48 35 50 61 51 44 52 60 53 45 54 48 55 59 56 75 57 46 58
REMARK SMILES IDX 47 59 58 61 76 62 49 63 36 64 37 65 42 66 38 67 39 68 41 69
REMARK SMILES IDX 43 70 40 71 62 72 63 73 68 74 64 75 65 76 67 77 69 78 66 79
REMARK SMILES IDX 50 80 51 81 56 82 52 83 53 84 55 85 57 86 54 87
REMARK H PARENT 20 4 10 11 24 30 74 49 48 60
REMARK Flexibility Score: 90.00
ROOT
ATOM      1  C   UNL     1       0.283  -4.517   0.578  1.00  0.00     0.225 C 
ATOM      2  O   UNL     1      -0.624  -4.498  -0.269  1.00  0.00    -0.275 OA
ATOM      3  N   UNL     1       0.108  -5.390   1.597  1.00  0.00    -0.356 N 
ATOM      4  H   UNL     1      -0.789  -5.795   1.611  1.00  0.00     0.163 HD
ENDROOT
BRANCH   1   5
ATOM      5  C   UNL     1       1.512  -3.635   0.349  1.00  0.00     0.101 C 
BRANCH   5   6
ATOM      6  C   UNL     1       1.974  -2.527   1.322  1.00  0.00     0.094 CG0
ATOM      7  G   UNL     1       3.405  -2.625   1.908  1.00  0.00     0.000 G0
BRANCH   6   8
ATOM      8  N   UNL     1       1.059  -1.784   2.213  1.00  0.00    -0.353 N 
ATOM      9  O   UNL     1      -0.912  -2.977   2.395  1.00  0.00    -0.275 OA
ATOM     10  C   UNL     1      -0.229  -1.988   2.631  1.00  0.00     0.220 C 
ATOM     11  H   UNL     1       1.461  -0.966   2.586  1.00  0.00     0.163 HD
BRANCH  10  12
ATOM     12  C   UNL     1      -0.842  -0.857   3.445  1.00  0.00     0.108 C 
BRANCH  12  13
ATOM     13  C   UNL     1      -0.033  -0.467   4.678  1.00  0.00     0.085 C 
BRANCH  13  14
ATOM     14  C   UNL     1       0.919   0.655   4.434  1.00  0.00     0.104 A 
ATOM     15  C   UNL     1       1.450   1.633   5.249  1.00  0.00     0.045 A 
ATOM     16  O   UNL     1       1.408   0.797   3.168  1.00  0.00    -0.469 OA
ATOM     17  C   UNL     1       2.292   2.423   4.429  1.00  0.00     0.042 A 
ATOM     18  C   UNL     1       2.226   1.877   3.170  1.00  0.00     0.195 A 
ENDBRANCH  13  14
ENDBRANCH  12  13
ENDBRANCH  10  12
ENDBRANCH   6   8
ENDBRANCH   5   6
BRANCH   5  19
ATOM     19  C   UNL     1       2.663  -4.373  -0.369  1.00  0.00     0.015 C 
BRANCH  19  20
ATOM     20  C   UNL     1       3.422  -5.456   0.381  1.00  0.00     0.001 C 
BRANCH  20  21
ATOM     21  C   UNL     1       4.292  -5.040   1.570  1.00  0.00     0.000 C 
BRANCH  21  22
ATOM     22  C   UNL     1       3.849  -3.934   2.530  1.00  0.00     0.002 C 
BRANCH  22  23
ATOM     23  C   UNL     1       3.405  -2.625   1.908  1.00  0.00     0.026 CG0
ATOM     24  G   UNL     1       1.974  -2.527   1.322  1.00  0.00     0.000 G0
ENDBRANCH  22  23
ENDBRANCH  21  22
ENDBRANCH  20  21
ENDBRANCH  19  20
ENDBRANCH   5  19
ENDBRANCH   1   5
BRANCH   3  25
ATOM     25  C   UNL     1       0.955  -5.854   2.666  1.00  0.00     0.117 C 
BRANCH  25  26
ATOM     26  C   UNL     1       0.821  -5.116   3.986  1.00  0.00     0.042 C 
BRANCH  26  27
ATOM     27  C   UNL     1      -0.439  -5.478   4.744  1.00  0.00     0.118 C 
BRANCH  27  28
ATOM     28  N   UNL     1      -0.338  -6.835   5.272  1.00  0.00    -0.352 N 
ATOM     29  C   UNL     1       0.149  -7.295   6.470  1.00  0.00     0.251 C 
ATOM     30  H   UNL     1      -0.674  -7.537   4.669  1.00  0.00     0.163 HD
ATOM     31  O   UNL     1       0.539  -8.458   6.543  1.00  0.00    -0.269 OA
BRANCH  29  32
ATOM     32  C   UNL     1       0.196  -6.433   7.676  1.00  0.00     0.039 A 
ATOM     33  C   UNL     1       1.114  -6.735   8.689  1.00  0.00     0.014 A 
ATOM     34  C   UNL     1      -0.726  -5.405   7.880  1.00  0.00     0.014 A 
ATOM     35  C   UNL     1       1.106  -6.009   9.884  1.00  0.00     0.010 A 
ATOM     36  C   UNL     1      -0.651  -4.602   9.013  1.00  0.00     0.010 A 
ATOM     37  C   UNL     1       0.231  -4.924  10.052  1.00  0.00    -0.014 A 
BRANCH  37  38
ATOM     38  C   UNL     1       0.164  -4.165  11.328  1.00  0.00     0.031 A 
ATOM     39  C   UNL     1      -1.123  -4.122  12.114  1.00  0.00     0.074 A 
ATOM     40  C   UNL     1       1.239  -3.476  11.756  1.00  0.00     0.049 A 
ATOM     41  N   UNL     1      -1.402  -3.467  13.214  1.00  0.00    -0.248 NA
ATOM     42  C   UNL     1      -2.261  -4.885  11.574  1.00  0.00     0.031 C 
ATOM     43  C   UNL     1       2.523  -3.392  11.059  1.00  0.00     0.029 A 
ATOM     44  N   UNL     1       1.420  -2.712  12.880  1.00  0.00    -0.354 N 
ATOM     45  C   UNL     1      -2.745  -3.718  13.474  1.00  0.00     0.074 A 
ATOM     46  C   UNL     1      -3.244  -4.527  12.386  1.00  0.00     0.031 C 
ATOM     47  C   UNL     1       3.372  -2.652  11.790  1.00  0.00     0.029 A 
ATOM     48  C   UNL     1       2.682  -2.179  12.986  1.00  0.00     0.049 A 
ATOM     49  H   UNL     1       0.714  -2.561  13.549  1.00  0.00     0.167 HD
ATOM     50  C   UNL     1      -3.490  -3.338  14.540  1.00  0.00     0.037 A 
ATOM     51  C   UNL     1       3.221  -1.401  13.942  1.00  0.00     0.037 A 
ATOM     52  C   UNL     1      -2.978  -2.573  15.645  1.00  0.00     0.049 A 
ATOM     53  C   UNL     1       2.385  -1.017  15.131  1.00  0.00     0.074 A 
ATOM     54  C   UNL     1      -3.629  -2.188  16.804  1.00  0.00     0.029 A 
ATOM     55  N   UNL     1      -1.683  -2.084  15.730  1.00  0.00    -0.354 N 
ATOM     56  N   UNL     1       1.135  -1.313  15.393  1.00  0.00    -0.248 NA
ATOM     57  C   UNL     1       3.038  -0.201  16.163  1.00  0.00     0.031 C 
ATOM     58  C   UNL     1      -2.738  -1.431  17.573  1.00  0.00     0.029 A 
ATOM     59  C   UNL     1      -1.519  -1.389  16.917  1.00  0.00     0.049 A 
ATOM     60  H   UNL     1      -0.985  -2.212  15.049  1.00  0.00     0.167 HD
ATOM     61  C   UNL     1       0.862  -0.750  16.633  1.00  0.00     0.074 A 
ATOM     62  C   UNL     1       2.082  -0.105  17.075  1.00  0.00     0.031 C 
ATOM     63  C   UNL     1      -0.292  -0.765  17.344  1.00  0.00     0.037 A 
BRANCH  50  64
ATOM     64  C   UNL     1      -4.934  -3.755  14.564  1.00  0.00     0.057 A 
ATOM     65  C   UNL     1      -5.316  -5.095  14.726  1.00  0.00     0.134 A 
ATOM     66  C   UNL     1      -5.957  -2.805  14.448  1.00  0.00     0.134 A 
ATOM     67  F   UNL     1      -4.388  -6.058  14.831  1.00  0.00    -0.206 F 
ATOM     68  C   UNL     1      -6.659  -5.477  14.740  1.00  0.00     0.040 A 
ATOM     69  C   UNL     1      -7.304  -3.172  14.491  1.00  0.00     0.040 A 
ATOM     70  F   UNL     1      -5.665  -1.505  14.296  1.00  0.00    -0.206 F 
ATOM     71  C   UNL     1      -7.658  -4.512  14.629  1.00  0.00     0.006 A 
ENDBRANCH  50  64
BRANCH  51  72
ATOM     72  C   UNL     1       4.638  -0.970  13.836  1.00  0.00     0.057 A 
ATOM     73  C   UNL     1       5.614  -1.483  14.700  1.00  0.00     0.134 A 
ATOM     74  C   UNL     1       5.054  -0.042  12.875  1.00  0.00     0.134 A 
ATOM     75  F   UNL     1       5.275  -2.365  15.652  1.00  0.00    -0.206 F 
ATOM     76  C   UNL     1       6.946  -1.073  14.627  1.00  0.00     0.040 A 
ATOM     77  C   UNL     1       6.387   0.358  12.773  1.00  0.00     0.040 A 
ATOM     78  F   UNL     1       4.171   0.478  12.009  1.00  0.00    -0.206 F 
ATOM     79  C   UNL     1       7.336  -0.152  13.657  1.00  0.00     0.006 A 
ENDBRANCH  51  72
BRANCH  63  80
ATOM     80  C   UNL     1      -0.277  -0.105  18.691  1.00  0.00     0.057 A 
ATOM     81  C   UNL     1      -0.222   1.287  18.834  1.00  0.00     0.134 A 
ATOM     82  C   UNL     1      -0.351  -0.874  19.859  1.00  0.00     0.134 A 
ATOM     83  F   UNL     1      -0.138   2.080  17.755  1.00  0.00    -0.206 F 
ATOM     84  C   UNL     1      -0.214   1.889  20.093  1.00  0.00     0.040 A 
ATOM     85  C   UNL     1      -0.372  -0.283  21.122  1.00  0.00     0.040 A 
ATOM     86  F   UNL     1      -0.416  -2.213  19.790  1.00  0.00    -0.206 F 
ATOM     87  C   UNL     1      -0.295   1.103  21.241  1.00  0.00     0.006 A 
ENDBRANCH  63  80
ENDBRANCH  37  38
ENDBRANCH  29  32
ENDBRANCH  27  28
ENDBRANCH  26  27
ENDBRANCH  25  26
ENDBRANCH   3  25
TORSDOF 14
