REMARK SMILES COc1cc2c(cc1OC)[C@H](C(=O)NCCCNC(=O)c1ccc(-c3c4nc(c(-c5c(F)cccc5F)c5ccc([nH]5)c(-c5c(F)cccc5F)c5nc(c(-c6c(F)cccc6F)c6ccc3[nH]6)C=C5)C=C4)cc1)[C@@H](c1ccc(SC)cc1)N(C)C2=O
REMARK SMILES IDX 16 1 15 2 14 3 12 4 13 5 11 7 3 8 4 9 8 10 5 11 7 12 6 13
REMARK SMILES IDX 86 14 84 15 87 16 75 17 85 18 2 19 1 20 9 21 10 22 76 23
REMARK SMILES IDX 77 24 83 25 78 26 82 27 79 28 80 29 81 30 17 31 18 32 19 33
REMARK SMILES IDX 20 35 21 36 22 37 74 38 23 39 73 40 24 41 25 42 26 43 67 44
REMARK SMILES IDX 27 45 72 46 66 47 68 48 28 49 71 50 65 51 64 52 29 54 55 55
REMARK SMILES IDX 38 56 54 57 39 58 42 59 53 60 69 61 40 62 41 63 52 65 70 66
REMARK SMILES IDX 43 67 30 68 31 69 36 70 32 71 33 72 35 73 37 74 34 75 56 76
REMARK SMILES IDX 57 77 62 78 58 79 59 80 61 81 63 82 60 83 44 84 45 85 50 86
REMARK SMILES IDX 46 87 47 88 49 89 51 90 48 91
REMARK H PARENT 14 6 18 34 68 53 42 64
REMARK Flexibility Score: inf
ROOT
ATOM      1  C   UNL     1      -1.368   7.696   0.223  1.00  0.00     0.042 C 
ENDROOT
BRANCH   1   2
ATOM      2  C   UNL     1      -0.750   6.606  -0.628  1.00  0.00     0.117 C 
BRANCH   2   3
ATOM      3  N   UNL     1      -0.164   7.111  -1.865  1.00  0.00    -0.355 N 
ATOM      4  C   UNL     1       1.040   6.765  -2.435  1.00  0.00     0.230 C 
ATOM      5  O   UNL     1       1.262   7.093  -3.598  1.00  0.00    -0.274 OA
ATOM      6  H   UNL     1      -0.695   7.782  -2.352  1.00  0.00     0.163 HD
BRANCH   4   7
ATOM      7  C   UNL     1       2.014   5.952  -1.590  1.00  0.00     0.136 C 
ATOM      8  C   UNL     1       1.058   1.727  -1.245  1.00  0.00     0.161 A 
ATOM      9  C   UNL     1       2.327   2.222  -0.910  1.00  0.00     0.064 A 
ATOM     10  C   UNL     1       0.120   2.588  -1.819  1.00  0.00     0.161 A 
ATOM     11  C   UNL     1       2.645   3.580  -1.078  1.00  0.00     0.048 A 
ATOM     12  C   UNL     1       0.466   3.930  -2.022  1.00  0.00     0.056 A 
ATOM     13  C   UNL     1       1.700   4.460  -1.605  1.00  0.00    -0.016 A 
ATOM     14  C   UNL     1       3.987   4.073  -0.664  1.00  0.00     0.254 C 
ATOM     15  N   UNL     1       4.342   5.383  -1.012  1.00  0.00    -0.334 N 
ATOM     16  O   UNL     1       4.718   3.319  -0.028  1.00  0.00    -0.269 OA
ATOM     17  C   UNL     1       3.502   6.182  -1.963  1.00  0.00     0.132 C 
ATOM     18  C   UNL     1       5.682   5.819  -0.642  1.00  0.00     0.147 C 
BRANCH   8  19
ATOM     19  O   UNL     1       0.760   0.397  -1.108  1.00  0.00    -0.493 OA
ATOM     20  C   UNL     1       1.123  -0.154   0.156  1.00  0.00     0.278 C 
ENDBRANCH   8  19
BRANCH  10  21
ATOM     21  O   UNL     1      -1.158   2.314  -2.225  1.00  0.00    -0.493 OA
ATOM     22  C   UNL     1      -1.793   1.153  -1.709  1.00  0.00     0.278 C 
ENDBRANCH  10  21
BRANCH  17  23
ATOM     23  C   UNL     1       3.933   7.658  -2.051  1.00  0.00    -0.024 A 
ATOM     24  C   UNL     1       3.279   8.698  -1.373  1.00  0.00     0.007 A 
ATOM     25  C   UNL     1       5.039   8.003  -2.849  1.00  0.00     0.007 A 
ATOM     26  C   UNL     1       3.696  10.029  -1.519  1.00  0.00     0.015 A 
ATOM     27  C   UNL     1       5.480   9.331  -2.960  1.00  0.00     0.015 A 
ATOM     28  C   UNL     1       4.809  10.359  -2.299  1.00  0.00     0.007 A 
BRANCH  28  29
ATOM     29  S   UNL     1       5.241  12.090  -2.418  1.00  0.00    -0.130 SA
ATOM     30  C   UNL     1       7.017  12.037  -2.776  1.00  0.00     0.091 C 
ENDBRANCH  28  29
ENDBRANCH  17  23
ENDBRANCH   4   7
ENDBRANCH   2   3
ENDBRANCH   1   2
BRANCH   1  31
ATOM     31  C   UNL     1      -2.561   8.370  -0.433  1.00  0.00     0.118 C 
BRANCH  31  32
ATOM     32  N   UNL     1      -3.664   7.453  -0.696  1.00  0.00    -0.352 N 
ATOM     33  C   UNL     1      -4.959   7.474  -0.237  1.00  0.00     0.251 C 
ATOM     34  H   UNL     1      -3.448   6.702  -1.296  1.00  0.00     0.163 HD
ATOM     35  O   UNL     1      -5.702   6.520  -0.445  1.00  0.00    -0.269 OA
BRANCH  33  36
ATOM     36  C   UNL     1      -5.443   8.634   0.537  1.00  0.00     0.039 A 
ATOM     37  C   UNL     1      -6.213   8.414   1.682  1.00  0.00     0.014 A 
ATOM     38  C   UNL     1      -5.113   9.934   0.150  1.00  0.00     0.014 A 
ATOM     39  C   UNL     1      -6.577   9.497   2.484  1.00  0.00     0.010 A 
ATOM     40  C   UNL     1      -5.378  10.994   1.006  1.00  0.00     0.010 A 
ATOM     41  C   UNL     1      -6.119  10.789   2.178  1.00  0.00    -0.014 A 
BRANCH  41  42
ATOM     42  C   UNL     1      -6.406  11.945   3.062  1.00  0.00     0.031 A 
ATOM     43  C   UNL     1      -7.190  13.116   2.538  1.00  0.00     0.074 A 
ATOM     44  C   UNL     1      -5.892  11.977   4.306  1.00  0.00     0.049 A 
ATOM     45  N   UNL     1      -7.480  14.248   3.126  1.00  0.00    -0.248 NA
ATOM     46  C   UNL     1      -7.681  13.015   1.154  1.00  0.00     0.031 C 
ATOM     47  C   UNL     1      -5.070  10.928   4.912  1.00  0.00     0.029 A 
ATOM     48  N   UNL     1      -5.981  12.935   5.284  1.00  0.00    -0.354 N 
ATOM     49  C   UNL     1      -8.163  14.999   2.179  1.00  0.00     0.074 A 
ATOM     50  C   UNL     1      -8.187  14.222   0.959  1.00  0.00     0.031 C 
ATOM     51  C   UNL     1      -4.766  11.280   6.171  1.00  0.00     0.029 A 
ATOM     52  C   UNL     1      -5.332  12.597   6.446  1.00  0.00     0.049 A 
ATOM     53  H   UNL     1      -6.464  13.784   5.164  1.00  0.00     0.167 HD
ATOM     54  C   UNL     1      -8.744  16.214   2.319  1.00  0.00     0.037 A 
ATOM     55  C   UNL     1      -5.209  13.273   7.603  1.00  0.00     0.037 A 
ATOM     56  C   UNL     1      -8.740  16.971   3.542  1.00  0.00     0.049 A 
ATOM     57  C   UNL     1      -5.852  14.625   7.735  1.00  0.00     0.074 A 
ATOM     58  C   UNL     1      -9.361  18.177   3.814  1.00  0.00     0.029 A 
ATOM     59  N   UNL     1      -8.073  16.594   4.700  1.00  0.00    -0.354 N 
ATOM     60  N   UNL     1      -6.562  15.291   6.857  1.00  0.00    -0.248 NA
ATOM     61  C   UNL     1      -5.676  15.316   9.019  1.00  0.00     0.031 C 
ATOM     62  C   UNL     1      -9.027  18.555   5.119  1.00  0.00     0.029 A 
ATOM     63  C   UNL     1      -8.242  17.559   5.679  1.00  0.00     0.049 A 
ATOM     64  H   UNL     1      -7.556  15.764   4.809  1.00  0.00     0.167 HD
ATOM     65  C   UNL     1      -6.944  16.467   7.491  1.00  0.00     0.074 A 
ATOM     66  C   UNL     1      -6.393  16.416   8.830  1.00  0.00     0.031 C 
ATOM     67  C   UNL     1      -7.687  17.494   7.008  1.00  0.00     0.037 A 
BRANCH  54  68
ATOM     68  C   UNL     1      -9.421  16.793   1.109  1.00  0.00     0.057 A 
ATOM     69  C   UNL     1     -10.585  16.229   0.567  1.00  0.00     0.134 A 
ATOM     70  C   UNL     1      -8.897  17.924   0.470  1.00  0.00     0.134 A 
ATOM     71  F   UNL     1     -11.132  15.136   1.121  1.00  0.00    -0.206 F 
ATOM     72  C   UNL     1     -11.175  16.739  -0.591  1.00  0.00     0.040 A 
ATOM     73  C   UNL     1      -9.497  18.463  -0.669  1.00  0.00     0.040 A 
ATOM     74  F   UNL     1      -7.790  18.520   0.938  1.00  0.00    -0.206 F 
ATOM     75  C   UNL     1     -10.632  17.863  -1.210  1.00  0.00     0.006 A 
ENDBRANCH  54  68
BRANCH  55  76
ATOM     76  C   UNL     1      -4.488  12.656   8.744  1.00  0.00     0.057 A 
ATOM     77  C   UNL     1      -5.187  12.201   9.868  1.00  0.00     0.134 A 
ATOM     78  C   UNL     1      -3.099  12.486   8.735  1.00  0.00     0.134 A 
ATOM     79  F   UNL     1      -6.518  12.351   9.941  1.00  0.00    -0.206 F 
ATOM     80  C   UNL     1      -4.531  11.607  10.947  1.00  0.00     0.040 A 
ATOM     81  C   UNL     1      -2.432  11.874   9.798  1.00  0.00     0.040 A 
ATOM     82  F   UNL     1      -2.374  12.893   7.683  1.00  0.00    -0.206 F 
ATOM     83  C   UNL     1      -3.149  11.436  10.910  1.00  0.00     0.006 A 
ENDBRANCH  55  76
BRANCH  67  84
ATOM     84  C   UNL     1      -7.974  18.631   7.944  1.00  0.00     0.057 A 
ATOM     85  C   UNL     1      -6.985  19.547   8.324  1.00  0.00     0.134 A 
ATOM     86  C   UNL     1      -9.268  18.834   8.440  1.00  0.00     0.134 A 
ATOM     87  F   UNL     1      -5.722  19.401   7.895  1.00  0.00    -0.206 F 
ATOM     88  C   UNL     1      -7.267  20.611   9.182  1.00  0.00     0.040 A 
ATOM     89  C   UNL     1      -9.569  19.910   9.275  1.00  0.00     0.040 A 
ATOM     90  F   UNL     1     -10.264  17.999   8.108  1.00  0.00    -0.206 F 
ATOM     91  C   UNL     1      -8.565  20.799   9.654  1.00  0.00     0.006 A 
ENDBRANCH  67  84
ENDBRANCH  41  42
ENDBRANCH  33  36
ENDBRANCH  31  32
ENDBRANCH   1  31
TORSDOF 14
