REMARK SMILES Nc1cc(C(=O)NCCCNC(=O)c2ccc(-c3c4nc(c(-c5c(F)cccc5F)c5ccc([nH]5)c(-c5c(F)cccc5F)c5nc(c(-c6c(F)cccc6F)c6ccc3[nH]6)C=C5)C=C4)cc2)nc2ccccc12
REMARK SMILES IDX 9 1 8 2 7 3 5 4 6 5 4 7 2 8 3 9 74 10 69 11 73 12 68 13
REMARK SMILES IDX 70 14 72 15 71 16 1 17 10 20 11 21 12 22 13 24 14 25 15 26
REMARK SMILES IDX 67 27 16 28 66 29 17 30 18 31 19 32 60 33 20 34 65 35 59 36
REMARK SMILES IDX 61 37 21 38 64 39 58 40 57 41 22 43 48 44 31 45 47 46 32 47
REMARK SMILES IDX 35 48 46 49 62 50 33 51 34 52 45 54 63 55 36 56 23 57 24 58
REMARK SMILES IDX 29 59 25 60 26 61 28 62 30 63 27 64 49 65 50 66 55 67 51 68
REMARK SMILES IDX 52 69 54 70 56 71 53 72 37 73 38 74 43 75 39 76 40 77 42 78
REMARK SMILES IDX 44 79 41 80
REMARK H PARENT 7 6 1 18 1 19 11 23 61 42 35 53
REMARK Flexibility Score: inf
ROOT
ATOM      1  C   UNL     1       2.414   1.527   4.429  1.00  0.00     0.042 C 
ENDROOT
BRANCH   1   2
ATOM      2  C   UNL     1       2.628   0.015   4.436  1.00  0.00     0.118 C 
BRANCH   2   3
ATOM      3  N   UNL     1       1.504  -0.664   5.048  1.00  0.00    -0.351 N 
ATOM      4  C   UNL     1       0.356  -1.237   4.547  1.00  0.00     0.269 C 
ATOM      5  O   UNL     1      -0.388  -1.748   5.388  1.00  0.00    -0.268 OA
ATOM      6  H   UNL     1       1.575  -0.729   6.027  1.00  0.00     0.163 HD
BRANCH   4   7
ATOM      7  C   UNL     1      -0.010  -1.294   3.084  1.00  0.00     0.130 A 
ATOM      8  C   UNL     1       0.174  -0.686   0.763  1.00  0.00     0.043 A 
ATOM      9  C   UNL     1       0.538  -0.494   2.099  1.00  0.00     0.060 A 
ATOM     10  C   UNL     1      -0.857  -1.605   0.462  1.00  0.00     0.023 A 
ATOM     11  C   UNL     1      -1.407  -2.331   1.539  1.00  0.00     0.073 A 
ATOM     12  C   UNL     1      -1.367  -1.832  -0.839  1.00  0.00     0.012 A 
ATOM     13  N   UNL     1      -0.977  -2.201   2.800  1.00  0.00    -0.242 NA
ATOM     14  C   UNL     1      -2.447  -3.217   1.295  1.00  0.00     0.029 A 
ATOM     15  C   UNL     1      -2.409  -2.732  -1.060  1.00  0.00     0.001 A 
ATOM     16  C   UNL     1      -2.957  -3.420   0.012  1.00  0.00     0.002 A 
BRANCH   8  17
ATOM     17  N   UNL     1       0.753   0.146  -0.198  1.00  0.00    -0.398 N 
ATOM     18  H   UNL     1       1.470   0.771   0.059  1.00  0.00     0.156 HD
ATOM     19  H   UNL     1       0.445   0.107  -1.132  1.00  0.00     0.156 HD
ENDBRANCH   8  17
ENDBRANCH   4   7
ENDBRANCH   2   3
ENDBRANCH   1   2
BRANCH   1  20
ATOM     20  C   UNL     1       2.693   2.170   5.785  1.00  0.00     0.118 C 
BRANCH  20  21
ATOM     21  N   UNL     1       4.112   2.139   6.122  1.00  0.00    -0.352 N 
ATOM     22  C   UNL     1       4.994   3.168   6.351  1.00  0.00     0.251 C 
ATOM     23  H   UNL     1       4.500   1.238   6.196  1.00  0.00     0.163 HD
ATOM     24  O   UNL     1       6.197   2.942   6.391  1.00  0.00    -0.269 OA
BRANCH  22  25
ATOM     25  C   UNL     1       4.495   4.548   6.530  1.00  0.00     0.039 A 
ATOM     26  C   UNL     1       3.342   4.798   7.275  1.00  0.00     0.014 A 
ATOM     27  C   UNL     1       5.199   5.609   5.952  1.00  0.00     0.014 A 
ATOM     28  C   UNL     1       2.794   6.074   7.290  1.00  0.00     0.010 A 
ATOM     29  C   UNL     1       4.697   6.910   6.051  1.00  0.00     0.010 A 
ATOM     30  C   UNL     1       3.462   7.145   6.676  1.00  0.00    -0.014 A 
BRANCH  30  31
ATOM     31  C   UNL     1       2.839   8.493   6.687  1.00  0.00     0.031 A 
ATOM     32  C   UNL     1       2.422   9.154   5.399  1.00  0.00     0.074 A 
ATOM     33  C   UNL     1       2.593   9.097   7.865  1.00  0.00     0.049 A 
ATOM     34  N   UNL     1       1.855  10.320   5.214  1.00  0.00    -0.248 NA
ATOM     35  C   UNL     1       2.681   8.411   4.156  1.00  0.00     0.031 C 
ATOM     36  C   UNL     1       2.933   8.551   9.181  1.00  0.00     0.029 A 
ATOM     37  N   UNL     1       1.979  10.290   8.150  1.00  0.00    -0.354 N 
ATOM     38  C   UNL     1       1.703  10.455   3.839  1.00  0.00     0.074 A 
ATOM     39  C   UNL     1       2.274   9.271   3.234  1.00  0.00     0.031 C 
ATOM     40  C   UNL     1       2.479   9.380  10.132  1.00  0.00     0.029 A 
ATOM     41  C   UNL     1       1.881  10.548   9.496  1.00  0.00     0.049 A 
ATOM     42  H   UNL     1       1.641  10.902   7.457  1.00  0.00     0.167 HD
ATOM     43  C   UNL     1       1.129  11.467   3.144  1.00  0.00     0.037 A 
ATOM     44  C   UNL     1       1.385  11.617  10.145  1.00  0.00     0.037 A 
ATOM     45  C   UNL     1       0.555  12.641   3.751  1.00  0.00     0.049 A 
ATOM     46  C   UNL     1       0.819  12.756   9.346  1.00  0.00     0.074 A 
ATOM     47  C   UNL     1      -0.061  13.718   3.137  1.00  0.00     0.029 A 
ATOM     48  N   UNL     1       0.531  12.893   5.115  1.00  0.00    -0.354 N 
ATOM     49  N   UNL     1       0.673  12.865   8.048  1.00  0.00    -0.248 NA
ATOM     50  C   UNL     1       0.358  13.925  10.105  1.00  0.00     0.031 C 
ATOM     51  C   UNL     1      -0.411  14.645   4.125  1.00  0.00     0.029 A 
ATOM     52  C   UNL     1      -0.066  14.120   5.360  1.00  0.00     0.049 A 
ATOM     53  H   UNL     1       0.885  12.290   5.807  1.00  0.00     0.167 HD
ATOM     54  C   UNL     1       0.080  14.102   7.836  1.00  0.00     0.074 A 
ATOM     55  C   UNL     1      -0.124  14.696   9.141  1.00  0.00     0.031 C 
ATOM     56  C   UNL     1      -0.263  14.696   6.666  1.00  0.00     0.037 A 
BRANCH  43  57
ATOM     57  C   UNL     1       1.117  11.358   1.645  1.00  0.00     0.057 A 
ATOM     58  C   UNL     1       1.902  12.213   0.861  1.00  0.00     0.134 A 
ATOM     59  C   UNL     1       0.319  10.421   0.973  1.00  0.00     0.134 A 
ATOM     60  F   UNL     1       2.685  13.138   1.436  1.00  0.00    -0.206 F 
ATOM     61  C   UNL     1       1.896  12.140  -0.534  1.00  0.00     0.040 A 
ATOM     62  C   UNL     1       0.326  10.319  -0.420  1.00  0.00     0.040 A 
ATOM     63  F   UNL     1      -0.447   9.562   1.662  1.00  0.00    -0.206 F 
ATOM     64  C   UNL     1       1.112  11.185  -1.177  1.00  0.00     0.006 A 
ENDBRANCH  43  57
BRANCH  44  65
ATOM     65  C   UNL     1       1.419  11.673  11.629  1.00  0.00     0.057 A 
ATOM     66  C   UNL     1       2.629  11.769  12.327  1.00  0.00     0.134 A 
ATOM     67  C   UNL     1       0.240  11.659  12.382  1.00  0.00     0.134 A 
ATOM     68  F   UNL     1       3.795  11.781  11.665  1.00  0.00    -0.206 F 
ATOM     69  C   UNL     1       2.666  11.842  13.720  1.00  0.00     0.040 A 
ATOM     70  C   UNL     1       0.260  11.763  13.774  1.00  0.00     0.040 A 
ATOM     71  F   UNL     1      -0.952  11.588  11.770  1.00  0.00    -0.206 F 
ATOM     72  C   UNL     1       1.478  11.851  14.446  1.00  0.00     0.006 A 
ENDBRANCH  44  65
BRANCH  56  73
ATOM     73  C   UNL     1      -0.931  16.037   6.756  1.00  0.00     0.057 A 
ATOM     74  C   UNL     1      -2.288  16.178   6.439  1.00  0.00     0.134 A 
ATOM     75  C   UNL     1      -0.234  17.189   7.145  1.00  0.00     0.134 A 
ATOM     76  F   UNL     1      -3.011  15.117   6.051  1.00  0.00    -0.206 F 
ATOM     77  C   UNL     1      -2.928  17.416   6.507  1.00  0.00     0.040 A 
ATOM     78  C   UNL     1      -0.872  18.427   7.246  1.00  0.00     0.040 A 
ATOM     79  F   UNL     1       1.064  17.119   7.478  1.00  0.00    -0.206 F 
ATOM     80  C   UNL     1      -2.222  18.543   6.921  1.00  0.00     0.006 A 
ENDBRANCH  56  73
ENDBRANCH  30  31
ENDBRANCH  22  25
ENDBRANCH  20  21
ENDBRANCH   1  20
TORSDOF 11
