REMARK SMILES COc1cccc(C(=O)NNC(=O)[C@H]2CC(C)=C(C)C[C@@H]2C(=O)NCCCNC(=O)c2ccc(-c3c4nc(c(-c5c(F)cccc5F)c5ccc([nH]5)c(-c5c(F)cccc5F)c5nc(c(-c6c(F)cccc6F)c6ccc3[nH]6)C=C5)C=C4)cc2)c1
REMARK SMILES IDX 25 1 24 2 22 3 23 4 21 6 14 7 15 8 16 9 20 10 17 11 18 12
REMARK SMILES IDX 19 13 12 14 11 15 13 17 10 18 8 19 9 20 7 22 3 23 4 24 85 25
REMARK SMILES IDX 5 26 6 27 2 28 1 29 26 30 27 31 28 32 29 33 30 35 31 36
REMARK SMILES IDX 32 37 84 38 33 39 83 40 34 41 35 42 36 43 77 44 37 45 82 46
REMARK SMILES IDX 76 47 78 48 38 49 81 50 75 51 74 52 39 54 65 55 48 56 64 57
REMARK SMILES IDX 49 58 52 59 63 60 79 61 50 62 51 63 62 65 80 66 53 67 40 68
REMARK SMILES IDX 41 69 46 70 42 71 43 72 45 73 47 74 44 75 66 76 67 77 72 78
REMARK SMILES IDX 68 79 69 80 71 81 73 82 70 83 54 84 55 85 60 86 56 87 57 88
REMARK SMILES IDX 59 89 61 90 58 91
REMARK H PARENT 24 5 11 16 10 21 28 34 78 53 52 64
REMARK Flexibility Score: inf
ROOT
ATOM      1  C   UNL     1       8.836   1.845  -2.328  1.00  0.00     0.117 C 
ENDROOT
BRANCH   1   2
ATOM      2  N   UNL     1       9.117   1.413  -0.970  1.00  0.00    -0.356 N 
ATOM      3  C   UNL     1       8.644   0.331  -0.283  1.00  0.00     0.224 C 
ATOM      4  O   UNL     1       9.034   0.183   0.875  1.00  0.00    -0.275 OA
ATOM      5  H   UNL     1       9.742   1.985  -0.469  1.00  0.00     0.163 HD
BRANCH   3   6
ATOM      6  C   UNL     1       7.670  -0.631  -0.976  1.00  0.00     0.095 C 
ATOM      7  C   UNL     1       7.000  -1.576   0.064  1.00  0.00     0.097 C 
ATOM      8  C   UNL     1       7.007  -3.073  -0.278  1.00  0.00     0.045 C 
ATOM      9  C   UNL     1       7.918  -3.582  -1.363  1.00  0.00    -0.074 C 
ATOM     10  C   UNL     1       8.387  -1.283  -2.170  1.00  0.00     0.045 C 
ATOM     11  C   UNL     1       8.065  -5.082  -1.393  1.00  0.00     0.039 C 
ATOM     12  C   UNL     1       8.523  -2.765  -2.238  1.00  0.00    -0.074 C 
ATOM     13  C   UNL     1       9.360  -3.251  -3.397  1.00  0.00     0.039 C 
BRANCH   7  14
ATOM     14  C   UNL     1       5.593  -1.035   0.420  1.00  0.00     0.242 C 
ATOM     15  N   UNL     1       4.895  -1.558   1.482  1.00  0.00    -0.267 N 
ATOM     16  H   UNL     1       4.247  -0.972   1.937  1.00  0.00     0.191 HD
ATOM     17  O   UNL     1       5.082  -0.067  -0.152  1.00  0.00    -0.273 OA
BRANCH  15  18
ATOM     18  N   UNL     1       5.037  -2.846   1.957  1.00  0.00    -0.263 N 
ATOM     19  C   UNL     1       4.006  -3.735   2.215  1.00  0.00     0.269 C 
ATOM     20  O   UNL     1       4.295  -4.882   2.560  1.00  0.00    -0.267 OA
ATOM     21  H   UNL     1       5.953  -3.162   2.128  1.00  0.00     0.191 HD
BRANCH  19  22
ATOM     22  C   UNL     1       2.569  -3.324   2.204  1.00  0.00     0.045 A 
ATOM     23  C   UNL     1       0.703  -1.928   1.521  1.00  0.00     0.119 A 
ATOM     24  C   UNL     1      -0.100  -2.534   2.491  1.00  0.00     0.046 A 
ATOM     25  C   UNL     1       2.021  -2.361   1.343  1.00  0.00     0.060 A 
ATOM     26  C   UNL     1       0.404  -3.557   3.289  1.00  0.00     0.005 A 
ATOM     27  C   UNL     1       1.736  -3.942   3.152  1.00  0.00     0.014 A 
BRANCH  23  28
ATOM     28  O   UNL     1       0.086  -0.924   0.826  1.00  0.00    -0.497 OA
ATOM     29  C   UNL     1       0.894  -0.137  -0.040  1.00  0.00     0.278 C 
ENDBRANCH  23  28
ENDBRANCH  19  22
ENDBRANCH  15  18
ENDBRANCH   7  14
ENDBRANCH   3   6
ENDBRANCH   1   2
BRANCH   1  30
ATOM     30  C   UNL     1       8.133   3.189  -2.375  1.00  0.00     0.042 C 
BRANCH  30  31
ATOM     31  C   UNL     1       8.947   4.325  -1.779  1.00  0.00     0.118 C 
BRANCH  31  32
ATOM     32  N   UNL     1      10.222   4.524  -2.455  1.00  0.00    -0.352 N 
ATOM     33  C   UNL     1      10.707   5.621  -3.123  1.00  0.00     0.251 C 
ATOM     34  H   UNL     1      10.831   3.750  -2.428  1.00  0.00     0.163 HD
ATOM     35  O   UNL     1      11.733   5.528  -3.787  1.00  0.00    -0.269 OA
BRANCH  33  36
ATOM     36  C   UNL     1       9.981   6.906  -3.056  1.00  0.00     0.039 A 
ATOM     37  C   UNL     1       9.867   7.681  -4.213  1.00  0.00     0.014 A 
ATOM     38  C   UNL     1       9.421   7.350  -1.857  1.00  0.00     0.014 A 
ATOM     39  C   UNL     1       9.136   8.869  -4.178  1.00  0.00     0.010 A 
ATOM     40  C   UNL     1       8.605   8.475  -1.849  1.00  0.00     0.010 A 
ATOM     41  C   UNL     1       8.469   9.257  -3.004  1.00  0.00    -0.014 A 
BRANCH  41  42
ATOM     42  C   UNL     1       7.652  10.494  -2.951  1.00  0.00     0.031 A 
ATOM     43  C   UNL     1       8.033  11.603  -2.007  1.00  0.00     0.074 A 
ATOM     44  C   UNL     1       6.543  10.599  -3.709  1.00  0.00     0.049 A 
ATOM     45  N   UNL     1       7.416  12.731  -1.762  1.00  0.00    -0.248 NA
ATOM     46  C   UNL     1       9.255  11.405  -1.209  1.00  0.00     0.031 C 
ATOM     47  C   UNL     1       6.044   9.577  -4.631  1.00  0.00     0.029 A 
ATOM     48  N   UNL     1       5.631  11.618  -3.820  1.00  0.00    -0.354 N 
ATOM     49  C   UNL     1       8.167  13.367  -0.782  1.00  0.00     0.074 A 
ATOM     50  C   UNL     1       9.243  12.470  -0.423  1.00  0.00     0.031 C 
ATOM     51  C   UNL     1       4.937  10.034  -5.238  1.00  0.00     0.029 A 
ATOM     52  C   UNL     1       4.623  11.360  -4.718  1.00  0.00     0.049 A 
ATOM     53  H   UNL     1       5.692  12.455  -3.305  1.00  0.00     0.167 HD
ATOM     54  C   UNL     1       7.998  14.601  -0.251  1.00  0.00     0.037 A 
ATOM     55  C   UNL     1       3.564  12.110  -5.076  1.00  0.00     0.037 A 
ATOM     56  C   UNL     1       6.938  15.498  -0.624  1.00  0.00     0.049 A 
ATOM     57  C   UNL     1       3.383  13.466  -4.450  1.00  0.00     0.074 A 
ATOM     58  C   UNL     1       6.696  16.783  -0.171  1.00  0.00     0.029 A 
ATOM     59  N   UNL     1       5.942  15.204  -1.544  1.00  0.00    -0.354 N 
ATOM     60  N   UNL     1       4.134  14.078  -3.566  1.00  0.00    -0.248 NA
ATOM     61  C   UNL     1       2.210  14.240  -4.879  1.00  0.00     0.031 C 
ATOM     62  C   UNL     1       5.528  17.249  -0.783  1.00  0.00     0.029 A 
ATOM     63  C   UNL     1       5.075  16.277  -1.661  1.00  0.00     0.049 A 
ATOM     64  H   UNL     1       5.863  14.357  -2.040  1.00  0.00     0.167 HD
ATOM     65  C   UNL     1       3.549  15.322  -3.365  1.00  0.00     0.074 A 
ATOM     66  C   UNL     1       2.388  15.381  -4.229  1.00  0.00     0.031 C 
ATOM     67  C   UNL     1       3.937  16.326  -2.542  1.00  0.00     0.037 A 
BRANCH  54  68
ATOM     68  C   UNL     1       8.993  15.053   0.779  1.00  0.00     0.057 A 
ATOM     69  C   UNL     1      10.325  15.334   0.444  1.00  0.00     0.134 A 
ATOM     70  C   UNL     1       8.611  15.241   2.113  1.00  0.00     0.134 A 
ATOM     71  F   UNL     1      10.761  15.161  -0.813  1.00  0.00    -0.206 F 
ATOM     72  C   UNL     1      11.247  15.757   1.403  1.00  0.00     0.040 A 
ATOM     73  C   UNL     1       9.517  15.694   3.075  1.00  0.00     0.040 A 
ATOM     74  F   UNL     1       7.351  14.996   2.503  1.00  0.00    -0.206 F 
ATOM     75  C   UNL     1      10.841  15.946   2.721  1.00  0.00     0.006 A 
ENDBRANCH  54  68
BRANCH  55  76
ATOM     76  C   UNL     1       2.603  11.616  -6.096  1.00  0.00     0.057 A 
ATOM     77  C   UNL     1       2.499  12.234  -7.348  1.00  0.00     0.134 A 
ATOM     78  C   UNL     1       1.744  10.541  -5.837  1.00  0.00     0.134 A 
ATOM     79  F   UNL     1       3.283  13.280  -7.651  1.00  0.00    -0.206 F 
ATOM     80  C   UNL     1       1.556  11.824  -8.292  1.00  0.00     0.040 A 
ATOM     81  C   UNL     1       0.816  10.102  -6.782  1.00  0.00     0.040 A 
ATOM     82  F   UNL     1       1.798   9.899  -4.661  1.00  0.00    -0.206 F 
ATOM     83  C   UNL     1       0.712  10.752  -8.011  1.00  0.00     0.006 A 
ENDBRANCH  55  76
BRANCH  67  84
ATOM     84  C   UNL     1       3.136  17.596  -2.580  1.00  0.00     0.057 A 
ATOM     85  C   UNL     1       1.836  17.673  -2.063  1.00  0.00     0.134 A 
ATOM     86  C   UNL     1       3.690  18.766  -3.115  1.00  0.00     0.134 A 
ATOM     87  F   UNL     1       1.243  16.586  -1.548  1.00  0.00    -0.206 F 
ATOM     88  C   UNL     1       1.106  18.862  -2.105  1.00  0.00     0.040 A 
ATOM     89  C   UNL     1       2.982  19.968  -3.133  1.00  0.00     0.040 A 
ATOM     90  F   UNL     1       4.934  18.764  -3.617  1.00  0.00    -0.206 F 
ATOM     91  C   UNL     1       1.682  20.016  -2.634  1.00  0.00     0.006 A 
ENDBRANCH  67  84
ENDBRANCH  41  42
ENDBRANCH  33  36
ENDBRANCH  31  32
ENDBRANCH  30  31
ENDBRANCH   1  30
TORSDOF 14
