REMARK SMILES O=C(NCCCNC(=O)[C@H]1CCCCN1c1cc(-c2ccccc2)nc(-c2cccc(Cl)c2)n1)c1ccc(-c2c3nc(c(-c4c(F)cccc4F)c4ccc([nH]4)c(-c4c(F)cccc4F)c4nc(c(-c5c(F)cccc5F)c5ccc2[nH]5)C=C4)C=C3)cc1
REMARK SMILES IDX 5 1 4 2 3 3 1 4 2 5 35 7 36 8 88 9 37 10 87 11 38 12 39 13
REMARK SMILES IDX 40 14 81 15 41 16 86 17 80 18 82 19 42 20 85 21 79 22 78 23
REMARK SMILES IDX 43 25 69 26 52 27 68 28 53 29 56 30 67 31 83 32 54 33 55 34
REMARK SMILES IDX 66 36 84 37 57 38 44 39 45 40 50 41 46 42 47 43 49 44 51 45
REMARK SMILES IDX 48 46 70 47 71 48 76 49 72 50 73 51 75 52 77 53 74 54 58 55
REMARK SMILES IDX 59 56 64 57 60 58 61 59 63 60 65 61 62 62 6 63 7 64 8 65
REMARK SMILES IDX 9 67 10 68 11 69 15 70 12 71 14 72 13 73 16 74 17 75 34 76
REMARK SMILES IDX 18 77 26 78 25 79 19 80 20 81 24 82 21 83 23 84 22 85 27 86
REMARK SMILES IDX 28 87 33 88 29 89 31 90 30 91 32 92
REMARK H PARENT 3 6 82 24 56 35 7 66
REMARK Flexibility Score: inf
ROOT
ATOM      1  C   UNL     1       9.166   4.287  -0.695  1.00  0.00     0.042 C 
ENDROOT
BRANCH   1   2
ATOM      2  C   UNL     1       8.916   4.002  -2.163  1.00  0.00     0.118 C 
BRANCH   2   3
ATOM      3  N   UNL     1       9.573   4.982  -3.024  1.00  0.00    -0.352 N 
ATOM      4  O   UNL     1      11.309   5.920  -4.118  1.00  0.00    -0.269 OA
ATOM      5  C   UNL     1      10.783   4.908  -3.674  1.00  0.00     0.251 C 
ATOM      6  H   UNL     1       9.076   5.821  -3.158  1.00  0.00     0.163 HD
BRANCH   5   7
ATOM      7  C   UNL     1      11.438   3.595  -3.829  1.00  0.00     0.039 A 
ATOM      8  C   UNL     1      10.662   2.472  -4.110  1.00  0.00     0.014 A 
ATOM      9  C   UNL     1      12.827   3.480  -3.722  1.00  0.00     0.014 A 
ATOM     10  C   UNL     1      11.234   1.215  -4.093  1.00  0.00     0.010 A 
ATOM     11  C   UNL     1      13.426   2.225  -3.864  1.00  0.00     0.010 A 
ATOM     12  C   UNL     1      12.629   1.084  -4.040  1.00  0.00    -0.014 A 
BRANCH  12  13
ATOM     13  C   UNL     1      13.204  -0.247  -4.340  1.00  0.00     0.031 A 
ATOM     14  C   UNL     1      14.015  -1.000  -3.332  1.00  0.00     0.074 A 
ATOM     15  C   UNL     1      12.928  -0.777  -5.550  1.00  0.00     0.049 A 
ATOM     16  N   UNL     1      14.573  -2.177  -3.452  1.00  0.00    -0.248 NA
ATOM     17  C   UNL     1      14.241  -0.358  -2.028  1.00  0.00     0.031 C 
ATOM     18  C   UNL     1      12.154  -0.110  -6.605  1.00  0.00     0.029 A 
ATOM     19  N   UNL     1      13.235  -1.995  -6.093  1.00  0.00    -0.354 N 
ATOM     20  C   UNL     1      15.238  -2.407  -2.256  1.00  0.00     0.074 A 
ATOM     21  C   UNL     1      15.022  -1.244  -1.422  1.00  0.00     0.031 C 
ATOM     22  C   UNL     1      11.994  -0.947  -7.636  1.00  0.00     0.029 A 
ATOM     23  C   UNL     1      12.736  -2.167  -7.362  1.00  0.00     0.049 A 
ATOM     24  H   UNL     1      13.760  -2.681  -5.621  1.00  0.00     0.167 HD
ATOM     25  C   UNL     1      15.963  -3.494  -1.901  1.00  0.00     0.037 A 
ATOM     26  C   UNL     1      12.895  -3.179  -8.232  1.00  0.00     0.037 A 
ATOM     27  C   UNL     1      16.143  -4.651  -2.741  1.00  0.00     0.049 A 
ATOM     28  C   UNL     1      13.727  -4.351  -7.811  1.00  0.00     0.074 A 
ATOM     29  C   UNL     1      16.811  -5.828  -2.452  1.00  0.00     0.029 A 
ATOM     30  N   UNL     1      15.660  -4.773  -4.036  1.00  0.00    -0.354 N 
ATOM     31  N   UNL     1      14.315  -4.572  -6.661  1.00  0.00    -0.248 NA
ATOM     32  C   UNL     1      13.933  -5.405  -8.811  1.00  0.00     0.031 C 
ATOM     33  C   UNL     1      16.781  -6.638  -3.591  1.00  0.00     0.029 A 
ATOM     34  C   UNL     1      16.049  -5.990  -4.572  1.00  0.00     0.049 A 
ATOM     35  H   UNL     1      15.121  -4.095  -4.505  1.00  0.00     0.167 HD
ATOM     36  C   UNL     1      14.959  -5.791  -6.795  1.00  0.00     0.074 A 
ATOM     37  C   UNL     1      14.657  -6.278  -8.127  1.00  0.00     0.031 C 
ATOM     38  C   UNL     1      15.741  -6.446  -5.903  1.00  0.00     0.037 A 
BRANCH  25  39
ATOM     39  C   UNL     1      16.642  -3.489  -0.563  1.00  0.00     0.057 A 
ATOM     40  C   UNL     1      15.935  -3.666   0.632  1.00  0.00     0.134 A 
ATOM     41  C   UNL     1      18.039  -3.401  -0.481  1.00  0.00     0.134 A 
ATOM     42  F   UNL     1      14.596  -3.747   0.624  1.00  0.00    -0.206 F 
ATOM     43  C   UNL     1      16.592  -3.756   1.861  1.00  0.00     0.040 A 
ATOM     44  C   UNL     1      18.708  -3.510   0.739  1.00  0.00     0.040 A 
ATOM     45  F   UNL     1      18.776  -3.235  -1.589  1.00  0.00    -0.206 F 
ATOM     46  C   UNL     1      17.984  -3.689   1.915  1.00  0.00     0.006 A 
ENDBRANCH  25  39
BRANCH  26  47
ATOM     47  C   UNL     1      12.309  -3.092  -9.593  1.00  0.00     0.057 A 
ATOM     48  C   UNL     1      11.301  -3.966 -10.011  1.00  0.00     0.134 A 
ATOM     49  C   UNL     1      12.752  -2.133 -10.514  1.00  0.00     0.134 A 
ATOM     50  F   UNL     1      10.842  -4.915  -9.181  1.00  0.00    -0.206 F 
ATOM     51  C   UNL     1      10.772  -3.907 -11.301  1.00  0.00     0.040 A 
ATOM     52  C   UNL     1      12.209  -2.039 -11.794  1.00  0.00     0.040 A 
ATOM     53  F   UNL     1      13.709  -1.256 -10.172  1.00  0.00    -0.206 F 
ATOM     54  C   UNL     1      11.223  -2.937 -12.195  1.00  0.00     0.006 A 
ENDBRANCH  26  47
BRANCH  38  55
ATOM     55  C   UNL     1      16.309  -7.759  -6.348  1.00  0.00     0.057 A 
ATOM     56  C   UNL     1      17.336  -7.830  -7.297  1.00  0.00     0.134 A 
ATOM     57  C   UNL     1      15.835  -8.961  -5.811  1.00  0.00     0.134 A 
ATOM     58  F   UNL     1      17.818  -6.712  -7.863  1.00  0.00    -0.206 F 
ATOM     59  C   UNL     1      17.855  -9.055  -7.717  1.00  0.00     0.040 A 
ATOM     60  C   UNL     1      16.365 -10.190  -6.201  1.00  0.00     0.040 A 
ATOM     61  F   UNL     1      14.855  -8.959  -4.894  1.00  0.00    -0.206 F 
ATOM     62  C   UNL     1      17.373 -10.239  -7.162  1.00  0.00     0.006 A 
ENDBRANCH  38  55
ENDBRANCH  12  13
ENDBRANCH   5   7
ENDBRANCH   2   3
ENDBRANCH   1   2
BRANCH   1  63
ATOM     63  C   UNL     1       8.467   5.554  -0.248  1.00  0.00     0.117 C 
BRANCH  63  64
ATOM     64  N   UNL     1       7.034   5.367  -0.181  1.00  0.00    -0.354 N 
ATOM     65  C   UNL     1       6.106   5.492   0.794  1.00  0.00     0.242 C 
ATOM     66  H   UNL     1       6.646   5.086  -1.041  1.00  0.00     0.163 HD
ATOM     67  O   UNL     1       4.969   5.131   0.446  1.00  0.00    -0.273 OA
BRANCH  65  68
ATOM     68  C   UNL     1       6.342   6.054   2.229  1.00  0.00     0.173 C 
ATOM     69  C   UNL     1       7.688   6.638   2.658  1.00  0.00     0.035 C 
ATOM     70  N   UNL     1       5.317   7.093   2.454  1.00  0.00    -0.344 N 
ATOM     71  C   UNL     1       7.987   7.981   1.981  1.00  0.00     0.004 C 
ATOM     72  C   UNL     1       5.502   8.376   1.788  1.00  0.00     0.119 C 
ATOM     73  C   UNL     1       6.847   8.975   2.201  1.00  0.00     0.022 C 
BRANCH  70  74
ATOM     74  C   UNL     1       4.601   7.044   3.633  1.00  0.00     0.133 A 
ATOM     75  C   UNL     1       3.260   7.348   3.620  1.00  0.00     0.076 A 
ATOM     76  N   UNL     1       5.220   6.663   4.759  1.00  0.00    -0.211 NA
ATOM     77  C   UNL     1       2.570   7.229   4.809  1.00  0.00     0.076 A 
ATOM     78  C   UNL     1       4.479   6.595   5.878  1.00  0.00     0.162 A 
ATOM     79  N   UNL     1       3.167   6.863   5.958  1.00  0.00    -0.228 NA
BRANCH  77  80
ATOM     80  C   UNL     1       1.131   7.495   4.870  1.00  0.00     0.000 A 
ATOM     81  C   UNL     1       0.620   8.494   5.712  1.00  0.00     0.010 A 
ATOM     82  C   UNL     1       0.233   6.782   4.057  1.00  0.00     0.010 A 
ATOM     83  C   UNL     1      -0.746   8.788   5.722  1.00  0.00     0.001 A 
ATOM     84  C   UNL     1      -1.133   7.069   4.074  1.00  0.00     0.001 A 
ATOM     85  C   UNL     1      -1.620   8.077   4.902  1.00  0.00     0.000 A 
ENDBRANCH  77  80
BRANCH  78  86
ATOM     86  C   UNL     1       5.166   6.178   7.102  1.00  0.00     0.021 A 
ATOM     87  C   UNL     1       6.353   6.809   7.518  1.00  0.00     0.012 A 
ATOM     88  C   UNL     1       4.664   5.125   7.884  1.00  0.00     0.032 A 
ATOM     89  C   UNL     1       7.011   6.412   8.686  1.00  0.00     0.002 A 
ATOM     90  C   UNL     1       5.335   4.717   9.037  1.00  0.00     0.041 A 
ATOM     91  C   UNL     1       6.502   5.360   9.444  1.00  0.00     0.020 A 
ATOM     92  Cl  UNL     1       4.721   3.401   9.961  1.00  0.00    -0.084 Cl
ENDBRANCH  78  86
ENDBRANCH  70  74
ENDBRANCH  65  68
ENDBRANCH  63  64
ENDBRANCH   1  63
TORSDOF 13
