REMARK SMILES C[C@@H]1CC[C@@]1(SC1CCCCC1)C(=O)NCCCNC(=O)c1ccc(-c2c3nc(c(-c4c(F)cccc4F)c4ccc([nH]4)c(-c4c(F)cccc4F)c4nc(c(-c5c(F)cccc5F)c5ccc2[nH]5)C=C4)C=C3)cc1
REMARK SMILES IDX 17 1 16 2 15 3 13 4 14 5 5 7 1 8 2 9 3 10 4 11 6 12 7 13
REMARK SMILES IDX 8 14 12 15 9 16 11 17 10 18 18 19 19 20 20 21 21 23 22 24
REMARK SMILES IDX 23 25 75 26 24 27 74 28 25 29 26 30 27 31 68 32 28 33 73 34
REMARK SMILES IDX 67 35 69 36 29 37 72 38 66 39 65 40 30 42 56 43 39 44 55 45
REMARK SMILES IDX 40 46 43 47 54 48 70 49 41 50 42 51 53 53 71 54 44 55 31 56
REMARK SMILES IDX 32 57 37 58 33 59 34 60 36 61 38 62 35 63 57 64 58 65 63 66
REMARK SMILES IDX 59 67 60 68 62 69 64 70 61 71 45 72 46 73 51 74 47 75 48 76
REMARK SMILES IDX 50 77 52 78 49 79
REMARK H PARENT 15 6 19 22 69 41 43 52
REMARK Flexibility Score: inf
ROOT
ATOM      1  C   UNL     1       1.400   1.324  -3.798  1.00  0.00     0.042 C 
ENDROOT
BRANCH   1   2
ATOM      2  C   UNL     1       1.745   2.002  -2.485  1.00  0.00     0.117 C 
BRANCH   2   3
ATOM      3  N   UNL     1       0.570   2.517  -1.816  1.00  0.00    -0.355 N 
ATOM      4  C   UNL     1       0.043   2.216  -0.581  1.00  0.00     0.236 C 
ATOM      5  O   UNL     1      -0.891   2.952  -0.227  1.00  0.00    -0.273 OA
ATOM      6  H   UNL     1       0.066   3.191  -2.327  1.00  0.00     0.163 HD
BRANCH   4   7
ATOM      7  C   UNL     1       0.573   1.004   0.280  1.00  0.00     0.097 C 
ATOM      8  C   UNL     1      -1.398   0.143   2.017  1.00  0.00     0.009 C 
ATOM      9  C   UNL     1      -0.658   0.054   0.694  1.00  0.00     0.012 C 
ATOM     10  C   UNL     1       0.271  -1.160   0.534  1.00  0.00     0.007 C 
ATOM     11  C   UNL     1       1.175  -0.292  -0.349  1.00  0.00     0.028 C 
BRANCH   7  12
ATOM     12  S   UNL     1       1.482   1.557   1.823  1.00  0.00    -0.141 SA
BRANCH  12  13
ATOM     13  C   UNL     1       2.991   2.442   1.287  1.00  0.00     0.047 C 
ATOM     14  C   UNL     1       4.038   1.518   0.659  1.00  0.00     0.014 C 
ATOM     15  C   UNL     1       2.767   3.740   0.504  1.00  0.00     0.014 C 
ATOM     16  C   UNL     1       5.329   2.266   0.331  1.00  0.00     0.001 C 
ATOM     17  C   UNL     1       4.073   4.429   0.102  1.00  0.00     0.001 C 
ATOM     18  C   UNL     1       5.052   3.467  -0.564  1.00  0.00     0.000 C 
ENDBRANCH  12  13
ENDBRANCH   7  12
ENDBRANCH   4   7
ENDBRANCH   2   3
ENDBRANCH   1   2
BRANCH   1  19
ATOM     19  C   UNL     1       0.888   2.298  -4.849  1.00  0.00     0.118 C 
BRANCH  19  20
ATOM     20  N   UNL     1       1.897   3.273  -5.245  1.00  0.00    -0.352 N 
ATOM     21  C   UNL     1       2.374   3.575  -6.493  1.00  0.00     0.251 C 
ATOM     22  H   UNL     1       2.294   3.790  -4.507  1.00  0.00     0.163 HD
ATOM     23  O   UNL     1       3.368   4.292  -6.612  1.00  0.00    -0.269 OA
BRANCH  21  24
ATOM     24  C   UNL     1       1.708   3.031  -7.691  1.00  0.00     0.039 A 
ATOM     25  C   UNL     1       2.492   2.563  -8.748  1.00  0.00     0.014 A 
ATOM     26  C   UNL     1       0.313   2.992  -7.777  1.00  0.00     0.014 A 
ATOM     27  C   UNL     1       1.875   2.007  -9.869  1.00  0.00     0.010 A 
ATOM     28  C   UNL     1      -0.296   2.355  -8.851  1.00  0.00     0.010 A 
ATOM     29  C   UNL     1       0.478   1.872  -9.916  1.00  0.00    -0.014 A 
BRANCH  29  30
ATOM     30  C   UNL     1      -0.194   1.252 -11.083  1.00  0.00     0.031 A 
ATOM     31  C   UNL     1      -1.140   2.062 -11.925  1.00  0.00     0.074 A 
ATOM     32  C   UNL     1       0.003  -0.054 -11.348  1.00  0.00     0.049 A 
ATOM     33  N   UNL     1      -1.856   1.690 -12.955  1.00  0.00    -0.248 NA
ATOM     34  C   UNL     1      -1.331   3.470 -11.540  1.00  0.00     0.031 C 
ATOM     35  C   UNL     1       0.851  -0.958 -10.568  1.00  0.00     0.029 A 
ATOM     36  N   UNL     1      -0.504  -0.849 -12.343  1.00  0.00    -0.354 N 
ATOM     37  C   UNL     1      -2.592   2.808 -13.326  1.00  0.00     0.074 A 
ATOM     38  C   UNL     1      -2.283   3.853 -12.377  1.00  0.00     0.031 C 
ATOM     39  C   UNL     1       0.828  -2.176 -11.132  1.00  0.00     0.029 A 
ATOM     40  C   UNL     1      -0.062  -2.148 -12.288  1.00  0.00     0.049 A 
ATOM     41  H   UNL     1      -1.126  -0.520 -13.032  1.00  0.00     0.167 HD
ATOM     42  C   UNL     1      -3.429   2.959 -14.380  1.00  0.00     0.037 A 
ATOM     43  C   UNL     1      -0.344  -3.198 -13.081  1.00  0.00     0.037 A 
ATOM     44  C   UNL     1      -3.712   1.923 -15.338  1.00  0.00     0.049 A 
ATOM     45  C   UNL     1      -1.267  -3.004 -14.252  1.00  0.00     0.074 A 
ATOM     46  C   UNL     1      -4.492   1.992 -16.478  1.00  0.00     0.029 A 
ATOM     47  N   UNL     1      -3.225   0.626 -15.263  1.00  0.00    -0.354 N 
ATOM     48  N   UNL     1      -1.896  -1.920 -14.638  1.00  0.00    -0.248 NA
ATOM     49  C   UNL     1      -1.511  -4.176 -15.103  1.00  0.00     0.031 C 
ATOM     50  C   UNL     1      -4.516   0.723 -17.068  1.00  0.00     0.029 A 
ATOM     51  C   UNL     1      -3.707  -0.122 -16.325  1.00  0.00     0.049 A 
ATOM     52  H   UNL     1      -2.626   0.287 -14.559  1.00  0.00     0.167 HD
ATOM     53  C   UNL     1      -2.587  -2.271 -15.791  1.00  0.00     0.074 A 
ATOM     54  C   UNL     1      -2.287  -3.664 -16.048  1.00  0.00     0.031 C 
ATOM     55  C   UNL     1      -3.395  -1.508 -16.567  1.00  0.00     0.037 A 
BRANCH  42  56
ATOM     56  C   UNL     1      -4.095   4.295 -14.547  1.00  0.00     0.057 A 
ATOM     57  C   UNL     1      -3.375   5.444 -14.902  1.00  0.00     0.134 A 
ATOM     58  C   UNL     1      -5.477   4.432 -14.367  1.00  0.00     0.134 A 
ATOM     59  F   UNL     1      -2.046   5.386 -15.077  1.00  0.00    -0.206 F 
ATOM     60  C   UNL     1      -3.998   6.685 -15.038  1.00  0.00     0.040 A 
ATOM     61  C   UNL     1      -6.117   5.662 -14.530  1.00  0.00     0.040 A 
ATOM     62  F   UNL     1      -6.230   3.373 -14.031  1.00  0.00    -0.206 F 
ATOM     63  C   UNL     1      -5.375   6.795 -14.858  1.00  0.00     0.006 A 
ENDBRANCH  42  56
BRANCH  43  64
ATOM     64  C   UNL     1       0.282  -4.517 -12.813  1.00  0.00     0.057 A 
ATOM     65  C   UNL     1       1.262  -5.038 -13.666  1.00  0.00     0.134 A 
ATOM     66  C   UNL     1      -0.078  -5.285 -11.700  1.00  0.00     0.134 A 
ATOM     67  F   UNL     1       1.637  -4.356 -14.758  1.00  0.00    -0.206 F 
ATOM     68  C   UNL     1       1.848  -6.283 -13.433  1.00  0.00     0.040 A 
ATOM     69  C   UNL     1       0.518  -6.520 -11.440  1.00  0.00     0.040 A 
ATOM     70  F   UNL     1      -1.003  -4.837 -10.838  1.00  0.00    -0.206 F 
ATOM     71  C   UNL     1       1.480  -7.025 -12.313  1.00  0.00     0.006 A 
ENDBRANCH  43  64
BRANCH  55  72
ATOM     72  C   UNL     1      -3.982  -2.155 -17.788  1.00  0.00     0.057 A 
ATOM     73  C   UNL     1      -4.990  -3.123 -17.702  1.00  0.00     0.134 A 
ATOM     74  C   UNL     1      -3.554  -1.778 -19.067  1.00  0.00     0.134 A 
ATOM     75  F   UNL     1      -5.436  -3.537 -16.506  1.00  0.00    -0.206 F 
ATOM     76  C   UNL     1      -5.533  -3.713 -18.844  1.00  0.00     0.040 A 
ATOM     77  C   UNL     1      -4.110  -2.339 -20.218  1.00  0.00     0.040 A 
ATOM     78  F   UNL     1      -2.599  -0.849 -19.221  1.00  0.00    -0.206 F 
ATOM     79  C   UNL     1      -5.098  -3.316 -20.107  1.00  0.00     0.006 A 
ENDBRANCH  55  72
ENDBRANCH  29  30
ENDBRANCH  21  24
ENDBRANCH  19  20
ENDBRANCH   1  19
TORSDOF 12
