REMARK SMILES COc1ccc(C(=O)C2=C(NCCCNC(=O)c3ccc(-c4c5nc(c(-c6c(F)cccc6F)c6ccc([nH]6)c(-c6c(F)cccc6F)c6nc(c(-c7c(F)cccc7F)c7ccc4[nH]7)C=C6)C=C5)cc3)C(=O)N(CC(=O)[O-])[C@H]2c2ccccc2)cc1
REMARK SMILES IDX 12 1 11 2 10 4 9 5 79 6 72 7 74 8 73 9 7 10 8 11 6 12 3 13
REMARK SMILES IDX 4 14 87 15 5 16 86 17 2 18 1 19 80 20 81 21 85 22 82 23
REMARK SMILES IDX 84 24 83 25 75 26 76 27 77 28 78 29 13 30 14 31 15 32 16 33
REMARK SMILES IDX 17 35 18 36 19 37 71 38 20 39 70 40 21 41 22 42 23 43 64 44
REMARK SMILES IDX 24 45 69 46 63 47 65 48 25 49 68 50 62 51 61 52 26 54 52 55
REMARK SMILES IDX 35 56 51 57 36 58 39 59 50 60 66 61 37 62 38 63 49 65 67 66
REMARK SMILES IDX 40 67 27 68 28 69 33 70 29 71 30 72 32 73 34 74 31 75 53 76
REMARK SMILES IDX 54 77 59 78 55 79 56 80 58 81 60 82 57 83 41 84 42 85 47 86
REMARK SMILES IDX 43 87 44 88 46 89 48 90 45 91
REMARK H PARENT 11 3 15 34 65 53 39 64
REMARK Flexibility Score: inf
ROOT
ATOM      1  C   UNL     1       1.035   8.043   1.460  1.00  0.00     0.115 C 
ENDROOT
BRANCH   1   2
ATOM      2  N   UNL     1       2.468   8.207   1.407  1.00  0.00    -0.380 N 
ATOM      3  H   UNL     1       2.835   8.848   2.058  1.00  0.00     0.160 HD
BRANCH   2   4
ATOM      4  C   UNL     1       3.402   7.614   0.597  1.00  0.00     0.110 C 
ATOM      5  C   UNL     1       3.421   6.689  -0.377  1.00  0.00     0.056 C 
ATOM      6  C   UNL     1       4.785   6.469  -0.967  1.00  0.00     0.153 C 
ATOM      7  C   UNL     1       4.822   8.115   0.664  1.00  0.00     0.271 C 
ATOM      8  N   UNL     1       5.525   7.561  -0.378  1.00  0.00    -0.320 N 
ATOM      9  O   UNL     1       5.240   8.881   1.522  1.00  0.00    -0.267 OA
BRANCH   5  10
ATOM     10  C   UNL     1       2.190   6.248  -1.063  1.00  0.00     0.193 C 
ATOM     11  O   UNL     1       1.604   7.042  -1.799  1.00  0.00    -0.289 OA
BRANCH  10  12
ATOM     12  C   UNL     1       1.634   4.874  -0.896  1.00  0.00     0.023 A 
ATOM     13  C   UNL     1       0.518   2.277  -0.767  1.00  0.00     0.118 A 
ATOM     14  C   UNL     1      -0.247   3.355  -1.211  1.00  0.00     0.047 A 
ATOM     15  C   UNL     1       1.834   2.503  -0.378  1.00  0.00     0.047 A 
ATOM     16  C   UNL     1       0.305   4.642  -1.280  1.00  0.00     0.016 A 
ATOM     17  C   UNL     1       2.376   3.793  -0.428  1.00  0.00     0.016 A 
BRANCH  13  18
ATOM     18  O   UNL     1      -0.110   1.063  -0.772  1.00  0.00    -0.497 OA
ATOM     19  C   UNL     1       0.575  -0.009  -0.133  1.00  0.00     0.278 C 
ENDBRANCH  13  18
ENDBRANCH  10  12
ENDBRANCH   5  10
BRANCH   6  20
ATOM     20  C   UNL     1       5.458   5.160  -0.560  1.00  0.00    -0.021 A 
ATOM     21  C   UNL     1       5.596   4.800   0.800  1.00  0.00     0.006 A 
ATOM     22  C   UNL     1       6.051   4.339  -1.530  1.00  0.00     0.006 A 
ATOM     23  C   UNL     1       6.292   3.653   1.172  1.00  0.00     0.000 A 
ATOM     24  C   UNL     1       6.761   3.197  -1.150  1.00  0.00     0.000 A 
ATOM     25  C   UNL     1       6.880   2.855   0.197  1.00  0.00     0.000 A 
ENDBRANCH   6  20
BRANCH   8  26
ATOM     26  C   UNL     1       6.973   7.692  -0.507  1.00  0.00     0.173 C 
BRANCH  26  27
ATOM     27  C   UNL     1       7.500   9.079  -0.830  1.00  0.00     0.061 C 
ATOM     28  O   UNL     1       8.680   9.402  -0.793  1.00  0.00    -0.548 OA
ATOM     29  O   UNL     1       6.583   9.942  -1.304  1.00  0.00    -0.548 OA
ENDBRANCH  26  27
ENDBRANCH   8  26
ENDBRANCH   2   4
ENDBRANCH   1   2
BRANCH   1  30
ATOM     30  C   UNL     1       0.621   7.208   2.666  1.00  0.00     0.042 C 
BRANCH  30  31
ATOM     31  C   UNL     1       0.958   7.833   4.018  1.00  0.00     0.118 C 
BRANCH  31  32
ATOM     32  N   UNL     1       0.321   9.126   4.223  1.00  0.00    -0.352 N 
ATOM     33  C   UNL     1      -0.600   9.553   5.144  1.00  0.00     0.251 C 
ATOM     34  H   UNL     1       0.602   9.820   3.583  1.00  0.00     0.163 HD
ATOM     35  O   UNL     1      -1.129  10.652   4.990  1.00  0.00    -0.269 OA
BRANCH  33  36
ATOM     36  C   UNL     1      -0.978   8.728   6.314  1.00  0.00     0.039 A 
ATOM     37  C   UNL     1      -2.296   8.802   6.781  1.00  0.00     0.014 A 
ATOM     38  C   UNL     1      -0.046   7.956   7.012  1.00  0.00     0.014 A 
ATOM     39  C   UNL     1      -2.681   8.084   7.915  1.00  0.00     0.010 A 
ATOM     40  C   UNL     1      -0.452   7.170   8.091  1.00  0.00     0.010 A 
ATOM     41  C   UNL     1      -1.767   7.245   8.571  1.00  0.00    -0.014 A 
BRANCH  41  42
ATOM     42  C   UNL     1      -2.171   6.477   9.778  1.00  0.00     0.031 A 
ATOM     43  C   UNL     1      -1.521   6.747  11.109  1.00  0.00     0.074 A 
ATOM     44  C   UNL     1      -3.103   5.510   9.673  1.00  0.00     0.049 A 
ATOM     45  N   UNL     1      -1.742   6.181  12.270  1.00  0.00    -0.248 NA
ATOM     46  C   UNL     1      -0.461   7.767  11.136  1.00  0.00     0.031 C 
ATOM     47  C   UNL     1      -3.764   5.105   8.431  1.00  0.00     0.029 A 
ATOM     48  N   UNL     1      -3.653   4.689  10.626  1.00  0.00    -0.354 N 
ATOM     49  C   UNL     1      -0.840   6.761  13.154  1.00  0.00     0.074 A 
ATOM     50  C   UNL     1      -0.029   7.678  12.385  1.00  0.00     0.031 C 
ATOM     51  C   UNL     1      -4.653   4.136   8.703  1.00  0.00     0.029 A 
ATOM     52  C   UNL     1      -4.603   3.830  10.130  1.00  0.00     0.049 A 
ATOM     53  H   UNL     1      -3.392   4.715  11.575  1.00  0.00     0.167 HD
ATOM     54  C   UNL     1      -0.714   6.568  14.489  1.00  0.00     0.037 A 
ATOM     55  C   UNL     1      -5.354   2.904  10.754  1.00  0.00     0.037 A 
ATOM     56  C   UNL     1      -1.542   5.675  15.259  1.00  0.00     0.049 A 
ATOM     57  C   UNL     1      -5.223   2.732  12.241  1.00  0.00     0.074 A 
ATOM     58  C   UNL     1      -1.541   5.460  16.626  1.00  0.00     0.029 A 
ATOM     59  N   UNL     1      -2.517   4.846  14.725  1.00  0.00    -0.354 N 
ATOM     60  N   UNL     1      -4.422   3.346  13.078  1.00  0.00    -0.248 NA
ATOM     61  C   UNL     1      -6.115   1.750  12.873  1.00  0.00     0.031 C 
ATOM     62  C   UNL     1      -2.484   4.467  16.913  1.00  0.00     0.029 A 
ATOM     63  C   UNL     1      -3.111   4.103  15.733  1.00  0.00     0.049 A 
ATOM     64  H   UNL     1      -2.753   4.793  13.770  1.00  0.00     0.167 HD
ATOM     65  C   UNL     1      -4.732   2.847  14.337  1.00  0.00     0.074 A 
ATOM     66  C   UNL     1      -5.806   1.893  14.154  1.00  0.00     0.031 C 
ATOM     67  C   UNL     1      -4.178   3.154  15.537  1.00  0.00     0.037 A 
BRANCH  54  68
ATOM     68  C   UNL     1       0.365   7.338  15.199  1.00  0.00     0.057 A 
ATOM     69  C   UNL     1       0.301   8.729  15.362  1.00  0.00     0.134 A 
ATOM     70  C   UNL     1       1.476   6.678  15.740  1.00  0.00     0.134 A 
ATOM     71  F   UNL     1      -0.729   9.426  14.859  1.00  0.00    -0.206 F 
ATOM     72  C   UNL     1       1.319   9.438  16.002  1.00  0.00     0.040 A 
ATOM     73  C   UNL     1       2.485   7.373  16.410  1.00  0.00     0.040 A 
ATOM     74  F   UNL     1       1.599   5.346  15.630  1.00  0.00    -0.206 F 
ATOM     75  C   UNL     1       2.413   8.759  16.533  1.00  0.00     0.006 A 
ENDBRANCH  54  68
BRANCH  55  76
ATOM     76  C   UNL     1      -6.328   2.098   9.976  1.00  0.00     0.057 A 
ATOM     77  C   UNL     1      -7.707   2.300  10.110  1.00  0.00     0.134 A 
ATOM     78  C   UNL     1      -5.905   1.116   9.072  1.00  0.00     0.134 A 
ATOM     79  F   UNL     1      -8.174   3.215  10.972  1.00  0.00    -0.206 F 
ATOM     80  C   UNL     1      -8.630   1.542   9.389  1.00  0.00     0.040 A 
ATOM     81  C   UNL     1      -6.817   0.369   8.325  1.00  0.00     0.040 A 
ATOM     82  F   UNL     1      -4.597   0.882   8.890  1.00  0.00    -0.206 F 
ATOM     83  C   UNL     1      -8.185   0.577   8.488  1.00  0.00     0.006 A 
ENDBRANCH  55  76
BRANCH  67  84
ATOM     84  C   UNL     1      -4.751   2.474  16.747  1.00  0.00     0.057 A 
ATOM     85  C   UNL     1      -4.563   1.108  16.993  1.00  0.00     0.134 A 
ATOM     86  C   UNL     1      -5.492   3.203  17.688  1.00  0.00     0.134 A 
ATOM     87  F   UNL     1      -3.873   0.350  16.127  1.00  0.00    -0.206 F 
ATOM     88  C   UNL     1      -5.121   0.484  18.110  1.00  0.00     0.040 A 
ATOM     89  C   UNL     1      -6.029   2.596  18.824  1.00  0.00     0.040 A 
ATOM     90  F   UNL     1      -5.702   4.517  17.520  1.00  0.00    -0.206 F 
ATOM     91  C   UNL     1      -5.853   1.230  19.032  1.00  0.00     0.006 A 
ENDBRANCH  67  84
ENDBRANCH  41  42
ENDBRANCH  33  36
ENDBRANCH  31  32
ENDBRANCH  30  31
ENDBRANCH   1  30
TORSDOF 16
