REMARK SMILES C[C@H](Nc1cccc(C(=O)NCCCNC(=O)c2ccc(-c3c4nc(c(-c5c(F)cccc5F)c5ccc([nH]5)c(-c5c(F)cccc5F)c5nc(c(-c6c(F)cccc6F)c6ccc3[nH]6)C=C5)C=C4)cc2)c1)C1CC[NH+](C)CC1
REMARK SMILES IDX 12 1 11 2 9 3 10 4 8 6 4 7 5 8 72 9 6 10 7 11 3 12 2 14 1 15
REMARK SMILES IDX 73 16 74 17 79 18 75 19 78 20 76 21 77 22 13 24 14 25 15 26
REMARK SMILES IDX 16 27 17 29 18 30 19 31 71 32 20 33 70 34 21 35 22 36 23 37
REMARK SMILES IDX 64 38 24 39 69 40 63 41 65 42 25 43 68 44 62 45 61 46 26 48
REMARK SMILES IDX 52 49 35 50 51 51 36 52 39 53 50 54 66 55 37 56 38 57 49 59
REMARK SMILES IDX 67 60 40 61 27 62 28 63 33 64 29 65 30 66 32 67 34 68 31 69
REMARK SMILES IDX 53 70 54 71 59 72 55 73 56 74 58 75 60 76 57 77 41 78 42 79
REMARK SMILES IDX 47 80 43 81 44 82 46 83 48 84 45 85
REMARK H PARENT 11 5 3 13 76 23 15 28 65 47 39 58
REMARK Flexibility Score: inf
ROOT
ATOM      1  C   UNL     1       4.452  -2.756   1.513  1.00  0.00     0.118 C 
ENDROOT
BRANCH   1   2
ATOM      2  N   UNL     1       5.591  -2.218   0.792  1.00  0.00    -0.352 N 
ATOM      3  C   UNL     1       5.760  -1.115  -0.008  1.00  0.00     0.251 C 
ATOM      4  O   UNL     1       6.899  -0.898  -0.424  1.00  0.00    -0.269 OA
ATOM      5  H   UNL     1       6.411  -2.754   0.899  1.00  0.00     0.163 HD
BRANCH   3   6
ATOM      6  C   UNL     1       4.673  -0.152  -0.349  1.00  0.00     0.041 A 
ATOM      7  C   UNL     1       2.330   0.527  -0.492  1.00  0.00     0.035 A 
ATOM      8  C   UNL     1       2.736   1.811  -0.862  1.00  0.00     0.026 A 
ATOM      9  C   UNL     1       3.311  -0.458  -0.321  1.00  0.00     0.039 A 
ATOM     10  C   UNL     1       4.091   2.120  -0.986  1.00  0.00     0.003 A 
ATOM     11  C   UNL     1       5.053   1.149  -0.706  1.00  0.00     0.014 A 
BRANCH   7  12
ATOM     12  N   UNL     1       1.000   0.297  -0.149  1.00  0.00    -0.382 N 
ATOM     13  H   UNL     1       0.283   0.639  -0.731  1.00  0.00     0.160 HD
BRANCH  12  14
ATOM     14  C   UNL     1       0.648  -0.451   1.076  1.00  0.00     0.079 C 
ATOM     15  C   UNL     1       1.423   0.133   2.266  1.00  0.00     0.031 C 
BRANCH  14  16
ATOM     16  C   UNL     1      -0.906  -0.479   1.217  1.00  0.00     0.022 C 
ATOM     17  C   UNL     1      -1.564   0.835   1.657  1.00  0.00     0.067 C 
ATOM     18  C   UNL     1      -1.435  -1.610   2.116  1.00  0.00     0.067 C 
ATOM     19  C   UNL     1      -1.468   1.108   3.159  1.00  0.00     0.262 C 
ATOM     20  C   UNL     1      -1.348  -1.321   3.613  1.00  0.00     0.262 C 
ATOM     21  N   UNL     1      -1.890  -0.016   4.000  1.00  0.00    -0.337 N 
ATOM     22  C   UNL     1      -1.548   0.267   5.400  1.00  0.00     0.332 C 
ATOM     23  H   UNL     1      -2.898  -0.093   3.870  1.00  0.00     0.347 HD
ENDBRANCH  14  16
ENDBRANCH  12  14
ENDBRANCH   7  12
ENDBRANCH   3   6
ENDBRANCH   1   2
BRANCH   1  24
ATOM     24  C   UNL     1       3.760  -3.867   0.722  1.00  0.00     0.042 C 
BRANCH  24  25
ATOM     25  C   UNL     1       4.517  -5.192   0.747  1.00  0.00     0.118 C 
BRANCH  25  26
ATOM     26  N   UNL     1       4.496  -5.806   2.067  1.00  0.00    -0.352 N 
ATOM     27  C   UNL     1       4.007  -7.018   2.483  1.00  0.00     0.251 C 
ATOM     28  H   UNL     1       4.900  -5.260   2.780  1.00  0.00     0.163 HD
ATOM     29  O   UNL     1       3.885  -7.229   3.687  1.00  0.00    -0.269 OA
BRANCH  27  30
ATOM     30  C   UNL     1       3.619  -8.068   1.514  1.00  0.00     0.039 A 
ATOM     31  C   UNL     1       2.519  -8.879   1.817  1.00  0.00     0.014 A 
ATOM     32  C   UNL     1       4.357  -8.310   0.353  1.00  0.00     0.014 A 
ATOM     33  C   UNL     1       2.134  -9.892   0.937  1.00  0.00     0.010 A 
ATOM     34  C   UNL     1       3.930  -9.274  -0.560  1.00  0.00     0.010 A 
ATOM     35  C   UNL     1       2.818 -10.079  -0.275  1.00  0.00    -0.014 A 
BRANCH  35  36
ATOM     36  C   UNL     1       2.370 -11.103  -1.252  1.00  0.00     0.031 A 
ATOM     37  C   UNL     1       3.249 -12.274  -1.594  1.00  0.00     0.074 A 
ATOM     38  C   UNL     1       1.187 -10.944  -1.877  1.00  0.00     0.049 A 
ATOM     39  N   UNL     1       3.038 -13.244  -2.448  1.00  0.00    -0.248 NA
ATOM     40  C   UNL     1       4.546 -12.354  -0.905  1.00  0.00     0.031 C 
ATOM     41  C   UNL     1       0.271  -9.819  -1.676  1.00  0.00     0.029 A 
ATOM     42  N   UNL     1       0.556 -11.724  -2.813  1.00  0.00    -0.354 N 
ATOM     43  C   UNL     1       4.178 -14.036  -2.413  1.00  0.00     0.074 A 
ATOM     44  C   UNL     1       5.098 -13.409  -1.487  1.00  0.00     0.031 C 
ATOM     45  C   UNL     1      -0.814  -9.994  -2.446  1.00  0.00     0.029 A 
ATOM     46  C   UNL     1      -0.657 -11.223  -3.218  1.00  0.00     0.049 A 
ATOM     47  H   UNL     1       0.936 -12.563  -3.160  1.00  0.00     0.167 HD
ATOM     48  C   UNL     1       4.429 -15.191  -3.075  1.00  0.00     0.037 A 
ATOM     49  C   UNL     1      -1.543 -11.698  -4.113  1.00  0.00     0.037 A 
ATOM     50  C   UNL     1       3.500 -15.827  -3.974  1.00  0.00     0.049 A 
ATOM     51  C   UNL     1      -1.252 -12.990  -4.820  1.00  0.00     0.074 A 
ATOM     52  C   UNL     1       3.629 -17.037  -4.634  1.00  0.00     0.029 A 
ATOM     53  N   UNL     1       2.271 -15.300  -4.342  1.00  0.00    -0.354 N 
ATOM     54  N   UNL     1      -0.203 -13.770  -4.716  1.00  0.00    -0.248 NA
ATOM     55  C   UNL     1      -2.270 -13.473  -5.762  1.00  0.00     0.031 C 
ATOM     56  C   UNL     1       2.496 -17.222  -5.434  1.00  0.00     0.029 A 
ATOM     57  C   UNL     1       1.642 -16.149  -5.239  1.00  0.00     0.049 A 
ATOM     58  H   UNL     1       1.901 -14.449  -4.015  1.00  0.00     0.167 HD
ATOM     59  C   UNL     1      -0.441 -14.843  -5.564  1.00  0.00     0.074 A 
ATOM     60  C   UNL     1      -1.744 -14.624  -6.159  1.00  0.00     0.031 C 
ATOM     61  C   UNL     1       0.348 -15.913  -5.827  1.00  0.00     0.037 A 
BRANCH  48  62
ATOM     62  C   UNL     1       5.762 -15.844  -2.850  1.00  0.00     0.057 A 
ATOM     63  C   UNL     1       6.088 -16.461  -1.634  1.00  0.00     0.134 A 
ATOM     64  C   UNL     1       6.721 -15.886  -3.870  1.00  0.00     0.134 A 
ATOM     65  F   UNL     1       5.219 -16.448  -0.612  1.00  0.00    -0.206 F 
ATOM     66  C   UNL     1       7.328 -17.069  -1.432  1.00  0.00     0.040 A 
ATOM     67  C   UNL     1       7.954 -16.514  -3.689  1.00  0.00     0.040 A 
ATOM     68  F   UNL     1       6.472 -15.322  -5.062  1.00  0.00    -0.206 F 
ATOM     69  C   UNL     1       8.263 -17.102  -2.464  1.00  0.00     0.006 A 
ENDBRANCH  48  62
BRANCH  49  70
ATOM     70  C   UNL     1      -2.803 -10.957  -4.367  1.00  0.00     0.057 A 
ATOM     71  C   UNL     1      -4.032 -11.449  -3.914  1.00  0.00     0.134 A 
ATOM     72  C   UNL     1      -2.809  -9.738  -5.054  1.00  0.00     0.134 A 
ATOM     73  F   UNL     1      -4.092 -12.621  -3.264  1.00  0.00    -0.206 F 
ATOM     74  C   UNL     1      -5.225 -10.763  -4.146  1.00  0.00     0.040 A 
ATOM     75  C   UNL     1      -3.991  -9.029  -5.273  1.00  0.00     0.040 A 
ATOM     76  F   UNL     1      -1.662  -9.209  -5.504  1.00  0.00    -0.206 F 
ATOM     77  C   UNL     1      -5.205  -9.545  -4.823  1.00  0.00     0.006 A 
ENDBRANCH  49  70
BRANCH  61  78
ATOM     78  C   UNL     1      -0.186 -16.934  -6.787  1.00  0.00     0.057 A 
ATOM     79  C   UNL     1      -0.263 -16.682  -8.163  1.00  0.00     0.134 A 
ATOM     80  C   UNL     1      -0.603 -18.192  -6.334  1.00  0.00     0.134 A 
ATOM     81  F   UNL     1       0.107 -15.491  -8.657  1.00  0.00    -0.206 F 
ATOM     82  C   UNL     1      -0.758 -17.638  -9.052  1.00  0.00     0.040 A 
ATOM     83  C   UNL     1      -1.075 -19.165  -7.216  1.00  0.00     0.040 A 
ATOM     84  F   UNL     1      -0.547 -18.500  -5.030  1.00  0.00    -0.206 F 
ATOM     85  C   UNL     1      -1.160 -18.886  -8.579  1.00  0.00     0.006 A 
ENDBRANCH  61  78
ENDBRANCH  35  36
ENDBRANCH  27  30
ENDBRANCH  25  26
ENDBRANCH  24  25
ENDBRANCH   1  24
TORSDOF 13
