REMARK SMILES CC1(C)[C@H](C(=O)NCCCNC(=O)c2ccc(-c3c4nc(c(-c5c(F)cccc5F)c5ccc([nH]5)c(-c5c(F)cccc5F)c5nc(c(-c6c(F)cccc6F)c6ccc3[nH]6)C=C5)C=C4)cc2)[C@H]1C(=O)Nc1cccc2[nH]ccc12
REMARK SMILES IDX 9 1 8 2 7 3 5 4 6 5 4 7 1 8 2 9 3 10 68 11 69 12 70 13 71 14
REMARK SMILES IDX 72 16 73 17 80 18 74 19 76 20 79 21 75 22 77 23 78 24 10 26
REMARK SMILES IDX 11 27 12 28 13 30 14 31 15 32 67 33 16 34 66 35 17 36 18 37
REMARK SMILES IDX 19 38 60 39 20 40 65 41 59 42 61 43 21 44 64 45 58 46 57 47
REMARK SMILES IDX 22 49 48 50 31 51 47 52 32 53 35 54 46 55 62 56 33 57 34 58
REMARK SMILES IDX 45 60 63 61 36 62 23 63 24 64 29 65 25 66 26 67 28 68 30 69
REMARK SMILES IDX 27 70 49 71 50 72 55 73 51 74 52 75 54 76 56 77 53 78 37 79
REMARK SMILES IDX 38 80 43 81 39 82 40 83 42 84 44 85 41 86
REMARK H PARENT 7 6 71 15 77 25 11 29 61 48 35 59
REMARK Flexibility Score: inf
ROOT
ATOM      1  C   UNL     1      -0.677   4.057  -0.626  1.00  0.00     0.042 C 
ENDROOT
BRANCH   1   2
ATOM      2  C   UNL     1      -1.843   3.171  -0.195  1.00  0.00     0.117 C 
BRANCH   2   3
ATOM      3  N   UNL     1      -2.168   2.195  -1.207  1.00  0.00    -0.356 N 
ATOM      4  C   UNL     1      -1.793   0.909  -1.458  1.00  0.00     0.224 C 
ATOM      5  O   UNL     1      -2.291   0.414  -2.474  1.00  0.00    -0.275 OA
ATOM      6  H   UNL     1      -2.810   2.538  -1.871  1.00  0.00     0.163 HD
BRANCH   4   7
ATOM      7  C   UNL     1      -0.884   0.038  -0.666  1.00  0.00     0.098 C 
ATOM      8  C   UNL     1       1.567  -0.457  -0.327  1.00  0.00     0.013 C 
ATOM      9  C   UNL     1       0.394   0.378   0.113  1.00  0.00    -0.011 C 
ATOM     10  C   UNL     1       0.907   1.649   0.729  1.00  0.00     0.013 C 
ATOM     11  C   UNL     1      -0.880  -0.149   0.806  1.00  0.00     0.098 C 
BRANCH  11  12
ATOM     12  C   UNL     1      -0.891  -1.381   1.655  1.00  0.00     0.228 C 
ATOM     13  O   UNL     1      -0.815  -1.213   2.872  1.00  0.00    -0.274 OA
ATOM     14  N   UNL     1      -1.260  -2.620   1.190  1.00  0.00    -0.325 N 
ATOM     15  H   UNL     1      -1.892  -3.115   1.760  1.00  0.00     0.169 HD
BRANCH  14  16
ATOM     16  C   UNL     1      -0.865  -3.277   0.021  1.00  0.00     0.050 A 
ATOM     17  C   UNL     1      -1.864  -3.809  -0.802  1.00  0.00     0.027 A 
ATOM     18  C   UNL     1       0.485  -3.564  -0.287  1.00  0.00     0.023 A 
ATOM     19  C   UNL     1      -1.538  -4.421  -2.011  1.00  0.00     0.004 A 
ATOM     20  C   UNL     1       0.781  -4.115  -1.537  1.00  0.00     0.047 A 
ATOM     21  C   UNL     1       1.725  -3.491   0.416  1.00  0.00     0.030 A 
ATOM     22  C   UNL     1      -0.210  -4.526  -2.432  1.00  0.00     0.027 A 
ATOM     23  N   UNL     1       2.153  -4.134  -1.661  1.00  0.00    -0.361 N 
ATOM     24  C   UNL     1       2.736  -3.802  -0.468  1.00  0.00     0.083 A 
ATOM     25  H   UNL     1       2.642  -4.354  -2.486  1.00  0.00     0.166 HD
ENDBRANCH  14  16
ENDBRANCH  11  12
ENDBRANCH   4   7
ENDBRANCH   2   3
ENDBRANCH   1   2
BRANCH   1  26
ATOM     26  C   UNL     1      -1.058   5.166  -1.598  1.00  0.00     0.118 C 
BRANCH  26  27
ATOM     27  N   UNL     1      -1.853   6.207  -0.966  1.00  0.00    -0.352 N 
ATOM     28  C   UNL     1      -1.540   7.508  -0.657  1.00  0.00     0.251 C 
ATOM     29  H   UNL     1      -2.766   5.934  -0.719  1.00  0.00     0.163 HD
ATOM     30  O   UNL     1      -2.286   8.142   0.084  1.00  0.00    -0.269 OA
BRANCH  28  31
ATOM     31  C   UNL     1      -0.322   8.156  -1.196  1.00  0.00     0.039 A 
ATOM     32  C   UNL     1       0.376   9.057  -0.383  1.00  0.00     0.014 A 
ATOM     33  C   UNL     1       0.100   7.944  -2.510  1.00  0.00     0.014 A 
ATOM     34  C   UNL     1       1.517   9.701  -0.870  1.00  0.00     0.010 A 
ATOM     35  C   UNL     1       1.285   8.518  -2.965  1.00  0.00     0.010 A 
ATOM     36  C   UNL     1       1.998   9.416  -2.157  1.00  0.00    -0.014 A 
BRANCH  36  37
ATOM     37  C   UNL     1       3.216  10.073  -2.697  1.00  0.00     0.031 A 
ATOM     38  C   UNL     1       3.114  10.961  -3.909  1.00  0.00     0.074 A 
ATOM     39  C   UNL     1       4.418   9.825  -2.141  1.00  0.00     0.049 A 
ATOM     40  N   UNL     1       4.066  11.534  -4.601  1.00  0.00    -0.248 NA
ATOM     41  C   UNL     1       1.760  11.218  -4.429  1.00  0.00     0.031 C 
ATOM     42  C   UNL     1       4.655   8.961  -0.983  1.00  0.00     0.029 A 
ATOM     43  N   UNL     1       5.671  10.270  -2.485  1.00  0.00    -0.354 N 
ATOM     44  C   UNL     1       3.430  12.199  -5.642  1.00  0.00     0.074 A 
ATOM     45  C   UNL     1       2.017  11.916  -5.526  1.00  0.00     0.031 C 
ATOM     46  C   UNL     1       5.969   8.954  -0.702  1.00  0.00     0.029 A 
ATOM     47  C   UNL     1       6.671   9.776  -1.682  1.00  0.00     0.049 A 
ATOM     48  H   UNL     1       5.837  10.884  -3.236  1.00  0.00     0.167 HD
ATOM     49  C   UNL     1       3.971  12.996  -6.594  1.00  0.00     0.037 A 
ATOM     50  C   UNL     1       8.004   9.958  -1.738  1.00  0.00     0.037 A 
ATOM     51  C   UNL     1       5.374  13.303  -6.690  1.00  0.00     0.049 A 
ATOM     52  C   UNL     1       8.580  10.834  -2.817  1.00  0.00     0.074 A 
ATOM     53  C   UNL     1       6.016  14.129  -7.596  1.00  0.00     0.029 A 
ATOM     54  N   UNL     1       6.349  12.800  -5.843  1.00  0.00    -0.354 N 
ATOM     55  N   UNL     1       7.961  11.490  -3.769  1.00  0.00    -0.248 NA
ATOM     56  C   UNL     1      10.041  10.999  -2.827  1.00  0.00     0.031 C 
ATOM     57  C   UNL     1       7.386  14.100  -7.317  1.00  0.00     0.029 A 
ATOM     58  C   UNL     1       7.590  13.291  -6.211  1.00  0.00     0.049 A 
ATOM     59  H   UNL     1       6.184  12.186  -5.091  1.00  0.00     0.167 HD
ATOM     60  C   UNL     1       8.950  12.173  -4.465  1.00  0.00     0.074 A 
ATOM     61  C   UNL     1      10.208  11.860  -3.821  1.00  0.00     0.031 C 
ATOM     62  C   UNL     1       8.828  12.988  -5.541  1.00  0.00     0.037 A 
BRANCH  49  63
ATOM     63  C   UNL     1       3.040  13.606  -7.601  1.00  0.00     0.057 A 
ATOM     64  C   UNL     1       2.143  14.624  -7.251  1.00  0.00     0.134 A 
ATOM     65  C   UNL     1       3.071  13.207  -8.944  1.00  0.00     0.134 A 
ATOM     66  F   UNL     1       2.054  15.044  -5.980  1.00  0.00    -0.206 F 
ATOM     67  C   UNL     1       1.294  15.207  -8.194  1.00  0.00     0.040 A 
ATOM     68  C   UNL     1       2.248  13.802  -9.901  1.00  0.00     0.040 A 
ATOM     69  F   UNL     1       3.912  12.243  -9.349  1.00  0.00    -0.206 F 
ATOM     70  C   UNL     1       1.352  14.801  -9.526  1.00  0.00     0.006 A 
ENDBRANCH  49  63
BRANCH  50  71
ATOM     71  C   UNL     1       8.893   9.313  -0.737  1.00  0.00     0.057 A 
ATOM     72  C   UNL     1       9.580  10.077   0.214  1.00  0.00     0.134 A 
ATOM     73  C   UNL     1       9.103   7.929  -0.725  1.00  0.00     0.134 A 
ATOM     74  F   UNL     1       9.435  11.411   0.240  1.00  0.00    -0.206 F 
ATOM     75  C   UNL     1      10.465   9.494   1.122  1.00  0.00     0.040 A 
ATOM     76  C   UNL     1       9.964   7.329   0.195  1.00  0.00     0.040 A 
ATOM     77  F   UNL     1       8.470   7.140  -1.605  1.00  0.00    -0.206 F 
ATOM     78  C   UNL     1      10.656   8.114   1.115  1.00  0.00     0.006 A 
ENDBRANCH  50  71
BRANCH  62  79
ATOM     79  C   UNL     1      10.076  13.641  -6.055  1.00  0.00     0.057 A 
ATOM     80  C   UNL     1      11.053  12.925  -6.758  1.00  0.00     0.134 A 
ATOM     81  C   UNL     1      10.278  15.017  -5.883  1.00  0.00     0.134 A 
ATOM     82  F   UNL     1      10.924  11.603  -6.944  1.00  0.00    -0.206 F 
ATOM     83  C   UNL     1      12.197  13.551  -7.255  1.00  0.00     0.040 A 
ATOM     84  C   UNL     1      11.405  15.658  -6.399  1.00  0.00     0.040 A 
ATOM     85  F   UNL     1       9.376  15.761  -5.227  1.00  0.00    -0.206 F 
ATOM     86  C   UNL     1      12.370  14.923  -7.083  1.00  0.00     0.006 A 
ENDBRANCH  62  79
ENDBRANCH  36  37
ENDBRANCH  28  31
ENDBRANCH  26  27
ENDBRANCH   1  26
TORSDOF 12
