REMARK SMILES Cc1ccc(S(=O)(=O)n2cc(C(=O)C(=O)NCC(=O)N[C@@H](Cc3c[nH]c4ccccc34)C(=O)NCCCNC(=O)c3ccc(-c4c5nc(c(-c6c(F)cccc6F)c6ccc([nH]6)c(-c6c(F)cccc6F)c6nc(c(-c7c(F)cccc7F)c7ccc4[nH]7)C=C6)C=C5)cc3)c3ccccc32)cc1
REMARK SMILES IDX 32 1 33 2 34 3 21 5 20 6 18 7 19 8 17 10 16 11 14 12 15 13
REMARK SMILES IDX 12 15 13 16 11 17 9 18 10 19 100 20 95 21 99 22 96 23 98 24
REMARK SMILES IDX 97 25 6 26 7 27 8 28 5 29 1 30 2 31 3 32 102 33 4 34 101 35
REMARK SMILES IDX 22 36 23 37 24 38 31 39 25 40 26 41 30 42 27 44 29 45 28 46
REMARK SMILES IDX 35 47 36 48 37 49 38 50 39 51 40 53 41 54 42 55 94 56 43 57
REMARK SMILES IDX 93 58 44 59 45 60 46 61 87 62 47 63 92 64 86 65 88 66 48 67
REMARK SMILES IDX 91 68 85 69 84 70 49 72 75 73 58 74 74 75 59 76 62 77 73 78
REMARK SMILES IDX 89 79 60 80 61 81 72 83 90 84 63 85 50 86 51 87 56 88 52 89
REMARK SMILES IDX 53 90 55 91 57 92 54 93 76 94 77 95 82 96 78 97 79 98 81 99
REMARK SMILES IDX 83 100 80 101 64 102 65 103 70 104 66 105 67 106 69 107
REMARK SMILES IDX 71 108 68 109
REMARK H PARENT 34 4 20 9 16 14 25 43 38 52 88 71 62 82
REMARK Flexibility Score: inf
ROOT
ATOM      1  C   UNL     1      -9.608   0.599   3.300  1.00  0.00     0.242 C 
ATOM      2  O   UNL     1      -8.754  -0.262   3.067  1.00  0.00    -0.273 OA
ATOM      3  N   UNL     1     -10.616   0.267   4.162  1.00  0.00    -0.354 N 
ATOM      4  H   UNL     1     -10.846  -0.690   4.208  1.00  0.00     0.163 HD
ENDROOT
BRANCH   1   5
ATOM      5  C   UNL     1      -9.476   2.003   2.668  1.00  0.00     0.175 C 
BRANCH   5   6
ATOM      6  N   UNL     1     -10.767   2.512   2.187  1.00  0.00    -0.342 N 
ATOM      7  C   UNL     1     -11.289   2.365   0.927  1.00  0.00     0.240 C 
ATOM      8  O   UNL     1     -12.512   2.424   0.794  1.00  0.00    -0.273 OA
ATOM      9  H   UNL     1     -11.315   3.010   2.835  1.00  0.00     0.164 HD
BRANCH   7  10
ATOM     10  C   UNL     1     -10.354   2.051  -0.257  1.00  0.00     0.216 C 
BRANCH  10  11
ATOM     11  N   UNL     1      -9.245   3.010  -0.298  1.00  0.00    -0.340 N 
ATOM     12  C   UNL     1      -7.925   2.785  -0.647  1.00  0.00     0.292 C 
ATOM     13  O   UNL     1      -7.076   3.656  -0.497  1.00  0.00    -0.265 OA
ATOM     14  H   UNL     1      -9.469   3.934  -0.044  1.00  0.00     0.164 HD
BRANCH  12  15
ATOM     15  C   UNL     1      -7.530   1.419  -1.215  1.00  0.00     0.252 C 
ATOM     16  O   UNL     1      -8.223   0.998  -2.142  1.00  0.00    -0.283 OA
BRANCH  15  17
ATOM     17  C   UNL     1      -6.501   0.591  -0.572  1.00  0.00     0.054 A 
ATOM     18  N   UNL     1      -4.644  -0.225   0.425  1.00  0.00    -0.240 N 
ATOM     19  C   UNL     1      -5.205   0.913  -0.150  1.00  0.00     0.117 A 
ATOM     20  C   UNL     1      -5.658  -1.185   0.554  1.00  0.00     0.065 A 
ATOM     21  C   UNL     1      -6.660  -0.809  -0.336  1.00  0.00     0.012 A 
ATOM     22  C   UNL     1      -5.651  -2.456   1.161  1.00  0.00     0.028 A 
ATOM     23  C   UNL     1      -7.578  -1.789  -0.770  1.00  0.00     0.011 A 
ATOM     24  C   UNL     1      -6.527  -3.422   0.671  1.00  0.00     0.002 A 
ATOM     25  C   UNL     1      -7.453  -3.105  -0.313  1.00  0.00     0.001 A 
BRANCH  18  26
ATOM     26  S   UNL     1      -3.124  -0.953  -0.016  1.00  0.00     0.268 S 
ATOM     27  O   UNL     1      -3.361  -1.409  -1.376  1.00  0.00    -0.201 OA
ATOM     28  O   UNL     1      -2.893  -1.897   1.069  1.00  0.00    -0.201 OA
BRANCH  26  29
ATOM     29  C   UNL     1      -1.586  -0.110  -0.082  1.00  0.00     0.088 A 
ATOM     30  C   UNL     1       2.583   1.013  -0.039  1.00  0.00     0.044 C 
ATOM     31  C   UNL     1       1.122   0.667  -0.096  1.00  0.00    -0.051 A 
ATOM     32  C   UNL     1       0.790  -0.656  -0.351  1.00  0.00     0.005 A 
ATOM     33  C   UNL     1       0.088   1.598   0.149  1.00  0.00     0.005 A 
ATOM     34  C   UNL     1      -0.542  -1.028  -0.353  1.00  0.00     0.022 A 
ATOM     35  C   UNL     1      -1.278   1.217   0.163  1.00  0.00     0.022 A 
ENDBRANCH  26  29
ENDBRANCH  18  26
ENDBRANCH  15  17
ENDBRANCH  12  15
ENDBRANCH  10  11
ENDBRANCH   7  10
ENDBRANCH   5   6
BRANCH   5  36
ATOM     36  C   UNL     1      -8.621   3.028   3.440  1.00  0.00     0.072 C 
BRANCH  36  37
ATOM     37  C   UNL     1      -8.994   3.308   4.864  1.00  0.00    -0.020 A 
ATOM     38  C   UNL     1      -8.691   2.504   5.948  1.00  0.00     0.087 A 
ATOM     39  C   UNL     1      -9.701   4.444   5.385  1.00  0.00     0.003 A 
ATOM     40  N   UNL     1      -9.293   3.028   7.059  1.00  0.00    -0.361 N 
ATOM     41  C   UNL     1      -9.921   4.208   6.744  1.00  0.00     0.046 A 
ATOM     42  C   UNL     1     -10.197   5.642   4.829  1.00  0.00     0.010 A 
ATOM     43  H   UNL     1      -9.279   2.618   7.954  1.00  0.00     0.166 HD
ATOM     44  C   UNL     1     -10.653   5.078   7.561  1.00  0.00     0.026 A 
ATOM     45  C   UNL     1     -10.890   6.547   5.645  1.00  0.00     0.001 A 
ATOM     46  C   UNL     1     -11.127   6.260   6.986  1.00  0.00     0.002 A 
ENDBRANCH  36  37
ENDBRANCH   5  36
ENDBRANCH   1   5
BRANCH   3  47
ATOM     47  C   UNL     1     -11.388   1.147   5.017  1.00  0.00     0.117 C 
BRANCH  47  48
ATOM     48  C   UNL     1     -12.881   0.892   5.010  1.00  0.00     0.042 C 
BRANCH  48  49
ATOM     49  C   UNL     1     -13.318   0.120   6.242  1.00  0.00     0.118 C 
BRANCH  49  50
ATOM     50  N   UNL     1     -13.284   0.878   7.497  1.00  0.00    -0.352 N 
ATOM     51  C   UNL     1     -13.376   0.426   8.809  1.00  0.00     0.251 C 
ATOM     52  H   UNL     1     -13.182   1.852   7.395  1.00  0.00     0.163 HD
ATOM     53  O   UNL     1     -13.288   1.214   9.735  1.00  0.00    -0.269 OA
BRANCH  51  54
ATOM     54  C   UNL     1     -13.429  -1.038   9.075  1.00  0.00     0.039 A 
ATOM     55  C   UNL     1     -12.619  -1.560  10.091  1.00  0.00     0.014 A 
ATOM     56  C   UNL     1     -14.031  -1.892   8.163  1.00  0.00     0.014 A 
ATOM     57  C   UNL     1     -12.172  -2.876   9.991  1.00  0.00     0.010 A 
ATOM     58  C   UNL     1     -13.462  -3.130   7.965  1.00  0.00     0.010 A 
ATOM     59  C   UNL     1     -12.485  -3.602   8.844  1.00  0.00    -0.014 A 
BRANCH  59  60
ATOM     60  C   UNL     1     -11.750  -4.783   8.408  1.00  0.00     0.031 A 
ATOM     61  C   UNL     1     -12.413  -6.101   8.342  1.00  0.00     0.074 A 
ATOM     62  C   UNL     1     -10.490  -4.647   7.933  1.00  0.00     0.049 A 
ATOM     63  N   UNL     1     -11.787  -7.226   8.434  1.00  0.00    -0.248 NA
ATOM     64  C   UNL     1     -13.855  -6.258   8.175  1.00  0.00     0.031 C 
ATOM     65  C   UNL     1      -9.714  -5.641   7.194  1.00  0.00     0.029 A 
ATOM     66  N   UNL     1      -9.574  -3.614   8.188  1.00  0.00    -0.354 N 
ATOM     67  C   UNL     1     -12.662  -8.216   8.055  1.00  0.00     0.074 A 
ATOM     68  C   UNL     1     -13.951  -7.572   7.957  1.00  0.00     0.031 C 
ATOM     69  C   UNL     1      -8.411  -5.339   7.299  1.00  0.00     0.029 A 
ATOM     70  C   UNL     1      -8.299  -4.222   8.218  1.00  0.00     0.049 A 
ATOM     71  H   UNL     1      -9.779  -2.660   8.319  1.00  0.00     0.167 HD
ATOM     72  C   UNL     1     -12.194  -9.450   7.718  1.00  0.00     0.037 A 
ATOM     73  C   UNL     1      -7.535  -4.216   9.348  1.00  0.00     0.037 A 
ATOM     74  C   UNL     1     -10.742  -9.523   7.832  1.00  0.00     0.049 A 
ATOM     75  C   UNL     1      -7.227  -5.592   9.890  1.00  0.00     0.074 A 
ATOM     76  C   UNL     1      -9.726  -9.404   6.897  1.00  0.00     0.029 A 
ATOM     77  N   UNL     1     -10.141  -9.404   9.080  1.00  0.00    -0.354 N 
ATOM     78  N   UNL     1      -7.863  -6.673   9.533  1.00  0.00    -0.248 NA
ATOM     79  C   UNL     1      -6.202  -5.859  10.896  1.00  0.00     0.031 C 
ATOM     80  C   UNL     1      -8.514  -9.167   7.588  1.00  0.00     0.029 A 
ATOM     81  C   UNL     1      -8.788  -9.157   8.944  1.00  0.00     0.049 A 
ATOM     82  H   UNL     1     -10.613  -9.485   9.940  1.00  0.00     0.167 HD
ATOM     83  C   UNL     1      -7.393  -7.745  10.250  1.00  0.00     0.074 A 
ATOM     84  C   UNL     1      -6.334  -7.187  11.069  1.00  0.00     0.031 C 
ATOM     85  C   UNL     1      -7.934  -8.992  10.111  1.00  0.00     0.037 A 
BRANCH  72  86
ATOM     86  C   UNL     1     -13.053 -10.450   6.987  1.00  0.00     0.057 A 
ATOM     87  C   UNL     1     -12.540 -11.241   5.944  1.00  0.00     0.134 A 
ATOM     88  C   UNL     1     -14.425 -10.627   7.238  1.00  0.00     0.134 A 
ATOM     89  F   UNL     1     -11.234 -11.264   5.652  1.00  0.00    -0.206 F 
ATOM     90  C   UNL     1     -13.350 -12.045   5.133  1.00  0.00     0.040 A 
ATOM     91  C   UNL     1     -15.258 -11.385   6.403  1.00  0.00     0.040 A 
ATOM     92  F   UNL     1     -15.008 -10.083   8.317  1.00  0.00    -0.206 F 
ATOM     93  C   UNL     1     -14.721 -12.086   5.333  1.00  0.00     0.006 A 
ENDBRANCH  72  86
BRANCH  73  94
ATOM     94  C   UNL     1      -7.702  -2.983  10.158  1.00  0.00     0.057 A 
ATOM     95  C   UNL     1      -7.225  -1.770   9.631  1.00  0.00     0.134 A 
ATOM     96  C   UNL     1      -8.640  -2.903  11.190  1.00  0.00     0.134 A 
ATOM     97  F   UNL     1      -6.321  -1.776   8.639  1.00  0.00    -0.206 F 
ATOM     98  C   UNL     1      -7.745  -0.535  10.029  1.00  0.00     0.040 A 
ATOM     99  C   UNL     1      -9.165  -1.670  11.600  1.00  0.00     0.040 A 
ATOM    100  F   UNL     1      -9.159  -4.016  11.727  1.00  0.00    -0.206 F 
ATOM    101  C   UNL     1      -8.747  -0.486  10.992  1.00  0.00     0.006 A 
ENDBRANCH  73  94
BRANCH  85 102
ATOM    102  C   UNL     1      -7.666 -10.200  10.982  1.00  0.00     0.057 A 
ATOM    103  C   UNL     1      -7.260 -10.141  12.322  1.00  0.00     0.134 A 
ATOM    104  C   UNL     1      -7.964 -11.501  10.508  1.00  0.00     0.134 A 
ATOM    105  F   UNL     1      -7.048  -8.973  12.942  1.00  0.00    -0.206 F 
ATOM    106  C   UNL     1      -7.112 -11.289  13.115  1.00  0.00     0.040 A 
ATOM    107  C   UNL     1      -7.874 -12.645  11.306  1.00  0.00     0.040 A 
ATOM    108  F   UNL     1      -8.382 -11.719   9.252  1.00  0.00    -0.206 F 
ATOM    109  C   UNL     1      -7.432 -12.544  12.614  1.00  0.00     0.006 A 
ENDBRANCH  85 102
ENDBRANCH  59  60
ENDBRANCH  51  54
ENDBRANCH  49  50
ENDBRANCH  48  49
ENDBRANCH  47  48
ENDBRANCH   3  47
TORSDOF 19
