REMARK SMILES CC(C)[C@H](NC(=O)CCC1=c2ccccc2=NC1)C(=O)NCCCNC(=O)c1ccc(-c2c3nc(c(-c4c(F)cccc4F)c4ccc([nH]4)c(-c4c(F)cccc4F)c4nc(c(-c5c(F)cccc5F)c5ccc2[nH]5)C=C4)C=C3)cc1
REMARK SMILES IDX 22 1 21 2 19 3 20 4 4 6 2 7 1 8 3 9 5 10 6 11 7 13 8 14 9 15
REMARK SMILES IDX 10 16 11 17 18 18 12 19 16 20 17 21 13 22 15 23 14 24 23 25
REMARK SMILES IDX 24 26 25 27 26 28 27 30 28 31 29 32 81 33 30 34 80 35 31 36
REMARK SMILES IDX 32 37 33 38 74 39 34 40 79 41 73 42 75 43 35 44 78 45 72 46
REMARK SMILES IDX 71 47 36 49 62 50 45 51 61 52 46 53 49 54 60 55 76 56 47 57
REMARK SMILES IDX 48 58 59 60 77 61 50 62 37 63 38 64 43 65 39 66 40 67 42 68
REMARK SMILES IDX 44 69 41 70 63 71 64 72 69 73 65 74 66 75 68 76 70 77 67 78
REMARK SMILES IDX 51 79 52 80 57 81 53 82 54 83 56 84 58 85 55 86
REMARK H PARENT 21 5 5 12 25 29 75 48 49 59
REMARK Flexibility Score: inf
ROOT
ATOM      1  C   UNL     1      -0.338  -3.381  -3.139  1.00  0.00     0.117 C 
ENDROOT
BRANCH   1   2
ATOM      2  N   UNL     1      -0.978  -3.347  -1.537  1.00  0.00    -0.354 N 
ATOM      3  C   UNL     1      -0.859  -2.305   0.103  1.00  0.00     0.242 C 
ATOM      4  O   UNL     1      -0.688  -2.646   1.315  1.00  0.00    -0.273 OA
ATOM      5  H   UNL     1      -1.604  -4.096  -1.412  1.00  0.00     0.163 HD
BRANCH   3   6
ATOM      6  C   UNL     1      -1.043  -0.684   0.151  1.00  0.00     0.173 C 
BRANCH   6   7
ATOM      7  C   UNL     1      -2.131  -0.227  -0.962  1.00  0.00     0.015 C 
ATOM      8  C   UNL     1      -2.460  -1.384  -2.853  1.00  0.00     0.010 C 
ATOM      9  C   UNL     1      -3.342   0.510   0.074  1.00  0.00     0.010 C 
ENDBRANCH   6   7
BRANCH   6  10
ATOM     10  N   UNL     1       0.256   0.049   0.319  1.00  0.00    -0.344 N 
ATOM     11  C   UNL     1       1.102   0.684  -0.547  1.00  0.00     0.220 C 
ATOM     12  H   UNL     1       0.565   0.078   1.253  1.00  0.00     0.164 HD
ATOM     13  O   UNL     1       2.316   0.562  -0.356  1.00  0.00    -0.275 OA
BRANCH  11  14
ATOM     14  C   UNL     1       0.600   1.584  -1.668  1.00  0.00     0.104 C 
BRANCH  14  15
ATOM     15  C   UNL     1       0.115   0.889  -2.933  1.00  0.00     0.043 C 
BRANCH  15  16
ATOM     16  C   UNL     1      -0.924  -0.094  -2.584  1.00  0.00    -0.039 C 
ATOM     17  C   UNL     1      -0.683  -1.419  -1.814  1.00  0.00     0.001 A 
ATOM     18  C   UNL     1      -2.890   0.392  -2.587  1.00  0.00     0.174 C 
ATOM     19  C   UNL     1       0.816  -2.389  -1.146  1.00  0.00     0.010 A 
ATOM     20  C   UNL     1      -2.522  -2.128  -1.087  1.00  0.00     0.065 A 
ATOM     21  N   UNL     1      -3.720  -1.129  -1.498  1.00  0.00    -0.280 NA
ATOM     22  C   UNL     1       0.650  -3.771  -0.306  1.00  0.00     0.001 A 
ATOM     23  C   UNL     1      -2.426  -3.780  -0.076  1.00  0.00     0.028 A 
ATOM     24  C   UNL     1      -1.025  -4.502   0.221  1.00  0.00     0.002 A 
ENDBRANCH  15  16
ENDBRANCH  14  15
ENDBRANCH  11  14
ENDBRANCH   6  10
ENDBRANCH   3   6
ENDBRANCH   1   2
BRANCH   1  25
ATOM     25  C   UNL     1       0.829  -4.345  -3.357  1.00  0.00     0.042 C 
BRANCH  25  26
ATOM     26  C   UNL     1       0.307  -5.723  -3.679  1.00  0.00     0.118 C 
BRANCH  26  27
ATOM     27  N   UNL     1      -0.273  -5.758  -5.026  1.00  0.00    -0.352 N 
ATOM     28  C   UNL     1       0.319  -6.016  -6.244  1.00  0.00     0.251 C 
ATOM     29  H   UNL     1      -1.238  -5.567  -5.066  1.00  0.00     0.163 HD
ATOM     30  O   UNL     1      -0.231  -5.670  -7.284  1.00  0.00    -0.269 OA
BRANCH  28  31
ATOM     31  C   UNL     1       1.636  -6.679  -6.276  1.00  0.00     0.039 A 
ATOM     32  C   UNL     1       1.927  -7.633  -5.311  1.00  0.00     0.014 A 
ATOM     33  C   UNL     1       2.602  -6.322  -7.218  1.00  0.00     0.014 A 
ATOM     34  C   UNL     1       3.241  -7.974  -5.073  1.00  0.00     0.010 A 
ATOM     35  C   UNL     1       3.893  -6.847  -7.106  1.00  0.00     0.010 A 
ATOM     36  C   UNL     1       4.240  -7.623  -5.988  1.00  0.00    -0.014 A 
BRANCH  36  37
ATOM     37  C   UNL     1       5.620  -8.112  -5.743  1.00  0.00     0.031 A 
ATOM     38  C   UNL     1       6.774  -7.155  -5.629  1.00  0.00     0.074 A 
ATOM     39  C   UNL     1       5.810  -9.432  -5.541  1.00  0.00     0.049 A 
ATOM     40  N   UNL     1       8.042  -7.416  -5.433  1.00  0.00    -0.248 NA
ATOM     41  C   UNL     1       6.473  -5.721  -5.760  1.00  0.00     0.031 C 
ATOM     42  C   UNL     1       4.761 -10.459  -5.590  1.00  0.00     0.029 A 
ATOM     43  N   UNL     1       6.938 -10.138  -5.217  1.00  0.00    -0.354 N 
ATOM     44  C   UNL     1       8.690  -6.187  -5.441  1.00  0.00     0.074 A 
ATOM     45  C   UNL     1       7.682  -5.183  -5.705  1.00  0.00     0.031 C 
ATOM     46  C   UNL     1       5.277 -11.639  -5.228  1.00  0.00     0.029 A 
ATOM     47  C   UNL     1       6.710 -11.481  -5.043  1.00  0.00     0.049 A 
ATOM     48  H   UNL     1       7.825  -9.723  -5.119  1.00  0.00     0.167 HD
ATOM     49  C   UNL     1      10.002  -5.920  -5.234  1.00  0.00     0.037 A 
ATOM     50  C   UNL     1       7.567 -12.488  -4.803  1.00  0.00     0.037 A 
ATOM     51  C   UNL     1      10.998  -6.929  -4.974  1.00  0.00     0.049 A 
ATOM     52  C   UNL     1       9.028 -12.172  -4.694  1.00  0.00     0.074 A 
ATOM     53  C   UNL     1      12.355  -6.769  -4.761  1.00  0.00     0.029 A 
ATOM     54  N   UNL     1      10.741  -8.291  -4.898  1.00  0.00    -0.354 N 
ATOM     55  N   UNL     1       9.628 -11.008  -4.717  1.00  0.00    -0.248 NA
ATOM     56  C   UNL     1       9.932 -13.317  -4.536  1.00  0.00     0.031 C 
ATOM     57  C   UNL     1      12.930  -8.037  -4.624  1.00  0.00     0.029 A 
ATOM     58  C   UNL     1      11.920  -8.984  -4.673  1.00  0.00     0.049 A 
ATOM     59  H   UNL     1       9.852  -8.704  -4.991  1.00  0.00     0.167 HD
ATOM     60  C   UNL     1      10.979 -11.276  -4.550  1.00  0.00     0.074 A 
ATOM     61  C   UNL     1      11.101 -12.712  -4.398  1.00  0.00     0.031 C 
ATOM     62  C   UNL     1      12.025 -10.414  -4.526  1.00  0.00     0.037 A 
BRANCH  49  63
ATOM     63  C   UNL     1      10.437  -4.483  -5.319  1.00  0.00     0.057 A 
ATOM     64  C   UNL     1      11.273  -4.050  -6.358  1.00  0.00     0.134 A 
ATOM     65  C   UNL     1      10.039  -3.525  -4.376  1.00  0.00     0.134 A 
ATOM     66  F   UNL     1      11.703  -4.913  -7.291  1.00  0.00    -0.206 F 
ATOM     67  C   UNL     1      11.689  -2.721  -6.459  1.00  0.00     0.040 A 
ATOM     68  C   UNL     1      10.420  -2.186  -4.487  1.00  0.00     0.040 A 
ATOM     69  F   UNL     1       9.232  -3.866  -3.360  1.00  0.00    -0.206 F 
ATOM     70  C   UNL     1      11.251  -1.782  -5.529  1.00  0.00     0.006 A 
ENDBRANCH  49  63
BRANCH  50  71
ATOM     71  C   UNL     1       7.075 -13.885  -4.697  1.00  0.00     0.057 A 
ATOM     72  C   UNL     1       6.498 -14.545  -5.791  1.00  0.00     0.134 A 
ATOM     73  C   UNL     1       7.201 -14.605  -3.505  1.00  0.00     0.134 A 
ATOM     74  F   UNL     1       6.333 -13.908  -6.960  1.00  0.00    -0.206 F 
ATOM     75  C   UNL     1       6.066 -15.868  -5.702  1.00  0.00     0.040 A 
ATOM     76  C   UNL     1       6.809 -15.941  -3.413  1.00  0.00     0.040 A 
ATOM     77  F   UNL     1       7.754 -14.032  -2.426  1.00  0.00    -0.206 F 
ATOM     78  C   UNL     1       6.237 -16.575  -4.515  1.00  0.00     0.006 A 
ENDBRANCH  50  71
BRANCH  62  79
ATOM     79  C   UNL     1      13.383 -11.007  -4.280  1.00  0.00     0.057 A 
ATOM     80  C   UNL     1      14.063 -10.747  -3.083  1.00  0.00     0.134 A 
ATOM     81  C   UNL     1      14.017 -11.835  -5.216  1.00  0.00     0.134 A 
ATOM     82  F   UNL     1      13.520  -9.955  -2.147  1.00  0.00    -0.206 F 
ATOM     83  C   UNL     1      15.320 -11.293  -2.824  1.00  0.00     0.040 A 
ATOM     84  C   UNL     1      15.256 -12.419  -4.952  1.00  0.00     0.040 A 
ATOM     85  F   UNL     1      13.414 -12.136  -6.377  1.00  0.00    -0.206 F 
ATOM     86  C   UNL     1      15.914 -12.144  -3.754  1.00  0.00     0.006 A 
ENDBRANCH  62  79
ENDBRANCH  36  37
ENDBRANCH  28  31
ENDBRANCH  26  27
ENDBRANCH  25  26
ENDBRANCH   1  25
TORSDOF 15
