REMARK SMILES CN(CCCC(=O)NCCCNC(=O)c1ccc(-c2c3nc(c(-c4c(F)cccc4F)c4ccc([nH]4)c(-c4c(F)cccc4F)c4nc(c(-c5c(F)cccc5F)c5ccc2[nH]5)C=C4)C=C3)cc1)C(=O)c1ccc(Br)o1
REMARK SMILES IDX 6 1 7 2 8 3 5 5 4 6 3 7 2 8 1 9 69 10 70 11 71 12 72 13
REMARK SMILES IDX 76 14 73 15 74 16 75 17 9 18 10 19 11 20 12 21 13 22 14 24
REMARK SMILES IDX 15 25 16 26 68 27 17 28 67 29 18 30 19 31 20 32 61 33 21 34
REMARK SMILES IDX 66 35 60 36 62 37 22 38 65 39 59 40 58 41 23 43 49 44 32 45
REMARK SMILES IDX 48 46 33 47 36 48 47 49 63 50 34 51 35 52 46 54 64 55 37 56
REMARK SMILES IDX 24 57 25 58 30 59 26 60 27 61 29 62 31 63 28 64 50 65 51 66
REMARK SMILES IDX 56 67 52 68 53 69 55 70 57 71 54 72 38 73 39 74 44 75 40 76
REMARK SMILES IDX 41 77 43 78 45 79 42 80
REMARK H PARENT 8 4 12 23 62 42 36 53
REMARK Flexibility Score: inf
ROOT
ATOM      1  C   UNL     1      -1.425   4.830   0.313  1.00  0.00     0.220 C 
ATOM      2  O   UNL     1      -2.139   5.822   0.120  1.00  0.00    -0.275 OA
ATOM      3  N   UNL     1      -0.098   5.029   0.148  1.00  0.00    -0.356 N 
ATOM      4  H   UNL     1       0.130   5.953  -0.103  1.00  0.00     0.163 HD
ENDROOT
BRANCH   1   5
ATOM      5  C   UNL     1      -2.066   3.554   0.833  1.00  0.00     0.102 C 
BRANCH   5   6
ATOM      6  C   UNL     1      -1.949   2.198   0.170  1.00  0.00     0.031 C 
BRANCH   6   7
ATOM      7  C   UNL     1      -0.646   1.414   0.099  1.00  0.00     0.120 C 
BRANCH   7   8
ATOM      8  N   UNL     1       0.033   0.751   1.234  1.00  0.00    -0.339 N 
ATOM      9  C   UNL     1       0.845  -0.394   0.812  1.00  0.00     0.147 C 
BRANCH   8  10
ATOM     10  C   UNL     1       0.326   1.121   2.575  1.00  0.00     0.289 C 
ATOM     11  O   UNL     1       0.869   0.293   3.313  1.00  0.00    -0.265 OA
BRANCH  10  12
ATOM     12  C   UNL     1       0.102   2.449   3.106  1.00  0.00     0.193 A 
ATOM     13  C   UNL     1      -0.886   2.976   3.921  1.00  0.00     0.057 A 
ATOM     14  O   UNL     1       1.150   3.340   3.066  1.00  0.00    -0.444 OA
ATOM     15  C   UNL     1      -0.494   4.303   4.246  1.00  0.00     0.059 A 
ATOM     16  C   UNL     1       0.768   4.464   3.729  1.00  0.00     0.170 A 
ATOM     17  Br  UNL     1       1.816   6.000   3.902  1.00  0.00    -0.008 Br
ENDBRANCH  10  12
ENDBRANCH   8  10
ENDBRANCH   7   8
ENDBRANCH   6   7
ENDBRANCH   5   6
ENDBRANCH   1   5
BRANCH   3  18
ATOM     18  C   UNL     1       1.055   4.166   0.264  1.00  0.00     0.117 C 
BRANCH  18  19
ATOM     19  C   UNL     1       1.604   3.771  -1.094  1.00  0.00     0.042 C 
BRANCH  19  20
ATOM     20  C   UNL     1       2.553   4.815  -1.637  1.00  0.00     0.118 C 
BRANCH  20  21
ATOM     21  N   UNL     1       3.881   4.710  -1.044  1.00  0.00    -0.352 N 
ATOM     22  C   UNL     1       5.097   4.524  -1.663  1.00  0.00     0.251 C 
ATOM     23  H   UNL     1       3.913   4.783  -0.062  1.00  0.00     0.163 HD
ATOM     24  O   UNL     1       6.097   4.280  -1.003  1.00  0.00    -0.269 OA
BRANCH  22  25
ATOM     25  C   UNL     1       5.174   4.582  -3.139  1.00  0.00     0.039 A 
ATOM     26  C   UNL     1       5.953   3.644  -3.820  1.00  0.00     0.014 A 
ATOM     27  C   UNL     1       4.440   5.532  -3.850  1.00  0.00     0.014 A 
ATOM     28  C   UNL     1       5.931   3.616  -5.216  1.00  0.00     0.010 A 
ATOM     29  C   UNL     1       4.313   5.416  -5.226  1.00  0.00     0.010 A 
ATOM     30  C   UNL     1       5.074   4.472  -5.928  1.00  0.00    -0.014 A 
BRANCH  30  31
ATOM     31  C   UNL     1       4.985   4.435  -7.409  1.00  0.00     0.031 A 
ATOM     32  C   UNL     1       5.319   5.669  -8.205  1.00  0.00     0.074 A 
ATOM     33  C   UNL     1       4.540   3.325  -8.030  1.00  0.00     0.049 A 
ATOM     34  N   UNL     1       5.225   5.874  -9.494  1.00  0.00    -0.248 NA
ATOM     35  C   UNL     1       5.784   6.843  -7.447  1.00  0.00     0.031 C 
ATOM     36  C   UNL     1       4.133   2.085  -7.365  1.00  0.00     0.029 A 
ATOM     37  N   UNL     1       4.352   3.062  -9.363  1.00  0.00    -0.354 N 
ATOM     38  C   UNL     1       5.598   7.197  -9.692  1.00  0.00     0.074 A 
ATOM     39  C   UNL     1       5.846   7.770  -8.389  1.00  0.00     0.031 C 
ATOM     40  C   UNL     1       3.780   1.183  -8.295  1.00  0.00     0.029 A 
ATOM     41  C   UNL     1       3.893   1.792  -9.616  1.00  0.00     0.049 A 
ATOM     42  H   UNL     1       4.529   3.722 -10.072  1.00  0.00     0.167 HD
ATOM     43  C   UNL     1       5.758   7.868 -10.857  1.00  0.00     0.037 A 
ATOM     44  C   UNL     1       3.595   1.191 -10.783  1.00  0.00     0.037 A 
ATOM     45  C   UNL     1       5.543   7.283 -12.152  1.00  0.00     0.049 A 
ATOM     46  C   UNL     1       3.773   1.958 -12.065  1.00  0.00     0.074 A 
ATOM     47  C   UNL     1       5.730   7.854 -13.398  1.00  0.00     0.029 A 
ATOM     48  N   UNL     1       5.095   5.988 -12.367  1.00  0.00    -0.354 N 
ATOM     49  N   UNL     1       4.191   3.188 -12.241  1.00  0.00    -0.248 NA
ATOM     50  C   UNL     1       3.442   1.252 -13.310  1.00  0.00     0.031 C 
ATOM     51  C   UNL     1       5.348   6.921 -14.366  1.00  0.00     0.029 A 
ATOM     52  C   UNL     1       4.977   5.749 -13.725  1.00  0.00     0.049 A 
ATOM     53  H   UNL     1       4.890   5.336 -11.658  1.00  0.00     0.167 HD
ATOM     54  C   UNL     1       4.205   3.393 -13.615  1.00  0.00     0.074 A 
ATOM     55  C   UNL     1       3.766   2.154 -14.225  1.00  0.00     0.031 C 
ATOM     56  C   UNL     1       4.548   4.504 -14.311  1.00  0.00     0.037 A 
BRANCH  43  57
ATOM     57  C   UNL     1       6.195   9.302 -10.776  1.00  0.00     0.057 A 
ATOM     58  C   UNL     1       7.477   9.662 -10.334  1.00  0.00     0.134 A 
ATOM     59  C   UNL     1       5.334  10.337 -11.162  1.00  0.00     0.134 A 
ATOM     60  F   UNL     1       8.347   8.722  -9.934  1.00  0.00    -0.206 F 
ATOM     61  C   UNL     1       7.873  10.998 -10.250  1.00  0.00     0.040 A 
ATOM     62  C   UNL     1       5.731  11.674 -11.112  1.00  0.00     0.040 A 
ATOM     63  F   UNL     1       4.095  10.065 -11.598  1.00  0.00    -0.206 F 
ATOM     64  C   UNL     1       7.001  12.008 -10.647  1.00  0.00     0.006 A 
ENDBRANCH  43  57
BRANCH  44  65
ATOM     65  C   UNL     1       3.128  -0.220 -10.799  1.00  0.00     0.057 A 
ATOM     66  C   UNL     1       3.931  -1.239 -11.328  1.00  0.00     0.134 A 
ATOM     67  C   UNL     1       1.872  -0.585 -10.300  1.00  0.00     0.134 A 
ATOM     68  F   UNL     1       5.138  -0.951 -11.837  1.00  0.00    -0.206 F 
ATOM     69  C   UNL     1       3.493  -2.563 -11.381  1.00  0.00     0.040 A 
ATOM     70  C   UNL     1       1.433  -1.910 -10.322  1.00  0.00     0.040 A 
ATOM     71  F   UNL     1       1.059   0.341  -9.770  1.00  0.00    -0.206 F 
ATOM     72  C   UNL     1       2.241  -2.902 -10.872  1.00  0.00     0.006 A 
ENDBRANCH  44  65
BRANCH  56  73
ATOM     73  C   UNL     1       4.505   4.419 -15.809  1.00  0.00     0.057 A 
ATOM     74  C   UNL     1       3.296   4.362 -16.513  1.00  0.00     0.134 A 
ATOM     75  C   UNL     1       5.690   4.439 -16.556  1.00  0.00     0.134 A 
ATOM     76  F   UNL     1       2.126   4.328 -15.857  1.00  0.00    -0.206 F 
ATOM     77  C   UNL     1       3.268   4.304 -17.907  1.00  0.00     0.040 A 
ATOM     78  C   UNL     1       5.674   4.413 -17.950  1.00  0.00     0.040 A 
ATOM     79  F   UNL     1       6.881   4.504 -15.942  1.00  0.00    -0.206 F 
ATOM     80  C   UNL     1       4.460   4.338 -18.630  1.00  0.00     0.006 A 
ENDBRANCH  56  73
ENDBRANCH  30  31
ENDBRANCH  22  25
ENDBRANCH  20  21
ENDBRANCH  19  20
ENDBRANCH  18  19
ENDBRANCH   3  18
TORSDOF 15
