REMARK SMILES O=C(NCCCNC(=O)[C@H](CO)NC(=O)[C@H](CS)NC(=O)[C@H](Cc1ccccc1)NC(=O)c1ccc(F)cc1)c1ccc(-c2c3nc(c(-c4c(F)cccc4F)c4ccc([nH]4)c(-c4c(F)cccc4F)c4nc(c(-c5c(F)cccc5F)c5ccc2[nH]5)C=C4)C=C3)cc1
REMARK SMILES IDX 7 1 8 2 9 3 6 5 5 6 4 7 3 8 1 9 2 10 40 12 41 13 93 14 42 15
REMARK SMILES IDX 92 16 43 17 44 18 45 19 86 20 46 21 91 22 85 23 87 24 47 25
REMARK SMILES IDX 90 26 84 27 83 28 48 30 74 31 57 32 73 33 58 34 61 35 72 36
REMARK SMILES IDX 88 37 59 38 60 39 71 41 89 42 62 43 49 44 50 45 55 46 51 47
REMARK SMILES IDX 52 48 54 49 56 50 53 51 75 52 76 53 81 54 77 55 78 56 80 57
REMARK SMILES IDX 82 58 79 59 63 60 64 61 69 62 65 63 66 64 68 65 70 66 67 67
REMARK SMILES IDX 10 68 13 69 14 70 15 72 16 73 19 74 20 75 21 77 22 78 30 79
REMARK SMILES IDX 31 80 32 82 33 83 34 84 39 85 35 86 38 87 36 88 37 89 23 90
REMARK SMILES IDX 24 91 25 92 29 93 26 94 28 95 27 96 17 97 18 98 11 100
REMARK SMILES IDX 12 101
REMARK H PARENT 7 4 3 11 87 29 61 40 13 71 19 76 30 81 18 99 12 102
REMARK Flexibility Score: inf
ROOT
ATOM      1  N   UNL     1       1.439 -11.175  -5.487  1.00  0.00    -0.354 N 
ATOM      2  C   UNL     1       2.584 -10.477  -5.290  1.00  0.00     0.244 C 
ATOM      3  O   UNL     1       2.430  -9.326  -4.864  1.00  0.00    -0.273 OA
ATOM      4  H   UNL     1       0.625 -10.650  -5.311  1.00  0.00     0.163 HD
ENDROOT
BRANCH   1   5
ATOM      5  C   UNL     1       1.168 -12.538  -5.905  1.00  0.00     0.117 C 
BRANCH   5   6
ATOM      6  C   UNL     1       0.938 -13.439  -4.697  1.00  0.00     0.042 C 
BRANCH   6   7
ATOM      7  C   UNL     1      -0.363 -13.116  -3.971  1.00  0.00     0.118 C 
BRANCH   7   8
ATOM      8  N   UNL     1      -1.529 -13.337  -4.816  1.00  0.00    -0.352 N 
ATOM      9  O   UNL     1      -3.226 -14.506  -5.719  1.00  0.00    -0.269 OA
ATOM     10  C   UNL     1      -2.489 -14.318  -4.761  1.00  0.00     0.251 C 
ATOM     11  H   UNL     1      -1.648 -12.680  -5.540  1.00  0.00     0.163 HD
BRANCH  10  12
ATOM     12  C   UNL     1      -2.625 -15.141  -3.543  1.00  0.00     0.039 A 
ATOM     13  C   UNL     1      -2.495 -14.556  -2.284  1.00  0.00     0.014 A 
ATOM     14  C   UNL     1      -2.912 -16.504  -3.658  1.00  0.00     0.014 A 
ATOM     15  C   UNL     1      -2.473 -15.355  -1.152  1.00  0.00     0.010 A 
ATOM     16  C   UNL     1      -3.007 -17.289  -2.506  1.00  0.00     0.010 A 
ATOM     17  C   UNL     1      -2.748 -16.728  -1.246  1.00  0.00    -0.014 A 
BRANCH  17  18
ATOM     18  C   UNL     1      -2.798 -17.532   0.001  1.00  0.00     0.031 A 
ATOM     19  C   UNL     1      -1.833 -18.659   0.238  1.00  0.00     0.074 A 
ATOM     20  C   UNL     1      -3.693 -17.192   0.950  1.00  0.00     0.049 A 
ATOM     21  N   UNL     1      -1.703 -19.422   1.294  1.00  0.00    -0.248 NA
ATOM     22  C   UNL     1      -0.897 -18.981  -0.851  1.00  0.00     0.031 C 
ATOM     23  C   UNL     1      -4.686 -16.120   0.825  1.00  0.00     0.029 A 
ATOM     24  N   UNL     1      -3.894 -17.683   2.213  1.00  0.00    -0.354 N 
ATOM     25  C   UNL     1      -0.696 -20.329   0.988  1.00  0.00     0.074 A 
ATOM     26  C   UNL     1      -0.264 -20.038  -0.362  1.00  0.00     0.031 C 
ATOM     27  C   UNL     1      -5.342 -15.990   1.986  1.00  0.00     0.029 A 
ATOM     28  C   UNL     1      -4.871 -17.014   2.910  1.00  0.00     0.049 A 
ATOM     29  H   UNL     1      -3.389 -18.442   2.584  1.00  0.00     0.167 HD
ATOM     30  C   UNL     1      -0.176 -21.308   1.766  1.00  0.00     0.037 A 
ATOM     31  C   UNL     1      -5.344 -17.209   4.154  1.00  0.00     0.037 A 
ATOM     32  C   UNL     1      -0.599 -21.577   3.118  1.00  0.00     0.049 A 
ATOM     33  C   UNL     1      -4.758 -18.310   4.987  1.00  0.00     0.074 A 
ATOM     34  C   UNL     1      -0.111 -22.523   4.003  1.00  0.00     0.029 A 
ATOM     35  N   UNL     1      -1.615 -20.900   3.778  1.00  0.00    -0.354 N 
ATOM     36  N   UNL     1      -3.782 -19.136   4.696  1.00  0.00    -0.248 NA
ATOM     37  C   UNL     1      -5.339 -18.507   6.320  1.00  0.00     0.031 C 
ATOM     38  C   UNL     1      -0.865 -22.452   5.179  1.00  0.00     0.029 A 
ATOM     39  C   UNL     1      -1.783 -21.423   5.051  1.00  0.00     0.049 A 
ATOM     40  H   UNL     1      -2.140 -20.159   3.398  1.00  0.00     0.167 HD
ATOM     41  C   UNL     1      -3.614 -19.934   5.819  1.00  0.00     0.074 A 
ATOM     42  C   UNL     1      -4.577 -19.478   6.801  1.00  0.00     0.031 C 
ATOM     43  C   UNL     1      -2.741 -20.951   6.019  1.00  0.00     0.037 A 
BRANCH  30  44
ATOM     44  C   UNL     1       0.890 -22.182   1.167  1.00  0.00     0.057 A 
ATOM     45  C   UNL     1       2.181 -21.708   0.900  1.00  0.00     0.134 A 
ATOM     46  C   UNL     1       0.628 -23.529   0.885  1.00  0.00     0.134 A 
ATOM     47  F   UNL     1       2.497 -20.425   1.135  1.00  0.00    -0.206 F 
ATOM     48  C   UNL     1       3.164 -22.534   0.351  1.00  0.00     0.040 A 
ATOM     49  C   UNL     1       1.611 -24.372   0.362  1.00  0.00     0.040 A 
ATOM     50  F   UNL     1      -0.584 -24.052   1.122  1.00  0.00    -0.206 F 
ATOM     51  C   UNL     1       2.882 -23.873   0.087  1.00  0.00     0.006 A 
ENDBRANCH  30  44
BRANCH  31  52
ATOM     52  C   UNL     1      -6.425 -16.339   4.682  1.00  0.00     0.057 A 
ATOM     53  C   UNL     1      -6.187 -15.444   5.731  1.00  0.00     0.134 A 
ATOM     54  C   UNL     1      -7.719 -16.380   4.150  1.00  0.00     0.134 A 
ATOM     55  F   UNL     1      -4.971 -15.369   6.292  1.00  0.00    -0.206 F 
ATOM     56  C   UNL     1      -7.202 -14.635   6.245  1.00  0.00     0.040 A 
ATOM     57  C   UNL     1      -8.735 -15.555   4.633  1.00  0.00     0.040 A 
ATOM     58  F   UNL     1      -8.009 -17.208   3.135  1.00  0.00    -0.206 F 
ATOM     59  C   UNL     1      -8.479 -14.685   5.691  1.00  0.00     0.006 A 
ENDBRANCH  31  52
BRANCH  43  60
ATOM     60  C   UNL     1      -2.757 -21.602   7.371  1.00  0.00     0.057 A 
ATOM     61  C   UNL     1      -3.815 -22.418   7.793  1.00  0.00     0.134 A 
ATOM     62  C   UNL     1      -1.689 -21.418   8.259  1.00  0.00     0.134 A 
ATOM     63  F   UNL     1      -4.875 -22.622   6.997  1.00  0.00    -0.206 F 
ATOM     64  C   UNL     1      -3.826 -22.998   9.062  1.00  0.00     0.040 A 
ATOM     65  C   UNL     1      -1.674 -22.018   9.518  1.00  0.00     0.040 A 
ATOM     66  F   UNL     1      -0.640 -20.655   7.914  1.00  0.00    -0.206 F 
ATOM     67  C   UNL     1      -2.750 -22.803   9.926  1.00  0.00     0.006 A 
ENDBRANCH  43  60
ENDBRANCH  17  18
ENDBRANCH  10  12
ENDBRANCH   7   8
ENDBRANCH   6   7
ENDBRANCH   5   6
ENDBRANCH   1   5
BRANCH   2  68
ATOM     68  C   UNL     1       3.985 -10.946  -5.737  1.00  0.00     0.197 C 
BRANCH  68  69
ATOM     69  N   UNL     1       4.141 -12.393  -5.856  1.00  0.00    -0.340 N 
ATOM     70  C   UNL     1       4.327 -13.370  -4.933  1.00  0.00     0.244 C 
ATOM     71  H   UNL     1       4.105 -12.722  -6.782  1.00  0.00     0.164 HD
ATOM     72  O   UNL     1       4.044 -14.510  -5.317  1.00  0.00    -0.273 OA
BRANCH  70  73
ATOM     73  C   UNL     1       5.062 -13.129  -3.597  1.00  0.00     0.181 C 
BRANCH  73  74
ATOM     74  N   UNL     1       4.781 -11.858  -2.925  1.00  0.00    -0.342 N 
ATOM     75  C   UNL     1       5.640 -10.852  -2.566  1.00  0.00     0.243 C 
ATOM     76  H   UNL     1       3.836 -11.704  -2.697  1.00  0.00     0.164 HD
ATOM     77  O   UNL     1       5.194 -10.002  -1.792  1.00  0.00    -0.273 OA
BRANCH  75  78
ATOM     78  C   UNL     1       7.129 -10.861  -3.014  1.00  0.00     0.176 C 
BRANCH  78  79
ATOM     79  N   UNL     1       7.216 -11.010  -4.474  1.00  0.00    -0.340 N 
ATOM     80  C   UNL     1       7.907 -11.814  -5.338  1.00  0.00     0.251 C 
ATOM     81  H   UNL     1       6.633 -10.374  -4.947  1.00  0.00     0.164 HD
ATOM     82  O   UNL     1       7.770 -11.554  -6.536  1.00  0.00    -0.269 OA
BRANCH  80  83
ATOM     83  C   UNL     1       8.761 -12.983  -4.962  1.00  0.00     0.040 A 
ATOM     84  C   UNL     1       9.686 -13.411  -5.934  1.00  0.00     0.017 A 
ATOM     85  C   UNL     1       8.637 -13.749  -3.797  1.00  0.00     0.017 A 
ATOM     86  C   UNL     1      10.445 -14.571  -5.751  1.00  0.00     0.040 A 
ATOM     87  C   UNL     1       9.390 -14.915  -3.615  1.00  0.00     0.040 A 
ATOM     88  C   UNL     1      10.282 -15.318  -4.595  1.00  0.00     0.123 A 
ATOM     89  F   UNL     1      10.981 -16.447  -4.426  1.00  0.00    -0.207 F 
ENDBRANCH  80  83
ENDBRANCH  78  79
BRANCH  78  90
ATOM     90  C   UNL     1       7.824  -9.552  -2.572  1.00  0.00     0.070 C 
BRANCH  90  91
ATOM     91  C   UNL     1       9.271  -9.445  -3.003  1.00  0.00    -0.045 A 
ATOM     92  C   UNL     1      10.170 -10.504  -2.815  1.00  0.00     0.004 A 
ATOM     93  C   UNL     1       9.736  -8.270  -3.612  1.00  0.00     0.004 A 
ATOM     94  C   UNL     1      11.476 -10.425  -3.298  1.00  0.00     0.000 A 
ATOM     95  C   UNL     1      11.051  -8.181  -4.071  1.00  0.00     0.000 A 
ATOM     96  C   UNL     1      11.915  -9.265  -3.930  1.00  0.00     0.000 A 
ENDBRANCH  90  91
ENDBRANCH  78  90
ENDBRANCH  75  78
ENDBRANCH  73  74
BRANCH  73  97
ATOM     97  C   UNL     1       4.873 -14.290  -2.595  1.00  0.00     0.101 C 
BRANCH  97  98
ATOM     98  S   UNL     1       5.579 -15.895  -3.100  1.00  0.00    -0.177 SA
ATOM     99  H   UNL     1       4.950 -16.333  -4.224  1.00  0.00     0.102 HD
ENDBRANCH  97  98
ENDBRANCH  73  97
ENDBRANCH  70  73
ENDBRANCH  68  69
BRANCH  68 100
ATOM    100  C   UNL     1       4.329 -10.260  -7.076  1.00  0.00     0.191 C 
BRANCH 100 101
ATOM    101  O   UNL     1       4.169  -8.845  -7.064  1.00  0.00    -0.394 OA
ATOM    102  H   UNL     1       3.239  -8.627  -6.898  1.00  0.00     0.210 HD
ENDBRANCH 100 101
ENDBRANCH  68 100
ENDBRANCH   2  68
TORSDOF 22
