REMARK SMILES COc1ccccc1-c1nnc(SCCC(=O)NCCCNC(=O)c2ccc(-c3c4nc(c(-c5c(F)cccc5F)c5ccc([nH]5)c(-c5c(F)cccc5F)c5nc(c(-c6c(F)cccc6F)c6ccc3[nH]6)C=C5)C=C4)cc2)o1
REMARK SMILES IDX 16 1 17 2 18 3 15 5 14 6 13 7 12 8 9 9 10 10 79 11 11 12
REMARK SMILES IDX 8 13 3 14 4 15 5 16 7 17 6 18 2 19 1 20 19 21 20 22 21 23
REMARK SMILES IDX 22 24 23 25 24 27 25 28 26 29 78 30 27 31 77 32 28 33 29 34
REMARK SMILES IDX 30 35 71 36 31 37 76 38 70 39 72 40 32 41 75 42 69 43 68 44
REMARK SMILES IDX 33 46 59 47 42 48 58 49 43 50 46 51 57 52 73 53 44 54 45 55
REMARK SMILES IDX 56 57 74 58 47 59 34 60 35 61 40 62 36 63 37 64 39 65 41 66
REMARK SMILES IDX 38 67 60 68 61 69 66 70 62 71 63 72 65 73 67 74 64 75 48 76
REMARK SMILES IDX 49 77 54 78 50 79 51 80 53 81 55 82 52 83
REMARK H PARENT 18 4 22 26 72 45 46 56
REMARK Flexibility Score: inf
ROOT
ATOM      1  C   UNL     1       2.695  -1.706  -1.688  1.00  0.00     0.220 C 
ATOM      2  O   UNL     1       1.720  -1.341  -2.346  1.00  0.00    -0.275 OA
ATOM      3  N   UNL     1       2.824  -1.287  -0.402  1.00  0.00    -0.356 N 
ATOM      4  H   UNL     1       2.310  -0.476  -0.182  1.00  0.00     0.163 HD
ENDROOT
BRANCH   1   5
ATOM      5  C   UNL     1       3.772  -2.527  -2.333  1.00  0.00     0.111 C 
BRANCH   5   6
ATOM      6  C   UNL     1       4.495  -1.676  -3.375  1.00  0.00     0.090 C 
BRANCH   6   7
ATOM      7  S   UNL     1       5.800  -0.620  -2.693  1.00  0.00    -0.065 SA
BRANCH   7   8
ATOM      8  C   UNL     1       4.982   0.781  -2.060  1.00  0.00     0.276 A 
ATOM      9  C   UNL     1       3.567   2.282  -1.498  1.00  0.00     0.252 A 
ATOM     10  N   UNL     1       4.719   2.628  -0.957  1.00  0.00    -0.107 NA
ATOM     11  O   UNL     1       3.660   1.121  -2.231  1.00  0.00    -0.411 OA
ATOM     12  N   UNL     1       5.622   1.652  -1.303  1.00  0.00    -0.101 NA
BRANCH   9  13
ATOM     13  C   UNL     1       2.313   3.024  -1.476  1.00  0.00     0.081 A 
ATOM     14  C   UNL     1       1.051   2.452  -1.253  1.00  0.00     0.131 A 
ATOM     15  C   UNL     1      -0.105   3.243  -1.340  1.00  0.00     0.047 A 
ATOM     16  C   UNL     1      -0.012   4.622  -1.511  1.00  0.00     0.004 A 
ATOM     17  C   UNL     1       2.387   4.424  -1.616  1.00  0.00     0.018 A 
ATOM     18  C   UNL     1       1.238   5.218  -1.619  1.00  0.00     0.001 A 
BRANCH  14  19
ATOM     19  O   UNL     1       0.947   1.119  -0.953  1.00  0.00    -0.496 OA
ATOM     20  C   UNL     1       0.236   0.875   0.265  1.00  0.00     0.278 C 
ENDBRANCH  14  19
ENDBRANCH   9  13
ENDBRANCH   7   8
ENDBRANCH   6   7
ENDBRANCH   5   6
ENDBRANCH   1   5
BRANCH   3  21
ATOM     21  C   UNL     1       3.591  -1.833   0.704  1.00  0.00     0.117 C 
BRANCH  21  22
ATOM     22  C   UNL     1       4.769  -0.972   1.157  1.00  0.00     0.042 C 
BRANCH  22  23
ATOM     23  C   UNL     1       4.425   0.456   1.582  1.00  0.00     0.118 C 
BRANCH  23  24
ATOM     24  N   UNL     1       3.809   0.549   2.894  1.00  0.00    -0.352 N 
ATOM     25  C   UNL     1       4.099   1.399   3.934  1.00  0.00     0.251 C 
ATOM     26  H   UNL     1       3.078  -0.088   3.063  1.00  0.00     0.163 HD
ATOM     27  O   UNL     1       3.477   1.284   4.993  1.00  0.00    -0.269 OA
BRANCH  25  28
ATOM     28  C   UNL     1       5.172   2.417   3.834  1.00  0.00     0.039 A 
ATOM     29  C   UNL     1       6.081   2.518   4.894  1.00  0.00     0.014 A 
ATOM     30  C   UNL     1       5.280   3.295   2.751  1.00  0.00     0.014 A 
ATOM     31  C   UNL     1       7.121   3.451   4.845  1.00  0.00     0.010 A 
ATOM     32  C   UNL     1       6.348   4.200   2.683  1.00  0.00     0.010 A 
ATOM     33  C   UNL     1       7.282   4.285   3.727  1.00  0.00    -0.014 A 
BRANCH  33  34
ATOM     34  C   UNL     1       8.442   5.217   3.650  1.00  0.00     0.031 A 
ATOM     35  C   UNL     1       8.251   6.707   3.736  1.00  0.00     0.074 A 
ATOM     36  C   UNL     1       9.686   4.720   3.498  1.00  0.00     0.049 A 
ATOM     37  N   UNL     1       9.152   7.659   3.722  1.00  0.00    -0.248 NA
ATOM     38  C   UNL     1       6.867   7.192   3.843  1.00  0.00     0.031 C 
ATOM     39  C   UNL     1      10.016   3.300   3.369  1.00  0.00     0.029 A 
ATOM     40  N   UNL     1      10.904   5.352   3.425  1.00  0.00    -0.354 N 
ATOM     41  C   UNL     1       8.448   8.852   3.820  1.00  0.00     0.074 A 
ATOM     42  C   UNL     1       7.042   8.507   3.848  1.00  0.00     0.031 C 
ATOM     43  C   UNL     1      11.347   3.167   3.256  1.00  0.00     0.029 A 
ATOM     44  C   UNL     1      11.964   4.491   3.271  1.00  0.00     0.049 A 
ATOM     45  H   UNL     1      11.008   6.329   3.479  1.00  0.00     0.167 HD
ATOM     46  C   UNL     1       8.927  10.118   3.897  1.00  0.00     0.037 A 
ATOM     47  C   UNL     1      13.283   4.735   3.150  1.00  0.00     0.037 A 
ATOM     48  C   UNL     1      10.325  10.469   3.871  1.00  0.00     0.049 A 
ATOM     49  C   UNL     1      13.787   6.151   3.206  1.00  0.00     0.074 A 
ATOM     50  C   UNL     1      10.902  11.722   3.995  1.00  0.00     0.029 A 
ATOM     51  N   UNL     1      11.366   9.569   3.698  1.00  0.00    -0.354 N 
ATOM     52  N   UNL     1      13.114   7.263   3.376  1.00  0.00    -0.248 NA
ATOM     53  C   UNL     1      15.237   6.346   3.058  1.00  0.00     0.031 C 
ATOM     54  C   UNL     1      12.286  11.587   3.845  1.00  0.00     0.029 A 
ATOM     55  C   UNL     1      12.578  10.243   3.682  1.00  0.00     0.049 A 
ATOM     56  H   UNL     1      11.260   8.595   3.600  1.00  0.00     0.167 HD
ATOM     57  C   UNL     1      14.057   8.282   3.384  1.00  0.00     0.074 A 
ATOM     58  C   UNL     1      15.352   7.657   3.217  1.00  0.00     0.031 C 
ATOM     59  C   UNL     1      13.865   9.617   3.519  1.00  0.00     0.037 A 
BRANCH  46  60
ATOM     60  C   UNL     1       7.926  11.232   4.016  1.00  0.00     0.057 A 
ATOM     61  C   UNL     1       7.190  11.440   5.190  1.00  0.00     0.134 A 
ATOM     62  C   UNL     1       7.734  12.138   2.966  1.00  0.00     0.134 A 
ATOM     63  F   UNL     1       7.323  10.606   6.233  1.00  0.00    -0.206 F 
ATOM     64  C   UNL     1       6.281  12.493   5.306  1.00  0.00     0.040 A 
ATOM     65  C   UNL     1       6.847  13.211   3.079  1.00  0.00     0.040 A 
ATOM     66  F   UNL     1       8.415  12.006   1.817  1.00  0.00    -0.206 F 
ATOM     67  C   UNL     1       6.113  13.386   4.250  1.00  0.00     0.006 A 
ENDBRANCH  46  60
BRANCH  47  68
ATOM     68  C   UNL     1      14.234   3.607   2.977  1.00  0.00     0.057 A 
ATOM     69  C   UNL     1      15.138   3.259   3.988  1.00  0.00     0.134 A 
ATOM     70  C   UNL     1      14.274   2.864   1.792  1.00  0.00     0.134 A 
ATOM     71  F   UNL     1      15.164   3.949   5.137  1.00  0.00    -0.206 F 
ATOM     72  C   UNL     1      16.060   2.225   3.819  1.00  0.00     0.040 A 
ATOM     73  C   UNL     1      15.173   1.810   1.620  1.00  0.00     0.040 A 
ATOM     74  F   UNL     1      13.433   3.146   0.786  1.00  0.00    -0.206 F 
ATOM     75  C   UNL     1      16.075   1.494   2.633  1.00  0.00     0.006 A 
ENDBRANCH  47  68
BRANCH  59  76
ATOM     76  C   UNL     1      15.085  10.494   3.525  1.00  0.00     0.057 A 
ATOM     77  C   UNL     1      15.833  10.731   2.364  1.00  0.00     0.134 A 
ATOM     78  C   UNL     1      15.497  11.136   4.700  1.00  0.00     0.134 A 
ATOM     79  F   UNL     1      15.502  10.137   1.208  1.00  0.00    -0.206 F 
ATOM     80  C   UNL     1      16.960  11.556   2.378  1.00  0.00     0.040 A 
ATOM     81  C   UNL     1      16.606  11.984   4.720  1.00  0.00     0.040 A 
ATOM     82  F   UNL     1      14.822  10.960   5.846  1.00  0.00    -0.206 F 
ATOM     83  C   UNL     1      17.345  12.191   3.557  1.00  0.00     0.006 A 
ENDBRANCH  59  76
ENDBRANCH  33  34
ENDBRANCH  25  28
ENDBRANCH  23  24
ENDBRANCH  22  23
ENDBRANCH  21  22
ENDBRANCH   3  21
TORSDOF 15
