REMARK SMILES C[C@H]1[C@@H](C(=O)NCCCNC(=O)c2ccc(-c3c4nc(c(-c5c(F)cccc5F)c5ccc([nH]5)c(-c5c(F)cccc5F)c5nc(c(-c6c(F)cccc6F)c6ccc3[nH]6)C=C5)C=C4)cc2)CCN1S(=O)(=O)Cc1cccc(C#N)c1
REMARK SMILES IDX 7 1 6 2 4 3 5 4 3 6 1 7 2 8 69 9 67 10 68 11 70 12 71 13
REMARK SMILES IDX 72 14 73 15 74 16 75 17 81 18 76 19 78 20 77 21 79 22 80 23
REMARK SMILES IDX 8 24 9 25 10 26 11 27 12 29 13 30 14 31 66 32 15 33 65 34
REMARK SMILES IDX 16 35 17 36 18 37 59 38 19 39 64 40 58 41 60 42 20 43 63 44
REMARK SMILES IDX 57 45 56 46 21 48 47 49 30 50 46 51 31 52 34 53 45 54 61 55
REMARK SMILES IDX 32 56 33 57 44 59 62 60 35 61 22 62 23 63 28 64 24 65 25 66
REMARK SMILES IDX 27 67 29 68 26 69 48 70 49 71 54 72 50 73 51 74 53 75 55 76
REMARK SMILES IDX 52 77 36 78 37 79 42 80 38 81 39 82 41 83 43 84 40 85
REMARK H PARENT 6 5 10 28 60 47 34 58
REMARK Flexibility Score: inf
ROOT
ATOM      1  C   UNL     1       2.910   1.814  -1.002  1.00  0.00     0.117 C 
ENDROOT
BRANCH   1   2
ATOM      2  N   UNL     1       1.618   2.024  -1.640  1.00  0.00    -0.356 N 
ATOM      3  C   UNL     1       0.338   1.685  -1.321  1.00  0.00     0.224 C 
ATOM      4  O   UNL     1      -0.505   1.986  -2.172  1.00  0.00    -0.275 OA
ATOM      5  H   UNL     1       1.684   2.520  -2.488  1.00  0.00     0.163 HD
BRANCH   3   6
ATOM      6  C   UNL     1      -0.082   1.092   0.037  1.00  0.00     0.098 C 
ATOM      7  C   UNL     1       1.507  -0.918  -0.367  1.00  0.00     0.026 C 
ATOM      8  C   UNL     1       0.567  -0.202   0.567  1.00  0.00     0.082 C 
ATOM      9  N   UNL     1      -0.491  -1.211   0.759  1.00  0.00    -0.198 NA
ATOM     10  C   UNL     1      -1.591   0.769   0.088  1.00  0.00     0.032 C 
ATOM     11  C   UNL     1      -1.673  -0.748   0.012  1.00  0.00     0.103 C 
BRANCH   9  12
ATOM     12  S   UNL     1      -0.687  -1.990   2.228  1.00  0.00     0.218 S 
ATOM     13  O   UNL     1      -1.167  -0.976   3.147  1.00  0.00    -0.212 OA
ATOM     14  O   UNL     1      -1.488  -3.171   1.982  1.00  0.00    -0.212 OA
BRANCH  12  15
ATOM     15  C   UNL     1       0.970  -2.484   2.813  1.00  0.00     0.189 C 
BRANCH  15  16
ATOM     16  C   UNL     1       1.686  -3.512   1.964  1.00  0.00    -0.030 A 
ATOM     17  C   UNL     1       1.214  -4.824   1.846  1.00  0.00     0.005 A 
ATOM     18  C   UNL     1       2.907  -3.197   1.333  1.00  0.00     0.024 A 
ATOM     19  C   UNL     1       1.894  -5.767   1.067  1.00  0.00     0.002 A 
ATOM     20  C   UNL     1       3.553  -4.116   0.490  1.00  0.00     0.052 A 
ATOM     21  C   UNL     1       3.047  -5.409   0.368  1.00  0.00     0.019 A 
BRANCH  20  22
ATOM     22  C   UNL     1       4.686  -3.707  -0.287  1.00  0.00     0.099 C 
ATOM     23  N   UNL     1       5.579  -3.345  -0.939  1.00  0.00    -0.192 NA
ENDBRANCH  20  22
ENDBRANCH  15  16
ENDBRANCH  12  15
ENDBRANCH   9  12
ENDBRANCH   3   6
ENDBRANCH   1   2
BRANCH   1  24
ATOM     24  C   UNL     1       3.726   0.721  -1.708  1.00  0.00     0.042 C 
BRANCH  24  25
ATOM     25  C   UNL     1       4.293   1.095  -3.061  1.00  0.00     0.118 C 
BRANCH  25  26
ATOM     26  N   UNL     1       5.547   1.800  -2.923  1.00  0.00    -0.352 N 
ATOM     27  C   UNL     1       6.826   1.337  -3.114  1.00  0.00     0.251 C 
ATOM     28  H   UNL     1       5.474   2.745  -2.655  1.00  0.00     0.163 HD
ATOM     29  O   UNL     1       7.758   1.962  -2.613  1.00  0.00    -0.269 OA
BRANCH  27  30
ATOM     30  C   UNL     1       7.099   0.110  -3.905  1.00  0.00     0.039 A 
ATOM     31  C   UNL     1       8.222  -0.656  -3.579  1.00  0.00     0.014 A 
ATOM     32  C   UNL     1       6.317  -0.260  -5.004  1.00  0.00     0.014 A 
ATOM     33  C   UNL     1       8.540  -1.788  -4.333  1.00  0.00     0.010 A 
ATOM     34  C   UNL     1       6.565  -1.454  -5.679  1.00  0.00     0.010 A 
ATOM     35  C   UNL     1       7.700  -2.215  -5.374  1.00  0.00    -0.014 A 
BRANCH  35  36
ATOM     36  C   UNL     1       8.021  -3.434  -6.161  1.00  0.00     0.031 A 
ATOM     37  C   UNL     1       8.267  -3.347  -7.645  1.00  0.00     0.074 A 
ATOM     38  C   UNL     1       8.078  -4.628  -5.539  1.00  0.00     0.049 A 
ATOM     39  N   UNL     1       8.567  -4.301  -8.492  1.00  0.00    -0.248 NA
ATOM     40  C   UNL     1       8.134  -2.020  -8.267  1.00  0.00     0.031 C 
ATOM     41  C   UNL     1       7.808  -4.853  -4.118  1.00  0.00     0.029 A 
ATOM     42  N   UNL     1       8.387  -5.875  -6.020  1.00  0.00    -0.354 N 
ATOM     43  C   UNL     1       8.657  -3.689  -9.738  1.00  0.00     0.074 A 
ATOM     44  C   UNL     1       8.306  -2.299  -9.550  1.00  0.00     0.031 C 
ATOM     45  C   UNL     1       8.006  -6.149  -3.833  1.00  0.00     0.029 A 
ATOM     46  C   UNL     1       8.362  -6.856  -5.058  1.00  0.00     0.049 A 
ATOM     47  H   UNL     1       8.605  -6.051  -6.964  1.00  0.00     0.167 HD
ATOM     48  C   UNL     1       9.026  -4.228 -10.925  1.00  0.00     0.037 A 
ATOM     49  C   UNL     1       8.591  -8.179  -5.154  1.00  0.00     0.037 A 
ATOM     50  C   UNL     1       9.374  -5.614 -11.106  1.00  0.00     0.049 A 
ATOM     51  C   UNL     1       8.969  -8.760  -6.488  1.00  0.00     0.074 A 
ATOM     52  C   UNL     1       9.798  -6.253 -12.258  1.00  0.00     0.029 A 
ATOM     53  N   UNL     1       9.327  -6.578 -10.109  1.00  0.00    -0.354 N 
ATOM     54  N   UNL     1       9.117  -8.157  -7.643  1.00  0.00    -0.248 NA
ATOM     55  C   UNL     1       9.220 -10.207  -6.530  1.00  0.00     0.031 C 
ATOM     56  C   UNL     1       9.941  -7.615 -11.975  1.00  0.00     0.029 A 
ATOM     57  C   UNL     1       9.682  -7.813 -10.628  1.00  0.00     0.049 A 
ATOM     58  H   UNL     1       9.077  -6.410  -9.172  1.00  0.00     0.167 HD
ATOM     59  C   UNL     1       9.503  -9.143  -8.542  1.00  0.00     0.074 A 
ATOM     60  C   UNL     1       9.591 -10.378  -7.790  1.00  0.00     0.031 C 
ATOM     61  C   UNL     1       9.760  -9.038  -9.870  1.00  0.00     0.037 A 
BRANCH  48  62
ATOM     62  C   UNL     1       9.065  -3.315 -12.120  1.00  0.00     0.057 A 
ATOM     63  C   UNL     1       9.995  -2.271 -12.228  1.00  0.00     0.134 A 
ATOM     64  C   UNL     1       8.180  -3.497 -13.191  1.00  0.00     0.134 A 
ATOM     65  F   UNL     1      10.868  -2.032 -11.237  1.00  0.00    -0.206 F 
ATOM     66  C   UNL     1      10.020  -1.423 -13.337  1.00  0.00     0.040 A 
ATOM     67  C   UNL     1       8.218  -2.677 -14.321  1.00  0.00     0.040 A 
ATOM     68  F   UNL     1       7.268  -4.481 -13.163  1.00  0.00    -0.206 F 
ATOM     69  C   UNL     1       9.133  -1.630 -14.392  1.00  0.00     0.006 A 
ENDBRANCH  48  62
BRANCH  49  70
ATOM     70  C   UNL     1       8.472  -9.041  -3.949  1.00  0.00     0.057 A 
ATOM     71  C   UNL     1       9.589  -9.676  -3.393  1.00  0.00     0.134 A 
ATOM     72  C   UNL     1       7.235  -9.257  -3.328  1.00  0.00     0.134 A 
ATOM     73  F   UNL     1      10.800  -9.525  -3.950  1.00  0.00    -0.206 F 
ATOM     74  C   UNL     1       9.477 -10.514  -2.281  1.00  0.00     0.040 A 
ATOM     75  C   UNL     1       7.114 -10.064  -2.196  1.00  0.00     0.040 A 
ATOM     76  F   UNL     1       6.127  -8.670  -3.803  1.00  0.00    -0.206 F 
ATOM     77  C   UNL     1       8.236 -10.704  -1.676  1.00  0.00     0.006 A 
ENDBRANCH  49  70
BRANCH  61  78
ATOM     78  C   UNL     1      10.194 -10.287 -10.585  1.00  0.00     0.057 A 
ATOM     79  C   UNL     1       9.329 -11.371 -10.786  1.00  0.00     0.134 A 
ATOM     80  C   UNL     1      11.495 -10.400 -11.094  1.00  0.00     0.134 A 
ATOM     81  F   UNL     1       8.072 -11.335 -10.317  1.00  0.00    -0.206 F 
ATOM     82  C   UNL     1       9.755 -12.536 -11.427  1.00  0.00     0.040 A 
ATOM     83  C   UNL     1      11.920 -11.544 -11.770  1.00  0.00     0.040 A 
ATOM     84  F   UNL     1      12.374  -9.396 -10.951  1.00  0.00    -0.206 F 
ATOM     85  C   UNL     1      11.053 -12.622 -11.926  1.00  0.00     0.006 A 
ENDBRANCH  61  78
ENDBRANCH  35  36
ENDBRANCH  27  30
ENDBRANCH  25  26
ENDBRANCH  24  25
ENDBRANCH   1  24
TORSDOF 14
