REMARK SMILES COc1ccc(NC(=O)NCc2ccc(C(=O)NCCCNC(=O)c3ccc(-c4c5nc(c(-c6c(F)cccc6F)c6ccc([nH]6)c(-c6c(F)cccc6F)c6nc(c(-c7c(F)cccc7F)c7ccc4[nH]7)C=C6)C=C5)cc3)cc2)c(OC)c1
REMARK SMILES IDX 19 1 18 2 16 3 17 4 15 6 12 7 13 8 80 9 14 10 79 11 11 12
REMARK SMILES IDX 10 13 7 14 8 15 9 17 6 19 3 20 4 21 84 22 5 23 81 24 2 25
REMARK SMILES IDX 1 26 82 27 83 28 20 29 21 30 22 31 23 32 24 34 25 35 26 36
REMARK SMILES IDX 78 37 27 38 77 39 28 40 29 41 30 42 71 43 31 44 76 45 70 46
REMARK SMILES IDX 72 47 32 48 75 49 69 50 68 51 33 53 59 54 42 55 58 56 43 57
REMARK SMILES IDX 46 58 57 59 73 60 44 61 45 62 56 64 74 65 47 66 34 67 35 68
REMARK SMILES IDX 40 69 36 70 37 71 39 72 41 73 38 74 60 75 61 76 66 77 62 78
REMARK SMILES IDX 63 79 65 80 67 81 64 82 48 83 49 84 54 85 50 86 51 87 53 88
REMARK SMILES IDX 55 89 52 90
REMARK H PARENT 18 5 7 16 10 18 22 33 72 52 46 63
REMARK Flexibility Score: inf
ROOT
ATOM      1  C   UNL     1      -4.269   0.434   3.856  1.00  0.00     0.118 C 
ENDROOT
BRANCH   1   2
ATOM      2  N   UNL     1      -4.957   1.282   4.813  1.00  0.00    -0.352 N 
ATOM      3  C   UNL     1      -4.792   2.601   5.153  1.00  0.00     0.251 C 
ATOM      4  O   UNL     1      -5.597   3.099   5.940  1.00  0.00    -0.269 OA
ATOM      5  H   UNL     1      -5.675   0.827   5.309  1.00  0.00     0.163 HD
BRANCH   3   6
ATOM      6  C   UNL     1      -3.735   3.459   4.559  1.00  0.00     0.039 A 
ATOM      7  C   UNL     1      -1.901   5.165   3.270  1.00  0.00    -0.029 A 
ATOM      8  C   UNL     1      -3.164   5.638   3.647  1.00  0.00     0.006 A 
ATOM      9  C   UNL     1      -1.529   3.864   3.634  1.00  0.00     0.006 A 
ATOM     10  C   UNL     1      -4.073   4.790   4.284  1.00  0.00     0.014 A 
ATOM     11  C   UNL     1      -2.437   3.021   4.285  1.00  0.00     0.014 A 
BRANCH   7  12
ATOM     12  C   UNL     1      -1.023   5.986   2.364  1.00  0.00     0.153 C 
BRANCH  12  13
ATOM     13  N   UNL     1       0.101   6.626   3.003  1.00  0.00    -0.334 N 
ATOM     14  N   UNL     1       2.123   5.408   2.618  1.00  0.00    -0.305 N 
ATOM     15  C   UNL     1       1.418   6.433   3.115  1.00  0.00     0.319 C 
ATOM     16  H   UNL     1       3.018   5.358   3.025  1.00  0.00     0.172 HD
ATOM     17  O   UNL     1       2.023   7.234   3.838  1.00  0.00    -0.248 OA
ATOM     18  H   UNL     1      -0.182   7.431   3.495  1.00  0.00     0.165 HD
BRANCH  14  19
ATOM     19  C   UNL     1       1.933   4.390   1.677  1.00  0.00     0.085 A 
ATOM     20  C   UNL     1       1.383   2.132   0.110  1.00  0.00     0.122 A 
ATOM     21  C   UNL     1       0.847   3.377  -0.224  1.00  0.00     0.049 A 
ATOM     22  C   UNL     1       2.328   2.051   1.129  1.00  0.00     0.095 A 
ATOM     23  C   UNL     1       1.147   4.508   0.542  1.00  0.00     0.034 A 
ATOM     24  C   UNL     1       2.641   3.192   1.874  1.00  0.00     0.146 A 
BRANCH  20  25
ATOM     25  O   UNL     1       0.933   1.081  -0.640  1.00  0.00    -0.497 OA
ATOM     26  C   UNL     1       1.179  -0.218  -0.110  1.00  0.00     0.278 C 
ENDBRANCH  20  25
BRANCH  24  27
ATOM     27  O   UNL     1       3.591   3.169   2.869  1.00  0.00    -0.494 OA
ATOM     28  C   UNL     1       4.818   2.572   2.442  1.00  0.00     0.278 C 
ENDBRANCH  24  27
ENDBRANCH  14  19
ENDBRANCH  12  13
ENDBRANCH   7  12
ENDBRANCH   3   6
ENDBRANCH   1   2
BRANCH   1  29
ATOM     29  C   UNL     1      -3.318  -0.541   4.549  1.00  0.00     0.042 C 
BRANCH  29  30
ATOM     30  C   UNL     1      -4.016  -1.597   5.405  1.00  0.00     0.118 C 
BRANCH  30  31
ATOM     31  N   UNL     1      -4.753  -2.564   4.608  1.00  0.00    -0.352 N 
ATOM     32  C   UNL     1      -4.733  -3.933   4.635  1.00  0.00     0.251 C 
ATOM     33  H   UNL     1      -5.365  -2.172   3.943  1.00  0.00     0.163 HD
ATOM     34  O   UNL     1      -5.316  -4.555   3.743  1.00  0.00    -0.269 OA
BRANCH  32  35
ATOM     35  C   UNL     1      -4.015  -4.684   5.691  1.00  0.00     0.039 A 
ATOM     36  C   UNL     1      -3.364  -5.870   5.332  1.00  0.00     0.014 A 
ATOM     37  C   UNL     1      -4.025  -4.283   7.031  1.00  0.00     0.014 A 
ATOM     38  C   UNL     1      -2.697  -6.625   6.298  1.00  0.00     0.010 A 
ATOM     39  C   UNL     1      -3.304  -5.003   7.986  1.00  0.00     0.010 A 
ATOM     40  C   UNL     1      -2.641  -6.187   7.631  1.00  0.00    -0.014 A 
BRANCH  40  41
ATOM     41  C   UNL     1      -1.886  -6.968   8.645  1.00  0.00     0.031 A 
ATOM     42  C   UNL     1      -2.600  -7.658   9.774  1.00  0.00     0.074 A 
ATOM     43  C   UNL     1      -0.544  -7.039   8.557  1.00  0.00     0.049 A 
ATOM     44  N   UNL     1      -2.105  -8.412  10.725  1.00  0.00    -0.248 NA
ATOM     45  C   UNL     1      -4.054  -7.461   9.862  1.00  0.00     0.031 C 
ATOM     46  C   UNL     1       0.272  -6.366   7.545  1.00  0.00     0.029 A 
ATOM     47  N   UNL     1       0.369  -7.714   9.326  1.00  0.00    -0.354 N 
ATOM     48  C   UNL     1      -3.183  -8.771  11.525  1.00  0.00     0.074 A 
ATOM     49  C   UNL     1      -4.350  -8.113  10.977  1.00  0.00     0.031 C 
ATOM     50  C   UNL     1       1.561  -6.688   7.735  1.00  0.00     0.029 A 
ATOM     51  C   UNL     1       1.665  -7.572   8.892  1.00  0.00     0.049 A 
ATOM     52  H   UNL     1       0.120  -8.250  10.113  1.00  0.00     0.167 HD
ATOM     53  C   UNL     1      -3.204  -9.590  12.604  1.00  0.00     0.037 A 
ATOM     54  C   UNL     1       2.807  -8.102   9.366  1.00  0.00     0.037 A 
ATOM     55  C   UNL     1      -2.047 -10.262  13.137  1.00  0.00     0.049 A 
ATOM     56  C   UNL     1       2.754  -9.033  10.544  1.00  0.00     0.074 A 
ATOM     57  C   UNL     1      -1.977 -11.160  14.189  1.00  0.00     0.029 A 
ATOM     58  N   UNL     1      -0.754 -10.106  12.660  1.00  0.00    -0.354 N 
ATOM     59  N   UNL     1       1.716  -9.424  11.242  1.00  0.00    -0.248 NA
ATOM     60  C   UNL     1       4.031  -9.606  10.991  1.00  0.00     0.031 C 
ATOM     61  C   UNL     1      -0.636 -11.521  14.370  1.00  0.00     0.029 A 
ATOM     62  C   UNL     1       0.123 -10.878  13.405  1.00  0.00     0.049 A 
ATOM     63  H   UNL     1      -0.497  -9.531  11.903  1.00  0.00     0.167 HD
ATOM     64  C   UNL     1       2.210 -10.301  12.198  1.00  0.00     0.074 A 
ATOM     65  C   UNL     1       3.638 -10.402  11.975  1.00  0.00     0.031 C 
ATOM     66  C   UNL     1       1.542 -10.961  13.176  1.00  0.00     0.037 A 
BRANCH  53  67
ATOM     67  C   UNL     1      -4.528  -9.811  13.277  1.00  0.00     0.057 A 
ATOM     68  C   UNL     1      -5.540 -10.573  12.680  1.00  0.00     0.134 A 
ATOM     69  C   UNL     1      -4.783  -9.281  14.548  1.00  0.00     0.134 A 
ATOM     70  F   UNL     1      -5.364 -11.100  11.459  1.00  0.00    -0.206 F 
ATOM     71  C   UNL     1      -6.769 -10.779  13.311  1.00  0.00     0.040 A 
ATOM     72  C   UNL     1      -5.999  -9.501  15.200  1.00  0.00     0.040 A 
ATOM     73  F   UNL     1      -3.855  -8.547  15.180  1.00  0.00    -0.206 F 
ATOM     74  C   UNL     1      -6.998 -10.247  14.578  1.00  0.00     0.006 A 
ENDBRANCH  53  67
BRANCH  54  75
ATOM     75  C   UNL     1       4.096  -7.801   8.697  1.00  0.00     0.057 A 
ATOM     76  C   UNL     1       4.757  -8.771   7.934  1.00  0.00     0.134 A 
ATOM     77  C   UNL     1       4.695  -6.540   8.800  1.00  0.00     0.134 A 
ATOM     78  F   UNL     1       4.239 -10.002   7.814  1.00  0.00    -0.206 F 
ATOM     79  C   UNL     1       5.977  -8.505   7.312  1.00  0.00     0.040 A 
ATOM     80  C   UNL     1       5.904  -6.253   8.164  1.00  0.00     0.040 A 
ATOM     81  F   UNL     1       4.106  -5.566   9.508  1.00  0.00    -0.206 F 
ATOM     82  C   UNL     1       6.551  -7.240   7.423  1.00  0.00     0.006 A 
ENDBRANCH  54  75
BRANCH  66  83
ATOM     83  C   UNL     1       2.354 -11.858  14.063  1.00  0.00     0.057 A 
ATOM     84  C   UNL     1       3.231 -11.343  15.026  1.00  0.00     0.134 A 
ATOM     85  C   UNL     1       2.253 -13.251  13.957  1.00  0.00     0.134 A 
ATOM     86  F   UNL     1       3.384 -10.017  15.167  1.00  0.00    -0.206 F 
ATOM     87  C   UNL     1       4.004 -12.182  15.831  1.00  0.00     0.040 A 
ATOM     88  C   UNL     1       3.002 -14.100  14.773  1.00  0.00     0.040 A 
ATOM     89  F   UNL     1       1.427 -13.808  13.060  1.00  0.00    -0.206 F 
ATOM     90  C   UNL     1       3.887 -13.565  15.708  1.00  0.00     0.006 A 
ENDBRANCH  66  83
ENDBRANCH  40  41
ENDBRANCH  32  35
ENDBRANCH  30  31
ENDBRANCH  29  30
ENDBRANCH   1  29
TORSDOF 15
