REMARK SMILES C[C@]12c3ccccc3[C@](C)(c3ccccc31)[C@@H]1C(=O)N(c3ccc(C(=O)NCCCNC(=O)c4ccc(-c5c6nc(c(-c7c(F)cccc7F)c7ccc([nH]7)c(-c7c(F)cccc7F)c7nc(c(-c8c(F)cccc8F)c8ccc5[nH]8)C=C7)C=C6)cc4)cc3)C(=O)[C@H]12
REMARK SMILES IDX 29 1 28 2 27 3 25 4 26 5 24 7 21 8 22 9 89 10 23 11 88 12
REMARK SMILES IDX 20 13 1 14 2 15 16 16 3 17 92 18 15 19 11 20 8 21 4 22 17 23
REMARK SMILES IDX 90 24 14 25 12 26 9 27 7 28 5 29 18 30 91 31 13 32 10 33
REMARK SMILES IDX 6 34 19 35 30 36 31 37 32 38 33 40 34 41 35 42 87 43 36 44
REMARK SMILES IDX 86 45 37 46 38 47 39 48 80 49 40 50 85 51 79 52 81 53 41 54
REMARK SMILES IDX 84 55 78 56 77 57 42 59 68 60 51 61 67 62 52 63 55 64 66 65
REMARK SMILES IDX 82 66 53 67 54 68 65 70 83 71 56 72 43 73 44 74 49 75 45 76
REMARK SMILES IDX 46 77 48 78 50 79 47 80 69 81 70 82 75 83 71 84 72 85 74 86
REMARK SMILES IDX 76 87 73 88 57 89 58 90 63 91 59 92 60 93 62 94 64 95 61 96
REMARK H PARENT 27 6 31 39 81 58 55 69
REMARK Flexibility Score: inf
ROOT
ATOM      1  C   UNL     1       2.058   3.416  -9.742  1.00  0.00     0.042 C 
ENDROOT
BRANCH   1   2
ATOM      2  C   UNL     1       2.410   1.938  -9.766  1.00  0.00     0.118 C 
BRANCH   2   3
ATOM      3  N   UNL     1       3.829   1.678  -9.573  1.00  0.00    -0.352 N 
ATOM      4  C   UNL     1       4.516   0.959  -8.628  1.00  0.00     0.251 C 
ATOM      5  O   UNL     1       5.745   0.970  -8.664  1.00  0.00    -0.269 OA
ATOM      6  H   UNL     1       4.407   2.099 -10.251  1.00  0.00     0.163 HD
BRANCH   4   7
ATOM      7  C   UNL     1       3.828   0.229  -7.537  1.00  0.00     0.039 A 
ATOM      8  C   UNL     1       2.490  -0.867  -5.320  1.00  0.00     0.052 A 
ATOM      9  C   UNL     1       3.767  -0.313  -5.177  1.00  0.00     0.027 A 
ATOM     10  C   UNL     1       1.945  -0.974  -6.606  1.00  0.00     0.027 A 
ATOM     11  C   UNL     1       4.438   0.222  -6.279  1.00  0.00     0.016 A 
ATOM     12  C   UNL     1       2.619  -0.446  -7.710  1.00  0.00     0.016 A 
BRANCH   8  13
ATOM     13  N   UNL     1       1.740  -1.252  -4.188  1.00  0.00    -0.250 N 
ATOM     14  C   UNL     1       1.314  -0.257   0.195  1.00  0.00     0.022 C 
ATOM     15  C   UNL     1       0.435  -1.187  -0.639  1.00  0.00     0.030 C 
ATOM     16  C   UNL     1      -1.050  -0.755  -0.762  1.00  0.00    -0.033 A 
ATOM     17  C   UNL     1       0.357  -2.658  -0.120  1.00  0.00    -0.033 A 
ATOM     18  C   UNL     1       1.053  -1.483  -2.026  1.00  0.00     0.108 C 
ATOM     19  C   UNL     1      -1.631   0.365  -0.175  1.00  0.00     0.005 A 
ATOM     20  C   UNL     1      -1.874  -1.671  -1.505  1.00  0.00    -0.033 A 
ATOM     21  C   UNL     1      -0.367  -3.535  -1.002  1.00  0.00    -0.033 A 
ATOM     22  C   UNL     1       0.970  -3.154   1.027  1.00  0.00     0.005 A 
ATOM     23  C   UNL     1      -0.056  -1.944  -2.971  1.00  0.00     0.108 C 
ATOM     24  C   UNL     1       1.816  -0.593  -2.951  1.00  0.00     0.238 C 
ATOM     25  C   UNL     1      -3.007   0.571  -0.309  1.00  0.00     0.000 A 
ATOM     26  C   UNL     1      -3.246  -1.461  -1.618  1.00  0.00     0.005 A 
ATOM     27  C   UNL     1      -1.062  -2.817  -2.186  1.00  0.00     0.030 C 
ATOM     28  C   UNL     1      -0.441  -4.893  -0.710  1.00  0.00     0.005 A 
ATOM     29  C   UNL     1       0.879  -4.518   1.302  1.00  0.00     0.000 A 
ATOM     30  C   UNL     1       0.753  -2.246  -4.188  1.00  0.00     0.238 C 
ATOM     31  O   UNL     1       2.411   0.420  -2.639  1.00  0.00    -0.274 OA
ATOM     32  C   UNL     1      -3.807  -0.337  -1.013  1.00  0.00     0.000 A 
ATOM     33  C   UNL     1      -1.879  -3.716  -3.111  1.00  0.00     0.022 C 
ATOM     34  C   UNL     1       0.188  -5.378   0.440  1.00  0.00     0.000 A 
ATOM     35  O   UNL     1       0.494  -3.090  -5.030  1.00  0.00    -0.274 OA
ENDBRANCH   8  13
ENDBRANCH   4   7
ENDBRANCH   2   3
ENDBRANCH   1   2
BRANCH   1  36
ATOM     36  C   UNL     1       2.736   4.238 -10.825  1.00  0.00     0.118 C 
BRANCH  36  37
ATOM     37  N   UNL     1       2.309   3.882 -12.176  1.00  0.00    -0.352 N 
ATOM     38  C   UNL     1       1.450   4.505 -13.055  1.00  0.00     0.251 C 
ATOM     39  H   UNL     1       2.705   3.049 -12.520  1.00  0.00     0.163 HD
ATOM     40  O   UNL     1       1.113   3.928 -14.085  1.00  0.00    -0.269 OA
BRANCH  38  41
ATOM     41  C   UNL     1       0.899   5.843 -12.749  1.00  0.00     0.039 A 
ATOM     42  C   UNL     1       1.689   6.811 -12.140  1.00  0.00     0.014 A 
ATOM     43  C   UNL     1      -0.431   6.138 -13.068  1.00  0.00     0.014 A 
ATOM     44  C   UNL     1       1.097   7.949 -11.615  1.00  0.00     0.010 A 
ATOM     45  C   UNL     1      -0.989   7.361 -12.673  1.00  0.00     0.010 A 
ATOM     46  C   UNL     1      -0.247   8.252 -11.884  1.00  0.00    -0.014 A 
BRANCH  46  47
ATOM     47  C   UNL     1      -0.811   9.517 -11.340  1.00  0.00     0.031 A 
ATOM     48  C   UNL     1      -1.980   9.514 -10.391  1.00  0.00     0.074 A 
ATOM     49  C   UNL     1      -0.197  10.679 -11.642  1.00  0.00     0.049 A 
ATOM     50  N   UNL     1      -2.533  10.521  -9.760  1.00  0.00    -0.248 NA
ATOM     51  C   UNL     1      -2.622   8.219 -10.120  1.00  0.00     0.031 C 
ATOM     52  C   UNL     1       0.941  10.817 -12.556  1.00  0.00     0.029 A 
ATOM     53  N   UNL     1      -0.407  11.953 -11.184  1.00  0.00    -0.354 N 
ATOM     54  C   UNL     1      -3.592   9.987  -9.036  1.00  0.00     0.074 A 
ATOM     55  C   UNL     1      -3.630   8.572  -9.336  1.00  0.00     0.031 C 
ATOM     56  C   UNL     1       1.379  12.083 -12.528  1.00  0.00     0.029 A 
ATOM     57  C   UNL     1       0.502  12.864 -11.665  1.00  0.00     0.049 A 
ATOM     58  H   UNL     1      -1.139  12.193 -10.570  1.00  0.00     0.167 HD
ATOM     59  C   UNL     1      -4.449  10.615  -8.192  1.00  0.00     0.037 A 
ATOM     60  C   UNL     1       0.613  14.187 -11.453  1.00  0.00     0.037 A 
ATOM     61  C   UNL     1      -4.406  12.025  -7.893  1.00  0.00     0.049 A 
ATOM     62  C   UNL     1      -0.373  14.861 -10.546  1.00  0.00     0.074 A 
ATOM     63  C   UNL     1      -5.212  12.752  -7.033  1.00  0.00     0.029 A 
ATOM     64  N   UNL     1      -3.513  12.927  -8.454  1.00  0.00    -0.354 N 
ATOM     65  N   UNL     1      -1.352  14.336  -9.850  1.00  0.00    -0.248 NA
ATOM     66  C   UNL     1      -0.240  16.315 -10.402  1.00  0.00     0.031 C 
ATOM     67  C   UNL     1      -4.846  14.100  -7.120  1.00  0.00     0.029 A 
ATOM     68  C   UNL     1      -3.768  14.207  -7.984  1.00  0.00     0.049 A 
ATOM     69  H   UNL     1      -2.801  12.693  -9.093  1.00  0.00     0.167 HD
ATOM     70  C   UNL     1      -1.945  15.393  -9.175  1.00  0.00     0.074 A 
ATOM     71  C   UNL     1      -1.189  16.581  -9.518  1.00  0.00     0.031 C 
ATOM     72  C   UNL     1      -3.023  15.385  -8.351  1.00  0.00     0.037 A 
BRANCH  59  73
ATOM     73  C   UNL     1      -5.529   9.780  -7.559  1.00  0.00     0.057 A 
ATOM     74  C   UNL     1      -6.873   9.971  -7.907  1.00  0.00     0.134 A 
ATOM     75  C   UNL     1      -5.250   8.798  -6.598  1.00  0.00     0.134 A 
ATOM     76  F   UNL     1      -7.217  10.900  -8.812  1.00  0.00    -0.206 F 
ATOM     77  C   UNL     1      -7.895   9.214  -7.332  1.00  0.00     0.040 A 
ATOM     78  C   UNL     1      -6.261   8.012  -6.038  1.00  0.00     0.040 A 
ATOM     79  F   UNL     1      -3.985   8.552  -6.224  1.00  0.00    -0.206 F 
ATOM     80  C   UNL     1      -7.589   8.223  -6.402  1.00  0.00     0.006 A 
ENDBRANCH  59  73
BRANCH  60  81
ATOM     81  C   UNL     1       1.682  14.962 -12.132  1.00  0.00     0.057 A 
ATOM     82  C   UNL     1       1.685  15.130 -13.523  1.00  0.00     0.134 A 
ATOM     83  C   UNL     1       2.718  15.561 -11.408  1.00  0.00     0.134 A 
ATOM     84  F   UNL     1       0.725  14.573 -14.275  1.00  0.00    -0.206 F 
ATOM     85  C   UNL     1       2.685  15.856 -14.170  1.00  0.00     0.040 A 
ATOM     86  C   UNL     1       3.706  16.319 -12.039  1.00  0.00     0.040 A 
ATOM     87  F   UNL     1       2.761  15.451 -10.072  1.00  0.00    -0.206 F 
ATOM     88  C   UNL     1       3.693  16.463 -13.425  1.00  0.00     0.006 A 
ENDBRANCH  60  81
BRANCH  72  89
ATOM     89  C   UNL     1      -3.420  16.707  -7.757  1.00  0.00     0.057 A 
ATOM     90  C   UNL     1      -3.239  16.958  -6.391  1.00  0.00     0.134 A 
ATOM     91  C   UNL     1      -3.946  17.744  -8.540  1.00  0.00     0.134 A 
ATOM     92  F   UNL     1      -2.749  16.008  -5.581  1.00  0.00    -0.206 F 
ATOM     93  C   UNL     1      -3.550  18.197  -5.829  1.00  0.00     0.040 A 
ATOM     94  C   UNL     1      -4.228  18.999  -7.996  1.00  0.00     0.040 A 
ATOM     95  F   UNL     1      -4.130  17.576  -9.858  1.00  0.00    -0.206 F 
ATOM     96  C   UNL     1      -4.031  19.227  -6.635  1.00  0.00     0.006 A 
ENDBRANCH  72  89
ENDBRANCH  46  47
ENDBRANCH  38  41
ENDBRANCH  36  37
ENDBRANCH   1  36
TORSDOF 11
