REMARK SMILES CC1(C)[C@H](C(=O)NCCCNC(=O)c2ccc(-c3c4nc(c(-c5c(F)cccc5F)c5ccc([nH]5)c(-c5c(F)cccc5F)c5nc(c(-c6c(F)cccc6F)c6ccc3[nH]6)C=C5)C=C4)cc2)[C@@H]1C(=O)Nc1ccc(NC(=O)C2CCC2)cc1
REMARK SMILES IDX 8 1 7 2 5 3 6 4 4 6 1 7 2 8 3 9 68 10 69 11 70 12 71 13
REMARK SMILES IDX 72 15 73 16 84 17 74 18 83 19 75 20 76 21 77 22 78 24 79 25
REMARK SMILES IDX 80 26 82 27 81 28 9 29 10 30 11 31 12 32 13 34 14 35 15 36
REMARK SMILES IDX 67 37 16 38 66 39 17 40 18 41 19 42 60 43 20 44 65 45 59 46
REMARK SMILES IDX 61 47 21 48 64 49 58 50 57 51 22 53 48 54 31 55 47 56 32 57
REMARK SMILES IDX 35 58 46 59 62 60 33 61 34 62 45 64 63 65 36 66 23 67 24 68
REMARK SMILES IDX 29 69 25 70 26 71 28 72 30 73 27 74 49 75 50 76 55 77 51 78
REMARK SMILES IDX 52 79 54 80 56 81 53 82 37 83 38 84 43 85 39 86 40 87 42 88
REMARK SMILES IDX 44 89 41 90
REMARK H PARENT 7 5 71 14 76 23 11 33 61 52 35 63
REMARK Flexibility Score: inf
ROOT
ATOM      1  C   UNL     1      -0.716   3.014  -0.272  1.00  0.00     0.117 C 
ENDROOT
BRANCH   1   2
ATOM      2  N   UNL     1      -0.941   2.163  -1.423  1.00  0.00    -0.356 N 
ATOM      3  C   UNL     1      -0.956   0.823  -1.660  1.00  0.00     0.224 C 
ATOM      4  O   UNL     1      -1.186   0.508  -2.831  1.00  0.00    -0.275 OA
ATOM      5  H   UNL     1      -1.130   2.685  -2.236  1.00  0.00     0.163 HD
BRANCH   3   6
ATOM      6  C   UNL     1      -0.737  -0.289  -0.707  1.00  0.00     0.098 C 
ATOM      7  C   UNL     1       1.162  -1.785   0.147  1.00  0.00     0.013 C 
ATOM      8  C   UNL     1       0.453  -0.450   0.223  1.00  0.00    -0.011 C 
ATOM      9  C   UNL     1       1.422   0.690   0.428  1.00  0.00     0.013 C 
ATOM     10  C   UNL     1      -0.998  -0.447   0.757  1.00  0.00     0.098 C 
BRANCH  10  11
ATOM     11  C   UNL     1      -1.567   0.549   1.685  1.00  0.00     0.228 C 
ATOM     12  O   UNL     1      -0.914   0.928   2.655  1.00  0.00    -0.274 OA
ATOM     13  N   UNL     1      -2.842   1.038   1.498  1.00  0.00    -0.326 N 
ATOM     14  H   UNL     1      -3.236   1.536   2.251  1.00  0.00     0.169 HD
BRANCH  13  15
ATOM     15  C   UNL     1      -3.635   0.903   0.355  1.00  0.00     0.041 A 
ATOM     16  C   UNL     1      -3.940   2.083  -0.305  1.00  0.00     0.028 A 
ATOM     17  C   UNL     1      -4.015  -0.313  -0.204  1.00  0.00     0.028 A 
ATOM     18  C   UNL     1      -4.395   2.033  -1.614  1.00  0.00     0.028 A 
ATOM     19  C   UNL     1      -4.682  -0.325  -1.442  1.00  0.00     0.028 A 
ATOM     20  C   UNL     1      -4.872   0.863  -2.163  1.00  0.00     0.041 A 
BRANCH  20  21
ATOM     21  N   UNL     1      -5.529   0.812  -3.396  1.00  0.00    -0.326 N 
ATOM     22  C   UNL     1      -5.999   1.765  -4.278  1.00  0.00     0.227 C 
ATOM     23  H   UNL     1      -5.692  -0.109  -3.705  1.00  0.00     0.169 HD
ATOM     24  O   UNL     1      -6.524   1.289  -5.304  1.00  0.00    -0.274 OA
BRANCH  22  25
ATOM     25  C   UNL     1      -5.919   3.305  -4.099  1.00  0.00     0.079 C 
ATOM     26  C   UNL     1      -7.185   4.060  -4.651  1.00  0.00     0.013 C 
ATOM     27  C   UNL     1      -6.209   4.105  -2.788  1.00  0.00     0.013 C 
ATOM     28  C   UNL     1      -6.889   5.177  -3.647  1.00  0.00     0.002 C 
ENDBRANCH  22  25
ENDBRANCH  20  21
ENDBRANCH  13  15
ENDBRANCH  10  11
ENDBRANCH   3   6
ENDBRANCH   1   2
BRANCH   1  29
ATOM     29  C   UNL     1       0.249   4.143  -0.592  1.00  0.00     0.042 C 
BRANCH  29  30
ATOM     30  C   UNL     1      -0.345   5.172  -1.548  1.00  0.00     0.118 C 
BRANCH  30  31
ATOM     31  N   UNL     1      -1.378   5.997  -0.928  1.00  0.00    -0.352 N 
ATOM     32  C   UNL     1      -1.376   7.349  -0.679  1.00  0.00     0.251 C 
ATOM     33  H   UNL     1      -2.191   5.516  -0.648  1.00  0.00     0.163 HD
ATOM     34  O   UNL     1      -2.258   7.856   0.008  1.00  0.00    -0.269 OA
BRANCH  32  35
ATOM     35  C   UNL     1      -0.287   8.180  -1.227  1.00  0.00     0.039 A 
ATOM     36  C   UNL     1       0.388   9.069  -0.388  1.00  0.00     0.014 A 
ATOM     37  C   UNL     1       0.097   8.035  -2.562  1.00  0.00     0.014 A 
ATOM     38  C   UNL     1       1.508   9.751  -0.870  1.00  0.00     0.010 A 
ATOM     39  C   UNL     1       1.266   8.636  -3.008  1.00  0.00     0.010 A 
ATOM     40  C   UNL     1       1.982   9.504  -2.169  1.00  0.00    -0.014 A 
BRANCH  40  41
ATOM     41  C   UNL     1       3.208  10.154  -2.694  1.00  0.00     0.031 A 
ATOM     42  C   UNL     1       3.114  11.042  -3.905  1.00  0.00     0.074 A 
ATOM     43  C   UNL     1       4.408   9.880  -2.144  1.00  0.00     0.049 A 
ATOM     44  N   UNL     1       4.072  11.588  -4.608  1.00  0.00    -0.248 NA
ATOM     45  C   UNL     1       1.761  11.323  -4.415  1.00  0.00     0.031 C 
ATOM     46  C   UNL     1       4.638   8.998  -0.997  1.00  0.00     0.029 A 
ATOM     47  N   UNL     1       5.666  10.306  -2.491  1.00  0.00    -0.354 N 
ATOM     48  C   UNL     1       3.440  12.251  -5.652  1.00  0.00     0.074 A 
ATOM     49  C   UNL     1       2.023  11.992  -5.526  1.00  0.00     0.031 C 
ATOM     50  C   UNL     1       5.952   8.969  -0.721  1.00  0.00     0.029 A 
ATOM     51  C   UNL     1       6.662   9.794  -1.694  1.00  0.00     0.049 A 
ATOM     52  H   UNL     1       5.839  10.921  -3.240  1.00  0.00     0.167 HD
ATOM     53  C   UNL     1       3.987  13.030  -6.614  1.00  0.00     0.037 A 
ATOM     54  C   UNL     1       7.996   9.965  -1.750  1.00  0.00     0.037 A 
ATOM     55  C   UNL     1       5.391  13.323  -6.712  1.00  0.00     0.049 A 
ATOM     56  C   UNL     1       8.577  10.843  -2.824  1.00  0.00     0.074 A 
ATOM     57  C   UNL     1       6.041  14.139  -7.621  1.00  0.00     0.029 A 
ATOM     58  N   UNL     1       6.361  12.818  -5.859  1.00  0.00    -0.354 N 
ATOM     59  N   UNL     1       7.963  11.500  -3.778  1.00  0.00    -0.248 NA
ATOM     60  C   UNL     1      10.038  11.007  -2.828  1.00  0.00     0.031 C 
ATOM     61  C   UNL     1       7.409  14.108  -7.334  1.00  0.00     0.029 A 
ATOM     62  C   UNL     1       7.605  13.302  -6.223  1.00  0.00     0.049 A 
ATOM     63  H   UNL     1       6.189  12.206  -5.107  1.00  0.00     0.167 HD
ATOM     64  C   UNL     1       8.955  12.182  -4.470  1.00  0.00     0.074 A 
ATOM     65  C   UNL     1      10.211  11.865  -3.823  1.00  0.00     0.031 C 
ATOM     66  C   UNL     1       8.838  12.996  -5.546  1.00  0.00     0.037 A 
BRANCH  53  67
ATOM     67  C   UNL     1       3.058  13.639  -7.622  1.00  0.00     0.057 A 
ATOM     68  C   UNL     1       2.173  14.669  -7.278  1.00  0.00     0.134 A 
ATOM     69  C   UNL     1       3.068  13.215  -8.957  1.00  0.00     0.134 A 
ATOM     70  F   UNL     1       2.103  15.110  -6.012  1.00  0.00    -0.206 F 
ATOM     71  C   UNL     1       1.316  15.241  -8.218  1.00  0.00     0.040 A 
ATOM     72  C   UNL     1       2.234  13.797  -9.913  1.00  0.00     0.040 A 
ATOM     73  F   UNL     1       3.893  12.235  -9.354  1.00  0.00    -0.206 F 
ATOM     74  C   UNL     1       1.351  14.809  -9.543  1.00  0.00     0.006 A 
ENDBRANCH  53  67
BRANCH  54  75
ATOM     75  C   UNL     1       8.880   9.316  -0.748  1.00  0.00     0.057 A 
ATOM     76  C   UNL     1       9.550  10.077   0.218  1.00  0.00     0.134 A 
ATOM     77  C   UNL     1       9.102   7.934  -0.748  1.00  0.00     0.134 A 
ATOM     78  F   UNL     1       9.392  11.408   0.256  1.00  0.00    -0.206 F 
ATOM     79  C   UNL     1      10.428   9.492   1.131  1.00  0.00     0.040 A 
ATOM     80  C   UNL     1       9.959   7.332   0.175  1.00  0.00     0.040 A 
ATOM     81  F   UNL     1       8.485   7.149  -1.643  1.00  0.00    -0.206 F 
ATOM     82  C   UNL     1      10.633   8.114   1.112  1.00  0.00     0.006 A 
ENDBRANCH  54  75
BRANCH  66  83
ATOM     83  C   UNL     1      10.089  13.645  -6.056  1.00  0.00     0.057 A 
ATOM     84  C   UNL     1      11.053  12.930  -6.775  1.00  0.00     0.134 A 
ATOM     85  C   UNL     1      10.303  15.017  -5.867  1.00  0.00     0.134 A 
ATOM     86  F   UNL     1      10.911  11.611  -6.979  1.00  0.00    -0.206 F 
ATOM     87  C   UNL     1      12.198  13.553  -7.274  1.00  0.00     0.040 A 
ATOM     88  C   UNL     1      11.432  15.655  -6.381  1.00  0.00     0.040 A 
ATOM     89  F   UNL     1       9.411  15.759  -5.193  1.00  0.00    -0.206 F 
ATOM     90  C   UNL     1      12.385  14.921  -7.083  1.00  0.00     0.006 A 
ENDBRANCH  66  83
ENDBRANCH  40  41
ENDBRANCH  32  35
ENDBRANCH  30  31
ENDBRANCH  29  30
ENDBRANCH   1  29
TORSDOF 14
