REMARK SMILES O=C(NCCCNC(=O)c1cc(-c2ccccc2)nc(Nc2nc3ccccc3s2)n1)c1ccc(-c2c3nc(c(-c4c(F)cccc4F)c4ccc([nH]4)c(-c4c(F)cccc4F)c4nc(c(-c5c(F)cccc5F)c5ccc2[nH]5)C=C4)C=C3)cc1
REMARK SMILES IDX 5 1 4 2 3 3 1 4 2 5 32 7 33 8 85 9 34 10 84 11 35 12 36 13
REMARK SMILES IDX 37 14 78 15 38 16 83 17 77 18 79 19 39 20 82 21 76 22 75 23
REMARK SMILES IDX 40 25 66 26 49 27 65 28 50 29 53 30 64 31 80 32 51 33 52 34
REMARK SMILES IDX 63 36 81 37 54 38 41 39 42 40 47 41 43 42 44 43 46 44 48 45
REMARK SMILES IDX 45 46 67 47 68 48 73 49 69 50 70 51 72 52 74 53 71 54 55 55
REMARK SMILES IDX 56 56 61 57 57 58 58 59 60 60 62 61 59 62 6 63 7 64 8 65
REMARK SMILES IDX 9 67 10 68 11 69 31 70 12 71 20 72 19 73 13 74 14 75 18 76
REMARK SMILES IDX 15 77 17 78 16 79 21 80 22 82 23 83 30 84 24 85 29 86 25 87
REMARK SMILES IDX 28 88 26 89 27 90
REMARK H PARENT 3 6 79 24 53 35 7 66 21 81
REMARK Flexibility Score: inf
ROOT
ATOM      1  C   UNL     1       4.920   1.569  -2.071  1.00  0.00     0.042 C 
ENDROOT
BRANCH   1   2
ATOM      2  C   UNL     1       4.570   1.303  -0.616  1.00  0.00     0.118 C 
BRANCH   2   3
ATOM      3  N   UNL     1       3.143   1.091  -0.406  1.00  0.00    -0.352 N 
ATOM      4  O   UNL     1       1.230  -0.053  -0.092  1.00  0.00    -0.269 OA
ATOM      5  C   UNL     1       2.453  -0.039  -0.034  1.00  0.00     0.251 C 
ATOM      6  H   UNL     1       2.581   1.886  -0.556  1.00  0.00     0.163 HD
BRANCH   5   7
ATOM      7  C   UNL     1       3.186  -1.242   0.418  1.00  0.00     0.039 A 
ATOM      8  C   UNL     1       4.302  -1.123   1.244  1.00  0.00     0.014 A 
ATOM      9  C   UNL     1       2.736  -2.508   0.032  1.00  0.00     0.014 A 
ATOM     10  C   UNL     1       5.069  -2.242   1.534  1.00  0.00     0.010 A 
ATOM     11  C   UNL     1       3.443  -3.649   0.426  1.00  0.00     0.010 A 
ATOM     12  C   UNL     1       4.634  -3.522   1.155  1.00  0.00    -0.014 A 
BRANCH  12  13
ATOM     13  C   UNL     1       5.409  -4.698   1.623  1.00  0.00     0.031 A 
ATOM     14  C   UNL     1       6.095  -5.623   0.659  1.00  0.00     0.074 A 
ATOM     15  C   UNL     1       5.537  -4.883   2.952  1.00  0.00     0.049 A 
ATOM     16  N   UNL     1       6.856  -6.658   0.917  1.00  0.00    -0.248 NA
ATOM     17  C   UNL     1       5.901  -5.367  -0.776  1.00  0.00     0.031 C 
ATOM     18  C   UNL     1       4.899  -4.057   3.982  1.00  0.00     0.029 A 
ATOM     19  N   UNL     1       6.268  -5.794   3.668  1.00  0.00    -0.354 N 
ATOM     20  C   UNL     1       7.221  -7.182  -0.317  1.00  0.00     0.074 A 
ATOM     21  C   UNL     1       6.576  -6.368  -1.326  1.00  0.00     0.031 C 
ATOM     22  C   UNL     1       5.319  -4.454   5.190  1.00  0.00     0.029 A 
ATOM     23  C   UNL     1       6.196  -5.606   5.027  1.00  0.00     0.049 A 
ATOM     24  H   UNL     1       6.794  -6.514   3.249  1.00  0.00     0.167 HD
ATOM     25  C   UNL     1       8.027  -8.239  -0.579  1.00  0.00     0.037 A 
ATOM     26  C   UNL     1       6.761  -6.293   6.035  1.00  0.00     0.037 A 
ATOM     27  C   UNL     1       8.677  -9.034   0.432  1.00  0.00     0.049 A 
ATOM     28  C   UNL     1       7.638  -7.464   5.711  1.00  0.00     0.074 A 
ATOM     29  C   UNL     1       9.528 -10.114   0.264  1.00  0.00     0.029 A 
ATOM     30  N   UNL     1       8.551  -8.836   1.799  1.00  0.00    -0.354 N 
ATOM     31  N   UNL     1       7.987  -7.933   4.538  1.00  0.00    -0.248 NA
ATOM     32  C   UNL     1       8.194  -8.206   6.849  1.00  0.00     0.031 C 
ATOM     33  C   UNL     1       9.886 -10.592   1.529  1.00  0.00     0.029 A 
ATOM     34  C   UNL     1       9.294  -9.783   2.485  1.00  0.00     0.049 A 
ATOM     35  H   UNL     1       8.013  -8.126   2.219  1.00  0.00     0.167 HD
ATOM     36  C   UNL     1       8.808  -9.021   4.795  1.00  0.00     0.074 A 
ATOM     37  C   UNL     1       8.931  -9.121   6.236  1.00  0.00     0.031 C 
ATOM     38  C   UNL     1       9.398  -9.870   3.919  1.00  0.00     0.037 A 
BRANCH  25  39
ATOM     39  C   UNL     1       8.251  -8.609  -2.016  1.00  0.00     0.057 A 
ATOM     40  C   UNL     1       9.070  -7.844  -2.856  1.00  0.00     0.134 A 
ATOM     41  C   UNL     1       7.699  -9.782  -2.547  1.00  0.00     0.134 A 
ATOM     42  F   UNL     1       9.621  -6.704  -2.414  1.00  0.00    -0.206 F 
ATOM     43  C   UNL     1       9.325  -8.228  -4.175  1.00  0.00     0.040 A 
ATOM     44  C   UNL     1       7.963 -10.187  -3.857  1.00  0.00     0.040 A 
ATOM     45  F   UNL     1       6.910 -10.564  -1.794  1.00  0.00    -0.206 F 
ATOM     46  C   UNL     1       8.777  -9.408  -4.675  1.00  0.00     0.006 A 
ENDBRANCH  25  39
BRANCH  26  47
ATOM     47  C   UNL     1       6.496  -5.899   7.441  1.00  0.00     0.057 A 
ATOM     48  C   UNL     1       7.506  -5.369   8.251  1.00  0.00     0.134 A 
ATOM     49  C   UNL     1       5.223  -6.045   8.008  1.00  0.00     0.134 A 
ATOM     50  F   UNL     1       8.749  -5.220   7.770  1.00  0.00    -0.206 F 
ATOM     51  C   UNL     1       7.266  -5.016   9.580  1.00  0.00     0.040 A 
ATOM     52  C   UNL     1       4.962  -5.669   9.325  1.00  0.00     0.040 A 
ATOM     53  F   UNL     1       4.210  -6.538   7.280  1.00  0.00    -0.206 F 
ATOM     54  C   UNL     1       5.988  -5.161  10.118  1.00  0.00     0.006 A 
ENDBRANCH  26  47
BRANCH  38  55
ATOM     55  C   UNL     1      10.236 -10.965   4.506  1.00  0.00     0.057 A 
ATOM     56  C   UNL     1       9.659 -12.058   5.165  1.00  0.00     0.134 A 
ATOM     57  C   UNL     1      11.632 -10.926   4.412  1.00  0.00     0.134 A 
ATOM     58  F   UNL     1       8.327 -12.143   5.303  1.00  0.00    -0.206 F 
ATOM     59  C   UNL     1      10.444 -13.060   5.737  1.00  0.00     0.040 A 
ATOM     60  C   UNL     1      12.426 -11.935   4.957  1.00  0.00     0.040 A 
ATOM     61  F   UNL     1      12.245  -9.909   3.788  1.00  0.00    -0.206 F 
ATOM     62  C   UNL     1      11.832 -13.001   5.630  1.00  0.00     0.006 A 
ENDBRANCH  38  55
ENDBRANCH  12  13
ENDBRANCH   5   7
ENDBRANCH   2   3
ENDBRANCH   1   2
BRANCH   1  63
ATOM     63  C   UNL     1       4.287   2.833  -2.628  1.00  0.00     0.118 C 
BRANCH  63  64
ATOM     64  N   UNL     1       4.698   4.027  -1.905  1.00  0.00    -0.351 N 
ATOM     65  C   UNL     1       5.529   5.052  -2.298  1.00  0.00     0.270 C 
ATOM     66  H   UNL     1       4.325   4.116  -0.998  1.00  0.00     0.163 HD
ATOM     67  O   UNL     1       5.855   5.910  -1.482  1.00  0.00    -0.268 OA
BRANCH  65  68
ATOM     68  C   UNL     1       5.989   5.123  -3.706  1.00  0.00     0.134 A 
ATOM     69  C   UNL     1       5.077   5.081  -4.723  1.00  0.00     0.063 A 
ATOM     70  N   UNL     1       7.309   5.191  -3.897  1.00  0.00    -0.207 NA
ATOM     71  C   UNL     1       5.610   4.985  -5.986  1.00  0.00     0.077 A 
ATOM     72  C   UNL     1       7.758   5.182  -5.154  1.00  0.00     0.230 A 
ATOM     73  N   UNL     1       6.943   5.053  -6.218  1.00  0.00    -0.213 NA
BRANCH  71  74
ATOM     74  C   UNL     1       4.724   4.670  -7.117  1.00  0.00     0.000 A 
ATOM     75  C   UNL     1       4.992   3.573  -7.952  1.00  0.00     0.010 A 
ATOM     76  C   UNL     1       3.514   5.363  -7.305  1.00  0.00     0.010 A 
ATOM     77  C   UNL     1       4.065   3.159  -8.913  1.00  0.00     0.001 A 
ATOM     78  C   UNL     1       2.588   4.952  -8.266  1.00  0.00     0.001 A 
ATOM     79  C   UNL     1       2.860   3.844  -9.063  1.00  0.00     0.000 A 
ENDBRANCH  71  74
BRANCH  72  80
ATOM     80  N   UNL     1       9.112   5.399  -5.401  1.00  0.00    -0.300 N 
ATOM     81  H   UNL     1       9.419   5.446  -6.335  1.00  0.00     0.172 HD
BRANCH  80  82
ATOM     82  C   UNL     1      10.021   5.547  -4.415  1.00  0.00     0.190 A 
ATOM     83  N   UNL     1      10.013   4.893  -3.276  1.00  0.00    -0.220 NA
ATOM     84  S   UNL     1      11.321   6.673  -4.569  1.00  0.00    -0.097 S 
ATOM     85  C   UNL     1      10.910   5.440  -2.386  1.00  0.00     0.084 A 
ATOM     86  C   UNL     1      11.711   6.457  -2.901  1.00  0.00     0.056 A 
ATOM     87  C   UNL     1      11.050   5.071  -1.034  1.00  0.00     0.030 A 
ATOM     88  C   UNL     1      12.647   7.133  -2.099  1.00  0.00     0.021 A 
ATOM     89  C   UNL     1      11.966   5.745  -0.224  1.00  0.00     0.002 A 
ATOM     90  C   UNL     1      12.751   6.766  -0.752  1.00  0.00     0.002 A 
ENDBRANCH  80  82
ENDBRANCH  72  80
ENDBRANCH  65  68
ENDBRANCH  63  64
ENDBRANCH   1  63
TORSDOF 13
