REMARK SMILES O=C(N/N=C/c1ccccc1O)C(=O)Nc1cccc(C(=O)NCCCNC(=O)c2ccc(-c3c4nc(c(-c5c(F)cccc5F)c5ccc([nH]5)c(-c5c(F)cccc5F)c5nc(c(-c6c(F)cccc6F)c6ccc3[nH]6)C=C5)C=C4)cc2)c1
REMARK SMILES IDX 21 1 22 2 23 3 20 5 16 6 17 7 84 8 18 9 19 10 15 11 13 12
REMARK SMILES IDX 14 13 2 15 1 16 3 17 4 19 5 20 6 21 7 22 11 23 8 24 10 25
REMARK SMILES IDX 9 26 12 27 24 29 25 30 26 31 27 32 28 33 29 35 30 36 31 37
REMARK SMILES IDX 83 38 32 39 82 40 33 41 34 42 35 43 76 44 36 45 81 46 75 47
REMARK SMILES IDX 77 48 37 49 80 50 74 51 73 52 38 54 64 55 47 56 63 57 48 58
REMARK SMILES IDX 51 59 62 60 78 61 49 62 50 63 61 65 79 66 52 67 39 68 40 69
REMARK SMILES IDX 45 70 41 71 42 72 44 73 46 74 43 75 65 76 66 77 71 78 67 79
REMARK SMILES IDX 68 80 70 81 72 82 69 83 53 84 54 85 59 86 55 87 56 88 58 89
REMARK SMILES IDX 60 90 57 91
REMARK H PARENT 23 4 15 14 3 18 12 28 27 34 77 53 51 64
REMARK Flexibility Score: inf
ROOT
ATOM      1  C   UNL     1       5.334   0.334   3.542  1.00  0.00     0.251 C 
ATOM      2  O   UNL     1       6.167   0.764   4.343  1.00  0.00    -0.269 OA
ATOM      3  N   UNL     1       4.209  -0.296   4.010  1.00  0.00    -0.352 N 
ATOM      4  H   UNL     1       4.242  -0.548   4.961  1.00  0.00     0.163 HD
ENDROOT
BRANCH   1   5
ATOM      5  C   UNL     1       5.652   0.483   2.100  1.00  0.00     0.041 A 
ATOM      6  C   UNL     1       5.390  -0.368  -0.929  1.00  0.00     0.042 A 
ATOM      7  C   UNL     1       6.179   1.196  -1.459  1.00  0.00     0.026 A 
ATOM      8  C   UNL     1       5.199  -0.768   0.836  1.00  0.00     0.040 A 
ATOM      9  C   UNL     1       6.810   2.351  -0.180  1.00  0.00     0.003 A 
ATOM     10  C   UNL     1       6.502   2.009   1.577  1.00  0.00     0.014 A 
BRANCH   6  11
ATOM     11  N   UNL     1       4.437  -0.864  -1.814  1.00  0.00    -0.318 N 
ATOM     12  C   UNL     1       3.065  -0.647  -1.772  1.00  0.00     0.315 C 
ATOM     13  O   UNL     1       2.404  -1.115  -2.704  1.00  0.00    -0.263 OA
ATOM     14  H   UNL     1       4.770  -1.428  -2.548  1.00  0.00     0.170 HD
BRANCH  12  15
ATOM     15  C   UNL     1       2.297   0.203  -0.720  1.00  0.00     0.329 C 
ATOM     16  O   UNL     1       1.099  -0.024  -0.542  1.00  0.00    -0.262 OA
ATOM     17  N   UNL     1       2.874   1.305  -0.077  1.00  0.00    -0.239 N 
ATOM     18  H   UNL     1       2.558   2.224  -0.238  1.00  0.00     0.194 HD
BRANCH  17  19
ATOM     19  N   UNL     1       3.904   1.038   0.786  1.00  0.00    -0.180 NA
ATOM     20  C   UNL     1       5.163   1.214   0.269  1.00  0.00     0.145 C 
BRANCH  20  21
ATOM     21  C   UNL     1       7.057   0.255   0.387  1.00  0.00     0.036 A 
ATOM     22  C   UNL     1       8.072   0.030  -0.733  1.00  0.00     0.013 A 
ATOM     23  C   UNL     1       7.890  -0.325   1.527  1.00  0.00     0.124 A 
ATOM     24  C   UNL     1       9.475  -0.215  -0.694  1.00  0.00     0.001 A 
ATOM     25  C   UNL     1       9.312  -0.510   1.603  1.00  0.00     0.047 A 
ATOM     26  C   UNL     1      10.116  -0.382   0.500  1.00  0.00     0.004 A 
BRANCH  23  27
ATOM     27  O   UNL     1       7.372  -1.032   2.618  1.00  0.00    -0.507 OA
ATOM     28  H   UNL     1       6.447  -1.050   2.768  1.00  0.00     0.293 HD
ENDBRANCH  23  27
ENDBRANCH  20  21
ENDBRANCH  17  19
ENDBRANCH  12  15
ENDBRANCH   6  11
ENDBRANCH   1   5
BRANCH   3  29
ATOM     29  C   UNL     1       2.977  -0.650   3.328  1.00  0.00     0.118 C 
BRANCH  29  30
ATOM     30  C   UNL     1       2.725  -2.150   3.278  1.00  0.00     0.042 C 
BRANCH  30  31
ATOM     31  C   UNL     1       2.153  -2.708   4.573  1.00  0.00     0.118 C 
BRANCH  31  32
ATOM     32  N   UNL     1       0.792  -2.247   4.829  1.00  0.00    -0.352 N 
ATOM     33  C   UNL     1      -0.372  -2.955   4.993  1.00  0.00     0.251 C 
ATOM     34  H   UNL     1       0.694  -1.270   4.894  1.00  0.00     0.163 HD
ATOM     35  O   UNL     1      -1.445  -2.361   5.039  1.00  0.00    -0.269 OA
BRANCH  33  36
ATOM     36  C   UNL     1      -0.348  -4.429   5.103  1.00  0.00     0.039 A 
ATOM     37  C   UNL     1      -1.338  -5.172   4.452  1.00  0.00     0.014 A 
ATOM     38  C   UNL     1       0.621  -5.080   5.871  1.00  0.00     0.014 A 
ATOM     39  C   UNL     1      -1.318  -6.567   4.519  1.00  0.00     0.010 A 
ATOM     40  C   UNL     1       0.688  -6.469   5.872  1.00  0.00     0.010 A 
ATOM     41  C   UNL     1      -0.286  -7.226   5.205  1.00  0.00    -0.014 A 
BRANCH  41  42
ATOM     42  C   UNL     1      -0.216  -8.706   5.261  1.00  0.00     0.031 A 
ATOM     43  C   UNL     1      -0.348  -9.413   6.582  1.00  0.00     0.074 A 
ATOM     44  C   UNL     1       0.045  -9.407   4.142  1.00  0.00     0.049 A 
ATOM     45  N   UNL     1      -0.211 -10.685   6.857  1.00  0.00    -0.248 NA
ATOM     46  C   UNL     1      -0.638  -8.573   7.755  1.00  0.00     0.031 C 
ATOM     47  C   UNL     1       0.248  -8.833   2.810  1.00  0.00     0.029 A 
ATOM     48  N   UNL     1       0.197 -10.756   3.950  1.00  0.00    -0.354 N 
ATOM     49  C   UNL     1      -0.364 -10.791   8.233  1.00  0.00     0.074 A 
ATOM     50  C   UNL     1      -0.565  -9.452   8.743  1.00  0.00     0.031 C 
ATOM     51  C   UNL     1       0.475  -9.826   1.935  1.00  0.00     0.029 A 
ATOM     52  C   UNL     1       0.464 -11.100   2.647  1.00  0.00     0.049 A 
ATOM     53  H   UNL     1       0.122 -11.416   4.677  1.00  0.00     0.167 HD
ATOM     54  C   UNL     1      -0.359 -11.906   9.002  1.00  0.00     0.037 A 
ATOM     55  C   UNL     1       0.677 -12.307   2.092  1.00  0.00     0.037 A 
ATOM     56  C   UNL     1      -0.214 -13.241   8.488  1.00  0.00     0.049 A 
ATOM     57  C   UNL     1       0.629 -13.534   2.957  1.00  0.00     0.074 A 
ATOM     58  C   UNL     1      -0.274 -14.441   9.174  1.00  0.00     0.029 A 
ATOM     59  N   UNL     1       0.008 -13.550   7.155  1.00  0.00    -0.354 N 
ATOM     60  N   UNL     1       0.429 -13.624   4.250  1.00  0.00    -0.248 NA
ATOM     61  C   UNL     1       0.831 -14.826   2.287  1.00  0.00     0.031 C 
ATOM     62  C   UNL     1      -0.066 -15.478   8.257  1.00  0.00     0.029 A 
ATOM     63  C   UNL     1       0.096 -14.923   6.998  1.00  0.00     0.049 A 
ATOM     64  H   UNL     1       0.091 -12.892   6.428  1.00  0.00     0.167 HD
ATOM     65  C   UNL     1       0.461 -14.980   4.545  1.00  0.00     0.074 A 
ATOM     66  C   UNL     1       0.688 -15.676   3.294  1.00  0.00     0.031 C 
ATOM     67  C   UNL     1       0.316 -15.594   5.744  1.00  0.00     0.037 A 
BRANCH  54  68
ATOM     68  C   UNL     1      -0.527 -11.722  10.480  1.00  0.00     0.057 A 
ATOM     69  C   UNL     1      -1.760 -11.365  11.042  1.00  0.00     0.134 A 
ATOM     70  C   UNL     1       0.550 -11.920  11.352  1.00  0.00     0.134 A 
ATOM     71  F   UNL     1      -2.826 -11.146  10.258  1.00  0.00    -0.206 F 
ATOM     72  C   UNL     1      -1.909 -11.184  12.418  1.00  0.00     0.040 A 
ATOM     73  C   UNL     1       0.407 -11.765  12.732  1.00  0.00     0.040 A 
ATOM     74  F   UNL     1       1.756 -12.266  10.879  1.00  0.00    -0.206 F 
ATOM     75  C   UNL     1      -0.823 -11.390  13.268  1.00  0.00     0.006 A 
ENDBRANCH  54  68
BRANCH  55  76
ATOM     76  C   UNL     1       0.916 -12.416   0.633  1.00  0.00     0.057 A 
ATOM     77  C   UNL     1      -0.080 -12.903  -0.221  1.00  0.00     0.134 A 
ATOM     78  C   UNL     1       2.132 -12.032   0.059  1.00  0.00     0.134 A 
ATOM     79  F   UNL     1      -1.259 -13.303   0.278  1.00  0.00    -0.206 F 
ATOM     80  C   UNL     1       0.128 -13.014  -1.596  1.00  0.00     0.040 A 
ATOM     81  C   UNL     1       2.348 -12.121  -1.318  1.00  0.00     0.040 A 
ATOM     82  F   UNL     1       3.122 -11.553   0.826  1.00  0.00    -0.206 F 
ATOM     83  C   UNL     1       1.345 -12.617  -2.148  1.00  0.00     0.006 A 
ENDBRANCH  55  76
BRANCH  67  84
ATOM     84  C   UNL     1       0.376 -17.090   5.754  1.00  0.00     0.057 A 
ATOM     85  C   UNL     1       1.591 -17.776   5.650  1.00  0.00     0.134 A 
ATOM     86  C   UNL     1      -0.790 -17.849   5.909  1.00  0.00     0.134 A 
ATOM     87  F   UNL     1       2.740 -17.102   5.487  1.00  0.00    -0.206 F 
ATOM     88  C   UNL     1       1.644 -19.170   5.686  1.00  0.00     0.040 A 
ATOM     89  C   UNL     1      -0.748 -19.242   5.965  1.00  0.00     0.040 A 
ATOM     90  F   UNL     1      -1.985 -17.249   6.019  1.00  0.00    -0.206 F 
ATOM     91  C   UNL     1       0.472 -19.906   5.849  1.00  0.00     0.006 A 
ENDBRANCH  67  84
ENDBRANCH  41  42
ENDBRANCH  33  36
ENDBRANCH  31  32
ENDBRANCH  30  31
ENDBRANCH  29  30
ENDBRANCH   3  29
TORSDOF 15
