REMARK SMILES CC[C@](C)([NH3+])C(=O)N1CC[NH+]([C@H](C)C(=O)NCCCNC(=O)c2ccc(-c3c4nc(c(-c5c(F)cccc5F)c5ccc([nH]5)c(-c5c(F)cccc5F)c5nc(c(-c6c(F)cccc6F)c6ccc3[nH]6)C=C5)C=C4)cc2)CC1
REMARK SMILES IDX 17 1 16 2 14 3 15 4 12 6 13 7 11 8 6 9 7 10 8 11 9 12 78 13
REMARK SMILES IDX 10 14 77 15 3 17 4 18 2 19 1 20 5 21 18 25 19 26 20 27 21 28
REMARK SMILES IDX 22 30 23 31 24 32 76 33 25 34 75 35 26 36 27 37 28 38 69 39
REMARK SMILES IDX 29 40 74 41 68 42 70 43 30 44 73 45 67 46 66 47 31 49 57 50
REMARK SMILES IDX 40 51 56 52 41 53 44 54 55 55 71 56 42 57 43 58 54 60 72 61
REMARK SMILES IDX 45 62 32 63 33 64 38 65 34 66 35 67 37 68 39 69 36 70 58 71
REMARK SMILES IDX 59 72 64 73 60 74 61 75 63 76 65 77 62 78 46 79 47 80 52 81
REMARK SMILES IDX 48 82 49 83 51 84 53 85 50 86
REMARK H PARENT 16 5 11 16 5 22 5 23 5 24 20 29 70 48 44 59
REMARK Flexibility Score: inf
ROOT
ATOM      1  C   UNL     1       6.259   4.857  -0.126  1.00  0.00     0.118 C 
ENDROOT
BRANCH   1   2
ATOM      2  N   UNL     1       6.673   5.994   0.679  1.00  0.00    -0.351 N 
ATOM      3  C   UNL     1       6.146   6.523   1.823  1.00  0.00     0.278 C 
ATOM      4  O   UNL     1       6.818   7.396   2.382  1.00  0.00    -0.268 OA
ATOM      5  H   UNL     1       7.469   6.464   0.341  1.00  0.00     0.163 HD
BRANCH   3   6
ATOM      6  C   UNL     1       4.770   6.097   2.390  1.00  0.00     0.271 C 
ATOM      7  C   UNL     1       3.646   6.274   1.357  1.00  0.00     0.086 C 
BRANCH   6   8
ATOM      8  N   UNL     1       4.835   4.857   3.219  1.00  0.00    -0.322 N 
ATOM      9  C   UNL     1       3.421   1.019   3.515  1.00  0.00     0.283 C 
ATOM     10  O   UNL     1       4.096   0.050   3.136  1.00  0.00    -0.268 OA
ATOM     11  N   UNL     1       4.075   2.157   3.953  1.00  0.00    -0.326 N 
ATOM     12  C   UNL     1       5.430   2.401   3.479  1.00  0.00     0.181 C 
ATOM     13  C   UNL     1       3.587   3.277   4.754  1.00  0.00     0.181 C 
ATOM     14  C   UNL     1       5.408   3.659   2.586  1.00  0.00     0.284 C 
ATOM     15  C   UNL     1       3.560   4.570   3.914  1.00  0.00     0.284 C 
ATOM     16  H   UNL     1       5.536   5.098   3.919  1.00  0.00     0.348 HD
BRANCH   9  17
ATOM     17  C   UNL     1       1.873   0.998   3.243  1.00  0.00     0.171 C 
ATOM     18  C   UNL     1       1.403  -0.468   3.152  1.00  0.00     0.090 C 
BRANCH  17  19
ATOM     19  C   UNL     1       1.569   1.754   1.921  1.00  0.00     0.075 C 
ATOM     20  C   UNL     1       2.236   1.190   0.669  1.00  0.00     0.011 C 
ENDBRANCH  17  19
BRANCH  17  21
ATOM     21  N   UNL     1       1.077   1.621   4.327  1.00  0.00    -0.345 N 
ATOM     22  H   UNL     1       1.263   1.137   5.205  1.00  0.00     0.345 HD
ATOM     23  H   UNL     1       0.084   1.551   4.104  1.00  0.00     0.345 HD
ATOM     24  H   UNL     1       1.337   2.603   4.418  1.00  0.00     0.345 HD
ENDBRANCH  17  21
ENDBRANCH   9  17
ENDBRANCH   6   8
ENDBRANCH   3   6
ENDBRANCH   1   2
BRANCH   1  25
ATOM     25  C   UNL     1       6.340   5.107  -1.618  1.00  0.00     0.042 C 
BRANCH  25  26
ATOM     26  C   UNL     1       7.760   5.332  -2.111  1.00  0.00     0.118 C 
BRANCH  26  27
ATOM     27  N   UNL     1       8.622   4.168  -1.931  1.00  0.00    -0.352 N 
ATOM     28  C   UNL     1       9.055   3.212  -2.822  1.00  0.00     0.251 C 
ATOM     29  H   UNL     1       8.951   4.044  -1.011  1.00  0.00     0.163 HD
ATOM     30  O   UNL     1       9.633   2.214  -2.413  1.00  0.00    -0.269 OA
BRANCH  28  31
ATOM     31  C   UNL     1       8.789   3.369  -4.268  1.00  0.00     0.039 A 
ATOM     32  C   UNL     1       8.397   2.256  -5.018  1.00  0.00     0.014 A 
ATOM     33  C   UNL     1       8.916   4.612  -4.884  1.00  0.00     0.014 A 
ATOM     34  C   UNL     1       8.026   2.420  -6.355  1.00  0.00     0.010 A 
ATOM     35  C   UNL     1       8.426   4.797  -6.169  1.00  0.00     0.010 A 
ATOM     36  C   UNL     1       7.978   3.703  -6.923  1.00  0.00    -0.014 A 
BRANCH  36  37
ATOM     37  C   UNL     1       7.471   3.943  -8.298  1.00  0.00     0.031 A 
ATOM     38  C   UNL     1       8.355   4.619  -9.313  1.00  0.00     0.074 A 
ATOM     39  C   UNL     1       6.188   3.661  -8.599  1.00  0.00     0.049 A 
ATOM     40  N   UNL     1       8.055   5.064 -10.506  1.00  0.00    -0.248 NA
ATOM     41  C   UNL     1       9.750   4.868  -8.915  1.00  0.00     0.031 C 
ATOM     42  C   UNL     1       5.211   3.062  -7.687  1.00  0.00     0.029 A 
ATOM     43  N   UNL     1       5.478   3.859  -9.757  1.00  0.00    -0.354 N 
ATOM     44  C   UNL     1       9.209   5.675 -10.981  1.00  0.00     0.074 A 
ATOM     45  C   UNL     1      10.196   5.595  -9.927  1.00  0.00     0.031 C 
ATOM     46  C   UNL     1       4.040   2.919  -8.326  1.00  0.00     0.029 A 
ATOM     47  C   UNL     1       4.167   3.457  -9.676  1.00  0.00     0.049 A 
ATOM     48  H   UNL     1       5.872   4.253 -10.569  1.00  0.00     0.167 HD
ATOM     49  C   UNL     1       9.436   6.227 -12.195  1.00  0.00     0.037 A 
ATOM     50  C   UNL     1       3.175   3.526 -10.584  1.00  0.00     0.037 A 
ATOM     51  C   UNL     1       8.470   6.255 -13.259  1.00  0.00     0.049 A 
ATOM     52  C   UNL     1       3.458   4.124 -11.934  1.00  0.00     0.074 A 
ATOM     53  C   UNL     1       8.628   6.713 -14.555  1.00  0.00     0.029 A 
ATOM     54  N   UNL     1       7.165   5.798 -13.150  1.00  0.00    -0.354 N 
ATOM     55  N   UNL     1       4.574   4.637 -12.392  1.00  0.00    -0.248 NA
ATOM     56  C   UNL     1       2.344   4.154 -12.892  1.00  0.00     0.031 C 
ATOM     57  C   UNL     1       7.406   6.568 -15.220  1.00  0.00     0.029 A 
ATOM     58  C   UNL     1       6.500   5.981 -14.350  1.00  0.00     0.049 A 
ATOM     59  H   UNL     1       6.771   5.403 -12.340  1.00  0.00     0.167 HD
ATOM     60  C   UNL     1       4.306   5.026 -13.697  1.00  0.00     0.074 A 
ATOM     61  C   UNL     1       2.925   4.679 -13.962  1.00  0.00     0.031 C 
ATOM     62  C   UNL     1       5.128   5.620 -14.596  1.00  0.00     0.037 A 
BRANCH  49  63
ATOM     63  C   UNL     1      10.788   6.832 -12.440  1.00  0.00     0.057 A 
ATOM     64  C   UNL     1      11.941   6.043 -12.556  1.00  0.00     0.134 A 
ATOM     65  C   UNL     1      10.937   8.216 -12.587  1.00  0.00     0.134 A 
ATOM     66  F   UNL     1      11.870   4.711 -12.412  1.00  0.00    -0.206 F 
ATOM     67  C   UNL     1      13.196   6.612 -12.780  1.00  0.00     0.040 A 
ATOM     68  C   UNL     1      12.182   8.794 -12.840  1.00  0.00     0.040 A 
ATOM     69  F   UNL     1       9.874   9.030 -12.492  1.00  0.00    -0.206 F 
ATOM     70  C   UNL     1      13.317   7.991 -12.929  1.00  0.00     0.006 A 
ENDBRANCH  49  63
BRANCH  50  71
ATOM     71  C   UNL     1       1.828   2.995 -10.257  1.00  0.00     0.057 A 
ATOM     72  C   UNL     1       1.350   1.827 -10.862  1.00  0.00     0.134 A 
ATOM     73  C   UNL     1       0.987   3.637  -9.340  1.00  0.00     0.134 A 
ATOM     74  F   UNL     1       2.103   1.177 -11.761  1.00  0.00    -0.206 F 
ATOM     75  C   UNL     1       0.077   1.325 -10.583  1.00  0.00     0.040 A 
ATOM     76  C   UNL     1      -0.279   3.134  -9.034  1.00  0.00     0.040 A 
ATOM     77  F   UNL     1       1.389   4.755  -8.719  1.00  0.00    -0.206 F 
ATOM     78  C   UNL     1      -0.740   1.978  -9.662  1.00  0.00     0.006 A 
ENDBRANCH  50  71
BRANCH  62  79
ATOM     79  C   UNL     1       4.568   5.903 -15.957  1.00  0.00     0.057 A 
ATOM     80  C   UNL     1       3.657   6.944 -16.177  1.00  0.00     0.134 A 
ATOM     81  C   UNL     1       4.987   5.161 -17.069  1.00  0.00     0.134 A 
ATOM     82  F   UNL     1       3.208   7.682 -15.151  1.00  0.00    -0.206 F 
ATOM     83  C   UNL     1       3.171   7.227 -17.454  1.00  0.00     0.040 A 
ATOM     84  C   UNL     1       4.528   5.450 -18.353  1.00  0.00     0.040 A 
ATOM     85  F   UNL     1       5.865   4.156 -16.925  1.00  0.00    -0.206 F 
ATOM     86  C   UNL     1       3.614   6.484 -18.548  1.00  0.00     0.006 A 
ENDBRANCH  62  79
ENDBRANCH  36  37
ENDBRANCH  28  31
ENDBRANCH  26  27
ENDBRANCH  25  26
ENDBRANCH   1  25
TORSDOF 14
