REMARK SMILES O=C(C[C@H]1C[C@H]2CC[C@@H](C1)N2C(=O)c1c[nH]c(=O)[nH]1)NCCCNC(=O)c1ccc(-c2c3nc(c(-c4c(F)cccc4F)c4ccc([nH]4)c(-c4c(F)cccc4F)c4nc(c(-c5c(F)cccc5F)c5ccc2[nH]5)C=C4)C=C3)cc1
REMARK SMILES IDX 21 1 20 2 1 3 2 4 3 6 4 7 5 8 10 9 6 10 9 11 7 12 11 13 8 14
REMARK SMILES IDX 12 15 13 16 14 17 15 18 19 19 16 20 17 21 18 24 22 25 23 26
REMARK SMILES IDX 24 27 25 28 26 30 27 31 28 32 80 33 29 34 79 35 30 36 31 37
REMARK SMILES IDX 32 38 73 39 33 40 78 41 72 42 74 43 34 44 77 45 71 46 70 47
REMARK SMILES IDX 35 49 61 50 44 51 60 52 45 53 48 54 59 55 75 56 46 57 47 58
REMARK SMILES IDX 58 60 76 61 49 62 36 63 37 64 42 65 38 66 39 67 41 68 43 69
REMARK SMILES IDX 40 70 62 71 63 72 68 73 64 74 65 75 67 76 69 77 66 78 50 79
REMARK SMILES IDX 51 80 56 81 52 82 53 83 55 84 57 85 54 86
REMARK H PARENT 20 5 19 22 16 23 24 29 74 48 48 59
REMARK Flexibility Score: inf
ROOT
ATOM      1  C   UNL     1       2.281  -2.329  -1.056  1.00  0.00     0.117 C 
ENDROOT
BRANCH   1   2
ATOM      2  N   UNL     1       2.995  -1.214  -0.471  1.00  0.00    -0.356 N 
ATOM      3  O   UNL     1       1.234   0.249  -0.578  1.00  0.00    -0.275 OA
ATOM      4  C   UNL     1       2.386  -0.004  -0.241  1.00  0.00     0.220 C 
ATOM      5  H   UNL     1       3.944  -1.325  -0.231  1.00  0.00     0.163 HD
BRANCH   4   6
ATOM      6  C   UNL     1       3.253   1.016   0.469  1.00  0.00     0.103 C 
BRANCH   6   7
ATOM      7  C   UNL     1       3.859   0.559   1.816  1.00  0.00     0.002 C 
ATOM      8  C   UNL     1       4.354   1.782   2.644  1.00  0.00     0.029 C 
ATOM      9  C   UNL     1       2.975  -0.390   2.671  1.00  0.00     0.029 C 
ATOM     10  C   UNL     1       3.360   2.273   3.720  1.00  0.00     0.086 C 
ATOM     11  C   UNL     1       2.092   0.328   3.700  1.00  0.00     0.086 C 
ATOM     12  C   UNL     1       2.006   2.696   3.143  1.00  0.00     0.027 C 
ATOM     13  N   UNL     1       2.977   1.131   4.525  1.00  0.00    -0.331 N 
ATOM     14  C   UNL     1       1.189   1.393   3.068  1.00  0.00     0.027 C 
BRANCH  13  15
ATOM     15  C   UNL     1       3.229   1.038   5.871  1.00  0.00     0.272 C 
ATOM     16  O   UNL     1       3.818   1.905   6.513  1.00  0.00    -0.267 OA
BRANCH  15  17
ATOM     17  C   UNL     1       2.686  -0.148   6.568  1.00  0.00     0.125 A 
ATOM     18  C   UNL     1       2.981  -1.442   6.369  1.00  0.00     0.119 A 
ATOM     19  N   UNL     1       1.766  -0.056   7.585  1.00  0.00    -0.302 N 
ATOM     20  N   UNL     1       2.231  -2.193   7.240  1.00  0.00    -0.312 N 
ATOM     21  C   UNL     1       1.444  -1.340   8.030  1.00  0.00     0.323 A 
ATOM     22  H   UNL     1       1.394   0.782   7.943  1.00  0.00     0.172 HD
ATOM     23  H   UNL     1       2.243  -3.176   7.301  1.00  0.00     0.171 HD
ATOM     24  O   UNL     1       0.655  -1.655   8.898  1.00  0.00    -0.248 OA
ENDBRANCH  15  17
ENDBRANCH  13  15
ENDBRANCH   6   7
ENDBRANCH   4   6
ENDBRANCH   1   2
BRANCH   1  25
ATOM     25  C   UNL     1       2.544  -2.463  -2.548  1.00  0.00     0.042 C 
BRANCH  25  26
ATOM     26  C   UNL     1       4.015  -2.652  -2.901  1.00  0.00     0.118 C 
BRANCH  26  27
ATOM     27  N   UNL     1       4.590  -3.865  -2.336  1.00  0.00    -0.352 N 
ATOM     28  C   UNL     1       5.282  -4.880  -2.951  1.00  0.00     0.251 C 
ATOM     29  H   UNL     1       4.465  -3.974  -1.365  1.00  0.00     0.163 HD
ATOM     30  O   UNL     1       5.573  -5.891  -2.319  1.00  0.00    -0.269 OA
BRANCH  28  31
ATOM     31  C   UNL     1       5.648  -4.769  -4.378  1.00  0.00     0.039 A 
ATOM     32  C   UNL     1       5.430  -5.867  -5.215  1.00  0.00     0.014 A 
ATOM     33  C   UNL     1       6.197  -3.592  -4.892  1.00  0.00     0.014 A 
ATOM     34  C   UNL     1       5.690  -5.757  -6.583  1.00  0.00     0.010 A 
ATOM     35  C   UNL     1       6.385  -3.459  -6.264  1.00  0.00     0.010 A 
ATOM     36  C   UNL     1       6.129  -4.538  -7.124  1.00  0.00    -0.014 A 
BRANCH  36  37
ATOM     37  C   UNL     1       6.315  -4.363  -8.587  1.00  0.00     0.031 A 
ATOM     38  C   UNL     1       7.678  -4.064  -9.145  1.00  0.00     0.074 A 
ATOM     39  C   UNL     1       5.244  -4.394  -9.404  1.00  0.00     0.049 A 
ATOM     40  N   UNL     1       8.024  -3.775 -10.373  1.00  0.00    -0.248 NA
ATOM     41  C   UNL     1       8.797  -4.062  -8.189  1.00  0.00     0.031 C 
ATOM     42  C   UNL     1       3.863  -4.635  -8.981  1.00  0.00     0.029 A 
ATOM     43  N   UNL     1       5.147  -4.204 -10.760  1.00  0.00    -0.354 N 
ATOM     44  C   UNL     1       9.393  -3.541 -10.336  1.00  0.00     0.074 A 
ATOM     45  C   UNL     1       9.806  -3.673  -8.955  1.00  0.00     0.031 C 
ATOM     46  C   UNL     1       3.061  -4.593 -10.057  1.00  0.00     0.029 A 
ATOM     47  C   UNL     1       3.861  -4.281 -11.236  1.00  0.00     0.049 A 
ATOM     48  H   UNL     1       5.926  -4.028 -11.336  1.00  0.00     0.167 HD
ATOM     49  C   UNL     1      10.232  -3.261 -11.361  1.00  0.00     0.037 A 
ATOM     50  C   UNL     1       3.378  -4.105 -12.481  1.00  0.00     0.037 A 
ATOM     51  C   UNL     1       9.822  -3.154 -12.737  1.00  0.00     0.049 A 
ATOM     52  C   UNL     1       4.328  -3.778 -13.600  1.00  0.00     0.074 A 
ATOM     53  C   UNL     1      10.607  -2.934 -13.855  1.00  0.00     0.029 A 
ATOM     54  N   UNL     1       8.512  -3.256 -13.181  1.00  0.00    -0.354 N 
ATOM     55  N   UNL     1       5.629  -3.622 -13.560  1.00  0.00    -0.248 NA
ATOM     56  C   UNL     1       3.744  -3.604 -14.937  1.00  0.00     0.031 C 
ATOM     57  C   UNL     1       9.767  -2.858 -14.970  1.00  0.00     0.029 A 
ATOM     58  C   UNL     1       8.465  -3.080 -14.554  1.00  0.00     0.049 A 
ATOM     59  H   UNL     1       7.732  -3.429 -12.606  1.00  0.00     0.167 HD
ATOM     60  C   UNL     1       6.022  -3.363 -14.867  1.00  0.00     0.074 A 
ATOM     61  C   UNL     1       4.823  -3.392 -15.678  1.00  0.00     0.031 C 
ATOM     62  C   UNL     1       7.265  -3.124 -15.350  1.00  0.00     0.037 A 
BRANCH  49  63
ATOM     63  C   UNL     1      11.681  -3.052 -11.033  1.00  0.00     0.057 A 
ATOM     64  C   UNL     1      12.507  -4.109 -10.628  1.00  0.00     0.134 A 
ATOM     65  C   UNL     1      12.268  -1.787 -11.160  1.00  0.00     0.134 A 
ATOM     66  F   UNL     1      12.005  -5.344 -10.476  1.00  0.00    -0.206 F 
ATOM     67  C   UNL     1      13.858  -3.910 -10.335  1.00  0.00     0.040 A 
ATOM     68  C   UNL     1      13.624  -1.581 -10.897  1.00  0.00     0.040 A 
ATOM     69  F   UNL     1      11.537  -0.732 -11.550  1.00  0.00    -0.206 F 
ATOM     70  C   UNL     1      14.421  -2.644 -10.477  1.00  0.00     0.006 A 
ENDBRANCH  49  63
BRANCH  50  71
ATOM     71  C   UNL     1       1.923  -4.248 -12.741  1.00  0.00     0.057 A 
ATOM     72  C   UNL     1       1.425  -5.330 -13.477  1.00  0.00     0.134 A 
ATOM     73  C   UNL     1       0.999  -3.308 -12.270  1.00  0.00     0.134 A 
ATOM     74  F   UNL     1       2.264  -6.253 -13.970  1.00  0.00    -0.206 F 
ATOM     75  C   UNL     1       0.064  -5.463 -13.752  1.00  0.00     0.040 A 
ATOM     76  C   UNL     1      -0.369  -3.442 -12.516  1.00  0.00     0.040 A 
ATOM     77  F   UNL     1       1.411  -2.253 -11.553  1.00  0.00    -0.206 F 
ATOM     78  C   UNL     1      -0.839  -4.518 -13.265  1.00  0.00     0.006 A 
ENDBRANCH  50  71
BRANCH  62  79
ATOM     79  C   UNL     1       7.401  -2.914 -16.830  1.00  0.00     0.057 A 
ATOM     80  C   UNL     1       6.975  -1.735 -17.453  1.00  0.00     0.134 A 
ATOM     81  C   UNL     1       8.016  -3.885 -17.631  1.00  0.00     0.134 A 
ATOM     82  F   UNL     1       6.367  -0.772 -16.744  1.00  0.00    -0.206 F 
ATOM     83  C   UNL     1       7.141  -1.535 -18.825  1.00  0.00     0.040 A 
ATOM     84  C   UNL     1       8.211  -3.686 -18.998  1.00  0.00     0.040 A 
ATOM     85  F   UNL     1       8.454  -5.034 -17.095  1.00  0.00    -0.206 F 
ATOM     86  C   UNL     1       7.768  -2.510 -19.599  1.00  0.00     0.006 A 
ENDBRANCH  62  79
ENDBRANCH  36  37
ENDBRANCH  28  31
ENDBRANCH  26  27
ENDBRANCH  25  26
ENDBRANCH   1  25
TORSDOF 13
