REMARK SMILES CCc1ncc(C[N@H+]2CCC[C@@H](c3cccc(C(=O)NCCCNC(=O)c4ccc(-c5c6nc(c(-c7c(F)cccc7F)c7ccc([nH]7)c(-c7c(F)cccc7F)c7nc(c(-c8c(F)cccc8F)c8ccc5[nH]8)C=C7)C=C6)cc4)c3)C2)cn1
REMARK SMILES IDX 21 1 20 2 18 3 19 4 17 6 13 7 14 8 81 9 15 10 16 11 12 12
REMARK SMILES IDX 8 13 9 14 82 15 10 17 11 18 7 19 6 20 3 21 4 22 84 23 5 24
REMARK SMILES IDX 83 25 2 26 1 27 22 28 23 29 24 30 25 31 26 33 27 34 28 35
REMARK SMILES IDX 80 36 29 37 79 38 30 39 31 40 32 41 73 42 33 43 78 44 72 45
REMARK SMILES IDX 74 46 34 47 77 48 71 49 70 50 35 52 61 53 44 54 60 55 45 56
REMARK SMILES IDX 48 57 59 58 75 59 46 60 47 61 58 63 76 64 49 65 36 66 37 67
REMARK SMILES IDX 42 68 38 69 39 70 41 71 43 72 40 73 62 74 63 75 68 76 64 77
REMARK SMILES IDX 65 78 67 79 69 80 66 81 50 82 51 83 56 84 52 85 53 86 55 87
REMARK SMILES IDX 57 88 54 89
REMARK H PARENT 20 5 8 16 24 32 74 51 48 62
REMARK Flexibility Score: inf
ROOT
ATOM      1  C   UNL     1       2.375  -8.372  -6.867  1.00  0.00     0.118 C 
ENDROOT
BRANCH   1   2
ATOM      2  N   UNL     1       1.777  -8.961  -5.678  1.00  0.00    -0.352 N 
ATOM      3  C   UNL     1       1.614  -8.587  -4.368  1.00  0.00     0.251 C 
ATOM      4  O   UNL     1       1.037  -9.398  -3.638  1.00  0.00    -0.269 OA
ATOM      5  H   UNL     1       1.394  -9.850  -5.860  1.00  0.00     0.163 HD
BRANCH   3   6
ATOM      6  C   UNL     1       2.119  -7.321  -3.766  1.00  0.00     0.040 A 
ATOM      7  C   UNL     1       3.146  -5.103  -3.902  1.00  0.00    -0.039 A 
ATOM      8  C   UNL     1       3.191  -5.035  -2.509  1.00  0.00     0.004 A 
ATOM      9  C   UNL     1       2.521  -6.209  -4.495  1.00  0.00     0.018 A 
ATOM     10  C   UNL     1       2.686  -6.086  -1.744  1.00  0.00     0.001 A 
ATOM     11  C   UNL     1       2.183  -7.233  -2.368  1.00  0.00     0.014 A 
BRANCH   7  12
ATOM     12  C   UNL     1       3.677  -4.026  -4.832  1.00  0.00     0.074 C 
ATOM     13  N   UNL     1       3.048  -1.844  -5.898  1.00  0.00    -0.331 N 
ATOM     14  C   UNL     1       4.312  -1.251  -5.443  1.00  0.00     0.262 C 
ATOM     15  C   UNL     1       2.614  -2.936  -5.013  1.00  0.00     0.270 C 
ATOM     16  H   UNL     1       3.235  -2.248  -6.815  1.00  0.00     0.348 HD
ATOM     17  C   UNL     1       5.419  -2.305  -5.351  1.00  0.00     0.062 C 
ATOM     18  C   UNL     1       5.023  -3.433  -4.403  1.00  0.00     0.020 C 
BRANCH  13  19
ATOM     19  C   UNL     1       1.980  -0.844  -6.113  1.00  0.00     0.302 C 
BRANCH  19  20
ATOM     20  C   UNL     1       1.410  -0.227  -4.869  1.00  0.00     0.043 A 
ATOM     21  C   UNL     1       0.608   0.679  -2.439  1.00  0.00     0.127 A 
ATOM     22  N   UNL     1       1.559   1.379  -3.086  1.00  0.00    -0.241 NA
ATOM     23  N   UNL     1      -0.018  -0.403  -2.938  1.00  0.00    -0.241 NA
ATOM     24  C   UNL     1       1.930   0.912  -4.294  1.00  0.00     0.124 A 
ATOM     25  C   UNL     1       0.395  -0.824  -4.147  1.00  0.00     0.124 A 
BRANCH  21  26
ATOM     26  C   UNL     1       0.284   1.074  -1.026  1.00  0.00     0.074 C 
ATOM     27  C   UNL     1       0.907   0.107  -0.028  1.00  0.00     0.012 C 
ENDBRANCH  21  26
ENDBRANCH  19  20
ENDBRANCH  13  19
ENDBRANCH   7  12
ENDBRANCH   3   6
ENDBRANCH   1   2
BRANCH   1  28
ATOM     28  C   UNL     1       3.759  -8.918  -7.181  1.00  0.00     0.042 C 
BRANCH  28  29
ATOM     29  C   UNL     1       3.712 -10.301  -7.814  1.00  0.00     0.118 C 
BRANCH  29  30
ATOM     30  N   UNL     1       2.959 -10.308  -9.067  1.00  0.00    -0.352 N 
ATOM     31  C   UNL     1       3.367 -10.448 -10.368  1.00  0.00     0.251 C 
ATOM     32  H   UNL     1       1.988 -10.191  -8.957  1.00  0.00     0.163 HD
ATOM     33  O   UNL     1       2.598 -10.151 -11.276  1.00  0.00    -0.269 OA
BRANCH  31  34
ATOM     34  C   UNL     1       4.715 -10.963 -10.684  1.00  0.00     0.039 A 
ATOM     35  C   UNL     1       5.373 -10.496 -11.827  1.00  0.00     0.014 A 
ATOM     36  C   UNL     1       5.303 -11.956  -9.900  1.00  0.00     0.014 A 
ATOM     37  C   UNL     1       6.635 -10.996 -12.153  1.00  0.00     0.010 A 
ATOM     38  C   UNL     1       6.601 -12.370 -10.160  1.00  0.00     0.010 A 
ATOM     39  C   UNL     1       7.267 -11.921 -11.308  1.00  0.00    -0.014 A 
BRANCH  39  40
ATOM     40  C   UNL     1       8.593 -12.498 -11.633  1.00  0.00     0.031 A 
ATOM     41  C   UNL     1       8.720 -13.983 -11.852  1.00  0.00     0.074 A 
ATOM     42  C   UNL     1       9.682 -11.708 -11.663  1.00  0.00     0.049 A 
ATOM     43  N   UNL     1       9.796 -14.707 -12.028  1.00  0.00    -0.248 NA
ATOM     44  C   UNL     1       7.471 -14.765 -11.831  1.00  0.00     0.031 C 
ATOM     45  C   UNL     1       9.692 -10.264 -11.427  1.00  0.00     0.029 A 
ATOM     46  N   UNL     1      10.998 -12.015 -11.898  1.00  0.00    -0.354 N 
ATOM     47  C   UNL     1       9.355 -16.022 -12.112  1.00  0.00     0.074 A 
ATOM     48  C   UNL     1       7.925 -16.006 -11.902  1.00  0.00     0.031 C 
ATOM     49  C   UNL     1      10.948  -9.805 -11.558  1.00  0.00     0.029 A 
ATOM     50  C   UNL     1      11.834 -10.927 -11.848  1.00  0.00     0.049 A 
ATOM     51  H   UNL     1      11.313 -12.929 -12.085  1.00  0.00     0.167 HD
ATOM     52  C   UNL     1      10.070 -17.141 -12.376  1.00  0.00     0.037 A 
ATOM     53  C   UNL     1      13.167 -10.850 -12.017  1.00  0.00     0.037 A 
ATOM     54  C   UNL     1      11.486 -17.146 -12.625  1.00  0.00     0.049 A 
ATOM     55  C   UNL     1      13.938 -12.106 -12.320  1.00  0.00     0.074 A 
ATOM     56  C   UNL     1      12.306 -18.217 -12.934  1.00  0.00     0.029 A 
ATOM     57  N   UNL     1      12.290 -16.016 -12.608  1.00  0.00    -0.354 N 
ATOM     58  N   UNL     1      13.503 -13.337 -12.436  1.00  0.00    -0.248 NA
ATOM     59  C   UNL     1      15.384 -11.957 -12.528  1.00  0.00     0.031 C 
ATOM     60  C   UNL     1      13.613 -17.738 -13.079  1.00  0.00     0.029 A 
ATOM     61  C   UNL     1      13.597 -16.363 -12.903  1.00  0.00     0.049 A 
ATOM     62  H   UNL     1      11.978 -15.103 -12.415  1.00  0.00     0.167 HD
ATOM     63  C   UNL     1      14.612 -14.102 -12.774  1.00  0.00     0.074 A 
ATOM     64  C   UNL     1      15.737 -13.193 -12.850  1.00  0.00     0.031 C 
ATOM     65  C   UNL     1      14.694 -15.435 -13.004  1.00  0.00     0.037 A 
BRANCH  52  66
ATOM     66  C   UNL     1       9.323 -18.442 -12.427  1.00  0.00     0.057 A 
ATOM     67  C   UNL     1       8.421 -18.734 -13.459  1.00  0.00     0.134 A 
ATOM     68  C   UNL     1       9.519 -19.423 -11.446  1.00  0.00     0.134 A 
ATOM     69  F   UNL     1       8.174 -17.832 -14.421  1.00  0.00    -0.206 F 
ATOM     70  C   UNL     1       7.718 -19.939 -13.498  1.00  0.00     0.040 A 
ATOM     71  C   UNL     1       8.844 -20.644 -11.491  1.00  0.00     0.040 A 
ATOM     72  F   UNL     1      10.371 -19.212 -10.432  1.00  0.00    -0.206 F 
ATOM     73  C   UNL     1       7.934 -20.902 -12.514  1.00  0.00     0.006 A 
ENDBRANCH  52  66
BRANCH  53  74
ATOM     74  C   UNL     1      13.857  -9.537 -11.949  1.00  0.00     0.057 A 
ATOM     75  C   UNL     1      14.404  -8.954 -13.099  1.00  0.00     0.134 A 
ATOM     76  C   UNL     1      14.009  -8.847 -10.742  1.00  0.00     0.134 A 
ATOM     77  F   UNL     1      14.303  -9.576 -14.283  1.00  0.00    -0.206 F 
ATOM     78  C   UNL     1      15.105  -7.748 -13.046  1.00  0.00     0.040 A 
ATOM     79  C   UNL     1      14.685  -7.627 -10.679  1.00  0.00     0.040 A 
ATOM     80  F   UNL     1      13.498  -9.345  -9.607  1.00  0.00    -0.206 F 
ATOM     81  C   UNL     1      15.244  -7.080 -11.832  1.00  0.00     0.006 A 
ENDBRANCH  53  74
BRANCH  65  82
ATOM     82  C   UNL     1      16.027 -15.975 -13.428  1.00  0.00     0.057 A 
ATOM     83  C   UNL     1      17.103 -16.086 -12.539  1.00  0.00     0.134 A 
ATOM     84  C   UNL     1      16.223 -16.416 -14.743  1.00  0.00     0.134 A 
ATOM     85  F   UNL     1      16.982 -15.669 -11.270  1.00  0.00    -0.206 F 
ATOM     86  C   UNL     1      18.338 -16.589 -12.951  1.00  0.00     0.040 A 
ATOM     87  C   UNL     1      17.444 -16.947 -15.159  1.00  0.00     0.040 A 
ATOM     88  F   UNL     1      15.229 -16.347 -15.641  1.00  0.00    -0.206 F 
ATOM     89  C   UNL     1      18.508 -17.027 -14.264  1.00  0.00     0.006 A 
ENDBRANCH  65  82
ENDBRANCH  39  40
ENDBRANCH  31  34
ENDBRANCH  29  30
ENDBRANCH  28  29
ENDBRANCH   1  28
TORSDOF 14
