REMARK SMILES Cc1cc(/C=C2/C(=O)NC(=S)[NH+]=C2NCCCNC(=O)c2ccc(-c3c4nc(c(-c5c(F)cccc5F)c5ccc([nH]5)c(-c5c(F)cccc5F)c5nc(c(-c6c(F)cccc6F)c6ccc3[nH]6)C=C5)C=C4)cc2)c(C)n1-c1cccc(C(=O)[O-])c1
REMARK SMILES IDX 16 1 15 2 14 3 5 4 6 5 7 6 13 7 8 8 9 9 12 10 10 11 11 15
REMARK SMILES IDX 4 16 1 17 2 18 3 19 77 20 75 21 76 22 78 23 79 24 86 25
REMARK SMILES IDX 80 26 82 27 81 28 83 29 84 30 85 31 17 32 18 33 19 34 20 36
REMARK SMILES IDX 21 37 22 38 74 39 23 40 73 41 24 42 25 43 26 44 67 45 27 46
REMARK SMILES IDX 72 47 66 48 68 49 28 50 71 51 65 52 64 53 29 55 55 56 38 57
REMARK SMILES IDX 54 58 39 59 42 60 53 61 69 62 40 63 41 64 52 66 70 67 43 68
REMARK SMILES IDX 30 69 31 70 36 71 32 72 33 73 35 74 37 75 34 76 56 77 57 78
REMARK SMILES IDX 62 79 58 80 59 81 61 82 63 83 60 84 44 85 45 86 50 87 46 88
REMARK SMILES IDX 47 89 49 90 51 91 48 92
REMARK H PARENT 9 12 12 13 14 14 18 35 68 54 42 65
REMARK Flexibility Score: inf
ROOT
ATOM      1  C   UNL     1      -2.537  -1.389   3.824  1.00  0.00     0.059 C 
ENDROOT
BRANCH   1   2
ATOM      2  C   UNL     1      -2.100  -2.746   4.206  1.00  0.00     0.195 C 
BRANCH   2   3
ATOM      3  N   UNL     1      -1.257  -2.621   5.335  1.00  0.00    -0.305 N 
ATOM      4  C   UNL     1       1.040  -3.576   3.370  1.00  0.00     0.032 C 
ATOM      5  C   UNL     1       0.573  -4.141   4.521  1.00  0.00     0.128 C 
ATOM      6  C   UNL     1       0.890  -5.586   4.766  1.00  0.00     0.319 C 
ATOM      7  C   UNL     1      -0.370  -3.608   5.549  1.00  0.00     0.234 C 
ATOM      8  O   UNL     1       1.382  -6.326   3.920  1.00  0.00    -0.250 OA
ATOM      9  N   UNL     1       0.507  -6.070   5.993  1.00  0.00    -0.229 N 
ATOM     10  N   UNL     1      -0.601  -4.144   6.709  1.00  0.00    -0.236 N 
ATOM     11  C   UNL     1      -0.139  -5.385   6.984  1.00  0.00     0.295 C 
ATOM     12  H   UNL     1       0.720  -7.013   6.178  1.00  0.00     0.268 HD
ATOM     13  H   UNL     1      -1.113  -3.648   7.388  1.00  0.00     0.268 HD
ATOM     14  H   UNL     1      -1.318  -1.845   5.937  1.00  0.00     0.256 HD
ATOM     15  S   UNL     1      -0.470  -6.161   8.431  1.00  0.00    -0.005 S 
BRANCH   4  16
ATOM     16  C   UNL     1       0.741  -2.345   2.638  1.00  0.00    -0.003 A 
ATOM     17  C   UNL     1       0.921  -0.155  -0.383  1.00  0.00     0.065 C 
ATOM     18  C   UNL     1       0.593  -0.883   0.870  1.00  0.00     0.020 A 
ATOM     19  C   UNL     1       0.985  -2.168   1.242  1.00  0.00     0.031 A 
ATOM     20  N   UNL     1      -0.181  -0.396   1.927  1.00  0.00    -0.318 N 
ATOM     21  C   UNL     1       0.460  -1.042   3.055  1.00  0.00     0.027 A 
ATOM     22  C   UNL     1       1.004  -0.401   4.295  1.00  0.00     0.065 C 
BRANCH  20  23
ATOM     23  C   UNL     1      -1.178   0.764   1.861  1.00  0.00     0.046 A 
ATOM     24  C   UNL     1      -0.279   2.228   2.252  1.00  0.00     0.026 A 
ATOM     25  C   UNL     1      -2.878   0.551   2.586  1.00  0.00     0.036 A 
ATOM     26  C   UNL     1      -0.871   3.430   3.390  1.00  0.00     0.003 A 
ATOM     27  C   UNL     1      -3.508   1.822   3.922  1.00  0.00    -0.001 A 
ATOM     28  C   UNL     1      -2.410   3.252   4.228  1.00  0.00     0.010 A 
BRANCH  27  29
ATOM     29  C   UNL     1      -4.753   2.298   4.595  1.00  0.00     0.072 C 
ATOM     30  O   UNL     1      -5.016   3.486   4.729  1.00  0.00    -0.545 OA
ATOM     31  O   UNL     1      -5.612   1.389   5.031  1.00  0.00    -0.545 OA
ENDBRANCH  27  29
ENDBRANCH  20  23
ENDBRANCH   4  16
ENDBRANCH   2   3
ENDBRANCH   1   2
BRANCH   1  32
ATOM     32  C   UNL     1      -2.118  -0.031   4.630  1.00  0.00     0.119 C 
BRANCH  32  33
ATOM     33  N   UNL     1      -1.681   1.450   3.674  1.00  0.00    -0.352 N 
ATOM     34  C   UNL     1      -2.696   2.405   2.243  1.00  0.00     0.251 C 
ATOM     35  H   UNL     1      -0.806   1.844   3.895  1.00  0.00     0.163 HD
ATOM     36  O   UNL     1      -2.323   3.330   1.492  1.00  0.00    -0.269 OA
BRANCH  34  37
ATOM     37  C   UNL     1      -4.584   2.000   1.900  1.00  0.00     0.039 A 
ATOM     38  C   UNL     1      -5.558   2.979   1.772  1.00  0.00     0.014 A 
ATOM     39  C   UNL     1      -5.438   0.748   2.265  1.00  0.00     0.014 A 
ATOM     40  C   UNL     1      -7.066   2.713   2.136  1.00  0.00     0.010 A 
ATOM     41  C   UNL     1      -6.915   0.489   2.583  1.00  0.00     0.010 A 
ATOM     42  C   UNL     1      -7.840   1.494   2.600  1.00  0.00    -0.014 A 
BRANCH  42  43
ATOM     43  C   UNL     1      -9.594   1.328   2.768  1.00  0.00     0.031 A 
ATOM     44  C   UNL     1      -9.961   2.412   1.871  1.00  0.00     0.074 A 
ATOM     45  C   UNL     1     -10.821   0.877   3.424  1.00  0.00     0.049 A 
ATOM     46  N   UNL     1      -9.834   3.568   2.422  1.00  0.00    -0.248 NA
ATOM     47  C   UNL     1      -9.902   2.384   0.420  1.00  0.00     0.031 C 
ATOM     48  C   UNL     1     -11.036   0.157   4.715  1.00  0.00     0.029 A 
ATOM     49  N   UNL     1     -12.280   1.069   3.114  1.00  0.00    -0.354 N 
ATOM     50  C   UNL     1      -9.696   4.484   1.417  1.00  0.00     0.074 A 
ATOM     51  C   UNL     1      -9.731   3.695   0.185  1.00  0.00     0.031 C 
ATOM     52  C   UNL     1     -12.357  -0.156   4.976  1.00  0.00     0.029 A 
ATOM     53  C   UNL     1     -13.287   0.334   3.943  1.00  0.00     0.049 A 
ATOM     54  H   UNL     1     -12.566   1.665   2.384  1.00  0.00     0.167 HD
ATOM     55  C   UNL     1     -10.193   5.691   1.773  1.00  0.00     0.037 A 
ATOM     56  C   UNL     1     -14.721   0.230   3.890  1.00  0.00     0.037 A 
ATOM     57  C   UNL     1     -11.622   5.617   1.606  1.00  0.00     0.049 A 
ATOM     58  C   UNL     1     -15.145   1.556   3.449  1.00  0.00     0.074 A 
ATOM     59  C   UNL     1     -12.371   5.003   0.615  1.00  0.00     0.029 A 
ATOM     60  N   UNL     1     -12.405   5.665   2.733  1.00  0.00    -0.354 N 
ATOM     61  N   UNL     1     -15.227   2.527   4.297  1.00  0.00    -0.248 NA
ATOM     62  C   UNL     1     -15.679   1.817   2.121  1.00  0.00     0.031 C 
ATOM     63  C   UNL     1     -13.329   4.257   1.318  1.00  0.00     0.029 A 
ATOM     64  C   UNL     1     -13.461   4.798   2.589  1.00  0.00     0.049 A 
ATOM     65  H   UNL     1     -12.237   6.232   3.520  1.00  0.00     0.167 HD
ATOM     66  C   UNL     1     -15.287   3.620   3.502  1.00  0.00     0.074 A 
ATOM     67  C   UNL     1     -15.817   3.141   2.231  1.00  0.00     0.031 C 
ATOM     68  C   UNL     1     -14.278   4.493   3.727  1.00  0.00     0.037 A 
BRANCH  55  69
ATOM     69  C   UNL     1      -9.459   6.161   3.035  1.00  0.00     0.057 A 
ATOM     70  C   UNL     1      -8.427   7.088   2.874  1.00  0.00     0.134 A 
ATOM     71  C   UNL     1      -9.545   5.549   4.313  1.00  0.00     0.134 A 
ATOM     72  F   UNL     1      -8.268   7.716   1.699  1.00  0.00    -0.206 F 
ATOM     73  C   UNL     1      -7.507   7.364   3.896  1.00  0.00     0.040 A 
ATOM     74  C   UNL     1      -8.596   5.771   5.318  1.00  0.00     0.040 A 
ATOM     75  F   UNL     1     -10.524   4.679   4.609  1.00  0.00    -0.206 F 
ATOM     76  C   UNL     1      -7.569   6.680   5.108  1.00  0.00     0.006 A 
ENDBRANCH  55  69
BRANCH  56  77
ATOM     77  C   UNL     1     -16.156  -0.469   4.333  1.00  0.00     0.057 A 
ATOM     78  C   UNL     1     -17.414   0.274   4.408  1.00  0.00     0.134 A 
ATOM     79  C   UNL     1     -16.417  -1.844   4.214  1.00  0.00     0.134 A 
ATOM     80  F   UNL     1     -17.455   1.599   4.616  1.00  0.00    -0.206 F 
ATOM     81  C   UNL     1     -18.721  -0.258   4.230  1.00  0.00     0.040 A 
ATOM     82  C   UNL     1     -17.743  -2.395   4.075  1.00  0.00     0.040 A 
ATOM     83  F   UNL     1     -15.405  -2.714   4.162  1.00  0.00    -0.206 F 
ATOM     84  C   UNL     1     -18.891  -1.608   4.031  1.00  0.00     0.006 A 
ENDBRANCH  56  77
BRANCH  68  85
ATOM     85  C   UNL     1     -14.028   4.913   5.162  1.00  0.00     0.057 A 
ATOM     86  C   UNL     1     -13.927   4.084   6.304  1.00  0.00     0.134 A 
ATOM     87  C   UNL     1     -13.981   6.290   5.415  1.00  0.00     0.134 A 
ATOM     88  F   UNL     1     -13.823   2.749   6.229  1.00  0.00    -0.206 F 
ATOM     89  C   UNL     1     -13.894   4.606   7.605  1.00  0.00     0.040 A 
ATOM     90  C   UNL     1     -13.885   6.820   6.703  1.00  0.00     0.040 A 
ATOM     91  F   UNL     1     -14.023   7.164   4.398  1.00  0.00    -0.206 F 
ATOM     92  C   UNL     1     -13.877   5.979   7.808  1.00  0.00     0.006 A 
ENDBRANCH  68  85
ENDBRANCH  42  43
ENDBRANCH  34  37
ENDBRANCH  32  33
ENDBRANCH   1  32
TORSDOF 12
