REMARK SMILES COc1ccc(OCC(C)(C)C(=O)NCCCNC(=O)c2ccc(-c3c4nc(c(-c5c(F)cccc5F)c5ccc([nH]5)c(-c5c(F)cccc5F)c5nc(c(-c6c(F)cccc6F)c6ccc3[nH]6)C=C5)C=C4)cc2)c(CC[NH3+])c1
REMARK SMILES IDX 12 1 13 2 14 3 9 5 10 6 11 7 8 8 7 9 6 10 3 11 4 12 79 13
REMARK SMILES IDX 5 14 75 15 2 16 1 17 76 18 77 19 78 20 15 24 16 25 17 26
REMARK SMILES IDX 18 27 19 28 20 30 21 31 22 32 74 33 23 34 73 35 24 36 25 37
REMARK SMILES IDX 26 38 67 39 27 40 72 41 66 42 68 43 28 44 71 45 65 46 64 47
REMARK SMILES IDX 29 49 55 50 38 51 54 52 39 53 42 54 53 55 69 56 40 57 41 58
REMARK SMILES IDX 52 60 70 61 43 62 30 63 31 64 36 65 32 66 33 67 35 68 37 69
REMARK SMILES IDX 34 70 56 71 57 72 62 73 58 74 59 75 61 76 63 77 60 78 44 79
REMARK SMILES IDX 45 80 50 81 46 82 47 83 49 84 51 85 48 86
REMARK H PARENT 14 4 78 21 78 22 78 23 18 29 68 48 42 59
REMARK Flexibility Score: inf
ROOT
ATOM      1  C   UNL     1       2.730   3.831  -5.673  1.00  0.00     0.229 C 
ATOM      2  O   UNL     1       1.862   3.844  -6.547  1.00  0.00    -0.274 OA
ATOM      3  N   UNL     1       2.952   5.009  -5.019  1.00  0.00    -0.355 N 
ATOM      4  H   UNL     1       2.394   5.756  -5.334  1.00  0.00     0.163 HD
ENDROOT
BRANCH   1   5
ATOM      5  C   UNL     1       3.541   2.576  -5.326  1.00  0.00     0.077 C 
ATOM      6  C   UNL     1       3.334   2.280  -3.829  1.00  0.00     0.025 C 
ATOM      7  C   UNL     1       5.025   2.844  -5.680  1.00  0.00     0.025 C 
BRANCH   5   8
ATOM      8  C   UNL     1       3.139   1.391  -6.280  1.00  0.00     0.245 C 
BRANCH   8   9
ATOM      9  O   UNL     1       1.978   0.602  -6.036  1.00  0.00    -0.492 OA
BRANCH   9  10
ATOM     10  C   UNL     1       1.778  -0.075  -4.871  1.00  0.00     0.123 A 
ATOM     11  C   UNL     1       0.964  -0.912  -2.340  1.00  0.00     0.119 A 
ATOM     12  C   UNL     1       0.014  -0.430  -3.224  1.00  0.00     0.050 A 
ATOM     13  C   UNL     1       2.281  -1.111  -2.755  1.00  0.00     0.054 A 
ATOM     14  C   UNL     1       0.425  -0.016  -4.486  1.00  0.00     0.050 A 
ATOM     15  C   UNL     1       2.718  -0.710  -4.038  1.00  0.00     0.003 A 
BRANCH  11  16
ATOM     16  O   UNL     1       0.582  -1.210  -1.061  1.00  0.00    -0.497 OA
ATOM     17  C   UNL     1       1.012  -0.171  -0.175  1.00  0.00     0.278 C 
ENDBRANCH  11  16
BRANCH  15  18
ATOM     18  C   UNL     1       4.179  -0.955  -4.358  1.00  0.00     0.101 C 
BRANCH  18  19
ATOM     19  C   UNL     1       4.478  -2.179  -5.228  1.00  0.00     0.263 C 
BRANCH  19  20
ATOM     20  N   UNL     1       3.956  -2.106  -6.588  1.00  0.00    -0.357 N 
ATOM     21  H   UNL     1       2.938  -2.054  -6.560  1.00  0.00     0.344 HD
ATOM     22  H   UNL     1       4.239  -2.938  -7.106  1.00  0.00     0.344 HD
ATOM     23  H   UNL     1       4.326  -1.276  -7.051  1.00  0.00     0.344 HD
ENDBRANCH  19  20
ENDBRANCH  18  19
ENDBRANCH  15  18
ENDBRANCH   9  10
ENDBRANCH   8   9
ENDBRANCH   5   8
ENDBRANCH   1   5
BRANCH   3  24
ATOM     24  C   UNL     1       3.866   5.361  -3.941  1.00  0.00     0.117 C 
BRANCH  24  25
ATOM     25  C   UNL     1       4.755   6.528  -4.300  1.00  0.00     0.042 C 
BRANCH  25  26
ATOM     26  C   UNL     1       3.970   7.810  -4.455  1.00  0.00     0.118 C 
BRANCH  26  27
ATOM     27  N   UNL     1       3.311   8.205  -3.212  1.00  0.00    -0.352 N 
ATOM     28  C   UNL     1       3.574   9.280  -2.399  1.00  0.00     0.251 C 
ATOM     29  H   UNL     1       2.577   7.620  -2.917  1.00  0.00     0.163 HD
ATOM     30  O   UNL     1       3.098   9.349  -1.272  1.00  0.00    -0.269 OA
BRANCH  28  31
ATOM     31  C   UNL     1       4.459  10.340  -2.910  1.00  0.00     0.039 A 
ATOM     32  C   UNL     1       5.487  10.837  -2.109  1.00  0.00     0.014 A 
ATOM     33  C   UNL     1       4.298  10.781  -4.224  1.00  0.00     0.014 A 
ATOM     34  C   UNL     1       6.407  11.728  -2.661  1.00  0.00     0.010 A 
ATOM     35  C   UNL     1       5.284  11.555  -4.805  1.00  0.00     0.010 A 
ATOM     36  C   UNL     1       6.334  12.059  -4.023  1.00  0.00    -0.014 A 
BRANCH  36  37
ATOM     37  C   UNL     1       7.289  12.987  -4.670  1.00  0.00     0.031 A 
ATOM     38  C   UNL     1       6.754  14.237  -5.315  1.00  0.00     0.074 A 
ATOM     39  C   UNL     1       8.590  12.660  -4.777  1.00  0.00     0.049 A 
ATOM     40  N   UNL     1       7.357  15.085  -6.105  1.00  0.00    -0.248 NA
ATOM     41  C   UNL     1       5.330  14.539  -5.085  1.00  0.00     0.031 C 
ATOM     42  C   UNL     1       9.214  11.450  -4.237  1.00  0.00     0.029 A 
ATOM     43  N   UNL     1       9.621  13.315  -5.400  1.00  0.00    -0.354 N 
ATOM     44  C   UNL     1       6.376  15.987  -6.500  1.00  0.00     0.074 A 
ATOM     45  C   UNL     1       5.129  15.547  -5.917  1.00  0.00     0.031 C 
ATOM     46  C   UNL     1      10.525  11.463  -4.530  1.00  0.00     0.029 A 
ATOM     47  C   UNL     1      10.823  12.656  -5.316  1.00  0.00     0.049 A 
ATOM     48  H   UNL     1       9.510  14.176  -5.864  1.00  0.00     0.167 HD
ATOM     49  C   UNL     1       6.509  17.101  -7.255  1.00  0.00     0.037 A 
ATOM     50  C   UNL     1      12.026  12.981  -5.825  1.00  0.00     0.037 A 
ATOM     51  C   UNL     1       7.765  17.566  -7.771  1.00  0.00     0.049 A 
ATOM     52  C   UNL     1      12.159  14.247  -6.627  1.00  0.00     0.074 A 
ATOM     53  C   UNL     1       8.031  18.719  -8.487  1.00  0.00     0.029 A 
ATOM     54  N   UNL     1       8.973  16.904  -7.607  1.00  0.00    -0.354 N 
ATOM     55  N   UNL     1      11.235  15.118  -6.954  1.00  0.00    -0.248 NA
ATOM     56  C   UNL     1      13.501  14.578  -7.126  1.00  0.00     0.031 C 
ATOM     57  C   UNL     1       9.398  18.742  -8.777  1.00  0.00     0.029 A 
ATOM     58  C   UNL     1       9.988  17.623  -8.210  1.00  0.00     0.049 A 
ATOM     59  H   UNL     1       9.090  16.049  -7.132  1.00  0.00     0.167 HD
ATOM     60  C   UNL     1      11.887  16.117  -7.663  1.00  0.00     0.074 A 
ATOM     61  C   UNL     1      13.286  15.745  -7.718  1.00  0.00     0.031 C 
ATOM     62  C   UNL     1      11.377  17.243  -8.220  1.00  0.00     0.037 A 
BRANCH  49  63
ATOM     63  C   UNL     1       5.268  17.892  -7.543  1.00  0.00     0.057 A 
ATOM     64  C   UNL     1       4.598  18.608  -6.541  1.00  0.00     0.134 A 
ATOM     65  C   UNL     1       4.738  17.946  -8.838  1.00  0.00     0.134 A 
ATOM     66  F   UNL     1       5.042  18.583  -5.275  1.00  0.00    -0.206 F 
ATOM     67  C   UNL     1       3.429  19.322  -6.809  1.00  0.00     0.040 A 
ATOM     68  C   UNL     1       3.587  18.682  -9.125  1.00  0.00     0.040 A 
ATOM     69  F   UNL     1       5.330  17.286  -9.845  1.00  0.00    -0.206 F 
ATOM     70  C   UNL     1       2.924  19.365  -8.107  1.00  0.00     0.006 A 
ENDBRANCH  49  63
BRANCH  50  71
ATOM     71  C   UNL     1      13.205  12.120  -5.561  1.00  0.00     0.057 A 
ATOM     72  C   UNL     1      14.223  12.543  -4.699  1.00  0.00     0.134 A 
ATOM     73  C   UNL     1      13.348  10.862  -6.158  1.00  0.00     0.134 A 
ATOM     74  F   UNL     1      14.149  13.745  -4.108  1.00  0.00    -0.206 F 
ATOM     75  C   UNL     1      15.351  11.758  -4.455  1.00  0.00     0.040 A 
ATOM     76  C   UNL     1      14.460  10.056  -5.906  1.00  0.00     0.040 A 
ATOM     77  F   UNL     1      12.402  10.393  -6.985  1.00  0.00    -0.206 F 
ATOM     78  C   UNL     1      15.469  10.507  -5.058  1.00  0.00     0.006 A 
ENDBRANCH  50  71
BRANCH  62  79
ATOM     79  C   UNL     1      12.339  18.182  -8.880  1.00  0.00     0.057 A 
ATOM     80  C   UNL     1      12.892  17.910 -10.136  1.00  0.00     0.134 A 
ATOM     81  C   UNL     1      12.655  19.407  -8.279  1.00  0.00     0.134 A 
ATOM     82  F   UNL     1      12.635  16.748 -10.756  1.00  0.00    -0.206 F 
ATOM     83  C   UNL     1      13.738  18.822 -10.769  1.00  0.00     0.040 A 
ATOM     84  C   UNL     1      13.479  20.336  -8.912  1.00  0.00     0.040 A 
ATOM     85  F   UNL     1      12.147  19.728  -7.080  1.00  0.00    -0.206 F 
ATOM     86  C   UNL     1      14.025  20.043 -10.160  1.00  0.00     0.006 A 
ENDBRANCH  62  79
ENDBRANCH  36  37
ENDBRANCH  28  31
ENDBRANCH  26  27
ENDBRANCH  25  26
ENDBRANCH  24  25
ENDBRANCH   3  24
TORSDOF 17
