REMARK SMILES Cc1ccc([C@H](CC2CCCC2)C(=O)NCCCNC(=O)c2ccc(-c3c4nc(c(-c5c(F)cccc5F)c5ccc([nH]5)c(-c5c(F)cccc5F)c5nc(c(-c6c(F)cccc6F)c6ccc3[nH]6)C=C5)C=C4)cc2)cc1
REMARK SMILES IDX 17 1 16 2 15 3 13 4 14 5 6 7 5 8 1 9 2 10 3 11 77 12 4 13
REMARK SMILES IDX 76 14 7 15 8 16 9 17 12 18 10 19 11 20 18 21 19 22 20 23
REMARK SMILES IDX 21 25 22 26 23 27 75 28 24 29 74 30 25 31 26 32 27 33 68 34
REMARK SMILES IDX 28 35 73 36 67 37 69 38 29 39 72 40 66 41 65 42 30 44 56 45
REMARK SMILES IDX 39 46 55 47 40 48 43 49 54 50 70 51 41 52 42 53 53 55 71 56
REMARK SMILES IDX 44 57 31 58 32 59 37 60 33 61 34 62 36 63 38 64 35 65 57 66
REMARK SMILES IDX 58 67 63 68 59 69 60 70 62 71 64 72 61 73 45 74 46 75 51 76
REMARK SMILES IDX 47 77 48 78 50 79 52 80 49 81
REMARK H PARENT 15 6 19 24 69 43 43 54
REMARK Flexibility Score: inf
ROOT
ATOM      1  C   UNL     1      -0.954  -3.138   0.608  1.00  0.00     0.042 C 
ENDROOT
BRANCH   1   2
ATOM      2  C   UNL     1      -2.385  -2.848   0.202  1.00  0.00     0.117 C 
BRANCH   2   3
ATOM      3  N   UNL     1      -3.095  -2.025   1.173  1.00  0.00    -0.356 N 
ATOM      4  C   UNL     1      -3.685  -0.799   1.015  1.00  0.00     0.227 C 
ATOM      5  O   UNL     1      -4.367  -0.378   1.954  1.00  0.00    -0.274 OA
ATOM      6  H   UNL     1      -3.160  -2.407   2.078  1.00  0.00     0.163 HD
BRANCH   4   7
ATOM      7  C   UNL     1      -3.486   0.049  -0.250  1.00  0.00     0.109 C 
BRANCH   7   8
ATOM      8  C   UNL     1      -4.069  -0.545  -1.544  1.00  0.00    -0.036 A 
ATOM      9  C   UNL     1      -4.856  -2.445  -5.348  1.00  0.00     0.044 C 
ATOM     10  C   UNL     1      -4.662  -1.754  -4.033  1.00  0.00    -0.051 A 
ATOM     11  C   UNL     1      -4.204  -0.437  -3.979  1.00  0.00     0.004 A 
ATOM     12  C   UNL     1      -4.969  -2.405  -2.837  1.00  0.00     0.004 A 
ATOM     13  C   UNL     1      -3.917   0.160  -2.750  1.00  0.00     0.005 A 
ATOM     14  C   UNL     1      -4.713  -1.790  -1.608  1.00  0.00     0.005 A 
ENDBRANCH   7   8
BRANCH   7  15
ATOM     15  C   UNL     1      -1.986   0.438  -0.412  1.00  0.00     0.022 C 
BRANCH  15  16
ATOM     16  C   UNL     1      -1.492   1.553   0.521  1.00  0.00    -0.010 C 
ATOM     17  C   UNL     1      -1.147   1.119   1.944  1.00  0.00     0.003 C 
ATOM     18  C   UNL     1      -0.149   2.112   0.039  1.00  0.00     0.003 C 
ATOM     19  C   UNL     1      -0.251   2.241   2.467  1.00  0.00     0.000 C 
ATOM     20  C   UNL     1       0.413   2.862   1.239  1.00  0.00     0.000 C 
ENDBRANCH  15  16
ENDBRANCH   7  15
ENDBRANCH   4   7
ENDBRANCH   2   3
ENDBRANCH   1   2
BRANCH   1  21
ATOM     21  C   UNL     1      -0.841  -4.318   1.552  1.00  0.00     0.118 C 
BRANCH  21  22
ATOM     22  N   UNL     1      -0.864  -5.626   0.900  1.00  0.00    -0.352 N 
ATOM     23  C   UNL     1      -0.830  -6.897   1.457  1.00  0.00     0.251 C 
ATOM     24  H   UNL     1      -0.910  -5.601  -0.083  1.00  0.00     0.163 HD
ATOM     25  O   UNL     1      -0.844  -7.879   0.735  1.00  0.00    -0.269 OA
BRANCH  23  26
ATOM     26  C   UNL     1      -0.945  -7.055   2.931  1.00  0.00     0.039 A 
ATOM     27  C   UNL     1      -1.824  -8.033   3.415  1.00  0.00     0.014 A 
ATOM     28  C   UNL     1      -0.441  -6.089   3.791  1.00  0.00     0.014 A 
ATOM     29  C   UNL     1      -2.428  -7.845   4.653  1.00  0.00     0.010 A 
ATOM     30  C   UNL     1      -1.148  -5.812   4.937  1.00  0.00     0.010 A 
ATOM     31  C   UNL     1      -2.191  -6.654   5.329  1.00  0.00    -0.014 A 
BRANCH  31  32
ATOM     32  C   UNL     1      -3.020  -6.150   6.412  1.00  0.00     0.031 A 
ATOM     33  C   UNL     1      -2.460  -6.083   7.775  1.00  0.00     0.074 A 
ATOM     34  C   UNL     1      -4.227  -5.612   6.124  1.00  0.00     0.049 A 
ATOM     35  N   UNL     1      -3.160  -5.865   8.833  1.00  0.00    -0.248 NA
ATOM     36  C   UNL     1      -1.051  -6.340   8.068  1.00  0.00     0.031 C 
ATOM     37  C   UNL     1      -5.045  -4.750   6.975  1.00  0.00     0.029 A 
ATOM     38  N   UNL     1      -5.069  -5.930   5.046  1.00  0.00    -0.354 N 
ATOM     39  C   UNL     1      -2.288  -5.652   9.874  1.00  0.00     0.074 A 
ATOM     40  C   UNL     1      -1.011  -6.092   9.380  1.00  0.00     0.031 C 
ATOM     41  C   UNL     1      -6.324  -4.836   6.578  1.00  0.00     0.029 A 
ATOM     42  C   UNL     1      -6.384  -5.876   5.566  1.00  0.00     0.049 A 
ATOM     43  H   UNL     1      -4.801  -6.145   4.123  1.00  0.00     0.167 HD
ATOM     44  C   UNL     1      -2.750  -4.994  10.973  1.00  0.00     0.037 A 
ATOM     45  C   UNL     1      -7.158  -6.996   5.654  1.00  0.00     0.037 A 
ATOM     46  C   UNL     1      -4.216  -4.967  10.963  1.00  0.00     0.049 A 
ATOM     47  C   UNL     1      -7.583  -7.337   7.064  1.00  0.00     0.074 A 
ATOM     48  C   UNL     1      -5.153  -3.984  10.696  1.00  0.00     0.029 A 
ATOM     49  N   UNL     1      -4.909  -6.177  10.972  1.00  0.00    -0.354 N 
ATOM     50  N   UNL     1      -6.990  -6.883   8.135  1.00  0.00    -0.248 NA
ATOM     51  C   UNL     1      -8.699  -8.222   7.380  1.00  0.00     0.031 C 
ATOM     52  C   UNL     1      -6.398  -4.626  10.446  1.00  0.00     0.029 A 
ATOM     53  C   UNL     1      -6.226  -5.992  10.605  1.00  0.00     0.049 A 
ATOM     54  H   UNL     1      -4.511  -7.046  11.209  1.00  0.00     0.167 HD
ATOM     55  C   UNL     1      -7.592  -7.403   9.252  1.00  0.00     0.074 A 
ATOM     56  C   UNL     1      -8.671  -8.218   8.725  1.00  0.00     0.031 C 
ATOM     57  C   UNL     1      -7.137  -7.128  10.511  1.00  0.00     0.037 A 
BRANCH  44  58
ATOM     58  C   UNL     1      -1.899  -4.191  11.943  1.00  0.00     0.057 A 
ATOM     59  C   UNL     1      -2.518  -3.422  12.952  1.00  0.00     0.134 A 
ATOM     60  C   UNL     1      -0.501  -4.011  11.877  1.00  0.00     0.134 A 
ATOM     61  F   UNL     1      -3.841  -3.476  13.162  1.00  0.00    -0.206 F 
ATOM     62  C   UNL     1      -1.817  -2.535  13.786  1.00  0.00     0.040 A 
ATOM     63  C   UNL     1       0.215  -3.155  12.726  1.00  0.00     0.040 A 
ATOM     64  F   UNL     1       0.267  -4.612  10.966  1.00  0.00    -0.206 F 
ATOM     65  C   UNL     1      -0.443  -2.398  13.677  1.00  0.00     0.006 A 
ENDBRANCH  44  58
BRANCH  45  66
ATOM     66  C   UNL     1      -6.885  -7.977   4.570  1.00  0.00     0.057 A 
ATOM     67  C   UNL     1      -7.173  -7.603   3.245  1.00  0.00     0.134 A 
ATOM     68  C   UNL     1      -6.005  -9.048   4.750  1.00  0.00     0.134 A 
ATOM     69  F   UNL     1      -8.015  -6.586   3.001  1.00  0.00    -0.206 F 
ATOM     70  C   UNL     1      -6.516  -8.178   2.154  1.00  0.00     0.040 A 
ATOM     71  C   UNL     1      -5.353  -9.643   3.662  1.00  0.00     0.040 A 
ATOM     72  F   UNL     1      -5.662  -9.450   5.982  1.00  0.00    -0.206 F 
ATOM     73  C   UNL     1      -5.573  -9.178   2.366  1.00  0.00     0.006 A 
ENDBRANCH  45  66
BRANCH  57  74
ATOM     74  C   UNL     1      -7.544  -7.841  11.784  1.00  0.00     0.057 A 
ATOM     75  C   UNL     1      -8.032  -9.155  11.842  1.00  0.00     0.134 A 
ATOM     76  C   UNL     1      -7.300  -7.247  13.045  1.00  0.00     0.134 A 
ATOM     77  F   UNL     1      -8.201  -9.894  10.738  1.00  0.00    -0.206 F 
ATOM     78  C   UNL     1      -8.314  -9.805  13.053  1.00  0.00     0.040 A 
ATOM     79  C   UNL     1      -7.521  -7.906  14.258  1.00  0.00     0.040 A 
ATOM     80  F   UNL     1      -6.807  -6.005  13.158  1.00  0.00    -0.206 F 
ATOM     81  C   UNL     1      -8.046  -9.187  14.267  1.00  0.00     0.006 A 
ENDBRANCH  57  74
ENDBRANCH  31  32
ENDBRANCH  23  26
ENDBRANCH  21  22
ENDBRANCH   1  21
TORSDOF 13
