REMARK SMILES CC(C)C[C@H](NC(=O)[C@@H](NC(=O)[C@H](C)NC(=O)CNC(=O)OCc1ccccc1)C(C)C)C(=O)NCCCNC(=O)c1ccc(-c2c3nc(c(-c4c(F)cccc4F)c4ccc([nH]4)c(-c4c(F)cccc4F)c4nc(c(-c5c(F)cccc5F)c5ccc2[nH]5)C=C4)C=C3)cc1
REMARK SMILES IDX 6 1 7 2 8 3 5 5 4 6 2 7 1 8 3 9 33 10 34 11 35 12 36 14
REMARK SMILES IDX 37 15 38 16 39 17 40 18 41 20 42 21 43 22 95 23 44 24 94 25
REMARK SMILES IDX 45 26 46 27 47 28 88 29 48 30 93 31 87 32 89 33 49 34 92 35
REMARK SMILES IDX 86 36 85 37 50 39 76 40 59 41 75 42 60 43 63 44 74 45 90 46
REMARK SMILES IDX 61 47 62 48 73 50 91 51 64 52 51 53 52 54 57 55 53 56 54 57
REMARK SMILES IDX 56 58 58 59 55 60 77 61 78 62 83 63 79 64 80 65 82 66 84 67
REMARK SMILES IDX 81 68 65 69 66 70 71 71 67 72 68 73 70 74 72 75 69 76 9 77
REMARK SMILES IDX 10 78 11 79 12 81 13 82 14 83 15 84 16 85 17 87 18 88 19 89
REMARK SMILES IDX 20 90 21 92 22 93 23 94 24 95 25 96 29 97 26 98 28 99 27 100
REMARK SMILES IDX 30 101 31 102 32 103
REMARK H PARENT 6 4 35 13 39 19 89 38 63 49 10 80 15 86 19 91
REMARK Flexibility Score: inf
ROOT
ATOM      1  N   UNL     1       2.322   3.799   0.006  1.00  0.00    -0.343 N 
ATOM      2  C   UNL     1       1.235   3.166  -0.511  1.00  0.00     0.243 C 
ATOM      3  O   UNL     1       1.575   2.451  -1.479  1.00  0.00    -0.273 OA
ATOM      4  H   UNL     1       3.002   3.818  -0.706  1.00  0.00     0.164 HD
ENDROOT
BRANCH   1   5
ATOM      5  C   UNL     1       2.931   4.483   1.203  1.00  0.00     0.171 C 
BRANCH   5   6
ATOM      6  C   UNL     1       2.045   5.338   2.078  1.00  0.00     0.038 C 
BRANCH   6   7
ATOM      7  C   UNL     1       0.811   4.553   2.415  1.00  0.00    -0.015 C 
ATOM      8  C   UNL     1       0.932   3.752   3.717  1.00  0.00     0.007 C 
ATOM      9  C   UNL     1      -0.307   5.453   1.921  1.00  0.00     0.007 C 
ENDBRANCH   6   7
ENDBRANCH   5   6
BRANCH   5  10
ATOM     10  C   UNL     1       3.837   3.689   2.176  1.00  0.00     0.242 C 
ATOM     11  O   UNL     1       4.678   4.280   2.863  1.00  0.00    -0.273 OA
ATOM     12  N   UNL     1       3.617   2.390   2.489  1.00  0.00    -0.354 N 
ATOM     13  H   UNL     1       4.184   2.037   3.212  1.00  0.00     0.163 HD
BRANCH  12  14
ATOM     14  C   UNL     1       2.683   1.443   1.932  1.00  0.00     0.117 C 
BRANCH  14  15
ATOM     15  C   UNL     1       3.368   0.557   0.921  1.00  0.00     0.042 C 
BRANCH  15  16
ATOM     16  C   UNL     1       3.918  -0.662   1.629  1.00  0.00     0.118 C 
BRANCH  16  17
ATOM     17  N   UNL     1       2.853  -1.590   2.018  1.00  0.00    -0.352 N 
ATOM     18  C   UNL     1       2.642  -2.885   1.607  1.00  0.00     0.251 C 
ATOM     19  H   UNL     1       2.197  -1.237   2.663  1.00  0.00     0.163 HD
ATOM     20  O   UNL     1       1.600  -3.472   1.868  1.00  0.00    -0.269 OA
BRANCH  18  21
ATOM     21  C   UNL     1       3.696  -3.531   0.808  1.00  0.00     0.039 A 
ATOM     22  C   UNL     1       3.367  -4.155  -0.394  1.00  0.00     0.014 A 
ATOM     23  C   UNL     1       5.025  -3.370   1.194  1.00  0.00     0.014 A 
ATOM     24  C   UNL     1       4.391  -4.527  -1.263  1.00  0.00     0.010 A 
ATOM     25  C   UNL     1       6.021  -3.583   0.261  1.00  0.00     0.010 A 
ATOM     26  C   UNL     1       5.722  -4.185  -0.970  1.00  0.00    -0.014 A 
BRANCH  26  27
ATOM     27  C   UNL     1       6.838  -4.468  -1.906  1.00  0.00     0.031 A 
ATOM     28  C   UNL     1       8.020  -5.265  -1.417  1.00  0.00     0.074 A 
ATOM     29  C   UNL     1       6.842  -3.933  -3.143  1.00  0.00     0.049 A 
ATOM     30  N   UNL     1       9.163  -5.498  -2.006  1.00  0.00    -0.248 NA
ATOM     31  C   UNL     1       7.929  -5.818  -0.053  1.00  0.00     0.031 C 
ATOM     32  C   UNL     1       5.797  -3.074  -3.707  1.00  0.00     0.029 A 
ATOM     33  N   UNL     1       7.767  -4.029  -4.151  1.00  0.00    -0.354 N 
ATOM     34  C   UNL     1       9.933  -6.176  -1.069  1.00  0.00     0.074 A 
ATOM     35  C   UNL     1       9.165  -6.240   0.152  1.00  0.00     0.031 C 
ATOM     36  C   UNL     1       6.117  -2.764  -4.974  1.00  0.00     0.029 A 
ATOM     37  C   UNL     1       7.407  -3.362  -5.297  1.00  0.00     0.049 A 
ATOM     38  H   UNL     1       8.610  -4.529  -4.062  1.00  0.00     0.167 HD
ATOM     39  C   UNL     1      11.152  -6.740  -1.223  1.00  0.00     0.037 A 
ATOM     40  C   UNL     1       8.049  -3.252  -6.476  1.00  0.00     0.037 A 
ATOM     41  C   UNL     1      11.873  -6.747  -2.465  1.00  0.00     0.049 A 
ATOM     42  C   UNL     1       9.377  -3.936  -6.644  1.00  0.00     0.074 A 
ATOM     43  C   UNL     1      13.071  -7.368  -2.764  1.00  0.00     0.029 A 
ATOM     44  N   UNL     1      11.445  -6.112  -3.622  1.00  0.00    -0.354 N 
ATOM     45  N   UNL     1      10.062  -4.638  -5.774  1.00  0.00    -0.248 NA
ATOM     46  C   UNL     1      10.020  -3.819  -7.961  1.00  0.00     0.031 C 
ATOM     47  C   UNL     1      13.385  -7.083  -4.096  1.00  0.00     0.029 A 
ATOM     48  C   UNL     1      12.362  -6.319  -4.637  1.00  0.00     0.049 A 
ATOM     49  H   UNL     1      10.613  -5.593  -3.708  1.00  0.00     0.167 HD
ATOM     50  C   UNL     1      11.200  -5.069  -6.442  1.00  0.00     0.074 A 
ATOM     51  C   UNL     1      11.106  -4.561  -7.796  1.00  0.00     0.031 C 
ATOM     52  C   UNL     1      12.233  -5.815  -5.980  1.00  0.00     0.037 A 
BRANCH  39  53
ATOM     53  C   UNL     1      11.755  -7.419  -0.028  1.00  0.00     0.057 A 
ATOM     54  C   UNL     1      11.214  -8.597   0.506  1.00  0.00     0.134 A 
ATOM     55  C   UNL     1      12.890  -6.889   0.598  1.00  0.00     0.134 A 
ATOM     56  F   UNL     1      10.116  -9.147  -0.034  1.00  0.00    -0.206 F 
ATOM     57  C   UNL     1      11.756  -9.202   1.641  1.00  0.00     0.040 A 
ATOM     58  C   UNL     1      13.461  -7.504   1.715  1.00  0.00     0.040 A 
ATOM     59  F   UNL     1      13.461  -5.766   0.139  1.00  0.00    -0.206 F 
ATOM     60  C   UNL     1      12.887  -8.658   2.245  1.00  0.00     0.006 A 
ENDBRANCH  39  53
BRANCH  40  61
ATOM     61  C   UNL     1       7.428  -2.506  -7.600  1.00  0.00     0.057 A 
ATOM     62  C   UNL     1       6.942  -3.180  -8.727  1.00  0.00     0.134 A 
ATOM     63  C   UNL     1       7.309  -1.112  -7.583  1.00  0.00     0.134 A 
ATOM     64  F   UNL     1       7.041  -4.515  -8.809  1.00  0.00    -0.206 F 
ATOM     65  C   UNL     1       6.381  -2.495  -9.807  1.00  0.00     0.040 A 
ATOM     66  C   UNL     1       6.728  -0.415  -8.646  1.00  0.00     0.040 A 
ATOM     67  F   UNL     1       7.745  -0.407  -6.529  1.00  0.00    -0.206 F 
ATOM     68  C   UNL     1       6.270  -1.107  -9.765  1.00  0.00     0.006 A 
ENDBRANCH  40  61
BRANCH  52  69
ATOM     69  C   UNL     1      13.320  -6.159  -6.952  1.00  0.00     0.057 A 
ATOM     70  C   UNL     1      14.255  -5.209  -7.379  1.00  0.00     0.134 A 
ATOM     71  C   UNL     1      13.465  -7.471  -7.419  1.00  0.00     0.134 A 
ATOM     72  F   UNL     1      14.161  -3.933  -6.974  1.00  0.00    -0.206 F 
ATOM     73  C   UNL     1      15.288  -5.548  -8.252  1.00  0.00     0.040 A 
ATOM     74  C   UNL     1      14.509  -7.828  -8.272  1.00  0.00     0.040 A 
ATOM     75  F   UNL     1      12.607  -8.430  -7.038  1.00  0.00    -0.206 F 
ATOM     76  C   UNL     1      15.422  -6.864  -8.694  1.00  0.00     0.006 A 
ENDBRANCH  52  69
ENDBRANCH  26  27
ENDBRANCH  18  21
ENDBRANCH  16  17
ENDBRANCH  15  16
ENDBRANCH  14  15
ENDBRANCH  12  14
ENDBRANCH   5  10
ENDBRANCH   1   5
BRANCH   2  77
ATOM     77  C   UNL     1      -0.377   3.185  -0.183  1.00  0.00     0.174 C 
BRANCH  77  78
ATOM     78  N   UNL     1      -1.014   2.452   1.043  1.00  0.00    -0.342 N 
ATOM     79  C   UNL     1      -1.549   2.379   2.289  1.00  0.00     0.242 C 
ATOM     80  H   UNL     1      -1.045   1.516   0.741  1.00  0.00     0.164 HD
ATOM     81  O   UNL     1      -1.649   1.165   2.597  1.00  0.00    -0.273 OA
BRANCH  79  82
ATOM     82  C   UNL     1      -2.276   3.368   3.390  1.00  0.00     0.168 C 
ATOM     83  C   UNL     1      -3.768   3.285   3.033  1.00  0.00     0.041 C 
BRANCH  82  84
ATOM     84  N   UNL     1      -2.061   4.798   3.795  1.00  0.00    -0.343 N 
ATOM     85  C   UNL     1      -1.386   5.515   4.749  1.00  0.00     0.240 C 
ATOM     86  H   UNL     1      -2.553   5.403   3.194  1.00  0.00     0.164 HD
ATOM     87  O   UNL     1      -1.318   6.742   4.570  1.00  0.00    -0.273 OA
BRANCH  85  88
ATOM     88  C   UNL     1      -0.900   4.971   6.099  1.00  0.00     0.219 C 
BRANCH  88  89
ATOM     89  N   UNL     1      -1.945   5.469   6.960  1.00  0.00    -0.312 N 
ATOM     90  C   UNL     1      -3.117   4.804   6.897  1.00  0.00     0.407 C 
ATOM     91  H   UNL     1      -1.812   6.243   7.554  1.00  0.00     0.167 HD
ATOM     92  O   UNL     1      -4.185   5.432   6.742  1.00  0.00    -0.225 OA
BRANCH  90  93
ATOM     93  O   UNL     1      -2.941   3.473   6.881  1.00  0.00    -0.445 OA
BRANCH  93  94
ATOM     94  C   UNL     1      -4.070   2.620   6.667  1.00  0.00     0.270 C 
BRANCH  94  95
ATOM     95  C   UNL     1      -5.085   2.824   7.747  1.00  0.00    -0.011 A 
ATOM     96  C   UNL     1      -6.191   3.647   7.497  1.00  0.00     0.007 A 
ATOM     97  C   UNL     1      -4.829   2.375   9.046  1.00  0.00     0.007 A 
ATOM     98  C   UNL     1      -6.982   4.092   8.548  1.00  0.00     0.000 A 
ATOM     99  C   UNL     1      -5.645   2.794  10.092  1.00  0.00     0.000 A 
ATOM    100  C   UNL     1      -6.705   3.669   9.845  1.00  0.00     0.000 A 
ENDBRANCH  94  95
ENDBRANCH  93  94
ENDBRANCH  90  93
ENDBRANCH  88  89
ENDBRANCH  85  88
ENDBRANCH  82  84
ENDBRANCH  79  82
ENDBRANCH  77  78
BRANCH  77 101
ATOM    101  C   UNL     1      -1.180   4.309  -0.935  1.00  0.00     0.015 C 
ATOM    102  C   UNL     1      -0.394   4.905  -2.122  1.00  0.00     0.010 C 
ATOM    103  C   UNL     1      -2.535   3.819  -1.463  1.00  0.00     0.010 C 
ENDBRANCH  77 101
ENDBRANCH   2  77
TORSDOF 23
