REMARK SMILES CSCC[C@@H](Nc1nc(C)nc2sc3c(c12)CCC3)C(=O)NCCCNC(=O)c1ccc(-c2c3nc(c(-c4c(F)cccc4F)c4ccc([nH]4)c(-c4c(F)cccc4F)c4nc(c(-c5c(F)cccc5F)c5ccc2[nH]5)C=C4)C=C3)cc1
REMARK SMILES IDX 23 1 22 2 20 3 21 4 5 6 4 7 3 8 2 9 1 10 6 11 7 13 8 14
REMARK SMILES IDX 16 15 9 16 12 17 15 18 10 19 11 20 13 21 14 22 17 23 19 24
REMARK SMILES IDX 18 25 24 26 25 27 26 28 27 29 28 31 29 32 30 33 82 34 31 35
REMARK SMILES IDX 81 36 32 37 33 38 34 39 75 40 35 41 80 42 74 43 76 44 36 45
REMARK SMILES IDX 79 46 73 47 72 48 37 50 63 51 46 52 62 53 47 54 50 55 61 56
REMARK SMILES IDX 77 57 48 58 49 59 60 61 78 62 51 63 38 64 39 65 44 66 40 67
REMARK SMILES IDX 41 68 43 69 45 70 42 71 64 72 65 73 70 74 66 75 67 76 69 77
REMARK SMILES IDX 71 78 68 79 52 80 53 81 58 82 54 83 55 84 57 85 59 86 56 87
REMARK H PARENT 22 5 6 12 26 30 76 49 50 60
REMARK Flexibility Score: inf
ROOT
ATOM      1  C   UNL     1       1.394  -1.276   5.898  1.00  0.00     0.117 C 
ENDROOT
BRANCH   1   2
ATOM      2  N   UNL     1       0.487  -2.080   5.102  1.00  0.00    -0.354 N 
ATOM      3  C   UNL     1       0.293  -2.114   3.747  1.00  0.00     0.242 C 
ATOM      4  O   UNL     1      -0.488  -2.973   3.319  1.00  0.00    -0.273 OA
ATOM      5  H   UNL     1      -0.079  -2.700   5.617  1.00  0.00     0.163 HD
BRANCH   3   6
ATOM      6  C   UNL     1       0.900  -1.057   2.788  1.00  0.00     0.171 C 
BRANCH   6   7
ATOM      7  C   UNL     1       0.177   0.284   3.038  1.00  0.00     0.046 C 
BRANCH   7   8
ATOM      8  C   UNL     1       0.554   1.464   2.140  1.00  0.00     0.072 C 
BRANCH   8   9
ATOM      9  S   UNL     1      -0.202   1.444   0.486  1.00  0.00    -0.165 SA
ATOM     10  C   UNL     1       0.969   0.390  -0.404  1.00  0.00     0.085 C 
ENDBRANCH   8   9
ENDBRANCH   7   8
ENDBRANCH   6   7
BRANCH   6  11
ATOM     11  N   UNL     1       2.346  -0.869   2.897  1.00  0.00    -0.358 N 
ATOM     12  H   UNL     1       2.699   0.020   2.662  1.00  0.00     0.162 HD
BRANCH  11  13
ATOM     13  C   UNL     1       3.260  -1.813   3.298  1.00  0.00     0.139 A 
ATOM     14  N   UNL     1       2.979  -3.128   3.262  1.00  0.00    -0.216 NA
ATOM     15  C   UNL     1       4.475  -1.400   3.869  1.00  0.00     0.057 A 
ATOM     16  C   UNL     1       3.868  -4.012   3.764  1.00  0.00     0.129 A 
ATOM     17  C   UNL     1       5.285  -2.402   4.393  1.00  0.00     0.129 A 
ATOM     18  C   UNL     1       5.050  -0.127   4.131  1.00  0.00    -0.021 A 
ATOM     19  C   UNL     1       3.497  -5.463   3.704  1.00  0.00     0.090 C 
ATOM     20  N   UNL     1       5.036  -3.719   4.356  1.00  0.00    -0.222 NA
ATOM     21  S   UNL     1       6.682  -1.781   5.190  1.00  0.00    -0.120 S 
ATOM     22  C   UNL     1       6.203  -0.213   4.860  1.00  0.00     0.011 A 
ATOM     23  C   UNL     1       4.678   1.289   3.884  1.00  0.00     0.038 C 
ATOM     24  C   UNL     1       6.771   1.100   5.244  1.00  0.00     0.047 C 
ATOM     25  C   UNL     1       5.966   2.055   4.309  1.00  0.00     0.010 C 
ENDBRANCH  11  13
ENDBRANCH   6  11
ENDBRANCH   3   6
ENDBRANCH   1   2
BRANCH   1  26
ATOM     26  C   UNL     1       0.734  -0.721   7.160  1.00  0.00     0.042 C 
BRANCH  26  27
ATOM     27  C   UNL     1       0.473  -1.760   8.253  1.00  0.00     0.118 C 
BRANCH  27  28
ATOM     28  N   UNL     1       1.712  -2.316   8.775  1.00  0.00    -0.352 N 
ATOM     29  C   UNL     1       2.141  -2.480  10.062  1.00  0.00     0.251 C 
ATOM     30  H   UNL     1       2.345  -2.624   8.088  1.00  0.00     0.163 HD
ATOM     31  O   UNL     1       3.326  -2.755  10.263  1.00  0.00    -0.269 OA
BRANCH  29  32
ATOM     32  C   UNL     1       1.232  -2.334  11.218  1.00  0.00     0.039 A 
ATOM     33  C   UNL     1       1.739  -1.721  12.369  1.00  0.00     0.014 A 
ATOM     34  C   UNL     1      -0.052  -2.888  11.231  1.00  0.00     0.014 A 
ATOM     35  C   UNL     1       0.953  -1.629  13.515  1.00  0.00     0.010 A 
ATOM     36  C   UNL     1      -0.843  -2.788  12.380  1.00  0.00     0.010 A 
ATOM     37  C   UNL     1      -0.349  -2.153  13.526  1.00  0.00    -0.014 A 
BRANCH  37  38
ATOM     38  C   UNL     1      -1.165  -1.958  14.738  1.00  0.00     0.031 A 
ATOM     39  C   UNL     1      -2.578  -1.527  14.557  1.00  0.00     0.074 A 
ATOM     40  C   UNL     1      -0.886  -2.576  15.902  1.00  0.00     0.049 A 
ATOM     41  N   UNL     1      -3.549  -2.365  14.341  1.00  0.00    -0.248 NA
ATOM     42  C   UNL     1      -2.962  -0.123  14.430  1.00  0.00     0.031 C 
ATOM     43  C   UNL     1      -0.204  -3.870  16.012  1.00  0.00     0.029 A 
ATOM     44  N   UNL     1      -1.342  -2.318  17.171  1.00  0.00    -0.354 N 
ATOM     45  C   UNL     1      -4.654  -1.621  13.983  1.00  0.00     0.074 A 
ATOM     46  C   UNL     1      -4.253  -0.233  14.078  1.00  0.00     0.031 C 
ATOM     47  C   UNL     1      -0.440  -4.374  17.242  1.00  0.00     0.029 A 
ATOM     48  C   UNL     1      -1.124  -3.370  18.048  1.00  0.00     0.049 A 
ATOM     49  H   UNL     1      -1.777  -1.474  17.432  1.00  0.00     0.167 HD
ATOM     50  C   UNL     1      -5.832  -2.180  13.603  1.00  0.00     0.037 A 
ATOM     51  C   UNL     1      -1.843  -3.630  19.172  1.00  0.00     0.037 A 
ATOM     52  C   UNL     1      -5.887  -3.609  13.631  1.00  0.00     0.049 A 
ATOM     53  C   UNL     1      -3.183  -3.995  18.596  1.00  0.00     0.074 A 
ATOM     54  C   UNL     1      -5.587  -4.638  12.764  1.00  0.00     0.029 A 
ATOM     55  N   UNL     1      -6.216  -4.227  14.815  1.00  0.00    -0.354 N 
ATOM     56  N   UNL     1      -3.502  -5.164  18.106  1.00  0.00    -0.248 NA
ATOM     57  C   UNL     1      -4.116  -2.920  18.253  1.00  0.00     0.031 C 
ATOM     58  C   UNL     1      -5.322  -5.773  13.592  1.00  0.00     0.029 A 
ATOM     59  C   UNL     1      -5.421  -5.342  14.913  1.00  0.00     0.049 A 
ATOM     60  H   UNL     1      -6.891  -3.927  15.467  1.00  0.00     0.167 HD
ATOM     61  C   UNL     1      -4.498  -4.907  17.161  1.00  0.00     0.074 A 
ATOM     62  C   UNL     1      -4.875  -3.522  17.347  1.00  0.00     0.031 C 
ATOM     63  C   UNL     1      -4.803  -5.766  16.148  1.00  0.00     0.037 A 
BRANCH  50  64
ATOM     64  C   UNL     1      -7.029  -1.404  13.241  1.00  0.00     0.057 A 
ATOM     65  C   UNL     1      -8.096  -1.322  14.141  1.00  0.00     0.134 A 
ATOM     66  C   UNL     1      -7.209  -0.886  11.957  1.00  0.00     0.134 A 
ATOM     67  F   UNL     1      -7.970  -1.816  15.384  1.00  0.00    -0.206 F 
ATOM     68  C   UNL     1      -9.319  -0.769  13.769  1.00  0.00     0.040 A 
ATOM     69  C   UNL     1      -8.429  -0.329  11.572  1.00  0.00     0.040 A 
ATOM     70  F   UNL     1      -6.221  -0.950  11.052  1.00  0.00    -0.206 F 
ATOM     71  C   UNL     1      -9.491  -0.280  12.476  1.00  0.00     0.006 A 
ENDBRANCH  50  64
BRANCH  51  72
ATOM     72  C   UNL     1      -1.637  -2.634  20.270  1.00  0.00     0.057 A 
ATOM     73  C   UNL     1      -0.314  -2.337  20.660  1.00  0.00     0.134 A 
ATOM     74  C   UNL     1      -2.638  -1.956  20.975  1.00  0.00     0.134 A 
ATOM     75  F   UNL     1       0.719  -3.016  20.133  1.00  0.00    -0.206 F 
ATOM     76  C   UNL     1      -0.004  -1.345  21.593  1.00  0.00     0.040 A 
ATOM     77  C   UNL     1      -2.344  -0.943  21.898  1.00  0.00     0.040 A 
ATOM     78  F   UNL     1      -3.934  -2.241  20.798  1.00  0.00    -0.206 F 
ATOM     79  C   UNL     1      -1.024  -0.620  22.195  1.00  0.00     0.006 A 
ENDBRANCH  51  72
BRANCH  63  80
ATOM     80  C   UNL     1      -4.170  -7.111  16.238  1.00  0.00     0.057 A 
ATOM     81  C   UNL     1      -4.677  -8.075  17.115  1.00  0.00     0.134 A 
ATOM     82  C   UNL     1      -3.070  -7.466  15.447  1.00  0.00     0.134 A 
ATOM     83  F   UNL     1      -5.733  -7.796  17.896  1.00  0.00    -0.206 F 
ATOM     84  C   UNL     1      -4.124  -9.355  17.186  1.00  0.00     0.040 A 
ATOM     85  C   UNL     1      -2.520  -8.747  15.497  1.00  0.00     0.040 A 
ATOM     86  F   UNL     1      -2.523  -6.586  14.593  1.00  0.00    -0.206 F 
ATOM     87  C   UNL     1      -3.048  -9.697  16.368  1.00  0.00     0.006 A 
ENDBRANCH  63  80
ENDBRANCH  37  38
ENDBRANCH  29  32
ENDBRANCH  27  28
ENDBRANCH  26  27
ENDBRANCH   1  26
TORSDOF 15
