REMARK SMILES [NH3+]C[C@@H]1CC[C@H](C(=O)N[C@@H](Cc2ccccc2)C(=O)NCCCNC(=O)c2ccc(-c3c4nc(c(-c5c(F)cccc5F)c5ccc([nH]5)c(-c5c(F)cccc5F)c5nc(c(-c6c(F)cccc6F)c6ccc3[nH]6)C=C5)C=C4)cc2)O1
REMARK SMILES IDX 21 1 20 2 18 3 19 4 10 6 9 7 7 8 8 9 6 11 3 12 4 13 81 14
REMARK SMILES IDX 5 15 2 16 1 17 11 21 12 22 13 23 17 24 14 25 16 26 15 27
REMARK SMILES IDX 22 28 23 29 24 30 25 31 26 33 27 34 28 35 80 36 29 37 79 38
REMARK SMILES IDX 30 39 31 40 32 41 73 42 33 43 78 44 72 45 74 46 34 47 77 48
REMARK SMILES IDX 71 49 70 50 35 52 61 53 44 54 60 55 45 56 48 57 59 58 75 59
REMARK SMILES IDX 46 60 47 61 58 63 76 64 49 65 36 66 37 67 42 68 38 69 39 70
REMARK SMILES IDX 41 71 43 72 40 73 62 74 63 75 68 76 64 77 65 78 67 79 69 80
REMARK SMILES IDX 66 81 50 82 51 83 56 84 52 85 53 86 55 87 57 88 54 89
REMARK H PARENT 20 5 9 10 1 18 1 19 1 20 24 32 74 51 48 62
REMARK Flexibility Score: inf
ROOT
ATOM      1  C   UNL     1      -4.643   1.349  -0.623  1.00  0.00     0.117 C 
ENDROOT
BRANCH   1   2
ATOM      2  N   UNL     1      -3.340   1.307  -0.016  1.00  0.00    -0.354 N 
ATOM      3  C   UNL     1      -2.295   2.102  -0.394  1.00  0.00     0.242 C 
ATOM      4  O   UNL     1      -1.588   2.571   0.504  1.00  0.00    -0.273 OA
ATOM      5  H   UNL     1      -3.193   0.667   0.718  1.00  0.00     0.163 HD
BRANCH   3   6
ATOM      6  C   UNL     1      -2.067   2.515  -1.870  1.00  0.00     0.175 C 
BRANCH   6   7
ATOM      7  N   UNL     1      -2.370   1.530  -2.913  1.00  0.00    -0.342 N 
ATOM      8  C   UNL     1      -1.554   0.913  -3.812  1.00  0.00     0.249 C 
ATOM      9  O   UNL     1      -2.106   0.201  -4.659  1.00  0.00    -0.272 OA
ATOM     10  H   UNL     1      -3.319   1.273  -2.974  1.00  0.00     0.164 HD
BRANCH   8  11
ATOM     11  C   UNL     1      -0.021   1.059  -3.790  1.00  0.00     0.207 C 
ATOM     12  C   UNL     1       1.606   1.352  -2.142  1.00  0.00     0.174 C 
ATOM     13  C   UNL     1       1.386   2.727  -2.751  1.00  0.00     0.041 C 
ATOM     14  O   UNL     1       0.515   0.527  -2.578  1.00  0.00    -0.359 OA
ATOM     15  C   UNL     1       0.542   2.459  -3.982  1.00  0.00     0.045 C 
BRANCH  12  16
ATOM     16  C   UNL     1       1.627   1.339  -0.606  1.00  0.00     0.291 C 
BRANCH  16  17
ATOM     17  N   UNL     1       1.928  -0.002  -0.085  1.00  0.00    -0.355 N 
ATOM     18  H   UNL     1       1.934   0.024   0.935  1.00  0.00     0.344 HD
ATOM     19  H   UNL     1       2.843  -0.300  -0.423  1.00  0.00     0.344 HD
ATOM     20  H   UNL     1       1.216  -0.658  -0.404  1.00  0.00     0.344 HD
ENDBRANCH  16  17
ENDBRANCH  12  16
ENDBRANCH   8  11
ENDBRANCH   6   7
BRANCH   6  21
ATOM     21  C   UNL     1      -2.575   3.935  -2.223  1.00  0.00     0.070 C 
BRANCH  21  22
ATOM     22  C   UNL     1      -4.048   4.230  -2.050  1.00  0.00    -0.045 A 
ATOM     23  C   UNL     1      -4.468   5.102  -1.034  1.00  0.00     0.004 A 
ATOM     24  C   UNL     1      -5.024   3.640  -2.869  1.00  0.00     0.004 A 
ATOM     25  C   UNL     1      -5.826   5.310  -0.789  1.00  0.00     0.000 A 
ATOM     26  C   UNL     1      -6.383   3.807  -2.587  1.00  0.00     0.000 A 
ATOM     27  C   UNL     1      -6.783   4.635  -1.542  1.00  0.00     0.000 A 
ENDBRANCH  21  22
ENDBRANCH   6  21
ENDBRANCH   3   6
ENDBRANCH   1   2
BRANCH   1  28
ATOM     28  C   UNL     1      -5.408   0.051  -0.615  1.00  0.00     0.042 C 
BRANCH  28  29
ATOM     29  C   UNL     1      -6.005  -0.281   0.737  1.00  0.00     0.118 C 
BRANCH  29  30
ATOM     30  N   UNL     1      -6.918   0.750   1.238  1.00  0.00    -0.352 N 
ATOM     31  C   UNL     1      -8.290   0.806   1.303  1.00  0.00     0.251 C 
ATOM     32  H   UNL     1      -6.466   1.549   1.592  1.00  0.00     0.163 HD
ATOM     33  O   UNL     1      -8.845   1.860   1.604  1.00  0.00    -0.269 OA
BRANCH  31  34
ATOM     34  C   UNL     1      -9.101  -0.384   0.981  1.00  0.00     0.039 A 
ATOM     35  C   UNL     1     -10.309  -0.241   0.291  1.00  0.00     0.014 A 
ATOM     36  C   UNL     1      -8.659  -1.652   1.345  1.00  0.00     0.014 A 
ATOM     37  C   UNL     1     -11.008  -1.378  -0.124  1.00  0.00     0.010 A 
ATOM     38  C   UNL     1      -9.259  -2.770   0.796  1.00  0.00     0.010 A 
ATOM     39  C   UNL     1     -10.455  -2.652   0.075  1.00  0.00    -0.014 A 
BRANCH  39  40
ATOM     40  C   UNL     1     -11.105  -3.900  -0.398  1.00  0.00     0.031 A 
ATOM     41  C   UNL     1     -11.396  -4.994   0.597  1.00  0.00     0.074 A 
ATOM     42  C   UNL     1     -11.311  -4.103  -1.714  1.00  0.00     0.049 A 
ATOM     43  N   UNL     1     -11.737  -6.238   0.388  1.00  0.00    -0.248 NA
ATOM     44  C   UNL     1     -11.212  -4.656   2.020  1.00  0.00     0.031 C 
ATOM     45  C   UNL     1     -11.020  -3.146  -2.783  1.00  0.00     0.029 A 
ATOM     46  N   UNL     1     -11.798  -5.201  -2.377  1.00  0.00    -0.354 N 
ATOM     47  C   UNL     1     -11.748  -6.838   1.641  1.00  0.00     0.074 A 
ATOM     48  C   UNL     1     -11.316  -5.843   2.595  1.00  0.00     0.031 C 
ATOM     49  C   UNL     1     -11.363  -3.686  -3.964  1.00  0.00     0.029 A 
ATOM     50  C   UNL     1     -11.849  -5.043  -3.741  1.00  0.00     0.049 A 
ATOM     51  H   UNL     1     -12.084  -6.024  -1.919  1.00  0.00     0.167 HD
ATOM     52  C   UNL     1     -12.116  -8.097   1.974  1.00  0.00     0.037 A 
ATOM     53  C   UNL     1     -12.236  -5.904  -4.701  1.00  0.00     0.037 A 
ATOM     54  C   UNL     1     -12.621  -9.054   1.028  1.00  0.00     0.049 A 
ATOM     55  C   UNL     1     -12.691  -7.281  -4.304  1.00  0.00     0.074 A 
ATOM     56  C   UNL     1     -13.107 -10.326   1.264  1.00  0.00     0.029 A 
ATOM     57  N   UNL     1     -12.722  -8.829  -0.337  1.00  0.00    -0.354 N 
ATOM     58  N   UNL     1     -12.746  -7.821  -3.110  1.00  0.00    -0.248 NA
ATOM     59  C   UNL     1     -13.139  -8.168  -5.386  1.00  0.00     0.031 C 
ATOM     60  C   UNL     1     -13.477 -10.884   0.036  1.00  0.00     0.029 A 
ATOM     61  C   UNL     1     -13.260  -9.942  -0.958  1.00  0.00     0.049 A 
ATOM     62  H   UNL     1     -12.452  -8.001  -0.795  1.00  0.00     0.167 HD
ATOM     63  C   UNL     1     -13.270  -9.094  -3.292  1.00  0.00     0.074 A 
ATOM     64  C   UNL     1     -13.520  -9.244  -4.711  1.00  0.00     0.031 C 
ATOM     65  C   UNL     1     -13.524 -10.053  -2.369  1.00  0.00     0.037 A 
BRANCH  52  66
ATOM     66  C   UNL     1     -12.002  -8.495   3.417  1.00  0.00     0.057 A 
ATOM     67  C   UNL     1     -12.824  -7.941   4.407  1.00  0.00     0.134 A 
ATOM     68  C   UNL     1     -11.062  -9.452   3.822  1.00  0.00     0.134 A 
ATOM     69  F   UNL     1     -13.735  -7.008   4.091  1.00  0.00    -0.206 F 
ATOM     70  C   UNL     1     -12.691  -8.294   5.751  1.00  0.00     0.040 A 
ATOM     71  C   UNL     1     -10.942  -9.837   5.158  1.00  0.00     0.040 A 
ATOM     72  F   UNL     1     -10.245 -10.027   2.927  1.00  0.00    -0.206 F 
ATOM     73  C   UNL     1     -11.752  -9.250   6.129  1.00  0.00     0.006 A 
ENDBRANCH  52  66
BRANCH  53  74
ATOM     74  C   UNL     1     -12.252  -5.477  -6.123  1.00  0.00     0.057 A 
ATOM     75  C   UNL     1     -13.464  -5.265  -6.792  1.00  0.00     0.134 A 
ATOM     76  C   UNL     1     -11.073  -5.273  -6.848  1.00  0.00     0.134 A 
ATOM     77  F   UNL     1     -14.629  -5.460  -6.155  1.00  0.00    -0.206 F 
ATOM     78  C   UNL     1     -13.505  -4.887  -8.135  1.00  0.00     0.040 A 
ATOM     79  C   UNL     1     -11.098  -4.871  -8.185  1.00  0.00     0.040 A 
ATOM     80  F   UNL     1      -9.879  -5.448  -6.263  1.00  0.00    -0.206 F 
ATOM     81  C   UNL     1     -12.317  -4.684  -8.834  1.00  0.00     0.006 A 
ENDBRANCH  53  74
BRANCH  65  82
ATOM     82  C   UNL     1     -14.157 -11.323  -2.852  1.00  0.00     0.057 A 
ATOM     83  C   UNL     1     -13.435 -12.285  -3.567  1.00  0.00     0.134 A 
ATOM     84  C   UNL     1     -15.492 -11.610  -2.539  1.00  0.00     0.134 A 
ATOM     85  F   UNL     1     -12.156 -12.062  -3.907  1.00  0.00    -0.206 F 
ATOM     86  C   UNL     1     -14.024 -13.484  -3.969  1.00  0.00     0.040 A 
ATOM     87  C   UNL     1     -16.084 -12.816  -2.913  1.00  0.00     0.040 A 
ATOM     88  F   UNL     1     -16.233 -10.732  -1.847  1.00  0.00    -0.206 F 
ATOM     89  C   UNL     1     -15.350 -13.755  -3.634  1.00  0.00     0.006 A 
ENDBRANCH  65  82
ENDBRANCH  39  40
ENDBRANCH  31  34
ENDBRANCH  29  30
ENDBRANCH  28  29
ENDBRANCH   1  28
TORSDOF 16
