REMARK SMILES Cc1ccc(NC(=O)C[N@@H+]2CC[C@@H](C(=O)NCCCNC(=O)c3ccc(-c4c5nc(c(-c6c(F)cccc6F)c6ccc([nH]6)c(-c6c(F)cccc6F)c6nc(c(-c7c(F)cccc7F)c7ccc4[nH]7)C=C6)C=C5)cc3)[C@@H]2C)cc1
REMARK SMILES IDX 17 1 16 2 14 3 15 4 13 6 10 7 11 8 77 9 12 11 78 12 9 13
REMARK SMILES IDX 7 14 6 15 8 17 5 18 1 19 2 20 3 21 80 22 4 23 79 24 18 25
REMARK SMILES IDX 19 26 20 27 21 28 22 30 23 31 24 32 76 33 25 34 75 35 26 36
REMARK SMILES IDX 27 37 28 38 69 39 29 40 74 41 68 42 70 43 30 44 73 45 67 46
REMARK SMILES IDX 66 47 31 49 57 50 40 51 56 52 41 53 44 54 55 55 71 56 42 57
REMARK SMILES IDX 43 58 54 60 72 61 45 62 32 63 33 64 38 65 34 66 35 67 37 68
REMARK SMILES IDX 39 69 36 70 58 71 59 72 64 73 60 74 61 75 63 76 65 77 62 78
REMARK SMILES IDX 46 79 47 80 52 81 48 82 49 83 51 84 53 85 50 86
REMARK H PARENT 16 5 10 10 6 16 20 29 70 48 44 59
REMARK Flexibility Score: inf
ROOT
ATOM      1  C   UNL     1      -1.132  -1.879   1.606  1.00  0.00     0.117 C 
ENDROOT
BRANCH   1   2
ATOM      2  N   UNL     1       0.126  -2.482   1.154  1.00  0.00    -0.356 N 
ATOM      3  C   UNL     1       0.604  -2.810  -0.086  1.00  0.00     0.229 C 
ATOM      4  O   UNL     1       1.835  -2.736  -0.215  1.00  0.00    -0.275 OA
ATOM      5  H   UNL     1       0.750  -2.691   1.887  1.00  0.00     0.163 HD
BRANCH   3   6
ATOM      6  C   UNL     1      -0.220  -3.342  -1.278  1.00  0.00     0.142 C 
ATOM      7  N   UNL     1      -2.229  -2.341  -1.447  1.00  0.00    -0.324 N 
ATOM      8  C   UNL     1      -1.714  -2.046  -2.766  1.00  0.00     0.263 C 
ATOM      9  C   UNL     1      -1.689  -3.633  -1.024  1.00  0.00     0.194 C 
ATOM     10  H   UNL     1      -1.877  -1.619  -0.819  1.00  0.00     0.348 HD
ATOM     11  C   UNL     1      -0.241  -2.469  -2.569  1.00  0.00     0.081 C 
ATOM     12  C   UNL     1      -2.106  -4.871  -1.834  1.00  0.00     0.076 C 
BRANCH   7  13
ATOM     13  C   UNL     1      -3.559  -1.945  -1.057  1.00  0.00     0.364 C 
BRANCH  13  14
ATOM     14  C   UNL     1      -3.890  -0.431  -0.896  1.00  0.00     0.279 C 
ATOM     15  N   UNL     1      -3.152   0.637  -0.466  1.00  0.00    -0.321 N 
ATOM     16  H   UNL     1      -3.753   1.374  -0.210  1.00  0.00     0.170 HD
ATOM     17  O   UNL     1      -5.099  -0.143  -1.028  1.00  0.00    -0.268 OA
BRANCH  15  18
ATOM     18  C   UNL     1      -1.809   1.028  -0.268  1.00  0.00     0.041 A 
ATOM     19  C   UNL     1       2.327   2.265   0.337  1.00  0.00     0.044 C 
ATOM     20  C   UNL     1       0.892   1.901   0.113  1.00  0.00    -0.051 A 
ATOM     21  C   UNL     1       0.608   0.680  -0.468  1.00  0.00     0.005 A 
ATOM     22  C   UNL     1      -0.186   2.698   0.510  1.00  0.00     0.005 A 
ATOM     23  C   UNL     1      -0.717   0.288  -0.651  1.00  0.00     0.026 A 
ATOM     24  C   UNL     1      -1.521   2.269   0.313  1.00  0.00     0.026 A 
ENDBRANCH  15  18
ENDBRANCH  13  14
ENDBRANCH   7  13
ENDBRANCH   3   6
ENDBRANCH   1   2
BRANCH   1  25
ATOM     25  C   UNL     1      -2.045  -2.782   2.421  1.00  0.00     0.042 C 
BRANCH  25  26
ATOM     26  C   UNL     1      -2.172  -2.363   3.878  1.00  0.00     0.118 C 
BRANCH  26  27
ATOM     27  N   UNL     1      -3.233  -1.400   4.190  1.00  0.00    -0.352 N 
ATOM     28  C   UNL     1      -3.626  -0.879   5.429  1.00  0.00     0.251 C 
ATOM     29  H   UNL     1      -3.744  -1.071   3.416  1.00  0.00     0.163 HD
ATOM     30  O   UNL     1      -4.524  -0.072   5.503  1.00  0.00    -0.269 OA
BRANCH  28  31
ATOM     31  C   UNL     1      -2.813  -1.203   6.639  1.00  0.00     0.039 A 
ATOM     32  C   UNL     1      -2.364  -0.129   7.415  1.00  0.00     0.014 A 
ATOM     33  C   UNL     1      -2.192  -2.435   6.739  1.00  0.00     0.014 A 
ATOM     34  C   UNL     1      -1.094  -0.196   7.979  1.00  0.00     0.010 A 
ATOM     35  C   UNL     1      -0.867  -2.437   7.107  1.00  0.00     0.010 A 
ATOM     36  C   UNL     1      -0.294  -1.292   7.670  1.00  0.00    -0.014 A 
BRANCH  36  37
ATOM     37  C   UNL     1       1.160  -1.289   7.788  1.00  0.00     0.031 A 
ATOM     38  C   UNL     1       1.821  -2.216   8.732  1.00  0.00     0.074 A 
ATOM     39  C   UNL     1       1.905  -0.517   6.962  1.00  0.00     0.049 A 
ATOM     40  N   UNL     1       2.992  -2.026   9.239  1.00  0.00    -0.248 NA
ATOM     41  C   UNL     1       1.183  -3.432   9.218  1.00  0.00     0.031 C 
ATOM     42  C   UNL     1       3.347  -0.599   6.739  1.00  0.00     0.029 A 
ATOM     43  N   UNL     1       1.515   0.641   6.274  1.00  0.00    -0.354 N 
ATOM     44  C   UNL     1       3.369  -3.188   9.878  1.00  0.00     0.074 A 
ATOM     45  C   UNL     1       2.185  -4.010   9.882  1.00  0.00     0.031 C 
ATOM     46  C   UNL     1       3.776   0.562   6.221  1.00  0.00     0.029 A 
ATOM     47  C   UNL     1       2.650   1.480   6.220  1.00  0.00     0.049 A 
ATOM     48  H   UNL     1       0.624   0.832   5.902  1.00  0.00     0.167 HD
ATOM     49  C   UNL     1       4.679  -3.369  10.213  1.00  0.00     0.037 A 
ATOM     50  C   UNL     1       2.653   2.711   6.808  1.00  0.00     0.037 A 
ATOM     51  C   UNL     1       5.468  -2.185   9.873  1.00  0.00     0.049 A 
ATOM     52  C   UNL     1       3.663   2.850   7.924  1.00  0.00     0.074 A 
ATOM     53  C   UNL     1       6.258  -1.880   8.777  1.00  0.00     0.029 A 
ATOM     54  N   UNL     1       5.251  -0.988  10.549  1.00  0.00    -0.354 N 
ATOM     55  N   UNL     1       4.244   1.838   8.506  1.00  0.00    -0.248 NA
ATOM     56  C   UNL     1       4.075   4.131   8.495  1.00  0.00     0.031 C 
ATOM     57  C   UNL     1       6.465  -0.479   8.761  1.00  0.00     0.029 A 
ATOM     58  C   UNL     1       5.820   0.065   9.859  1.00  0.00     0.049 A 
ATOM     59  H   UNL     1       4.761  -0.904  11.399  1.00  0.00     0.167 HD
ATOM     60  C   UNL     1       5.040   2.290   9.526  1.00  0.00     0.074 A 
ATOM     61  C   UNL     1       4.921   3.734   9.463  1.00  0.00     0.031 C 
ATOM     62  C   UNL     1       5.714   1.432  10.347  1.00  0.00     0.037 A 
BRANCH  49  63
ATOM     63  C   UNL     1       5.295  -4.716  10.544  1.00  0.00     0.057 A 
ATOM     64  C   UNL     1       6.662  -4.959  10.300  1.00  0.00     0.134 A 
ATOM     65  C   UNL     1       4.601  -5.833  11.039  1.00  0.00     0.134 A 
ATOM     66  F   UNL     1       7.504  -3.975   9.957  1.00  0.00    -0.206 F 
ATOM     67  C   UNL     1       7.246  -6.229  10.399  1.00  0.00     0.040 A 
ATOM     68  C   UNL     1       5.155  -7.122  11.091  1.00  0.00     0.040 A 
ATOM     69  F   UNL     1       3.377  -5.727  11.566  1.00  0.00    -0.206 F 
ATOM     70  C   UNL     1       6.481  -7.328  10.752  1.00  0.00     0.006 A 
ENDBRANCH  49  63
BRANCH  50  71
ATOM     71  C   UNL     1       1.328   3.380   6.763  1.00  0.00     0.057 A 
ATOM     72  C   UNL     1       0.838   3.801   5.515  1.00  0.00     0.134 A 
ATOM     73  C   UNL     1       0.400   3.236   7.798  1.00  0.00     0.134 A 
ATOM     74  F   UNL     1       1.679   3.967   4.482  1.00  0.00    -0.206 F 
ATOM     75  C   UNL     1      -0.530   3.947   5.271  1.00  0.00     0.040 A 
ATOM     76  C   UNL     1      -0.973   3.386   7.566  1.00  0.00     0.040 A 
ATOM     77  F   UNL     1       0.789   2.817   9.010  1.00  0.00    -0.206 F 
ATOM     78  C   UNL     1      -1.443   3.700   6.291  1.00  0.00     0.006 A 
ENDBRANCH  50  71
BRANCH  62  79
ATOM     79  C   UNL     1       6.408   1.808  11.632  1.00  0.00     0.057 A 
ATOM     80  C   UNL     1       6.002   2.858  12.468  1.00  0.00     0.134 A 
ATOM     81  C   UNL     1       7.444   0.997  12.148  1.00  0.00     0.134 A 
ATOM     82  F   UNL     1       4.961   3.642  12.154  1.00  0.00    -0.206 F 
ATOM     83  C   UNL     1       6.616   3.118  13.700  1.00  0.00     0.040 A 
ATOM     84  C   UNL     1       8.027   1.214  13.399  1.00  0.00     0.040 A 
ATOM     85  F   UNL     1       7.917  -0.058  11.468  1.00  0.00    -0.206 F 
ATOM     86  C   UNL     1       7.624   2.288  14.176  1.00  0.00     0.006 A 
ENDBRANCH  62  79
ENDBRANCH  36  37
ENDBRANCH  28  31
ENDBRANCH  26  27
ENDBRANCH  25  26
ENDBRANCH   1  25
TORSDOF 13
