REMARK SMILES Cc1ccc(C(C)C)c(OCC(=O)Nc2nc(CC(=O)NCCCNC(=O)c3ccc(-c4c5nc(c(-c6c(F)cccc6F)c6ccc([nH]6)c(-c6c(F)cccc6F)c6nc(c(-c7c(F)cccc7F)c7ccc4[nH]7)C=C6)C=C5)cc3)cs2)c1
REMARK SMILES IDX 19 1 20 2 21 3 18 5 17 6 15 7 16 8 83 9 82 10 14 11 12 12
REMARK SMILES IDX 13 13 11 15 10 16 9 17 1 18 2 19 3 20 84 21 4 22 5 23 6 24
REMARK SMILES IDX 7 25 8 26 22 27 23 28 24 29 25 30 26 31 27 33 28 34 29 35
REMARK SMILES IDX 81 36 30 37 80 38 31 39 32 40 33 41 74 42 34 43 79 44 73 45
REMARK SMILES IDX 75 46 35 47 78 48 72 49 71 50 36 52 62 53 45 54 61 55 46 56
REMARK SMILES IDX 49 57 60 58 76 59 47 60 48 61 59 63 77 64 50 65 37 66 38 67
REMARK SMILES IDX 43 68 39 69 40 70 42 71 44 72 41 73 63 74 64 75 69 76 65 77
REMARK SMILES IDX 66 78 68 79 70 80 67 81 51 82 52 83 57 84 53 85 54 86 56 87
REMARK SMILES IDX 58 88 55 89
REMARK H PARENT 21 4 14 14 25 32 75 51 49 62
REMARK Flexibility Score: inf
ROOT
ATOM      1  C   UNL     1      -6.208   1.454   3.038  1.00  0.00     0.226 C 
ATOM      2  O   UNL     1      -7.354   1.576   3.474  1.00  0.00    -0.275 OA
ATOM      3  N   UNL     1      -5.409   0.476   3.569  1.00  0.00    -0.356 N 
ATOM      4  H   UNL     1      -5.789  -0.024   4.327  1.00  0.00     0.163 HD
ENDROOT
BRANCH   1   5
ATOM      5  C   UNL     1      -5.681   2.373   1.946  1.00  0.00     0.157 C 
BRANCH   5   6
ATOM      6  C   UNL     1      -4.621   3.280   2.475  1.00  0.00     0.063 A 
ATOM      7  C   UNL     1      -2.545   4.006   2.538  1.00  0.00     0.189 A 
ATOM      8  N   UNL     1      -3.391   3.308   1.833  1.00  0.00    -0.224 NA
ATOM      9  S   UNL     1      -3.159   4.759   3.940  1.00  0.00    -0.105 S 
ATOM     10  C   UNL     1      -4.699   4.083   3.600  1.00  0.00     0.093 A 
BRANCH   7  11
ATOM     11  N   UNL     1      -1.213   4.187   2.342  1.00  0.00    -0.299 N 
ATOM     12  C   UNL     1      -0.499   3.825   1.243  1.00  0.00     0.264 C 
ATOM     13  O   UNL     1       0.729   3.976   1.289  1.00  0.00    -0.271 OA
ATOM     14  H   UNL     1      -0.714   4.624   3.070  1.00  0.00     0.172 HD
BRANCH  12  15
ATOM     15  C   UNL     1      -1.184   3.358  -0.056  1.00  0.00     0.329 C 
BRANCH  15  16
ATOM     16  O   UNL     1      -1.748   2.062  -0.125  1.00  0.00    -0.483 OA
BRANCH  16  17
ATOM     17  C   UNL     1      -0.937   0.966  -0.225  1.00  0.00     0.123 A 
ATOM     18  C   UNL     1       2.720  -0.106  -0.049  1.00  0.00     0.044 C 
ATOM     19  C   UNL     1       1.227  -0.160  -0.177  1.00  0.00    -0.047 A 
ATOM     20  C   UNL     1       0.584  -1.390  -0.307  1.00  0.00     0.004 A 
ATOM     21  C   UNL     1       0.461   1.012  -0.151  1.00  0.00     0.050 A 
ATOM     22  C   UNL     1      -0.803  -1.447  -0.429  1.00  0.00     0.008 A 
ATOM     23  C   UNL     1      -1.585  -0.279  -0.384  1.00  0.00    -0.003 A 
BRANCH  23  24
ATOM     24  C   UNL     1      -3.101  -0.381  -0.528  1.00  0.00     0.017 C 
ATOM     25  C   UNL     1      -3.512  -0.544  -1.992  1.00  0.00     0.012 C 
ATOM     26  C   UNL     1      -3.695  -1.528   0.300  1.00  0.00     0.012 C 
ENDBRANCH  23  24
ENDBRANCH  16  17
ENDBRANCH  15  16
ENDBRANCH  12  15
ENDBRANCH   7  11
ENDBRANCH   5   6
ENDBRANCH   1   5
BRANCH   3  27
ATOM     27  C   UNL     1      -4.071   0.081   3.157  1.00  0.00     0.117 C 
BRANCH  27  28
ATOM     28  C   UNL     1      -2.958   0.609   4.050  1.00  0.00     0.042 C 
BRANCH  28  29
ATOM     29  C   UNL     1      -2.715  -0.250   5.279  1.00  0.00     0.118 C 
BRANCH  29  30
ATOM     30  N   UNL     1      -1.775  -1.354   5.102  1.00  0.00    -0.352 N 
ATOM     31  C   UNL     1      -1.423  -2.366   5.988  1.00  0.00     0.251 C 
ATOM     32  H   UNL     1      -1.325  -1.387   4.227  1.00  0.00     0.163 HD
ATOM     33  O   UNL     1      -0.577  -3.188   5.675  1.00  0.00    -0.269 OA
BRANCH  31  34
ATOM     34  C   UNL     1      -2.187  -2.537   7.255  1.00  0.00     0.039 A 
ATOM     35  C   UNL     1      -2.576  -3.832   7.622  1.00  0.00     0.014 A 
ATOM     36  C   UNL     1      -2.735  -1.442   7.907  1.00  0.00     0.014 A 
ATOM     37  C   UNL     1      -3.716  -4.004   8.405  1.00  0.00     0.010 A 
ATOM     38  C   UNL     1      -3.947  -1.602   8.539  1.00  0.00     0.010 A 
ATOM     39  C   UNL     1      -4.472  -2.882   8.735  1.00  0.00    -0.014 A 
BRANCH  39  40
ATOM     40  C   UNL     1      -5.871  -2.936   9.144  1.00  0.00     0.031 A 
ATOM     41  C   UNL     1      -6.285  -2.466  10.483  1.00  0.00     0.074 A 
ATOM     42  C   UNL     1      -6.810  -3.260   8.226  1.00  0.00     0.049 A 
ATOM     43  N   UNL     1      -7.388  -2.804  11.060  1.00  0.00    -0.248 NA
ATOM     44  C   UNL     1      -5.462  -1.586  11.303  1.00  0.00     0.031 C 
ATOM     45  C   UNL     1      -8.247  -3.019   8.310  1.00  0.00     0.029 A 
ATOM     46  N   UNL     1      -6.657  -4.045   7.074  1.00  0.00    -0.354 N 
ATOM     47  C   UNL     1      -7.561  -1.984  12.154  1.00  0.00     0.074 A 
ATOM     48  C   UNL     1      -6.302  -1.294  12.299  1.00  0.00     0.031 C 
ATOM     49  C   UNL     1      -8.878  -3.831   7.448  1.00  0.00     0.029 A 
ATOM     50  C   UNL     1      -7.880  -4.727   6.892  1.00  0.00     0.049 A 
ATOM     51  H   UNL     1      -5.856  -4.109   6.506  1.00  0.00     0.167 HD
ATOM     52  C   UNL     1      -8.799  -1.881  12.720  1.00  0.00     0.037 A 
ATOM     53  C   UNL     1      -7.951  -6.089   6.937  1.00  0.00     0.037 A 
ATOM     54  C   UNL     1      -9.755  -2.759  12.044  1.00  0.00     0.049 A 
ATOM     55  C   UNL     1      -8.852  -6.617   8.027  1.00  0.00     0.074 A 
ATOM     56  C   UNL     1     -10.709  -2.515  11.068  1.00  0.00     0.029 A 
ATOM     57  N   UNL     1      -9.613  -4.139  12.122  1.00  0.00    -0.354 N 
ATOM     58  N   UNL     1      -9.217  -5.919   9.066  1.00  0.00    -0.248 NA
ATOM     59  C   UNL     1      -9.395  -7.973   8.050  1.00  0.00     0.031 C 
ATOM     60  C   UNL     1     -11.119  -3.759  10.534  1.00  0.00     0.029 A 
ATOM     61  C   UNL     1     -10.426  -4.760  11.193  1.00  0.00     0.049 A 
ATOM     62  H   UNL     1      -9.018  -4.608  12.750  1.00  0.00     0.167 HD
ATOM     63  C   UNL     1      -9.990  -6.693   9.893  1.00  0.00     0.074 A 
ATOM     64  C   UNL     1     -10.088  -7.965   9.203  1.00  0.00     0.031 C 
ATOM     65  C   UNL     1     -10.470  -6.210  11.077  1.00  0.00     0.037 A 
BRANCH  52  66
ATOM     66  C   UNL     1      -9.228  -0.772  13.663  1.00  0.00     0.057 A 
ATOM     67  C   UNL     1     -10.583  -0.390  13.758  1.00  0.00     0.134 A 
ATOM     68  C   UNL     1      -8.367  -0.001  14.463  1.00  0.00     0.134 A 
ATOM     69  F   UNL     1     -11.561  -1.100  13.179  1.00  0.00    -0.206 F 
ATOM     70  C   UNL     1     -11.017   0.741  14.463  1.00  0.00     0.040 A 
ATOM     71  C   UNL     1      -8.776   1.162  15.134  1.00  0.00     0.040 A 
ATOM     72  F   UNL     1      -7.103  -0.371  14.696  1.00  0.00    -0.206 F 
ATOM     73  C   UNL     1     -10.105   1.550  15.119  1.00  0.00     0.006 A 
ENDBRANCH  52  66
BRANCH  53  74
ATOM     74  C   UNL     1      -6.717  -6.756   6.452  1.00  0.00     0.057 A 
ATOM     75  C   UNL     1      -6.398  -6.659   5.087  1.00  0.00     0.134 A 
ATOM     76  C   UNL     1      -5.685  -7.107   7.327  1.00  0.00     0.134 A 
ATOM     77  F   UNL     1      -7.345  -6.325   4.197  1.00  0.00    -0.206 F 
ATOM     78  C   UNL     1      -5.085  -6.788   4.626  1.00  0.00     0.040 A 
ATOM     79  C   UNL     1      -4.367  -7.247   6.875  1.00  0.00     0.040 A 
ATOM     80  F   UNL     1      -5.907  -7.193   8.646  1.00  0.00    -0.206 F 
ATOM     81  C   UNL     1      -4.059  -7.047   5.529  1.00  0.00     0.006 A 
ENDBRANCH  53  74
BRANCH  65  82
ATOM     82  C   UNL     1     -11.112  -7.009  12.189  1.00  0.00     0.057 A 
ATOM     83  C   UNL     1     -10.893  -8.376  12.416  1.00  0.00     0.134 A 
ATOM     84  C   UNL     1     -11.882  -6.360  13.185  1.00  0.00     0.134 A 
ATOM     85  F   UNL     1     -10.094  -9.102  11.623  1.00  0.00    -0.206 F 
ATOM     86  C   UNL     1     -11.441  -9.056  13.514  1.00  0.00     0.040 A 
ATOM     87  C   UNL     1     -12.386  -7.016  14.312  1.00  0.00     0.040 A 
ATOM     88  F   UNL     1     -12.158  -5.049  13.124  1.00  0.00    -0.206 F 
ATOM     89  C   UNL     1     -12.179  -8.375  14.473  1.00  0.00     0.006 A 
ENDBRANCH  65  82
ENDBRANCH  39  40
ENDBRANCH  31  34
ENDBRANCH  29  30
ENDBRANCH  28  29
ENDBRANCH  27  28
ENDBRANCH   3  27
TORSDOF 16
