REMARK SMILES O=C(NCCCNC(=O)[C@@H]1CCCC[C@H]1C(=O)Nc1ccc(NC(=O)c2ccco2)cc1)c1ccc(-c2c3nc(c(-c4c(F)cccc4F)c4ccc([nH]4)c(-c4c(F)cccc4F)c4nc(c(-c5c(F)cccc5F)c5ccc2[nH]5)C=C4)C=C3)cc1
REMARK SMILES IDX 6 1 5 2 4 3 3 4 1 5 2 6 33 8 34 9 86 10 35 11 85 12 36 13
REMARK SMILES IDX 37 14 38 15 79 16 39 17 84 18 78 19 80 20 40 21 83 22 77 23
REMARK SMILES IDX 76 24 41 26 67 27 50 28 66 29 51 30 54 31 65 32 81 33 52 34
REMARK SMILES IDX 53 35 64 37 82 38 55 39 42 40 43 41 48 42 44 43 45 44 47 45
REMARK SMILES IDX 49 46 46 47 68 48 69 49 74 50 70 51 71 52 73 53 75 54 72 55
REMARK SMILES IDX 56 56 57 57 62 58 58 59 59 60 61 61 63 62 60 63 7 64 8 65
REMARK SMILES IDX 9 67 10 68 11 69 15 70 12 71 14 72 13 73 16 74 17 75 18 76
REMARK SMILES IDX 19 78 20 79 32 80 21 81 31 82 22 83 23 84 24 85 25 87 26 88
REMARK SMILES IDX 27 89 30 90 28 91 29 92
REMARK H PARENT 3 7 80 25 54 36 7 66 18 77 23 86
REMARK Flexibility Score: inf
ROOT
ATOM      1  C   UNL     1       3.759  -1.627   3.232  1.00  0.00     0.117 C 
ENDROOT
BRANCH   1   2
ATOM      2  C   UNL     1       4.302  -0.571   2.277  1.00  0.00     0.042 C 
BRANCH   2   3
ATOM      3  C   UNL     1       4.242  -0.995   0.818  1.00  0.00     0.118 C 
BRANCH   3   4
ATOM      4  N   UNL     1       2.866  -1.059   0.354  1.00  0.00    -0.352 N 
ATOM      5  O   UNL     1       0.955  -0.175  -0.434  1.00  0.00    -0.269 OA
ATOM      6  C   UNL     1       2.180  -0.167  -0.428  1.00  0.00     0.251 C 
ATOM      7  H   UNL     1       2.357  -1.852   0.640  1.00  0.00     0.163 HD
BRANCH   6   8
ATOM      8  C   UNL     1       2.919   0.793  -1.276  1.00  0.00     0.039 A 
ATOM      9  C   UNL     1       4.054   0.390  -1.988  1.00  0.00     0.014 A 
ATOM     10  C   UNL     1       2.417   2.088  -1.425  1.00  0.00     0.014 A 
ATOM     11  C   UNL     1       4.738   1.303  -2.782  1.00  0.00     0.010 A 
ATOM     12  C   UNL     1       3.060   2.981  -2.283  1.00  0.00     0.010 A 
ATOM     13  C   UNL     1       4.226   2.595  -2.964  1.00  0.00    -0.014 A 
BRANCH  13  14
ATOM     14  C   UNL     1       4.856   3.515  -3.938  1.00  0.00     0.031 A 
ATOM     15  C   UNL     1       5.483   4.797  -3.484  1.00  0.00     0.074 A 
ATOM     16  C   UNL     1       4.803   3.206  -5.247  1.00  0.00     0.049 A 
ATOM     17  N   UNL     1       5.964   5.779  -4.201  1.00  0.00    -0.248 NA
ATOM     18  C   UNL     1       5.565   5.011  -2.032  1.00  0.00     0.031 C 
ATOM     19  C   UNL     1       4.210   1.986  -5.800  1.00  0.00     0.029 A 
ATOM     20  N   UNL     1       5.231   3.898  -6.350  1.00  0.00    -0.354 N 
ATOM     21  C   UNL     1       6.382   6.741  -3.291  1.00  0.00     0.074 A 
ATOM     22  C   UNL     1       6.077   6.232  -1.970  1.00  0.00     0.031 C 
ATOM     23  C   UNL     1       4.312   2.014  -7.136  1.00  0.00     0.029 A 
ATOM     24  C   UNL     1       4.916   3.280  -7.535  1.00  0.00     0.049 A 
ATOM     25  H   UNL     1       5.716   4.753  -6.298  1.00  0.00     0.167 HD
ATOM     26  C   UNL     1       6.965   7.937  -3.542  1.00  0.00     0.037 A 
ATOM     27  C   UNL     1       5.056   3.703  -8.805  1.00  0.00     0.037 A 
ATOM     28  C   UNL     1       7.264   8.425  -4.864  1.00  0.00     0.049 A 
ATOM     29  C   UNL     1       5.671   5.046  -9.061  1.00  0.00     0.074 A 
ATOM     30  C   UNL     1       7.894   9.602  -5.227  1.00  0.00     0.029 A 
ATOM     31  N   UNL     1       6.940   7.765  -6.042  1.00  0.00    -0.354 N 
ATOM     32  N   UNL     1       6.098   5.933  -8.194  1.00  0.00    -0.248 NA
ATOM     33  C   UNL     1       5.826   5.450 -10.464  1.00  0.00     0.031 C 
ATOM     34  C   UNL     1       7.902   9.679  -6.624  1.00  0.00     0.029 A 
ATOM     35  C   UNL     1       7.330   8.523  -7.133  1.00  0.00     0.049 A 
ATOM     36  H   UNL     1       6.497   6.887  -6.093  1.00  0.00     0.167 HD
ATOM     37  C   UNL     1       6.594   6.989  -8.944  1.00  0.00     0.074 A 
ATOM     38  C   UNL     1       6.417   6.631 -10.337  1.00  0.00     0.031 C 
ATOM     39  C   UNL     1       7.153   8.147  -8.514  1.00  0.00     0.037 A 
BRANCH  26  40
ATOM     40  C   UNL     1       7.279   8.812  -2.362  1.00  0.00     0.057 A 
ATOM     41  C   UNL     1       8.280   8.489  -1.436  1.00  0.00     0.134 A 
ATOM     42  C   UNL     1       6.568  10.002  -2.151  1.00  0.00     0.134 A 
ATOM     43  F   UNL     1       8.992   7.360  -1.572  1.00  0.00    -0.206 F 
ATOM     44  C   UNL     1       8.535   9.294  -0.324  1.00  0.00     0.040 A 
ATOM     45  C   UNL     1       6.835  10.830  -1.059  1.00  0.00     0.040 A 
ATOM     46  F   UNL     1       5.602  10.379  -3.002  1.00  0.00    -0.206 F 
ATOM     47  C   UNL     1       7.813  10.471  -0.135  1.00  0.00     0.006 A 
ENDBRANCH  26  40
BRANCH  27  48
ATOM     48  C   UNL     1       4.582   2.836  -9.911  1.00  0.00     0.057 A 
ATOM     49  C   UNL     1       5.484   2.161 -10.739  1.00  0.00     0.134 A 
ATOM     50  C   UNL     1       3.216   2.608 -10.120  1.00  0.00     0.134 A 
ATOM     51  F   UNL     1       6.804   2.348 -10.594  1.00  0.00    -0.206 F 
ATOM     52  C   UNL     1       5.045   1.289 -11.737  1.00  0.00     0.040 A 
ATOM     53  C   UNL     1       2.764   1.721 -11.097  1.00  0.00     0.040 A 
ATOM     54  F   UNL     1       2.302   3.215  -9.348  1.00  0.00    -0.206 F 
ATOM     55  C   UNL     1       3.681   1.059 -11.911  1.00  0.00     0.006 A 
ENDBRANCH  27  48
BRANCH  39  56
ATOM     56  C   UNL     1       7.656   9.098  -9.558  1.00  0.00     0.057 A 
ATOM     57  C   UNL     1       6.788   9.885 -10.325  1.00  0.00     0.134 A 
ATOM     58  C   UNL     1       9.033   9.281  -9.742  1.00  0.00     0.134 A 
ATOM     59  F   UNL     1       5.459   9.746 -10.206  1.00  0.00    -0.206 F 
ATOM     60  C   UNL     1       7.273  10.818 -11.243  1.00  0.00     0.040 A 
ATOM     61  C   UNL     1       9.529  10.228 -10.638  1.00  0.00     0.040 A 
ATOM     62  F   UNL     1       9.916   8.562  -9.034  1.00  0.00    -0.206 F 
ATOM     63  C   UNL     1       8.648  10.999 -11.393  1.00  0.00     0.006 A 
ENDBRANCH  39  56
ENDBRANCH  13  14
ENDBRANCH   6   8
ENDBRANCH   3   4
ENDBRANCH   2   3
ENDBRANCH   1   2
BRANCH   1  64
ATOM     64  N   UNL     1       4.582  -2.823   3.223  1.00  0.00    -0.356 N 
ATOM     65  C   UNL     1       5.549  -3.248   4.072  1.00  0.00     0.223 C 
ATOM     66  H   UNL     1       4.407  -3.432   2.470  1.00  0.00     0.163 HD
ATOM     67  O   UNL     1       6.218  -4.229   3.736  1.00  0.00    -0.275 OA
BRANCH  65  68
ATOM     68  C   UNL     1       5.794  -2.588   5.417  1.00  0.00     0.091 C 
ATOM     69  C   UNL     1       4.608  -2.758   6.372  1.00  0.00     0.014 C 
ATOM     70  C   UNL     1       6.371  -1.171   5.344  1.00  0.00     0.091 C 
ATOM     71  C   UNL     1       4.941  -2.179   7.743  1.00  0.00     0.001 C 
ATOM     72  C   UNL     1       6.560  -0.530   6.728  1.00  0.00     0.014 C 
ATOM     73  C   UNL     1       5.330  -0.711   7.621  1.00  0.00     0.001 C 
BRANCH  70  74
ATOM     74  C   UNL     1       7.597  -0.982   4.429  1.00  0.00     0.228 C 
ATOM     75  O   UNL     1       7.471  -0.291   3.407  1.00  0.00    -0.274 OA
ATOM     76  N   UNL     1       8.869  -1.381   4.698  1.00  0.00    -0.326 N 
ATOM     77  H   UNL     1       9.524  -1.087   4.024  1.00  0.00     0.169 HD
BRANCH  76  78
ATOM     78  C   UNL     1       9.430  -2.121   5.736  1.00  0.00     0.041 A 
ATOM     79  C   UNL     1      10.598  -1.637   6.308  1.00  0.00     0.028 A 
ATOM     80  C   UNL     1       8.936  -3.336   6.184  1.00  0.00     0.028 A 
ATOM     81  C   UNL     1      11.115  -2.241   7.456  1.00  0.00     0.028 A 
ATOM     82  C   UNL     1       9.406  -3.901   7.372  1.00  0.00     0.028 A 
ATOM     83  C   UNL     1      10.453  -3.301   8.071  1.00  0.00     0.041 A 
BRANCH  83  84
ATOM     84  N   UNL     1      10.754  -3.821   9.342  1.00  0.00    -0.319 N 
ATOM     85  C   UNL     1      11.562  -3.373  10.371  1.00  0.00     0.291 C 
ATOM     86  H   UNL     1      10.300  -4.673   9.538  1.00  0.00     0.170 HD
ATOM     87  O   UNL     1      11.629  -4.074  11.382  1.00  0.00    -0.265 OA
BRANCH  85  88
ATOM     88  C   UNL     1      12.249  -2.113  10.252  1.00  0.00     0.191 A 
ATOM     89  C   UNL     1      11.805  -0.802  10.280  1.00  0.00     0.056 A 
ATOM     90  O   UNL     1      13.593  -2.135   9.995  1.00  0.00    -0.459 OA
ATOM     91  C   UNL     1      12.925   0.009   9.962  1.00  0.00     0.043 A 
ATOM     92  C   UNL     1      13.988  -0.850   9.810  1.00  0.00     0.196 A 
ENDBRANCH  85  88
ENDBRANCH  83  84
ENDBRANCH  76  78
ENDBRANCH  70  74
ENDBRANCH  65  68
ENDBRANCH   1  64
TORSDOF 14
