REMARK SMILES CCCSc1nc(=O)cc(CC(=O)NCCCNC(=O)c2ccc(-c3c4nc(c(-c5c(F)cccc5F)c5ccc([nH]5)c(-c5c(F)cccc5F)c5nc(c(-c6c(F)cccc6F)c6ccc3[nH]6)C=C5)C=C4)cc2)[nH]1
REMARK SMILES IDX 15 1 14 2 12 3 13 4 11 6 10 7 5 8 6 9 75 10 7 11 8 13 9 14
REMARK SMILES IDX 4 15 3 16 2 17 1 18 16 19 17 20 18 21 19 22 20 24 21 25
REMARK SMILES IDX 22 26 74 27 23 28 73 29 24 30 25 31 26 32 67 33 27 34 72 35
REMARK SMILES IDX 66 36 68 37 28 38 71 39 65 40 64 41 29 43 55 44 38 45 54 46
REMARK SMILES IDX 39 47 42 48 53 49 69 50 40 51 41 52 52 54 70 55 43 56 30 57
REMARK SMILES IDX 31 58 36 59 32 60 33 61 35 62 37 63 34 64 56 65 57 66 62 67
REMARK SMILES IDX 58 68 59 69 61 70 63 71 60 72 44 73 45 74 50 75 46 76 47 77
REMARK SMILES IDX 49 78 51 79 48 80
REMARK H PARENT 14 5 75 12 18 23 68 42 42 53
REMARK Flexibility Score: inf
ROOT
ATOM      1  C   UNL     1       2.465  -5.722  -3.696  1.00  0.00     0.117 C 
ENDROOT
BRANCH   1   2
ATOM      2  N   UNL     1       2.444  -6.705  -2.625  1.00  0.00    -0.356 N 
ATOM      3  C   UNL     1       1.566  -6.838  -1.586  1.00  0.00     0.225 C 
ATOM      4  O   UNL     1       1.763  -7.726  -0.756  1.00  0.00    -0.275 OA
ATOM      5  H   UNL     1       3.168  -7.372  -2.652  1.00  0.00     0.163 HD
BRANCH   3   6
ATOM      6  C   UNL     1       0.380  -5.888  -1.464  1.00  0.00     0.154 C 
BRANCH   6   7
ATOM      7  C   UNL     1       0.832  -4.501  -1.097  1.00  0.00     0.032 A 
ATOM      8  C   UNL     1       0.968  -2.208  -1.716  1.00  0.00     0.169 A 
ATOM      9  N   UNL     1       1.859  -1.910  -0.835  1.00  0.00    -0.185 NA
ATOM     10  N   UNL     1       0.419  -3.443  -1.871  1.00  0.00    -0.337 N 
ATOM     11  C   UNL     1       2.206  -2.868   0.090  1.00  0.00     0.273 A 
ATOM     12  H   UNL     1      -0.283  -3.581  -2.547  1.00  0.00     0.168 HD
ATOM     13  O   UNL     1       2.943  -2.643   1.045  1.00  0.00    -0.267 OA
ATOM     14  C   UNL     1       1.691  -4.253  -0.096  1.00  0.00     0.095 A 
BRANCH   8  15
ATOM     15  S   UNL     1       0.384  -1.023  -2.855  1.00  0.00    -0.088 SA
BRANCH  15  16
ATOM     16  C   UNL     1       1.084   0.526  -2.209  1.00  0.00     0.078 C 
BRANCH  16  17
ATOM     17  C   UNL     1       0.294   1.151  -1.056  1.00  0.00     0.008 C 
ATOM     18  C   UNL     1       0.530   0.516   0.306  1.00  0.00     0.005 C 
ENDBRANCH  16  17
ENDBRANCH  15  16
ENDBRANCH   8  15
ENDBRANCH   6   7
ENDBRANCH   3   6
ENDBRANCH   1   2
BRANCH   1  19
ATOM     19  C   UNL     1       3.515  -4.636  -3.479  1.00  0.00     0.042 C 
BRANCH  19  20
ATOM     20  C   UNL     1       4.956  -5.132  -3.537  1.00  0.00     0.118 C 
BRANCH  20  21
ATOM     21  N   UNL     1       5.341  -5.625  -4.854  1.00  0.00    -0.352 N 
ATOM     22  C   UNL     1       6.388  -5.261  -5.669  1.00  0.00     0.251 C 
ATOM     23  H   UNL     1       4.760  -6.332  -5.218  1.00  0.00     0.163 HD
ATOM     24  O   UNL     1       6.448  -5.702  -6.813  1.00  0.00    -0.269 OA
BRANCH  22  25
ATOM     25  C   UNL     1       7.415  -4.308  -5.191  1.00  0.00     0.039 A 
ATOM     26  C   UNL     1       7.923  -4.390  -3.895  1.00  0.00     0.014 A 
ATOM     27  C   UNL     1       7.859  -3.297  -6.050  1.00  0.00     0.014 A 
ATOM     28  C   UNL     1       8.697  -3.349  -3.392  1.00  0.00     0.010 A 
ATOM     29  C   UNL     1       8.720  -2.305  -5.571  1.00  0.00     0.010 A 
ATOM     30  C   UNL     1       9.086  -2.281  -4.216  1.00  0.00    -0.014 A 
BRANCH  30  31
ATOM     31  C   UNL     1       9.816  -1.128  -3.621  1.00  0.00     0.031 A 
ATOM     32  C   UNL     1       9.190   0.245  -3.600  1.00  0.00     0.074 A 
ATOM     33  C   UNL     1      11.007  -1.326  -3.022  1.00  0.00     0.049 A 
ATOM     34  N   UNL     1       9.652   1.361  -3.091  1.00  0.00    -0.248 NA
ATOM     35  C   UNL     1       7.873   0.386  -4.241  1.00  0.00     0.031 C 
ATOM     36  C   UNL     1      11.716  -2.605  -2.952  1.00  0.00     0.029 A 
ATOM     37  N   UNL     1      11.817  -0.459  -2.333  1.00  0.00    -0.354 N 
ATOM     38  C   UNL     1       8.692   2.331  -3.357  1.00  0.00     0.074 A 
ATOM     39  C   UNL     1       7.645   1.685  -4.119  1.00  0.00     0.031 C 
ATOM     40  C   UNL     1      12.825  -2.452  -2.213  1.00  0.00     0.029 A 
ATOM     41  C   UNL     1      12.939  -1.055  -1.810  1.00  0.00     0.049 A 
ATOM     42  H   UNL     1      11.614   0.498  -2.224  1.00  0.00     0.167 HD
ATOM     43  C   UNL     1       8.669   3.635  -2.987  1.00  0.00     0.037 A 
ATOM     44  C   UNL     1      13.952  -0.532  -1.095  1.00  0.00     0.037 A 
ATOM     45  C   UNL     1       9.705   4.280  -2.221  1.00  0.00     0.049 A 
ATOM     46  C   UNL     1      13.935   0.933  -0.759  1.00  0.00     0.074 A 
ATOM     47  C   UNL     1       9.775   5.597  -1.798  1.00  0.00     0.029 A 
ATOM     48  N   UNL     1      10.854   3.654  -1.762  1.00  0.00    -0.354 N 
ATOM     49  N   UNL     1      13.018   1.834  -1.014  1.00  0.00    -0.248 NA
ATOM     50  C   UNL     1      15.101   1.452  -0.031  1.00  0.00     0.031 C 
ATOM     51  C   UNL     1      10.988   5.779  -1.125  1.00  0.00     0.029 A 
ATOM     52  C   UNL     1      11.647   4.561  -1.077  1.00  0.00     0.049 A 
ATOM     53  H   UNL     1      11.074   2.705  -1.903  1.00  0.00     0.167 HD
ATOM     54  C   UNL     1      13.479   3.016  -0.449  1.00  0.00     0.074 A 
ATOM     55  C   UNL     1      14.748   2.711   0.178  1.00  0.00     0.031 C 
ATOM     56  C   UNL     1      12.905   4.245  -0.449  1.00  0.00     0.037 A 
BRANCH  43  57
ATOM     57  C   UNL     1       7.488   4.455  -3.428  1.00  0.00     0.057 A 
ATOM     58  C   UNL     1       7.637   5.467  -4.386  1.00  0.00     0.134 A 
ATOM     59  C   UNL     1       6.205   4.255  -2.898  1.00  0.00     0.134 A 
ATOM     60  F   UNL     1       8.837   5.720  -4.929  1.00  0.00    -0.206 F 
ATOM     61  C   UNL     1       6.555   6.244  -4.803  1.00  0.00     0.040 A 
ATOM     62  C   UNL     1       5.110   5.006  -3.330  1.00  0.00     0.040 A 
ATOM     63  F   UNL     1       5.987   3.294  -1.988  1.00  0.00    -0.206 F 
ATOM     64  C   UNL     1       5.284   6.008  -4.283  1.00  0.00     0.006 A 
ENDBRANCH  43  57
BRANCH  44  65
ATOM     65  C   UNL     1      15.080  -1.391  -0.652  1.00  0.00     0.057 A 
ATOM     66  C   UNL     1      15.984  -1.940  -1.570  1.00  0.00     0.134 A 
ATOM     67  C   UNL     1      15.309  -1.642   0.707  1.00  0.00     0.134 A 
ATOM     68  F   UNL     1      15.818  -1.741  -2.886  1.00  0.00    -0.206 F 
ATOM     69  C   UNL     1      17.073  -2.705  -1.155  1.00  0.00     0.040 A 
ATOM     70  C   UNL     1      16.413  -2.380   1.138  1.00  0.00     0.040 A 
ATOM     71  F   UNL     1      14.491  -1.127   1.636  1.00  0.00    -0.206 F 
ATOM     72  C   UNL     1      17.298  -2.916   0.204  1.00  0.00     0.006 A 
ENDBRANCH  44  65
BRANCH  56  73
ATOM     73  C   UNL     1      13.624   5.330   0.301  1.00  0.00     0.057 A 
ATOM     74  C   UNL     1      13.092   5.839   1.493  1.00  0.00     0.134 A 
ATOM     75  C   UNL     1      14.841   5.865  -0.142  1.00  0.00     0.134 A 
ATOM     76  F   UNL     1      11.925   5.381   1.970  1.00  0.00    -0.206 F 
ATOM     77  C   UNL     1      13.750   6.831   2.223  1.00  0.00     0.040 A 
ATOM     78  C   UNL     1      15.525   6.833   0.596  1.00  0.00     0.040 A 
ATOM     79  F   UNL     1      15.413   5.412  -1.268  1.00  0.00    -0.206 F 
ATOM     80  C   UNL     1      14.977   7.321   1.781  1.00  0.00     0.006 A 
ENDBRANCH  56  73
ENDBRANCH  30  31
ENDBRANCH  22  25
ENDBRANCH  20  21
ENDBRANCH  19  20
ENDBRANCH   1  19
TORSDOF 14
