REMARK SMILES Cc1ccc(-c2cc(C(=O)NCCCNC(=O)c3ccc(-c4c5nc(c(-c6c(F)cccc6F)c6ccc([nH]6)c(-c6c(F)cccc6F)c6nc(c(-c7c(F)cccc7F)c7ccc4[nH]7)C=C6)C=C5)cc3)c3c(-c4cccc([N+](=O)[O-])c4)[nH]nc3n2)cc1
REMARK SMILES IDX 13 1 12 2 11 3 9 4 10 5 8 7 6 8 7 9 86 10 85 11 72 12 84 13
REMARK SMILES IDX 73 14 83 15 5 17 1 18 2 19 3 20 88 21 4 22 87 23 74 24 75 25
REMARK SMILES IDX 82 26 76 27 78 28 77 29 79 30 80 31 81 32 14 33 15 34 16 35
REMARK SMILES IDX 17 37 18 38 19 39 71 40 20 41 70 42 21 43 22 44 23 45 64 46
REMARK SMILES IDX 24 47 69 48 63 49 65 50 25 51 68 52 62 53 61 54 26 56 52 57
REMARK SMILES IDX 35 58 51 59 36 60 39 61 50 62 66 63 37 64 38 65 49 67 67 68
REMARK SMILES IDX 40 69 27 70 28 71 33 72 29 73 30 74 32 75 34 76 31 77 53 78
REMARK SMILES IDX 54 79 59 80 55 81 56 82 58 83 60 84 57 85 41 86 42 87 47 88
REMARK SMILES IDX 43 89 44 90 46 91 48 92 45 93
REMARK H PARENT 11 6 83 16 15 36 65 55 39 66
REMARK Flexibility Score: inf
ROOT
ATOM      1  C   UNL     1      -2.630   1.451  -3.831  1.00  0.00     0.042 C 
ENDROOT
BRANCH   1   2
ATOM      2  C   UNL     1      -3.480   2.594  -3.268  1.00  0.00     0.118 C 
BRANCH   2   3
ATOM      3  N   UNL     1      -4.898   2.260  -3.197  1.00  0.00    -0.352 N 
ATOM      4  C   UNL     1      -5.705   1.574  -2.314  1.00  0.00     0.252 C 
ATOM      5  O   UNL     1      -6.903   1.667  -2.566  1.00  0.00    -0.269 OA
ATOM      6  H   UNL     1      -5.402   2.608  -3.968  1.00  0.00     0.163 HD
BRANCH   4   7
ATOM      7  C   UNL     1      -5.226   0.783  -1.148  1.00  0.00     0.055 A 
ATOM      8  C   UNL     1      -3.352  -0.110   0.252  1.00  0.00     0.074 A 
ATOM      9  C   UNL     1      -3.870   0.597  -0.860  1.00  0.00     0.043 A 
ATOM     10  N   UNL     1      -4.092  -0.740   1.189  1.00  0.00    -0.226 NA
ATOM     11  C   UNL     1      -5.426  -0.614   0.968  1.00  0.00     0.182 A 
ATOM     12  C   UNL     1      -5.984   0.109  -0.161  1.00  0.00     0.059 A 
ATOM     13  N   UNL     1      -6.371  -1.126   1.753  1.00  0.00    -0.154 NA
ATOM     14  C   UNL     1      -7.355  -0.052  -0.013  1.00  0.00     0.076 A 
ATOM     15  N   UNL     1      -7.510  -0.765   1.153  1.00  0.00    -0.275 N 
ATOM     16  H   UNL     1      -8.395  -0.993   1.519  1.00  0.00     0.190 HD
BRANCH   8  17
ATOM     17  C   UNL     1      -1.886  -0.152   0.391  1.00  0.00     0.000 A 
ATOM     18  C   UNL     1       2.430  -0.166   0.086  1.00  0.00     0.044 C 
ATOM     19  C   UNL     1       0.938  -0.157   0.234  1.00  0.00    -0.051 A 
ATOM     20  C   UNL     1       0.221  -1.360   0.279  1.00  0.00     0.004 A 
ATOM     21  C   UNL     1       0.241   1.050   0.317  1.00  0.00     0.004 A 
ATOM     22  C   UNL     1      -1.177  -1.359   0.360  1.00  0.00     0.010 A 
ATOM     23  C   UNL     1      -1.151   1.050   0.402  1.00  0.00     0.010 A 
ENDBRANCH   8  17
BRANCH  14  24
ATOM     24  C   UNL     1      -8.527   0.314  -0.794  1.00  0.00     0.007 A 
ATOM     25  C   UNL     1      -9.374   1.345  -0.364  1.00  0.00     0.011 A 
ATOM     26  C   UNL     1      -8.786  -0.337  -2.006  1.00  0.00     0.096 A 
ATOM     27  C   UNL     1     -10.443   1.761  -1.162  1.00  0.00     0.008 A 
ATOM     28  C   UNL     1      -9.833   0.114  -2.819  1.00  0.00     0.270 A 
ATOM     29  C   UNL     1     -10.668   1.158  -2.400  1.00  0.00     0.085 A 
BRANCH  28  30
ATOM     30  N   UNL     1     -10.022  -0.484  -4.146  1.00  0.00     0.062 N 
ATOM     31  O   UNL     1     -10.952  -0.055  -4.845  1.00  0.00    -0.258 OA
ATOM     32  O   UNL     1      -9.251  -1.393  -4.487  1.00  0.00    -0.258 OA
ENDBRANCH  28  30
ENDBRANCH  14  24
ENDBRANCH   4   7
ENDBRANCH   2   3
ENDBRANCH   1   2
BRANCH   1  33
ATOM     33  C   UNL     1      -2.376   1.562  -5.324  1.00  0.00     0.118 C 
BRANCH  33  34
ATOM     34  N   UNL     1      -1.111   2.207  -5.667  1.00  0.00    -0.352 N 
ATOM     35  C   UNL     1      -0.671   2.606  -6.921  1.00  0.00     0.251 C 
ATOM     36  H   UNL     1      -0.496   2.379  -4.918  1.00  0.00     0.163 HD
ATOM     37  O   UNL     1       0.408   3.153  -7.066  1.00  0.00    -0.269 OA
BRANCH  35  38
ATOM     38  C   UNL     1      -1.609   2.462  -8.058  1.00  0.00     0.039 A 
ATOM     39  C   UNL     1      -1.982   3.623  -8.739  1.00  0.00     0.014 A 
ATOM     40  C   UNL     1      -2.312   1.273  -8.233  1.00  0.00     0.014 A 
ATOM     41  C   UNL     1      -3.214   3.658  -9.384  1.00  0.00     0.010 A 
ATOM     42  C   UNL     1      -3.574   1.333  -8.794  1.00  0.00     0.010 A 
ATOM     43  C   UNL     1      -4.054   2.546  -9.299  1.00  0.00    -0.014 A 
BRANCH  43  44
ATOM     44  C   UNL     1      -5.481   2.615  -9.597  1.00  0.00     0.031 A 
ATOM     45  C   UNL     1      -6.024   2.036 -10.840  1.00  0.00     0.074 A 
ATOM     46  C   UNL     1      -6.335   3.176  -8.710  1.00  0.00     0.049 A 
ATOM     47  N   UNL     1      -7.118   2.427 -11.403  1.00  0.00    -0.248 NA
ATOM     48  C   UNL     1      -5.345   0.973 -11.567  1.00  0.00     0.031 C 
ATOM     49  C   UNL     1      -7.795   3.138  -8.740  1.00  0.00     0.029 A 
ATOM     50  N   UNL     1      -6.034   4.110  -7.709  1.00  0.00    -0.354 N 
ATOM     51  C   UNL     1      -7.438   1.508 -12.372  1.00  0.00     0.074 A 
ATOM     52  C   UNL     1      -6.271   0.657 -12.477  1.00  0.00     0.031 C 
ATOM     53  C   UNL     1      -8.264   4.203  -8.074  1.00  0.00     0.029 A 
ATOM     54  C   UNL     1      -7.125   5.014  -7.691  1.00  0.00     0.049 A 
ATOM     55  H   UNL     1      -5.232   4.133  -7.138  1.00  0.00     0.167 HD
ATOM     56  C   UNL     1      -8.700   1.484 -12.891  1.00  0.00     0.037 A 
ATOM     57  C   UNL     1      -6.944   6.331  -7.996  1.00  0.00     0.037 A 
ATOM     58  C   UNL     1      -9.533   2.567 -12.370  1.00  0.00     0.049 A 
ATOM     59  C   UNL     1      -7.691   6.805  -9.226  1.00  0.00     0.074 A 
ATOM     60  C   UNL     1     -10.527   2.660 -11.409  1.00  0.00     0.029 A 
ATOM     61  N   UNL     1      -9.183   3.872 -12.671  1.00  0.00    -0.354 N 
ATOM     62  N   UNL     1      -8.488   6.061  -9.942  1.00  0.00    -0.248 NA
ATOM     63  C   UNL     1      -7.511   8.139  -9.803  1.00  0.00     0.031 C 
ATOM     64  C   UNL     1     -10.767   4.038 -11.139  1.00  0.00     0.029 A 
ATOM     65  C   UNL     1      -9.913   4.782 -11.931  1.00  0.00     0.049 A 
ATOM     66  H   UNL     1      -8.498   4.121 -13.332  1.00  0.00     0.167 HD
ATOM     67  C   UNL     1      -8.856   6.748 -11.070  1.00  0.00     0.074 A 
ATOM     68  C   UNL     1      -8.231   8.049 -10.933  1.00  0.00     0.031 C 
ATOM     69  C   UNL     1      -9.603   6.194 -12.068  1.00  0.00     0.037 A 
BRANCH  56  70
ATOM     70  C   UNL     1      -9.230   0.314 -13.685  1.00  0.00     0.057 A 
ATOM     71  C   UNL     1     -10.576  -0.084 -13.585  1.00  0.00     0.134 A 
ATOM     72  C   UNL     1      -8.446  -0.495 -14.524  1.00  0.00     0.134 A 
ATOM     73  F   UNL     1     -11.483   0.648 -12.927  1.00  0.00    -0.206 F 
ATOM     74  C   UNL     1     -11.064  -1.266 -14.157  1.00  0.00     0.040 A 
ATOM     75  C   UNL     1      -8.901  -1.712 -15.051  1.00  0.00     0.040 A 
ATOM     76  F   UNL     1      -7.220  -0.117 -14.910  1.00  0.00    -0.206 F 
ATOM     77  C   UNL     1     -10.214  -2.112 -14.852  1.00  0.00     0.006 A 
ENDBRANCH  56  70
BRANCH  57  78
ATOM     78  C   UNL     1      -5.627   6.840  -7.532  1.00  0.00     0.057 A 
ATOM     79  C   UNL     1      -5.361   6.831  -6.150  1.00  0.00     0.134 A 
ATOM     80  C   UNL     1      -4.533   6.947  -8.392  1.00  0.00     0.134 A 
ATOM     81  F   UNL     1      -6.369   6.736  -5.268  1.00  0.00    -0.206 F 
ATOM     82  C   UNL     1      -4.058   6.786  -5.651  1.00  0.00     0.040 A 
ATOM     83  C   UNL     1      -3.224   6.926  -7.901  1.00  0.00     0.040 A 
ATOM     84  F   UNL     1      -4.705   6.949  -9.721  1.00  0.00    -0.206 F 
ATOM     85  C   UNL     1      -2.983   6.796  -6.534  1.00  0.00     0.006 A 
ENDBRANCH  57  78
BRANCH  69  86
ATOM     86  C   UNL     1     -10.073   6.960 -13.271  1.00  0.00     0.057 A 
ATOM     87  C   UNL     1     -10.621   8.247 -13.173  1.00  0.00     0.134 A 
ATOM     88  C   UNL     1     -10.105   6.381 -14.555  1.00  0.00     0.134 A 
ATOM     89  F   UNL     1     -10.711   8.871 -11.989  1.00  0.00    -0.206 F 
ATOM     90  C   UNL     1     -11.120   8.934 -14.286  1.00  0.00     0.040 A 
ATOM     91  C   UNL     1     -10.643   7.038 -15.665  1.00  0.00     0.040 A 
ATOM     92  F   UNL     1      -9.599   5.163 -14.791  1.00  0.00    -0.206 F 
ATOM     93  C   UNL     1     -11.142   8.326 -15.536  1.00  0.00     0.006 A 
ENDBRANCH  69  86
ENDBRANCH  43  44
ENDBRANCH  35  38
ENDBRANCH  33  34
ENDBRANCH   1  33
TORSDOF 13
