REMARK SMILES COc1ccc([C@@H]2CC[NH2+][C@H]2C(=O)NCCCNC(=O)c2ccc(-c3c4nc(c(-c5c(F)cccc5F)c5ccc([nH]5)c(-c5c(F)cccc5F)c5nc(c(-c6c(F)cccc6F)c6ccc3[nH]6)C=C5)C=C4)cc2)c2ccccc12
REMARK SMILES IDX 16 1 15 2 14 3 12 4 13 5 11 7 7 8 8 9 9 10 10 11 6 14 3 15
REMARK SMILES IDX 4 16 80 17 5 18 75 19 79 20 76 21 78 22 77 23 2 24 1 25
REMARK SMILES IDX 17 26 18 27 19 28 20 30 21 31 22 32 74 33 23 34 73 35 24 36
REMARK SMILES IDX 25 37 26 38 67 39 27 40 72 41 66 42 68 43 28 44 71 45 65 46
REMARK SMILES IDX 64 47 29 49 55 50 38 51 54 52 39 53 42 54 53 55 69 56 40 57
REMARK SMILES IDX 41 58 52 60 70 61 43 62 30 63 31 64 36 65 32 66 33 67 35 68
REMARK SMILES IDX 37 69 34 70 56 71 57 72 62 73 58 74 59 75 61 76 63 77 60 78
REMARK SMILES IDX 44 79 45 80 50 81 46 82 47 83 49 84 51 85 48 86
REMARK H PARENT 14 6 10 12 10 13 18 29 68 48 42 59
REMARK Flexibility Score: inf
ROOT
ATOM      1  C   UNL     1       1.752   7.831  -6.113  1.00  0.00     0.042 C 
ENDROOT
BRANCH   1   2
ATOM      2  C   UNL     1       2.708   8.321  -5.030  1.00  0.00     0.118 C 
BRANCH   2   3
ATOM      3  N   UNL     1       2.034   8.584  -3.771  1.00  0.00    -0.351 N 
ATOM      4  C   UNL     1       1.923   7.866  -2.615  1.00  0.00     0.278 C 
ATOM      5  O   UNL     1       1.224   8.368  -1.729  1.00  0.00    -0.268 OA
ATOM      6  H   UNL     1       1.565   9.449  -3.747  1.00  0.00     0.163 HD
BRANCH   4   7
ATOM      7  C   UNL     1       2.607   6.496  -2.396  1.00  0.00     0.280 C 
ATOM      8  C   UNL     1       2.045   5.389  -3.297  1.00  0.00     0.094 C 
ATOM      9  C   UNL     1       3.226   4.977  -4.185  1.00  0.00     0.076 C 
ATOM     10  C   UNL     1       4.471   5.479  -3.477  1.00  0.00     0.262 C 
ATOM     11  N   UNL     1       4.074   6.585  -2.611  1.00  0.00    -0.335 N 
ATOM     12  H   UNL     1       4.305   7.474  -3.055  1.00  0.00     0.346 HD
ATOM     13  H   UNL     1       4.566   6.532  -1.719  1.00  0.00     0.346 HD
BRANCH   8  14
ATOM     14  C   UNL     1       1.471   4.175  -2.559  1.00  0.00    -0.030 A 
ATOM     15  C   UNL     1       0.699   1.675  -1.497  1.00  0.00     0.126 A 
ATOM     16  C   UNL     1       1.962   2.192  -1.223  1.00  0.00     0.047 A 
ATOM     17  C   UNL     1      -0.229   2.428  -2.256  1.00  0.00     0.024 A 
ATOM     18  C   UNL     1       2.336   3.427  -1.739  1.00  0.00     0.009 A 
ATOM     19  C   UNL     1       0.137   3.707  -2.766  1.00  0.00    -0.011 A 
ATOM     20  C   UNL     1      -1.528   1.931  -2.511  1.00  0.00     0.012 A 
ATOM     21  C   UNL     1      -0.865   4.441  -3.454  1.00  0.00     0.009 A 
ATOM     22  C   UNL     1      -2.477   2.671  -3.210  1.00  0.00     0.001 A 
ATOM     23  C   UNL     1      -2.149   3.934  -3.669  1.00  0.00     0.001 A 
BRANCH  15  24
ATOM     24  O   UNL     1       0.299   0.422  -1.094  1.00  0.00    -0.496 OA
ATOM     25  C   UNL     1       0.954  -0.122   0.044  1.00  0.00     0.278 C 
ENDBRANCH  15  24
ENDBRANCH   8  14
ENDBRANCH   4   7
ENDBRANCH   2   3
ENDBRANCH   1   2
BRANCH   1  26
ATOM     26  C   UNL     1       0.930   8.947  -6.745  1.00  0.00     0.118 C 
BRANCH  26  27
ATOM     27  N   UNL     1       1.751   9.837  -7.557  1.00  0.00    -0.352 N 
ATOM     28  C   UNL     1       1.708  10.101  -8.901  1.00  0.00     0.251 C 
ATOM     29  H   UNL     1       2.447  10.326  -7.061  1.00  0.00     0.163 HD
ATOM     30  O   UNL     1       2.640  10.711  -9.427  1.00  0.00    -0.269 OA
BRANCH  28  31
ATOM     31  C   UNL     1       0.564   9.658  -9.727  1.00  0.00     0.039 A 
ATOM     32  C   UNL     1       0.807   9.184 -11.020  1.00  0.00     0.014 A 
ATOM     33  C   UNL     1      -0.747   9.750  -9.253  1.00  0.00     0.014 A 
ATOM     34  C   UNL     1      -0.258   8.749 -11.813  1.00  0.00     0.010 A 
ATOM     35  C   UNL     1      -1.798   9.244 -10.013  1.00  0.00     0.010 A 
ATOM     36  C   UNL     1      -1.565   8.746 -11.304  1.00  0.00    -0.014 A 
BRANCH  36  37
ATOM     37  C   UNL     1      -2.709   8.240 -12.103  1.00  0.00     0.031 A 
ATOM     38  C   UNL     1      -3.824   9.170 -12.495  1.00  0.00     0.074 A 
ATOM     39  C   UNL     1      -2.784   6.930 -12.405  1.00  0.00     0.049 A 
ATOM     40  N   UNL     1      -4.956   8.899 -13.092  1.00  0.00    -0.248 NA
ATOM     41  C   UNL     1      -3.655  10.589 -12.143  1.00  0.00     0.031 C 
ATOM     42  C   UNL     1      -1.788   5.919 -12.043  1.00  0.00     0.029 A 
ATOM     43  N   UNL     1      -3.751   6.220 -13.070  1.00  0.00    -0.354 N 
ATOM     44  C   UNL     1      -5.643  10.105 -13.165  1.00  0.00     0.074 A 
ATOM     45  C   UNL     1      -4.821  11.100 -12.512  1.00  0.00     0.031 C 
ATOM     46  C   UNL     1      -2.189   4.723 -12.502  1.00  0.00     0.029 A 
ATOM     47  C   UNL     1      -3.486   4.874 -13.154  1.00  0.00     0.049 A 
ATOM     48  H   UNL     1      -4.559   6.635 -13.451  1.00  0.00     0.167 HD
ATOM     49  C   UNL     1      -6.841  10.362 -13.742  1.00  0.00     0.037 A 
ATOM     50  C   UNL     1      -4.214   3.873 -13.684  1.00  0.00     0.037 A 
ATOM     51  C   UNL     1      -7.640   9.376 -14.420  1.00  0.00     0.049 A 
ATOM     52  C   UNL     1      -5.539   4.186 -14.321  1.00  0.00     0.074 A 
ATOM     53  C   UNL     1      -8.836   9.551 -15.094  1.00  0.00     0.029 A 
ATOM     54  N   UNL     1      -7.322   8.029 -14.509  1.00  0.00    -0.354 N 
ATOM     55  N   UNL     1      -6.148   5.341 -14.437  1.00  0.00    -0.248 NA
ATOM     56  C   UNL     1      -6.277   3.056 -14.905  1.00  0.00     0.031 C 
ATOM     57  C   UNL     1      -9.263   8.302 -15.556  1.00  0.00     0.029 A 
ATOM     58  C   UNL     1      -8.310   7.357 -15.211  1.00  0.00     0.049 A 
ATOM     59  H   UNL     1      -6.515   7.612 -14.131  1.00  0.00     0.167 HD
ATOM     60  C   UNL     1      -7.323   5.083 -15.131  1.00  0.00     0.074 A 
ATOM     61  C   UNL     1      -7.337   3.664 -15.418  1.00  0.00     0.031 C 
ATOM     62  C   UNL     1      -8.302   5.946 -15.497  1.00  0.00     0.037 A 
BRANCH  49  63
ATOM     63  C   UNL     1      -7.359  11.769 -13.666  1.00  0.00     0.057 A 
ATOM     64  C   UNL     1      -6.774  12.813 -14.395  1.00  0.00     0.134 A 
ATOM     65  C   UNL     1      -8.478  12.078 -12.882  1.00  0.00     0.134 A 
ATOM     66  F   UNL     1      -5.692  12.588 -15.156  1.00  0.00    -0.206 F 
ATOM     67  C   UNL     1      -7.266  14.118 -14.326  1.00  0.00     0.040 A 
ATOM     68  C   UNL     1      -8.996  13.373 -12.826  1.00  0.00     0.040 A 
ATOM     69  F   UNL     1      -9.091  11.125 -12.164  1.00  0.00    -0.206 F 
ATOM     70  C   UNL     1      -8.385  14.399 -13.545  1.00  0.00     0.006 A 
ENDBRANCH  49  63
BRANCH  50  71
ATOM     71  C   UNL     1      -3.696   2.482 -13.650  1.00  0.00     0.057 A 
ATOM     72  C   UNL     1      -3.266   1.846 -14.820  1.00  0.00     0.134 A 
ATOM     73  C   UNL     1      -3.619   1.758 -12.455  1.00  0.00     0.134 A 
ATOM     74  F   UNL     1      -3.332   2.483 -15.998  1.00  0.00    -0.206 F 
ATOM     75  C   UNL     1      -2.794   0.532 -14.806  1.00  0.00     0.040 A 
ATOM     76  C   UNL     1      -3.127   0.453 -12.423  1.00  0.00     0.040 A 
ATOM     77  F   UNL     1      -4.009   2.315 -11.299  1.00  0.00    -0.206 F 
ATOM     78  C   UNL     1      -2.719  -0.166 -13.603  1.00  0.00     0.006 A 
ENDBRANCH  50  71
BRANCH  62  79
ATOM     79  C   UNL     1      -9.452   5.387 -16.282  1.00  0.00     0.057 A 
ATOM     80  C   UNL     1     -10.435   4.588 -15.687  1.00  0.00     0.134 A 
ATOM     81  C   UNL     1      -9.600   5.694 -17.641  1.00  0.00     0.134 A 
ATOM     82  F   UNL     1     -10.343   4.247 -14.393  1.00  0.00    -0.206 F 
ATOM     83  C   UNL     1     -11.517   4.098 -16.421  1.00  0.00     0.040 A 
ATOM     84  C   UNL     1     -10.690   5.231 -18.378  1.00  0.00     0.040 A 
ATOM     85  F   UNL     1      -8.697   6.462 -18.269  1.00  0.00    -0.206 F 
ATOM     86  C   UNL     1     -11.650   4.426 -17.769  1.00  0.00     0.006 A 
ENDBRANCH  62  79
ENDBRANCH  36  37
ENDBRANCH  28  31
ENDBRANCH  26  27
ENDBRANCH   1  26
TORSDOF 12
