REMARK SMILES Cn1ncc(C(=O)NCCCNC(=O)c2ccc(-c3c4nc(c(-c5c(F)cccc5F)c5ccc([nH]5)c(-c5c(F)cccc5F)c5nc(c(-c6c(F)cccc6F)c6ccc3[nH]6)C=C5)C=C4)cc2)c1C(=O)Nc1ccccn1
REMARK SMILES IDX 10 1 9 2 8 3 6 4 7 5 5 7 1 8 2 9 3 10 69 11 4 12 70 13 71 14
REMARK SMILES IDX 72 15 73 17 74 18 78 19 75 20 77 21 76 22 11 23 12 24 13 25
REMARK SMILES IDX 14 27 15 28 16 29 68 30 17 31 67 32 18 33 19 34 20 35 61 36
REMARK SMILES IDX 21 37 66 38 60 39 62 40 22 41 65 42 59 43 58 44 23 46 49 47
REMARK SMILES IDX 32 48 48 49 33 50 36 51 47 52 63 53 34 54 35 55 46 57 64 58
REMARK SMILES IDX 37 59 24 60 25 61 30 62 26 63 27 64 29 65 31 66 28 67 50 68
REMARK SMILES IDX 51 69 56 70 52 71 53 72 55 73 57 74 54 75 38 76 39 77 44 78
REMARK SMILES IDX 40 79 41 80 43 81 45 82 42 83
REMARK H PARENT 8 6 72 16 12 26 62 45 36 56
REMARK Flexibility Score: inf
ROOT
ATOM      1  C   UNL     1       1.496  -4.702  -1.346  1.00  0.00     0.042 C 
ENDROOT
BRANCH   1   2
ATOM      2  C   UNL     1       1.422  -3.799  -0.131  1.00  0.00     0.118 C 
BRANCH   2   3
ATOM      3  N   UNL     1       2.472  -2.814  -0.072  1.00  0.00    -0.352 N 
ATOM      4  C   UNL     1       2.471  -1.448  -0.012  1.00  0.00     0.255 C 
ATOM      5  O   UNL     1       3.594  -0.934  -0.048  1.00  0.00    -0.269 OA
ATOM      6  H   UNL     1       3.376  -3.205  -0.076  1.00  0.00     0.163 HD
BRANCH   4   7
ATOM      7  C   UNL     1       1.290  -0.589   0.046  1.00  0.00     0.090 A 
ATOM      8  C   UNL     1      -1.743   1.044   1.122  1.00  0.00     0.174 C 
ATOM      9  N   UNL     1      -0.553   0.549   0.467  1.00  0.00    -0.262 N 
ATOM     10  N   UNL     1       0.251   1.459  -0.104  1.00  0.00    -0.180 NA
ATOM     11  C   UNL     1      -0.045  -0.733   0.451  1.00  0.00     0.139 A 
ATOM     12  C   UNL     1       1.386   0.792  -0.283  1.00  0.00     0.149 A 
BRANCH  11  13
ATOM     13  C   UNL     1      -0.730  -1.878   0.992  1.00  0.00     0.275 C 
ATOM     14  O   UNL     1      -0.297  -2.492   1.968  1.00  0.00    -0.267 OA
ATOM     15  N   UNL     1      -1.802  -2.434   0.312  1.00  0.00    -0.305 N 
ATOM     16  H   UNL     1      -1.745  -3.381   0.051  1.00  0.00     0.171 HD
BRANCH  15  17
ATOM     17  C   UNL     1      -2.955  -1.729  -0.021  1.00  0.00     0.132 A 
ATOM     18  C   UNL     1      -3.067  -0.945  -1.158  1.00  0.00     0.047 A 
ATOM     19  N   UNL     1      -3.943  -1.872   0.883  1.00  0.00    -0.239 NA
ATOM     20  C   UNL     1      -4.241  -0.206  -1.322  1.00  0.00     0.005 A 
ATOM     21  C   UNL     1      -5.055  -1.131   0.714  1.00  0.00     0.113 A 
ATOM     22  C   UNL     1      -5.243  -0.279  -0.357  1.00  0.00     0.020 A 
ENDBRANCH  15  17
ENDBRANCH  11  13
ENDBRANCH   4   7
ENDBRANCH   2   3
ENDBRANCH   1   2
BRANCH   1  23
ATOM     23  C   UNL     1       2.644  -5.691  -1.321  1.00  0.00     0.118 C 
BRANCH  23  24
ATOM     24  N   UNL     1       2.520  -6.685  -0.260  1.00  0.00    -0.352 N 
ATOM     25  C   UNL     1       2.190  -8.019  -0.315  1.00  0.00     0.251 C 
ATOM     26  H   UNL     1       2.702  -6.345   0.646  1.00  0.00     0.163 HD
ATOM     27  O   UNL     1       1.967  -8.641   0.721  1.00  0.00    -0.269 OA
BRANCH  25  28
ATOM     28  C   UNL     1       2.068  -8.703  -1.620  1.00  0.00     0.039 A 
ATOM     29  C   UNL     1       1.013  -9.595  -1.834  1.00  0.00     0.014 A 
ATOM     30  C   UNL     1       2.986  -8.453  -2.639  1.00  0.00     0.014 A 
ATOM     31  C   UNL     1       0.824 -10.151  -3.102  1.00  0.00     0.010 A 
ATOM     32  C   UNL     1       2.727  -8.905  -3.924  1.00  0.00     0.010 A 
ATOM     33  C   UNL     1       1.647  -9.765  -4.171  1.00  0.00    -0.014 A 
BRANCH  33  34
ATOM     34  C   UNL     1       1.428 -10.247  -5.558  1.00  0.00     0.031 A 
ATOM     35  C   UNL     1       2.527 -10.995  -6.264  1.00  0.00     0.074 A 
ATOM     36  C   UNL     1       0.299  -9.918  -6.216  1.00  0.00     0.049 A 
ATOM     37  N   UNL     1       2.614 -11.350  -7.520  1.00  0.00    -0.248 NA
ATOM     38  C   UNL     1       3.705 -11.353  -5.457  1.00  0.00     0.031 C 
ATOM     39  C   UNL     1      -0.819  -9.154  -5.659  1.00  0.00     0.029 A 
ATOM     40  N   UNL     1      -0.084 -10.165  -7.511  1.00  0.00    -0.354 N 
ATOM     41  C   UNL     1       3.864 -11.940  -7.657  1.00  0.00     0.074 A 
ATOM     42  C   UNL     1       4.524 -11.842  -6.375  1.00  0.00     0.031 C 
ATOM     43  C   UNL     1      -1.769  -9.014  -6.597  1.00  0.00     0.029 A 
ATOM     44  C   UNL     1      -1.308  -9.632  -7.836  1.00  0.00     0.049 A 
ATOM     45  H   UNL     1       0.467 -10.677  -8.147  1.00  0.00     0.167 HD
ATOM     46  C   UNL     1       4.404 -12.533  -8.748  1.00  0.00     0.037 A 
ATOM     47  C   UNL     1      -1.974  -9.626  -9.006  1.00  0.00     0.037 A 
ATOM     48  C   UNL     1       3.725 -12.664 -10.008  1.00  0.00     0.049 A 
ATOM     49  C   UNL     1      -1.354 -10.293 -10.204  1.00  0.00     0.074 A 
ATOM     50  C   UNL     1       4.155 -13.307 -11.155  1.00  0.00     0.029 A 
ATOM     51  N   UNL     1       2.470 -12.143 -10.285  1.00  0.00    -0.354 N 
ATOM     52  N   UNL     1      -0.196 -10.900 -10.304  1.00  0.00    -0.248 NA
ATOM     53  C   UNL     1      -2.134 -10.277 -11.450  1.00  0.00     0.031 C 
ATOM     54  C   UNL     1       3.177 -13.138 -12.140  1.00  0.00     0.029 A 
ATOM     55  C   UNL     1       2.117 -12.434 -11.591  1.00  0.00     0.049 A 
ATOM     56  H   UNL     1       1.913 -11.641  -9.647  1.00  0.00     0.167 HD
ATOM     57  C   UNL     1      -0.123 -11.366 -11.611  1.00  0.00     0.074 A 
ATOM     58  C   UNL     1      -1.356 -10.978 -12.263  1.00  0.00     0.031 C 
ATOM     59  C   UNL     1       0.875 -12.055 -12.216  1.00  0.00     0.037 A 
BRANCH  46  60
ATOM     60  C   UNL     1       5.793 -13.089  -8.618  1.00  0.00     0.057 A 
ATOM     61  C   UNL     1       6.070 -14.211  -7.826  1.00  0.00     0.134 A 
ATOM     62  C   UNL     1       6.862 -12.512  -9.315  1.00  0.00     0.134 A 
ATOM     63  F   UNL     1       5.095 -14.804  -7.121  1.00  0.00    -0.206 F 
ATOM     64  C   UNL     1       7.365 -14.720  -7.705  1.00  0.00     0.040 A 
ATOM     65  C   UNL     1       8.155 -13.030  -9.227  1.00  0.00     0.040 A 
ATOM     66  F   UNL     1       6.667 -11.440 -10.097  1.00  0.00    -0.206 F 
ATOM     67  C   UNL     1       8.411 -14.133  -8.414  1.00  0.00     0.006 A 
ENDBRANCH  46  60
BRANCH  47  68
ATOM     68  C   UNL     1      -3.311  -8.986  -9.100  1.00  0.00     0.057 A 
ATOM     69  C   UNL     1      -4.467  -9.756  -9.273  1.00  0.00     0.134 A 
ATOM     70  C   UNL     1      -3.468  -7.596  -9.027  1.00  0.00     0.134 A 
ATOM     71  F   UNL     1      -4.380 -11.091  -9.367  1.00  0.00    -0.206 F 
ATOM     72  C   UNL     1      -5.728  -9.169  -9.390  1.00  0.00     0.040 A 
ATOM     73  C   UNL     1      -4.726  -6.997  -9.117  1.00  0.00     0.040 A 
ATOM     74  F   UNL     1      -2.402  -6.802  -8.852  1.00  0.00    -0.206 F 
ATOM     75  C   UNL     1      -5.860  -7.784  -9.307  1.00  0.00     0.006 A 
ENDBRANCH  47  68
BRANCH  59  76
ATOM     76  C   UNL     1       0.659 -12.478 -13.638  1.00  0.00     0.057 A 
ATOM     77  C   UNL     1       0.706 -11.565 -14.698  1.00  0.00     0.134 A 
ATOM     78  C   UNL     1       0.465 -13.829 -13.953  1.00  0.00     0.134 A 
ATOM     79  F   UNL     1       0.876 -10.255 -14.462  1.00  0.00    -0.206 F 
ATOM     80  C   UNL     1       0.552 -11.980 -16.022  1.00  0.00     0.040 A 
ATOM     81  C   UNL     1       0.337 -14.259 -15.273  1.00  0.00     0.040 A 
ATOM     82  F   UNL     1       0.420 -14.755 -12.983  1.00  0.00    -0.206 F 
ATOM     83  C   UNL     1       0.376 -13.332 -16.312  1.00  0.00     0.006 A 
ENDBRANCH  59  76
ENDBRANCH  33  34
ENDBRANCH  25  28
ENDBRANCH  23  24
ENDBRANCH   1  23
TORSDOF 12
