REMARK SMILES COc1cccc(Cn2c(=O)c(=O)n(CC(=O)NCCCNC(=O)c3ccc(-c4c5nc(c(-c6c(F)cccc6F)c6ccc([nH]6)c(-c6c(F)cccc6F)c6nc(c(-c7c(F)cccc7F)c7ccc4[nH]7)C=C6)C=C5)cc3)c3ccccc32)c1
REMARK SMILES IDX 19 1 18 2 16 3 17 4 15 6 14 7 9 8 10 9 84 10 11 11 12 12
REMARK SMILES IDX 79 13 83 14 13 15 80 16 82 17 81 18 8 19 7 20 3 21 4 22
REMARK SMILES IDX 85 23 5 24 6 25 2 26 1 27 20 28 21 29 22 30 23 31 24 33
REMARK SMILES IDX 25 34 26 35 78 36 27 37 77 38 28 39 29 40 30 41 71 42 31 43
REMARK SMILES IDX 76 44 70 45 72 46 32 47 75 48 69 49 68 50 33 52 59 53 42 54
REMARK SMILES IDX 58 55 43 56 46 57 57 58 73 59 44 60 45 61 56 63 74 64 47 65
REMARK SMILES IDX 34 66 35 67 40 68 36 69 37 70 39 71 41 72 38 73 60 74 61 75
REMARK SMILES IDX 66 76 62 77 63 78 65 79 67 80 64 81 48 82 49 83 54 84 50 85
REMARK SMILES IDX 51 86 53 87 55 88 52 89
REMARK H PARENT 18 5 22 32 72 51 46 62
REMARK Flexibility Score: inf
ROOT
ATOM      1  C   UNL     1       0.781  -5.203  -4.370  1.00  0.00     0.117 C 
ENDROOT
BRANCH   1   2
ATOM      2  N   UNL     1       1.161  -6.599  -4.320  1.00  0.00    -0.354 N 
ATOM      3  C   UNL     1       2.343  -7.193  -4.011  1.00  0.00     0.240 C 
ATOM      4  O   UNL     1       2.356  -8.430  -4.045  1.00  0.00    -0.273 OA
ATOM      5  H   UNL     1       0.438  -7.227  -4.550  1.00  0.00     0.163 HD
BRANCH   3   6
ATOM      6  C   UNL     1       3.549  -6.448  -3.427  1.00  0.00     0.226 C 
BRANCH   6   7
ATOM      7  N   UNL     1       4.071  -5.194  -3.954  1.00  0.00    -0.293 N 
ATOM      8  N   UNL     1       5.165  -2.720  -4.737  1.00  0.00    -0.298 N 
ATOM      9  C   UNL     1       5.014  -2.997  -3.392  1.00  0.00     0.317 A 
ATOM     10  C   UNL     1       5.355  -3.848  -5.579  1.00  0.00     0.068 A 
ATOM     11  O   UNL     1       5.592  -2.410  -2.474  1.00  0.00    -0.263 OA
ATOM     12  C   UNL     1       4.009  -4.098  -3.101  1.00  0.00     0.317 A 
ATOM     13  C   UNL     1       4.849  -5.111  -5.155  1.00  0.00     0.069 A 
ATOM     14  C   UNL     1       6.166  -3.766  -6.718  1.00  0.00     0.028 A 
ATOM     15  O   UNL     1       3.256  -3.998  -2.130  1.00  0.00    -0.263 OA
ATOM     16  C   UNL     1       5.139  -6.247  -5.919  1.00  0.00     0.028 A 
ATOM     17  C   UNL     1       6.499  -4.924  -7.423  1.00  0.00     0.002 A 
ATOM     18  C   UNL     1       5.980  -6.155  -7.031  1.00  0.00     0.002 A 
BRANCH   8  19
ATOM     19  C   UNL     1       5.236  -1.318  -5.153  1.00  0.00     0.162 C 
BRANCH  19  20
ATOM     20  C   UNL     1       3.907  -0.642  -4.793  1.00  0.00    -0.024 A 
ATOM     21  C   UNL     1       2.298  -0.300  -3.007  1.00  0.00     0.119 A 
ATOM     22  C   UNL     1       1.266  -0.214  -3.932  1.00  0.00     0.046 A 
ATOM     23  C   UNL     1       3.615  -0.404  -3.438  1.00  0.00     0.052 A 
ATOM     24  C   UNL     1       1.562  -0.266  -5.297  1.00  0.00     0.004 A 
ATOM     25  C   UNL     1       2.871  -0.519  -5.728  1.00  0.00     0.006 A 
BRANCH  21  26
ATOM     26  O   UNL     1       2.049  -0.628  -1.703  1.00  0.00    -0.497 OA
ATOM     27  C   UNL     1       1.605   0.456  -0.906  1.00  0.00     0.278 C 
ENDBRANCH  21  26
ENDBRANCH  19  20
ENDBRANCH   8  19
ENDBRANCH   6   7
ENDBRANCH   3   6
ENDBRANCH   1   2
BRANCH   1  28
ATOM     28  C   UNL     1       0.993  -4.616  -5.763  1.00  0.00     0.042 C 
BRANCH  28  29
ATOM     29  C   UNL     1      -0.003  -5.130  -6.805  1.00  0.00     0.118 C 
BRANCH  29  30
ATOM     30  N   UNL     1      -1.331  -4.560  -6.638  1.00  0.00    -0.352 N 
ATOM     31  C   UNL     1      -2.220  -4.109  -7.581  1.00  0.00     0.251 C 
ATOM     32  H   UNL     1      -1.638  -4.485  -5.705  1.00  0.00     0.163 HD
ATOM     33  O   UNL     1      -3.225  -3.502  -7.219  1.00  0.00    -0.269 OA
BRANCH  31  34
ATOM     34  C   UNL     1      -1.987  -4.327  -9.029  1.00  0.00     0.039 A 
ATOM     35  C   UNL     1      -2.352  -3.311  -9.921  1.00  0.00     0.014 A 
ATOM     36  C   UNL     1      -1.490  -5.536  -9.524  1.00  0.00     0.014 A 
ATOM     37  C   UNL     1      -2.193  -3.494 -11.298  1.00  0.00     0.010 A 
ATOM     38  C   UNL     1      -1.281  -5.698 -10.894  1.00  0.00     0.010 A 
ATOM     39  C   UNL     1      -1.644  -4.684 -11.794  1.00  0.00    -0.014 A 
BRANCH  39  40
ATOM     40  C   UNL     1      -1.477  -4.906 -13.252  1.00  0.00     0.031 A 
ATOM     41  C   UNL     1      -2.298  -5.955 -13.950  1.00  0.00     0.074 A 
ATOM     42  C   UNL     1      -0.549  -4.208 -13.933  1.00  0.00     0.049 A 
ATOM     43  N   UNL     1      -2.229  -6.372 -15.188  1.00  0.00    -0.248 NA
ATOM     44  C   UNL     1      -3.314  -6.644 -13.139  1.00  0.00     0.031 C 
ATOM     45  C   UNL     1       0.327  -3.184 -13.362  1.00  0.00     0.029 A 
ATOM     46  N   UNL     1      -0.179  -4.265 -15.253  1.00  0.00    -0.354 N 
ATOM     47  C   UNL     1      -3.172  -7.386 -15.298  1.00  0.00     0.074 A 
ATOM     48  C   UNL     1      -3.776  -7.546 -13.993  1.00  0.00     0.031 C 
ATOM     49  C   UNL     1       1.125  -2.701 -14.328  1.00  0.00     0.029 A 
ATOM     50  C   UNL     1       0.841  -3.404 -15.575  1.00  0.00     0.049 A 
ATOM     51  H   UNL     1      -0.604  -4.866 -15.906  1.00  0.00     0.167 HD
ATOM     52  C   UNL     1      -3.516  -8.107 -16.392  1.00  0.00     0.037 A 
ATOM     53  C   UNL     1       1.482  -3.212 -16.744  1.00  0.00     0.037 A 
ATOM     54  C   UNL     1      -2.942  -7.918 -17.698  1.00  0.00     0.049 A 
ATOM     55  C   UNL     1       1.079  -4.019 -17.945  1.00  0.00     0.074 A 
ATOM     56  C   UNL     1      -3.267  -8.551 -18.884  1.00  0.00     0.029 A 
ATOM     57  N   UNL     1      -1.924  -7.021 -17.987  1.00  0.00    -0.354 N 
ATOM     58  N   UNL     1       0.155  -4.944 -18.044  1.00  0.00    -0.248 NA
ATOM     59  C   UNL     1       1.805  -3.757 -19.195  1.00  0.00     0.031 C 
ATOM     60  C   UNL     1      -2.425  -8.058 -19.887  1.00  0.00     0.029 A 
ATOM     61  C   UNL     1      -1.598  -7.096 -19.331  1.00  0.00     0.049 A 
ATOM     62  H   UNL     1      -1.497  -6.421 -17.334  1.00  0.00     0.167 HD
ATOM     63  C   UNL     1       0.175  -5.360 -19.369  1.00  0.00     0.074 A 
ATOM     64  C   UNL     1       1.195  -4.578 -20.038  1.00  0.00     0.031 C 
ATOM     65  C   UNL     1      -0.582  -6.305 -19.976  1.00  0.00     0.037 A 
BRANCH  52  66
ATOM     66  C   UNL     1      -4.564  -9.167 -16.221  1.00  0.00     0.057 A 
ATOM     67  C   UNL     1      -5.915  -8.845 -16.035  1.00  0.00     0.134 A 
ATOM     68  C   UNL     1      -4.223 -10.524 -16.268  1.00  0.00     0.134 A 
ATOM     69  F   UNL     1      -6.304  -7.563 -15.968  1.00  0.00    -0.206 F 
ATOM     70  C   UNL     1      -6.886  -9.835 -15.878  1.00  0.00     0.040 A 
ATOM     71  C   UNL     1      -5.189 -11.524 -16.136  1.00  0.00     0.040 A 
ATOM     72  F   UNL     1      -2.948 -10.901 -16.449  1.00  0.00    -0.206 F 
ATOM     73  C   UNL     1      -6.524 -11.180 -15.934  1.00  0.00     0.006 A 
ENDBRANCH  52  66
BRANCH  53  74
ATOM     74  C   UNL     1       2.562  -2.200 -16.836  1.00  0.00     0.057 A 
ATOM     75  C   UNL     1       2.360  -0.994 -17.516  1.00  0.00     0.134 A 
ATOM     76  C   UNL     1       3.813  -2.406 -16.242  1.00  0.00     0.134 A 
ATOM     77  F   UNL     1       1.188  -0.748 -18.120  1.00  0.00    -0.206 F 
ATOM     78  C   UNL     1       3.366  -0.031 -17.612  1.00  0.00     0.040 A 
ATOM     79  C   UNL     1       4.822  -1.444 -16.314  1.00  0.00     0.040 A 
ATOM     80  F   UNL     1       4.065  -3.539 -15.570  1.00  0.00    -0.206 F 
ATOM     81  C   UNL     1       4.601  -0.254 -17.004  1.00  0.00     0.006 A 
ENDBRANCH  53  74
BRANCH  65  82
ATOM     82  C   UNL     1      -0.350  -6.529 -21.439  1.00  0.00     0.057 A 
ATOM     83  C   UNL     1       0.764  -7.237 -21.905  1.00  0.00     0.134 A 
ATOM     84  C   UNL     1      -1.274  -6.071 -22.387  1.00  0.00     0.134 A 
ATOM     85  F   UNL     1       1.690  -7.689 -21.046  1.00  0.00    -0.206 F 
ATOM     86  C   UNL     1       0.959  -7.470 -23.267  1.00  0.00     0.040 A 
ATOM     87  C   UNL     1      -1.100  -6.315 -23.749  1.00  0.00     0.040 A 
ATOM     88  F   UNL     1      -2.364  -5.391 -22.002  1.00  0.00    -0.206 F 
ATOM     89  C   UNL     1       0.021  -7.014 -24.192  1.00  0.00     0.006 A 
ENDBRANCH  65  82
ENDBRANCH  39  40
ENDBRANCH  31  34
ENDBRANCH  29  30
ENDBRANCH  28  29
ENDBRANCH   1  28
TORSDOF 14
