REMARK SMILES C[C@@H]1[NH2+]CC[C@@H]1C(=O)N1CCC[N@H+](CC(=O)NCCCNC(=O)c2ccc(-c3c4nc(c(-c5c(F)cccc5F)c5ccc([nH]5)c(-c5c(F)cccc5F)c5nc(c(-c6c(F)cccc6F)c6ccc3[nH]6)C=C5)C=C4)cc2)CC1
REMARK SMILES IDX 15 1 16 2 17 3 14 5 13 6 78 8 79 9 9 10 7 11 8 12 6 13 1 14
REMARK SMILES IDX 2 15 3 16 4 17 5 20 10 21 11 22 12 24 18 26 19 27 20 28
REMARK SMILES IDX 21 29 22 30 23 32 24 33 25 34 77 35 26 36 76 37 27 38 28 39
REMARK SMILES IDX 29 40 70 41 30 42 75 43 69 44 71 45 31 46 74 47 68 48 67 49
REMARK SMILES IDX 32 51 58 52 41 53 57 54 42 55 45 56 56 57 72 58 43 59 44 60
REMARK SMILES IDX 55 62 73 63 46 64 33 65 34 66 39 67 35 68 36 69 38 70 40 71
REMARK SMILES IDX 37 72 59 73 60 74 65 75 61 76 62 77 64 78 66 79 63 80 47 81
REMARK SMILES IDX 48 82 53 83 49 84 50 85 52 86 54 87 51 88
REMARK H PARENT 17 4 13 7 3 18 3 19 21 31 71 50 45 61
REMARK Flexibility Score: 90.00
ROOT
ATOM      1  C   UNL     1       4.537   1.948  -1.586  1.00  0.00     0.275 C 
ATOM      2  O   UNL     1       4.744   0.787  -1.215  1.00  0.00    -0.269 OA
ATOM      3  N   UNL     1       4.046   2.813  -0.648  1.00  0.00    -0.351 N 
ATOM      4  H   UNL     1       3.677   2.372   0.151  1.00  0.00     0.163 HD
ENDROOT
BRANCH   1   5
ATOM      5  C   UNL     1       4.817   2.384  -3.027  1.00  0.00     0.363 C 
BRANCH   5   6
ATOM      6  N   UNL     1       3.858   1.889  -4.026  1.00  0.00    -0.326 N 
ATOM      7  H   UNL     1       4.349   2.255  -4.841  1.00  0.00     0.348 HD
BRANCH   6   8
ATOM      8  C   UNL     1       2.589   2.578  -4.170  1.00  0.00     0.284 C 
BRANCH   8   9
ATOM      9  C   UNL     1       1.558   2.418  -3.050  1.00  0.00     0.180 C 
BRANCH   9  10
ATOM     10  N   UNL     1       1.084   1.104  -2.626  1.00  0.00    -0.336 N 
BRANCH  10  11
ATOM     11  C   UNL     1      -0.141   1.089  -1.990  1.00  0.00     0.232 C 
ATOM     12  O   UNL     1      -1.066   1.744  -2.494  1.00  0.00    -0.274 OA
BRANCH  11  13
ATOM     13  C   UNL     1      -0.285   0.659  -0.510  1.00  0.00     0.142 C 
ATOM     14  C   UNL     1       1.862  -0.703   0.295  1.00  0.00     0.076 C 
ATOM     15  C   UNL     1       0.366  -0.476   0.276  1.00  0.00     0.192 C 
ATOM     16  N   UNL     1      -0.393  -1.690  -0.048  1.00  0.00    -0.343 N 
ATOM     17  C   UNL     1      -1.728  -1.249  -0.472  1.00  0.00     0.261 C 
ATOM     18  H   UNL     1      -0.465  -2.290   0.774  1.00  0.00     0.346 HD
ATOM     19  H   UNL     1       0.067  -2.227  -0.783  1.00  0.00     0.346 HD
ATOM     20  C   UNL     1      -1.756   0.261  -0.285  1.00  0.00     0.081 C 
ENDBRANCH  11  13
ENDBRANCH  10  11
BRANCH  10  21
ATOM     21  C   UNL     1       1.916  -0.079  -2.753  1.00  0.00     0.125 C 
BRANCH  21  22
ATOM     22  C   UNL     1       2.527  -0.284  -4.132  1.00  0.00     0.083 CG0
ATOM     23  G   UNL     1       3.853   0.465  -4.325  1.00  0.00     0.000 G0
ENDBRANCH  21  22
ENDBRANCH  10  21
ENDBRANCH   9  10
ENDBRANCH   8   9
ENDBRANCH   6   8
BRANCH   6  24
ATOM     24  C   UNL     1       3.853   0.465  -4.325  1.00  0.00     0.264 CG0
ATOM     25  G   UNL     1       2.527  -0.284  -4.132  1.00  0.00     0.000 G0
ENDBRANCH   6  24
ENDBRANCH   5   6
ENDBRANCH   1   5
BRANCH   3  26
ATOM     26  C   UNL     1       3.970   4.266  -0.615  1.00  0.00     0.118 C 
BRANCH  26  27
ATOM     27  C   UNL     1       2.558   4.875  -0.646  1.00  0.00     0.042 C 
BRANCH  27  28
ATOM     28  C   UNL     1       1.482   4.175   0.196  1.00  0.00     0.118 C 
BRANCH  28  29
ATOM     29  N   UNL     1       1.200   4.873   1.439  1.00  0.00    -0.352 N 
ATOM     30  C   UNL     1       0.062   5.512   1.867  1.00  0.00     0.251 C 
ATOM     31  H   UNL     1       1.948   4.891   2.079  1.00  0.00     0.163 HD
ATOM     32  O   UNL     1       0.119   6.200   2.888  1.00  0.00    -0.269 OA
BRANCH  30  33
ATOM     33  C   UNL     1      -1.234   5.410   1.148  1.00  0.00     0.039 A 
ATOM     34  C   UNL     1      -2.012   6.565   1.009  1.00  0.00     0.014 A 
ATOM     35  C   UNL     1      -1.758   4.184   0.730  1.00  0.00     0.014 A 
ATOM     36  C   UNL     1      -3.289   6.497   0.435  1.00  0.00     0.010 A 
ATOM     37  C   UNL     1      -3.017   4.122   0.114  1.00  0.00     0.010 A 
ATOM     38  C   UNL     1      -3.805   5.275  -0.024  1.00  0.00    -0.014 A 
BRANCH  38  39
ATOM     39  C   UNL     1      -5.173   5.200  -0.613  1.00  0.00     0.031 A 
ATOM     40  C   UNL     1      -6.292   4.511   0.125  1.00  0.00     0.074 A 
ATOM     41  C   UNL     1      -5.422   5.744  -1.820  1.00  0.00     0.049 A 
ATOM     42  N   UNL     1      -7.538   4.328  -0.240  1.00  0.00    -0.248 NA
ATOM     43  C   UNL     1      -5.966   3.946   1.443  1.00  0.00     0.031 C 
ATOM     44  C   UNL     1      -4.437   6.423  -2.659  1.00  0.00     0.029 A 
ATOM     45  N   UNL     1      -6.583   5.802  -2.554  1.00  0.00    -0.354 N 
ATOM     46  C   UNL     1      -8.142   3.626   0.795  1.00  0.00     0.074 A 
ATOM     47  C   UNL     1      -7.116   3.384   1.789  1.00  0.00     0.031 C 
ATOM     48  C   UNL     1      -5.034   6.834  -3.791  1.00  0.00     0.029 A 
ATOM     49  C   UNL     1      -6.436   6.424  -3.770  1.00  0.00     0.049 A 
ATOM     50  H   UNL     1      -7.439   5.433  -2.237  1.00  0.00     0.167 HD
ATOM     51  C   UNL     1      -9.433   3.232   0.919  1.00  0.00     0.037 A 
ATOM     52  C   UNL     1      -7.323   6.633  -4.763  1.00  0.00     0.037 A 
ATOM     53  C   UNL     1     -10.466   3.478  -0.053  1.00  0.00     0.049 A 
ATOM     54  C   UNL     1      -8.747   6.174  -4.608  1.00  0.00     0.074 A 
ATOM     55  C   UNL     1     -11.808   3.137   0.009  1.00  0.00     0.029 A 
ATOM     56  N   UNL     1     -10.277   4.126  -1.263  1.00  0.00    -0.354 N 
ATOM     57  N   UNL     1      -9.310   5.551  -3.602  1.00  0.00    -0.248 NA
ATOM     58  C   UNL     1      -9.662   6.455  -5.726  1.00  0.00     0.031 C 
ATOM     59  C   UNL     1     -12.424   3.553  -1.176  1.00  0.00     0.029 A 
ATOM     60  C   UNL     1     -11.473   4.185  -1.960  1.00  0.00     0.049 A 
ATOM     61  H   UNL     1      -9.419   4.490  -1.581  1.00  0.00     0.167 HD
ATOM     62  C   UNL     1     -10.644   5.390  -3.954  1.00  0.00     0.074 A 
ATOM     63  C   UNL     1     -10.812   5.988  -5.260  1.00  0.00     0.031 C 
ATOM     64  C   UNL     1     -11.639   4.797  -3.252  1.00  0.00     0.037 A 
BRANCH  51  65
ATOM     65  C   UNL     1      -9.812   2.490   2.167  1.00  0.00     0.057 A 
ATOM     66  C   UNL     1      -9.942   3.145   3.398  1.00  0.00     0.134 A 
ATOM     67  C   UNL     1     -10.106   1.121   2.128  1.00  0.00     0.134 A 
ATOM     68  F   UNL     1      -9.669   4.455   3.503  1.00  0.00    -0.206 F 
ATOM     69  C   UNL     1     -10.332   2.462   4.551  1.00  0.00     0.040 A 
ATOM     70  C   UNL     1     -10.518   0.431   3.269  1.00  0.00     0.040 A 
ATOM     71  F   UNL     1     -10.012   0.437   0.978  1.00  0.00    -0.206 F 
ATOM     72  C   UNL     1     -10.628   1.101   4.486  1.00  0.00     0.006 A 
ENDBRANCH  51  65
BRANCH  52  73
ATOM     73  C   UNL     1      -6.891   7.320  -6.005  1.00  0.00     0.057 A 
ATOM     74  C   UNL     1      -7.307   8.624  -6.293  1.00  0.00     0.134 A 
ATOM     75  C   UNL     1      -6.067   6.681  -6.939  1.00  0.00     0.134 A 
ATOM     76  F   UNL     1      -8.117   9.277  -5.447  1.00  0.00    -0.206 F 
ATOM     77  C   UNL     1      -6.932   9.264  -7.475  1.00  0.00     0.040 A 
ATOM     78  C   UNL     1      -5.667   7.317  -8.114  1.00  0.00     0.040 A 
ATOM     79  F   UNL     1      -5.636   5.431  -6.718  1.00  0.00    -0.206 F 
ATOM     80  C   UNL     1      -6.106   8.611  -8.388  1.00  0.00     0.006 A 
ENDBRANCH  52  73
BRANCH  64  81
ATOM     81  C   UNL     1     -13.011   4.798  -3.860  1.00  0.00     0.057 A 
ATOM     82  C   UNL     1     -13.350   3.946  -4.918  1.00  0.00     0.134 A 
ATOM     83  C   UNL     1     -14.016   5.629  -3.349  1.00  0.00     0.134 A 
ATOM     84  F   UNL     1     -12.430   3.135  -5.460  1.00  0.00    -0.206 F 
ATOM     85  C   UNL     1     -14.638   3.931  -5.456  1.00  0.00     0.040 A 
ATOM     86  C   UNL     1     -15.312   5.609  -3.866  1.00  0.00     0.040 A 
ATOM     87  F   UNL     1     -13.757   6.464  -2.331  1.00  0.00    -0.206 F 
ATOM     88  C   UNL     1     -15.625   4.760  -4.925  1.00  0.00     0.006 A 
ENDBRANCH  64  81
ENDBRANCH  38  39
ENDBRANCH  30  33
ENDBRANCH  28  29
ENDBRANCH  27  28
ENDBRANCH  26  27
ENDBRANCH   3  26
TORSDOF 13
