REMARK SMILES NS(=O)(=O)c1ccc(-n2nc(C(=O)NCCCC(=O)NCCCNC(=O)c3ccc(-c4c5nc(c(-c6c(F)cccc6F)c6ccc([nH]6)c(-c6c(F)cccc6F)c6nc(c(-c7c(F)cccc7F)c7ccc4[nH]7)C=C6)C=C5)cc3)cc2-c2ccccc2)cc1
REMARK SMILES IDX 18 1 19 2 20 3 17 5 16 6 15 7 14 8 12 9 13 10 11 12 9 13
REMARK SMILES IDX 10 14 82 15 81 16 8 17 5 18 6 19 90 20 7 21 89 22 2 23 3 24
REMARK SMILES IDX 4 25 1 26 83 29 84 30 88 31 85 32 87 33 86 34 21 35 22 36
REMARK SMILES IDX 23 37 24 38 25 39 26 41 27 42 28 43 80 44 29 45 79 46 30 47
REMARK SMILES IDX 31 48 32 49 73 50 33 51 78 52 72 53 74 54 34 55 77 56 71 57
REMARK SMILES IDX 70 58 35 60 61 61 44 62 60 63 45 64 48 65 59 66 75 67 46 68
REMARK SMILES IDX 47 69 58 71 76 72 49 73 36 74 37 75 42 76 38 77 39 78 41 79
REMARK SMILES IDX 43 80 40 81 62 82 63 83 68 84 64 85 65 86 67 87 69 88 66 89
REMARK SMILES IDX 50 90 51 91 56 92 52 93 53 94 55 95 57 96 54 97
REMARK H PARENT 20 4 14 11 1 27 1 28 24 40 74 59 48 70
REMARK Flexibility Score: inf
ROOT
ATOM      1  C   UNL     1       3.399  12.642  -6.337  1.00  0.00     0.220 C 
ATOM      2  O   UNL     1       3.409  13.141  -7.464  1.00  0.00    -0.275 OA
ATOM      3  N   UNL     1       4.575  12.187  -5.826  1.00  0.00    -0.356 N 
ATOM      4  H   UNL     1       5.360  12.346  -6.399  1.00  0.00     0.163 HD
ENDROOT
BRANCH   1   5
ATOM      5  C   UNL     1       2.115  12.552  -5.541  1.00  0.00     0.102 C 
BRANCH   5   6
ATOM      6  C   UNL     1       1.240  11.345  -5.887  1.00  0.00     0.031 C 
BRANCH   6   7
ATOM      7  C   UNL     1       1.693  10.001  -5.328  1.00  0.00     0.116 C 
BRANCH   7   8
ATOM      8  N   UNL     1       1.956  10.010  -3.901  1.00  0.00    -0.351 N 
ATOM      9  C   UNL     1       2.227   8.969  -3.040  1.00  0.00     0.271 C 
ATOM     10  O   UNL     1       2.442   9.259  -1.862  1.00  0.00    -0.267 OA
ATOM     11  H   UNL     1       1.937  10.901  -3.482  1.00  0.00     0.163 HD
BRANCH   9  12
ATOM     12  C   UNL     1       2.241   7.586  -3.538  1.00  0.00     0.151 A 
ATOM     13  N   UNL     1       1.912   5.465  -3.538  1.00  0.00    -0.232 N 
ATOM     14  N   UNL     1       1.712   6.587  -2.809  1.00  0.00    -0.162 NA
ATOM     15  C   UNL     1       2.361   5.760  -4.819  1.00  0.00     0.075 A 
ATOM     16  C   UNL     1       2.724   7.090  -4.773  1.00  0.00     0.065 A 
BRANCH  13  17
ATOM     17  C   UNL     1       1.620   4.187  -2.996  1.00  0.00     0.065 A 
ATOM     18  C   UNL     1       0.909   1.650  -2.113  1.00  0.00     0.082 A 
ATOM     19  C   UNL     1       2.024   1.802  -2.940  1.00  0.00     0.024 A 
ATOM     20  C   UNL     1       0.165   2.760  -1.696  1.00  0.00     0.024 A 
ATOM     21  C   UNL     1       2.378   3.073  -3.386  1.00  0.00     0.030 A 
ATOM     22  C   UNL     1       0.542   4.039  -2.113  1.00  0.00     0.030 A 
BRANCH  18  23
ATOM     23  S   UNL     1       0.405   0.020  -1.652  1.00  0.00     0.238 S 
ATOM     24  O   UNL     1       1.092  -0.944  -2.470  1.00  0.00    -0.207 OA
ATOM     25  O   UNL     1      -1.035   0.005  -1.480  1.00  0.00    -0.207 OA
BRANCH  23  26
ATOM     26  N   UNL     1       1.063  -0.123  -0.117  1.00  0.00    -0.225 NA
ATOM     27  H   UNL     1       0.838  -1.041   0.266  1.00  0.00     0.137 HD
ATOM     28  H   UNL     1       0.677   0.602   0.487  1.00  0.00     0.137 HD
ENDBRANCH  23  26
ENDBRANCH  18  23
ENDBRANCH  13  17
BRANCH  15  29
ATOM     29  C   UNL     1       2.269   4.892  -5.993  1.00  0.00     0.000 A 
ATOM     30  C   UNL     1       1.075   4.207  -6.272  1.00  0.00     0.010 A 
ATOM     31  C   UNL     1       3.328   4.803  -6.902  1.00  0.00     0.010 A 
ATOM     32  C   UNL     1       0.951   3.431  -7.424  1.00  0.00     0.001 A 
ATOM     33  C   UNL     1       3.200   4.031  -8.059  1.00  0.00     0.001 A 
ATOM     34  C   UNL     1       2.014   3.346  -8.319  1.00  0.00     0.000 A 
ENDBRANCH  15  29
ENDBRANCH   9  12
ENDBRANCH   7   8
ENDBRANCH   6   7
ENDBRANCH   5   6
ENDBRANCH   1   5
BRANCH   3  35
ATOM     35  C   UNL     1       4.868  11.503  -4.572  1.00  0.00     0.117 C 
BRANCH  35  36
ATOM     36  C   UNL     1       5.183  10.020  -4.791  1.00  0.00     0.042 C 
BRANCH  36  37
ATOM     37  C   UNL     1       6.597   9.790  -5.270  1.00  0.00     0.118 C 
BRANCH  37  38
ATOM     38  N   UNL     1       7.597   9.867  -4.208  1.00  0.00    -0.352 N 
ATOM     39  C   UNL     1       8.934   9.516  -4.293  1.00  0.00     0.251 C 
ATOM     40  H   UNL     1       7.287  10.206  -3.338  1.00  0.00     0.163 HD
ATOM     41  O   UNL     1       9.600   9.300  -3.289  1.00  0.00    -0.269 OA
BRANCH  39  42
ATOM     42  C   UNL     1       9.540   9.403  -5.633  1.00  0.00     0.039 A 
ATOM     43  C   UNL     1      10.482   8.423  -5.951  1.00  0.00     0.014 A 
ATOM     44  C   UNL     1       9.092  10.292  -6.604  1.00  0.00     0.014 A 
ATOM     45  C   UNL     1      10.918   8.328  -7.271  1.00  0.00     0.010 A 
ATOM     46  C   UNL     1       9.307  10.023  -7.921  1.00  0.00     0.010 A 
ATOM     47  C   UNL     1      10.310   9.131  -8.250  1.00  0.00    -0.014 A 
BRANCH  47  48
ATOM     48  C   UNL     1      10.636   9.016  -9.661  1.00  0.00     0.031 A 
ATOM     49  C   UNL     1      10.476   7.643 -10.196  1.00  0.00     0.074 A 
ATOM     50  C   UNL     1      10.838  10.096 -10.450  1.00  0.00     0.049 A 
ATOM     51  N   UNL     1      11.413   6.841 -10.571  1.00  0.00    -0.248 NA
ATOM     52  C   UNL     1       9.143   7.019 -10.139  1.00  0.00     0.031 C 
ATOM     53  C   UNL     1      10.708  11.522 -10.120  1.00  0.00     0.029 A 
ATOM     54  N   UNL     1      11.111  10.131 -11.782  1.00  0.00    -0.354 N 
ATOM     55  C   UNL     1      10.770   5.696 -11.024  1.00  0.00     0.074 A 
ATOM     56  C   UNL     1       9.416   5.776 -10.544  1.00  0.00     0.031 C 
ATOM     57  C   UNL     1      10.661  12.254 -11.256  1.00  0.00     0.029 A 
ATOM     58  C   UNL     1      10.934  11.379 -12.378  1.00  0.00     0.049 A 
ATOM     59  H   UNL     1      11.411   9.339 -12.284  1.00  0.00     0.167 HD
ATOM     60  C   UNL     1      11.340   4.916 -11.983  1.00  0.00     0.037 A 
ATOM     61  C   UNL     1      10.973  11.636 -13.711  1.00  0.00     0.037 A 
ATOM     62  C   UNL     1      12.746   5.212 -12.123  1.00  0.00     0.049 A 
ATOM     63  C   UNL     1      11.704  10.505 -14.346  1.00  0.00     0.074 A 
ATOM     64  C   UNL     1      13.822   5.200 -11.254  1.00  0.00     0.029 A 
ATOM     65  N   UNL     1      13.133   6.004 -13.178  1.00  0.00    -0.354 N 
ATOM     66  N   UNL     1      12.973  10.270 -14.145  1.00  0.00    -0.248 NA
ATOM     67  C   UNL     1      10.912   9.357 -14.764  1.00  0.00     0.031 C 
ATOM     68  C   UNL     1      14.557   6.381 -11.569  1.00  0.00     0.029 A 
ATOM     69  C   UNL     1      13.952   6.983 -12.673  1.00  0.00     0.049 A 
ATOM     70  H   UNL     1      12.872   5.890 -14.121  1.00  0.00     0.167 HD
ATOM     71  C   UNL     1      13.054   8.894 -13.981  1.00  0.00     0.074 A 
ATOM     72  C   UNL     1      11.757   8.380 -14.422  1.00  0.00     0.031 C 
ATOM     73  C   UNL     1      14.032   8.320 -13.218  1.00  0.00     0.037 A 
BRANCH  60  74
ATOM     74  C   UNL     1      10.561   4.184 -13.044  1.00  0.00     0.057 A 
ATOM     75  C   UNL     1      11.232   3.279 -13.883  1.00  0.00     0.134 A 
ATOM     76  C   UNL     1       9.261   4.538 -13.462  1.00  0.00     0.134 A 
ATOM     77  F   UNL     1      12.482   2.880 -13.605  1.00  0.00    -0.206 F 
ATOM     78  C   UNL     1      10.677   2.815 -15.082  1.00  0.00     0.040 A 
ATOM     79  C   UNL     1       8.677   4.041 -14.629  1.00  0.00     0.040 A 
ATOM     80  F   UNL     1       8.525   5.459 -12.827  1.00  0.00    -0.206 F 
ATOM     81  C   UNL     1       9.397   3.201 -15.461  1.00  0.00     0.006 A 
ENDBRANCH  60  74
BRANCH  61  82
ATOM     82  C   UNL     1      10.128  12.577 -14.487  1.00  0.00     0.057 A 
ATOM     83  C   UNL     1      10.442  12.921 -15.810  1.00  0.00     0.134 A 
ATOM     84  C   UNL     1       8.843  12.945 -14.048  1.00  0.00     0.134 A 
ATOM     85  F   UNL     1      11.625  12.575 -16.339  1.00  0.00    -0.206 F 
ATOM     86  C   UNL     1       9.527  13.571 -16.652  1.00  0.00     0.040 A 
ATOM     87  C   UNL     1       7.922  13.597 -14.876  1.00  0.00     0.040 A 
ATOM     88  F   UNL     1       8.403  12.603 -12.829  1.00  0.00    -0.206 F 
ATOM     89  C   UNL     1       8.257  13.901 -16.189  1.00  0.00     0.006 A 
ENDBRANCH  61  82
BRANCH  73  90
ATOM     90  C   UNL     1      15.159   9.187 -12.716  1.00  0.00     0.057 A 
ATOM     91  C   UNL     1      14.996  10.279 -11.849  1.00  0.00     0.134 A 
ATOM     92  C   UNL     1      16.474   8.790 -12.982  1.00  0.00     0.134 A 
ATOM     93  F   UNL     1      13.782  10.677 -11.451  1.00  0.00    -0.206 F 
ATOM     94  C   UNL     1      16.090  10.963 -11.303  1.00  0.00     0.040 A 
ATOM     95  C   UNL     1      17.573   9.442 -12.418  1.00  0.00     0.040 A 
ATOM     96  F   UNL     1      16.711   7.720 -13.757  1.00  0.00    -0.206 F 
ATOM     97  C   UNL     1      17.385  10.538 -11.582  1.00  0.00     0.006 A 
ENDBRANCH  73  90
ENDBRANCH  47  48
ENDBRANCH  39  42
ENDBRANCH  37  38
ENDBRANCH  36  37
ENDBRANCH  35  36
ENDBRANCH   3  35
TORSDOF 18
