REMARK SMILES COc1ccc(/C=C2/C(=O)N(c3ccccc3)C(=O)[NH+]=C2NCCCNC(=O)c2ccc(-c3c4nc(c(-c5c(F)cccc5F)c5ccc([nH]5)c(-c5c(F)cccc5F)c5nc(c(-c6c(F)cccc6F)c6ccc3[nH]6)C=C5)C=C4)cc2)cc1C(=O)[O-]
REMARK SMILES IDX 24 1 23 2 22 3 7 4 8 5 9 6 21 7 10 8 11 9 20 10 18 11 19 14
REMARK SMILES IDX 6 15 3 16 4 17 84 18 5 19 83 20 2 21 1 22 85 23 86 24 87 25
REMARK SMILES IDX 12 26 13 27 17 28 14 29 16 30 15 31 25 32 26 33 27 34 28 36
REMARK SMILES IDX 29 37 30 38 82 39 31 40 81 41 32 42 33 43 34 44 75 45 35 46
REMARK SMILES IDX 80 47 74 48 76 49 36 50 79 51 73 52 72 53 37 55 63 56 46 57
REMARK SMILES IDX 62 58 47 59 50 60 61 61 77 62 48 63 49 64 60 66 78 67 51 68
REMARK SMILES IDX 38 69 39 70 44 71 40 72 41 73 43 74 45 75 42 76 64 77 65 78
REMARK SMILES IDX 70 79 66 80 67 81 69 82 71 83 68 84 52 85 53 86 58 87 54 88
REMARK SMILES IDX 55 89 57 90 59 91 56 92
REMARK H PARENT 20 12 22 13 26 35 76 54 50 65
REMARK Flexibility Score: inf
ROOT
ATOM      1  C   UNL     1      -1.506  -3.921   0.480  1.00  0.00     0.059 C 
ENDROOT
BRANCH   1   2
ATOM      2  C   UNL     1      -0.544  -4.474   1.507  1.00  0.00     0.195 C 
BRANCH   2   3
ATOM      3  N   UNL     1      -0.946  -5.721   2.079  1.00  0.00    -0.305 N 
ATOM      4  C   UNL     1       2.312  -6.009   2.646  1.00  0.00     0.030 C 
ATOM      5  C   UNL     1       1.300  -6.914   2.671  1.00  0.00     0.129 C 
ATOM      6  C   UNL     1       1.779  -8.341   2.803  1.00  0.00     0.328 C 
ATOM      7  C   UNL     1      -0.190  -6.762   2.555  1.00  0.00     0.236 C 
ATOM      8  O   UNL     1       2.961  -8.614   2.574  1.00  0.00    -0.249 OA
ATOM      9  N   UNL     1       0.815  -9.281   3.142  1.00  0.00    -0.155 N 
ATOM     10  N   UNL     1      -0.979  -7.741   2.898  1.00  0.00    -0.209 N 
ATOM     11  C   UNL     1      -0.516  -8.934   3.368  1.00  0.00     0.448 C 
ATOM     12  H   UNL     1      -1.952  -7.613   2.814  1.00  0.00     0.270 HD
ATOM     13  H   UNL     1      -1.919  -5.854   2.141  1.00  0.00     0.256 HD
ATOM     14  O   UNL     1      -1.291  -9.659   3.990  1.00  0.00    -0.212 OA
BRANCH   4  15
ATOM     15  C   UNL     1       2.359  -4.544   2.512  1.00  0.00    -0.024 A 
ATOM     16  C   UNL     1       2.177  -1.796   1.938  1.00  0.00     0.127 A 
ATOM     17  C   UNL     1       1.580  -2.322   3.088  1.00  0.00     0.048 A 
ATOM     18  C   UNL     1       3.045  -2.599   1.195  1.00  0.00     0.040 A 
ATOM     19  C   UNL     1       1.703  -3.686   3.397  1.00  0.00     0.012 A 
ATOM     20  C   UNL     1       3.096  -3.980   1.454  1.00  0.00     0.022 A 
BRANCH  16  21
ATOM     21  O   UNL     1       1.854  -0.501   1.628  1.00  0.00    -0.496 OA
ATOM     22  C   UNL     1       1.234  -0.387   0.342  1.00  0.00     0.278 C 
ENDBRANCH  16  21
BRANCH  18  23
ATOM     23  C   UNL     1       3.948  -2.063   0.149  1.00  0.00     0.075 C 
ATOM     24  O   UNL     1       4.343  -2.663  -0.823  1.00  0.00    -0.545 OA
ATOM     25  O   UNL     1       4.375  -0.819   0.441  1.00  0.00    -0.545 OA
ENDBRANCH  18  23
ENDBRANCH   4  15
BRANCH   9  26
ATOM     26  C   UNL     1       1.197 -10.652   3.356  1.00  0.00     0.111 A 
ATOM     27  C   UNL     1       0.395 -11.697   2.865  1.00  0.00     0.044 A 
ATOM     28  C   UNL     1       2.358 -10.984   4.068  1.00  0.00     0.044 A 
ATOM     29  C   UNL     1       0.743 -13.033   3.082  1.00  0.00     0.004 A 
ATOM     30  C   UNL     1       2.690 -12.321   4.309  1.00  0.00     0.004 A 
ATOM     31  C   UNL     1       1.885 -13.345   3.814  1.00  0.00     0.000 A 
ENDBRANCH   9  26
ENDBRANCH   2   3
ENDBRANCH   1   2
BRANCH   1  32
ATOM     32  C   UNL     1      -2.696  -3.185   1.081  1.00  0.00     0.119 C 
BRANCH  32  33
ATOM     33  N   UNL     1      -2.351  -2.046   1.939  1.00  0.00    -0.352 N 
ATOM     34  C   UNL     1      -2.350  -0.682   1.744  1.00  0.00     0.251 C 
ATOM     35  H   UNL     1      -2.060  -2.311   2.841  1.00  0.00     0.163 HD
ATOM     36  O   UNL     1      -1.921   0.053   2.629  1.00  0.00    -0.269 OA
BRANCH  34  37
ATOM     37  C   UNL     1      -2.800  -0.095   0.465  1.00  0.00     0.039 A 
ATOM     38  C   UNL     1      -2.126   1.010  -0.071  1.00  0.00     0.014 A 
ATOM     39  C   UNL     1      -3.864  -0.651  -0.231  1.00  0.00     0.014 A 
ATOM     40  C   UNL     1      -2.420   1.443  -1.368  1.00  0.00     0.010 A 
ATOM     41  C   UNL     1      -4.060  -0.321  -1.560  1.00  0.00     0.010 A 
ATOM     42  C   UNL     1      -3.345   0.733  -2.145  1.00  0.00    -0.014 A 
BRANCH  42  43
ATOM     43  C   UNL     1      -3.654   1.079  -3.553  1.00  0.00     0.031 A 
ATOM     44  C   UNL     1      -5.076   1.405  -3.922  1.00  0.00     0.074 A 
ATOM     45  C   UNL     1      -2.710   0.958  -4.506  1.00  0.00     0.049 A 
ATOM     46  N   UNL     1      -5.626   1.504  -5.103  1.00  0.00    -0.248 NA
ATOM     47  C   UNL     1      -6.020   1.581  -2.803  1.00  0.00     0.031 C 
ATOM     48  C   UNL     1      -1.310   0.594  -4.280  1.00  0.00     0.029 A 
ATOM     49  N   UNL     1      -2.798   1.101  -5.868  1.00  0.00    -0.354 N 
ATOM     50  C   UNL     1      -6.980   1.707  -4.867  1.00  0.00     0.074 A 
ATOM     51  C   UNL     1      -7.179   1.646  -3.437  1.00  0.00     0.031 C 
ATOM     52  C   UNL     1      -0.668   0.559  -5.460  1.00  0.00     0.029 A 
ATOM     53  C   UNL     1      -1.619   0.851  -6.527  1.00  0.00     0.049 A 
ATOM     54  H   UNL     1      -3.629   1.358  -6.329  1.00  0.00     0.167 HD
ATOM     55  C   UNL     1      -7.965   1.956  -5.759  1.00  0.00     0.037 A 
ATOM     56  C   UNL     1      -1.345   0.846  -7.845  1.00  0.00     0.037 A 
ATOM     57  C   UNL     1      -7.746   2.073  -7.174  1.00  0.00     0.049 A 
ATOM     58  C   UNL     1      -2.452   1.147  -8.820  1.00  0.00     0.074 A 
ATOM     59  C   UNL     1      -8.654   2.404  -8.164  1.00  0.00     0.029 A 
ATOM     60  N   UNL     1      -6.524   1.873  -7.798  1.00  0.00    -0.354 N 
ATOM     61  N   UNL     1      -3.716   1.402  -8.582  1.00  0.00    -0.248 NA
ATOM     62  C   UNL     1      -2.094   1.163 -10.245  1.00  0.00     0.031 C 
ATOM     63  C   UNL     1      -7.987   2.367  -9.392  1.00  0.00     0.029 A 
ATOM     64  C   UNL     1      -6.656   2.058  -9.162  1.00  0.00     0.049 A 
ATOM     65  H   UNL     1      -5.687   1.634  -7.338  1.00  0.00     0.167 HD
ATOM     66  C   UNL     1      -4.297   1.639  -9.821  1.00  0.00     0.074 A 
ATOM     67  C   UNL     1      -3.244   1.508 -10.807  1.00  0.00     0.031 C 
ATOM     68  C   UNL     1      -5.585   1.937 -10.119  1.00  0.00     0.037 A 
BRANCH  55  69
ATOM     69  C   UNL     1      -9.355   2.134  -5.221  1.00  0.00     0.057 A 
ATOM     70  C   UNL     1      -9.710   3.242  -4.438  1.00  0.00     0.134 A 
ATOM     71  C   UNL     1     -10.353   1.190  -5.490  1.00  0.00     0.134 A 
ATOM     72  F   UNL     1      -8.797   4.175  -4.128  1.00  0.00    -0.206 F 
ATOM     73  C   UNL     1     -10.994   3.385  -3.912  1.00  0.00     0.040 A 
ATOM     74  C   UNL     1     -11.651   1.338  -4.996  1.00  0.00     0.040 A 
ATOM     75  F   UNL     1     -10.085   0.107  -6.235  1.00  0.00    -0.206 F 
ATOM     76  C   UNL     1     -11.971   2.433  -4.196  1.00  0.00     0.006 A 
ENDBRANCH  55  69
BRANCH  56  77
ATOM     77  C   UNL     1       0.035   0.575  -8.323  1.00  0.00     0.057 A 
ATOM     78  C   UNL     1       0.811   1.595  -8.888  1.00  0.00     0.134 A 
ATOM     79  C   UNL     1       0.610  -0.699  -8.240  1.00  0.00     0.134 A 
ATOM     80  F   UNL     1       0.309   2.833  -9.011  1.00  0.00    -0.206 F 
ATOM     81  C   UNL     1       2.098   1.355  -9.372  1.00  0.00     0.040 A 
ATOM     82  C   UNL     1       1.905  -0.948  -8.698  1.00  0.00     0.040 A 
ATOM     83  F   UNL     1      -0.076  -1.717  -7.701  1.00  0.00    -0.206 F 
ATOM     84  C   UNL     1       2.650   0.080  -9.274  1.00  0.00     0.006 A 
ENDBRANCH  56  77
BRANCH  68  85
ATOM     85  C   UNL     1      -5.919   2.183 -11.560  1.00  0.00     0.057 A 
ATOM     86  C   UNL     1      -5.993   1.139 -12.489  1.00  0.00     0.134 A 
ATOM     87  C   UNL     1      -6.229   3.474 -12.006  1.00  0.00     0.134 A 
ATOM     88  F   UNL     1      -5.696  -0.117 -12.126  1.00  0.00    -0.206 F 
ATOM     89  C   UNL     1      -6.349   1.374 -13.818  1.00  0.00     0.040 A 
ATOM     90  C   UNL     1      -6.612   3.717 -13.324  1.00  0.00     0.040 A 
ATOM     91  F   UNL     1      -6.186   4.516 -11.161  1.00  0.00    -0.206 F 
ATOM     92  C   UNL     1      -6.669   2.665 -14.236  1.00  0.00     0.006 A 
ENDBRANCH  68  85
ENDBRANCH  42  43
ENDBRANCH  34  37
ENDBRANCH  32  33
ENDBRANCH   1  32
TORSDOF 13
