REMARK SMILES C[C@@H](C(=O)NCCCNC(=O)c1ccc(-c2c3nc(c(-c4c(F)cccc4F)c4ccc([nH]4)c(-c4c(F)cccc4F)c4nc(c(-c5c(F)cccc5F)c5ccc2[nH]5)C=C4)C=C3)cc1)c1ccc(-c2ccn(C(F)F)c(=O)c2)cc1
REMARK SMILES IDX 6 1 5 2 3 3 4 4 2 6 1 7 66 8 67 9 81 10 68 11 80 12 69 13
REMARK SMILES IDX 70 14 71 15 79 16 72 17 77 18 73 19 78 20 74 21 75 22 76 23
REMARK SMILES IDX 7 24 8 25 9 26 10 27 11 29 12 30 13 31 65 32 14 33 64 34
REMARK SMILES IDX 15 35 16 36 17 37 58 38 18 39 63 40 57 41 59 42 19 43 62 44
REMARK SMILES IDX 56 45 55 46 20 48 46 49 29 50 45 51 30 52 33 53 44 54 60 55
REMARK SMILES IDX 31 56 32 57 43 59 61 60 34 61 21 62 22 63 27 64 23 65 24 66
REMARK SMILES IDX 26 67 28 68 25 69 47 70 48 71 53 72 49 73 50 74 52 75 54 76
REMARK SMILES IDX 51 77 35 78 36 79 41 80 37 81 38 82 40 83 42 84 39 85
REMARK H PARENT 5 5 9 28 59 47 33 58
REMARK Flexibility Score: inf
ROOT
ATOM      1  C   UNL     1       3.357  -2.157  -0.195  1.00  0.00     0.117 C 
ENDROOT
BRANCH   1   2
ATOM      2  N   UNL     1       2.308  -2.615   0.697  1.00  0.00    -0.356 N 
ATOM      3  C   UNL     1       1.023  -2.179   0.859  1.00  0.00     0.227 C 
ATOM      4  O   UNL     1       0.408  -2.634   1.826  1.00  0.00    -0.274 OA
ATOM      5  H   UNL     1       2.565  -3.363   1.284  1.00  0.00     0.163 HD
BRANCH   3   6
ATOM      6  C   UNL     1       0.403  -1.195  -0.152  1.00  0.00     0.105 C 
ATOM      7  C   UNL     1       0.945   0.214   0.109  1.00  0.00     0.023 C 
BRANCH   6   8
ATOM      8  C   UNL     1      -1.130  -1.269  -0.176  1.00  0.00    -0.036 A 
ATOM      9  C   UNL     1      -1.949  -0.134  -0.062  1.00  0.00     0.005 A 
ATOM     10  C   UNL     1      -1.760  -2.515  -0.348  1.00  0.00     0.005 A 
ATOM     11  C   UNL     1      -3.342  -0.241  -0.094  1.00  0.00     0.009 A 
ATOM     12  C   UNL     1      -3.154  -2.626  -0.367  1.00  0.00     0.009 A 
ATOM     13  C   UNL     1      -3.954  -1.487  -0.243  1.00  0.00    -0.018 A 
BRANCH  13  14
ATOM     14  C   UNL     1      -5.421  -1.602  -0.252  1.00  0.00    -0.011 A 
ATOM     15  C   UNL     1      -6.164  -2.219   0.829  1.00  0.00     0.027 A 
ATOM     16  C   UNL     1      -6.088  -1.112  -1.311  1.00  0.00     0.080 A 
ATOM     17  C   UNL     1      -7.497  -2.313   0.768  1.00  0.00     0.095 A 
ATOM     18  C   UNL     1      -7.570  -1.204  -1.389  1.00  0.00     0.255 A 
ATOM     19  N   UNL     1      -8.197  -1.821  -0.320  1.00  0.00    -0.258 N 
ATOM     20  O   UNL     1      -8.134  -0.739  -2.378  1.00  0.00    -0.269 OA
BRANCH  19  21
ATOM     21  C   UNL     1      -9.629  -1.945  -0.385  1.00  0.00     0.451 C 
ATOM     22  F   UNL     1     -10.223  -0.730  -0.481  1.00  0.00    -0.185 F 
ATOM     23  F   UNL     1     -10.004  -2.682  -1.459  1.00  0.00    -0.185 F 
ENDBRANCH  19  21
ENDBRANCH  13  14
ENDBRANCH   6   8
ENDBRANCH   3   6
ENDBRANCH   1   2
BRANCH   1  24
ATOM     24  C   UNL     1       4.344  -1.236   0.523  1.00  0.00     0.042 C 
BRANCH  24  25
ATOM     25  C   UNL     1       5.105  -1.892   1.670  1.00  0.00     0.118 C 
BRANCH  25  26
ATOM     26  N   UNL     1       6.055  -2.890   1.213  1.00  0.00    -0.352 N 
ATOM     27  C   UNL     1       7.388  -3.031   1.504  1.00  0.00     0.251 C 
ATOM     28  H   UNL     1       5.687  -3.568   0.602  1.00  0.00     0.163 HD
ATOM     29  O   UNL     1       8.052  -3.854   0.874  1.00  0.00    -0.269 OA
BRANCH  27  30
ATOM     30  C   UNL     1       8.045  -2.208   2.546  1.00  0.00     0.039 A 
ATOM     31  C   UNL     1       9.357  -1.778   2.321  1.00  0.00     0.014 A 
ATOM     32  C   UNL     1       7.421  -1.915   3.763  1.00  0.00     0.014 A 
ATOM     33  C   UNL     1      10.032  -1.043   3.299  1.00  0.00     0.010 A 
ATOM     34  C   UNL     1       8.070  -1.123   4.711  1.00  0.00     0.010 A 
ATOM     35  C   UNL     1       9.391  -0.701   4.499  1.00  0.00    -0.014 A 
BRANCH  35  36
ATOM     36  C   UNL     1      10.115   0.044   5.561  1.00  0.00     0.031 A 
ATOM     37  C   UNL     1      10.430  -0.625   6.871  1.00  0.00     0.074 A 
ATOM     38  C   UNL     1      10.468   1.328   5.362  1.00  0.00     0.049 A 
ATOM     39  N   UNL     1      11.033  -0.138   7.926  1.00  0.00    -0.248 NA
ATOM     40  C   UNL     1       9.986  -2.020   7.025  1.00  0.00     0.031 C 
ATOM     41  C   UNL     1      10.180   2.108   4.158  1.00  0.00     0.029 A 
ATOM     42  N   UNL     1      11.143   2.204   6.174  1.00  0.00    -0.354 N 
ATOM     43  C   UNL     1      11.027  -1.158   8.870  1.00  0.00     0.074 A 
ATOM     44  C   UNL     1      10.315  -2.272   8.283  1.00  0.00     0.031 C 
ATOM     45  C   UNL     1      10.692   3.342   4.302  1.00  0.00     0.029 A 
ATOM     46  C   UNL     1      11.326   3.444   5.614  1.00  0.00     0.049 A 
ATOM     47  H   UNL     1      11.466   1.965   7.073  1.00  0.00     0.167 HD
ATOM     48  C   UNL     1      11.583  -1.177  10.105  1.00  0.00     0.037 A 
ATOM     49  C   UNL     1      11.941   4.538   6.101  1.00  0.00     0.037 A 
ATOM     50  C   UNL     1      12.317  -0.082  10.681  1.00  0.00     0.049 A 
ATOM     51  C   UNL     1      12.588   4.481   7.455  1.00  0.00     0.074 A 
ATOM     52  C   UNL     1      12.950  -0.017  11.910  1.00  0.00     0.029 A 
ATOM     53  N   UNL     1      12.523   1.141  10.060  1.00  0.00    -0.354 N 
ATOM     54  N   UNL     1      12.618   3.493   8.316  1.00  0.00    -0.248 NA
ATOM     55  C   UNL     1      13.304   5.686   7.899  1.00  0.00     0.031 C 
ATOM     56  C   UNL     1      13.521   1.255  12.042  1.00  0.00     0.029 A 
ATOM     57  C   UNL     1      13.272   1.967  10.880  1.00  0.00     0.049 A 
ATOM     58  H   UNL     1      12.185   1.385   9.168  1.00  0.00     0.167 HD
ATOM     59  C   UNL     1      13.374   3.945   9.389  1.00  0.00     0.074 A 
ATOM     60  C   UNL     1      13.795   5.293   9.066  1.00  0.00     0.031 C 
ATOM     61  C   UNL     1      13.691   3.302  10.539  1.00  0.00     0.037 A 
BRANCH  48  62
ATOM     62  C   UNL     1      11.423  -2.434  10.908  1.00  0.00     0.057 A 
ATOM     63  C   UNL     1      12.109  -3.611  10.577  1.00  0.00     0.134 A 
ATOM     64  C   UNL     1      10.584  -2.469  12.028  1.00  0.00     0.134 A 
ATOM     65  F   UNL     1      12.917  -3.648   9.507  1.00  0.00    -0.206 F 
ATOM     66  C   UNL     1      11.942  -4.785  11.313  1.00  0.00     0.040 A 
ATOM     67  C   UNL     1      10.428  -3.630  12.787  1.00  0.00     0.040 A 
ATOM     68  F   UNL     1       9.902  -1.376  12.403  1.00  0.00    -0.206 F 
ATOM     69  C   UNL     1      11.103  -4.795  12.425  1.00  0.00     0.006 A 
ENDBRANCH  48  62
BRANCH  49  70
ATOM     70  C   UNL     1      12.009   5.771   5.279  1.00  0.00     0.057 A 
ATOM     71  C   UNL     1      13.206   6.168   4.672  1.00  0.00     0.134 A 
ATOM     72  C   UNL     1      10.882   6.575   5.075  1.00  0.00     0.134 A 
ATOM     73  F   UNL     1      14.322   5.445   4.846  1.00  0.00    -0.206 F 
ATOM     74  C   UNL     1      13.284   7.330   3.904  1.00  0.00     0.040 A 
ATOM     75  C   UNL     1      10.941   7.729   4.293  1.00  0.00     0.040 A 
ATOM     76  F   UNL     1       9.705   6.242   5.624  1.00  0.00    -0.206 F 
ATOM     77  C   UNL     1      12.147   8.112   3.708  1.00  0.00     0.006 A 
ENDBRANCH  49  70
BRANCH  61  78
ATOM     78  C   UNL     1      14.563   4.035  11.514  1.00  0.00     0.057 A 
ATOM     79  C   UNL     1      14.071   5.085  12.299  1.00  0.00     0.134 A 
ATOM     80  C   UNL     1      15.902   3.664  11.689  1.00  0.00     0.134 A 
ATOM     81  F   UNL     1      12.801   5.494  12.169  1.00  0.00    -0.206 F 
ATOM     82  C   UNL     1      14.889   5.756  13.210  1.00  0.00     0.040 A 
ATOM     83  C   UNL     1      16.723   4.314  12.612  1.00  0.00     0.040 A 
ATOM     84  F   UNL     1      16.431   2.662  10.972  1.00  0.00    -0.206 F 
ATOM     85  C   UNL     1      16.218   5.367  13.372  1.00  0.00     0.006 A 
ENDBRANCH  61  78
ENDBRANCH  35  36
ENDBRANCH  27  30
ENDBRANCH  25  26
ENDBRANCH  24  25
ENDBRANCH   1  24
TORSDOF 13
