REMARK SMILES Cc1nn(C)cc1C[NH+]1CCN(C(=O)Cn2ccc(C(=O)NCCCNC(=O)c3ccc(-c4c5nc(c(-c6c(F)cccc6F)c6ccc([nH]6)c(-c6c(F)cccc6F)c6nc(c(-c7c(F)cccc7F)c7ccc4[nH]7)C=C6)C=C5)cc3)n2)CC1
REMARK SMILES IDX 23 1 22 2 20 3 21 4 19 6 16 7 17 8 83 9 18 10 15 11 13 12
REMARK SMILES IDX 9 13 10 14 85 15 11 17 84 18 12 19 14 20 8 21 7 22 1 23 2 24
REMARK SMILES IDX 3 25 4 26 6 27 5 28 24 29 25 30 26 31 27 32 28 34 29 35
REMARK SMILES IDX 30 36 82 37 31 38 81 39 32 40 33 41 34 42 75 43 35 44 80 45
REMARK SMILES IDX 74 46 76 47 36 48 79 49 73 50 72 51 37 53 63 54 46 55 62 56
REMARK SMILES IDX 47 57 50 58 61 59 77 60 48 61 49 62 60 64 78 65 51 66 38 67
REMARK SMILES IDX 39 68 44 69 40 70 41 71 43 72 45 73 42 74 64 75 65 76 70 77
REMARK SMILES IDX 66 78 67 79 69 80 71 81 68 82 52 83 53 84 58 85 54 86 55 87
REMARK SMILES IDX 57 88 59 89 56 90
REMARK H PARENT 22 5 9 16 26 33 76 52 50 63
REMARK Flexibility Score: inf
ROOT
ATOM      1  C   UNL     1       7.041   3.113  -3.724  1.00  0.00     0.118 C 
ENDROOT
BRANCH   1   2
ATOM      2  N   UNL     1       7.690   1.876  -3.322  1.00  0.00    -0.351 N 
ATOM      3  C   UNL     1       7.174   0.616  -3.115  1.00  0.00     0.271 C 
ATOM      4  O   UNL     1       8.000  -0.281  -2.890  1.00  0.00    -0.267 OA
ATOM      5  H   UNL     1       8.660   1.952  -3.173  1.00  0.00     0.163 HD
BRANCH   3   6
ATOM      6  C   UNL     1       5.721   0.360  -3.173  1.00  0.00     0.150 A 
ATOM      7  N   UNL     1       3.912  -0.753  -3.485  1.00  0.00    -0.263 N 
ATOM      8  C   UNL     1       3.490   0.501  -3.163  1.00  0.00     0.110 A 
ATOM      9  N   UNL     1       5.253  -0.876  -3.446  1.00  0.00    -0.167 NA
ATOM     10  C   UNL     1       4.627   1.237  -2.938  1.00  0.00     0.056 A 
BRANCH   7  11
ATOM     11  C   UNL     1       3.119  -1.952  -3.739  1.00  0.00     0.244 C 
BRANCH  11  12
ATOM     12  C   UNL     1       1.637  -1.664  -3.902  1.00  0.00     0.244 C 
ATOM     13  N   UNL     1      -1.311  -3.118  -1.033  1.00  0.00    -0.328 N 
ATOM     14  C   UNL     1      -1.682  -2.399  -2.254  1.00  0.00     0.284 C 
ATOM     15  C   UNL     1      -0.043  -3.826  -1.198  1.00  0.00     0.284 C 
ATOM     16  H   UNL     1      -2.019  -3.843  -0.915  1.00  0.00     0.348 HD
ATOM     17  C   UNL     1      -0.579  -1.539  -2.893  1.00  0.00     0.181 C 
ATOM     18  C   UNL     1       1.117  -3.054  -1.858  1.00  0.00     0.181 C 
ATOM     19  N   UNL     1       0.737  -2.183  -2.972  1.00  0.00    -0.330 N 
ATOM     20  O   UNL     1       1.252  -0.937  -4.824  1.00  0.00    -0.273 OA
BRANCH  13  21
ATOM     21  C   UNL     1      -1.521  -2.422   0.240  1.00  0.00     0.302 C 
BRANCH  21  22
ATOM     22  C   UNL     1      -0.733  -1.168   0.387  1.00  0.00     0.047 A 
ATOM     23  C   UNL     1      -2.530   0.705  -0.053  1.00  0.00     0.069 C 
ATOM     24  C   UNL     1      -1.168   0.182   0.225  1.00  0.00     0.068 A 
ATOM     25  N   UNL     1      -0.144   1.043   0.304  1.00  0.00    -0.178 NA
ATOM     26  N   UNL     1       0.921   0.262   0.533  1.00  0.00    -0.275 N 
ATOM     27  C   UNL     1       0.595  -1.042   0.747  1.00  0.00     0.118 A 
ATOM     28  C   UNL     1       2.250   0.807   0.409  1.00  0.00     0.173 C 
ENDBRANCH  21  22
ENDBRANCH  13  21
ENDBRANCH  11  12
ENDBRANCH   7  11
ENDBRANCH   3   6
ENDBRANCH   1   2
BRANCH   1  29
ATOM     29  C   UNL     1       6.744   4.028  -2.530  1.00  0.00     0.042 C 
BRANCH  29  30
ATOM     30  C   UNL     1       7.952   4.859  -2.126  1.00  0.00     0.118 C 
BRANCH  30  31
ATOM     31  N   UNL     1       8.307   5.862  -3.142  1.00  0.00    -0.352 N 
ATOM     32  C   UNL     1       9.398   6.702  -3.200  1.00  0.00     0.251 C 
ATOM     33  H   UNL     1       7.673   5.945  -3.890  1.00  0.00     0.163 HD
ATOM     34  O   UNL     1       9.388   7.694  -3.938  1.00  0.00    -0.269 OA
BRANCH  32  35
ATOM     35  C   UNL     1      10.579   6.411  -2.380  1.00  0.00     0.039 A 
ATOM     36  C   UNL     1      11.350   7.415  -1.780  1.00  0.00     0.014 A 
ATOM     37  C   UNL     1      10.893   5.073  -2.192  1.00  0.00     0.014 A 
ATOM     38  C   UNL     1      12.395   7.046  -0.934  1.00  0.00     0.010 A 
ATOM     39  C   UNL     1      11.739   4.720  -1.186  1.00  0.00     0.010 A 
ATOM     40  C   UNL     1      12.571   5.689  -0.641  1.00  0.00    -0.014 A 
BRANCH  40  41
ATOM     41  C   UNL     1      13.587   5.199   0.276  1.00  0.00     0.031 A 
ATOM     42  C   UNL     1      13.388   5.598   1.694  1.00  0.00     0.074 A 
ATOM     43  C   UNL     1      14.395   4.178  -0.095  1.00  0.00     0.049 A 
ATOM     44  N   UNL     1      14.163   6.309   2.444  1.00  0.00    -0.248 NA
ATOM     45  C   UNL     1      12.092   5.274   2.319  1.00  0.00     0.031 C 
ATOM     46  C   UNL     1      14.395   3.443  -1.371  1.00  0.00     0.029 A 
ATOM     47  N   UNL     1      15.280   3.468   0.648  1.00  0.00    -0.354 N 
ATOM     48  C   UNL     1      13.557   6.325   3.700  1.00  0.00     0.074 A 
ATOM     49  C   UNL     1      12.203   5.889   3.497  1.00  0.00     0.031 C 
ATOM     50  C   UNL     1      15.041   2.268  -1.219  1.00  0.00     0.029 A 
ATOM     51  C   UNL     1      15.647   2.244   0.097  1.00  0.00     0.049 A 
ATOM     52  H   UNL     1      15.635   3.792   1.508  1.00  0.00     0.167 HD
ATOM     53  C   UNL     1      14.298   6.412   4.840  1.00  0.00     0.037 A 
ATOM     54  C   UNL     1      16.357   1.267   0.712  1.00  0.00     0.037 A 
ATOM     55  C   UNL     1      15.640   6.856   4.550  1.00  0.00     0.049 A 
ATOM     56  C   UNL     1      17.014   1.884   1.892  1.00  0.00     0.074 A 
ATOM     57  C   UNL     1      16.185   7.963   3.928  1.00  0.00     0.029 A 
ATOM     58  N   UNL     1      16.641   5.913   4.567  1.00  0.00    -0.354 N 
ATOM     59  N   UNL     1      17.956   2.783   1.813  1.00  0.00    -0.248 NA
ATOM     60  C   UNL     1      16.288   1.851   3.154  1.00  0.00     0.031 C 
ATOM     61  C   UNL     1      17.281   7.455   3.169  1.00  0.00     0.029 A 
ATOM     62  C   UNL     1      17.388   6.088   3.432  1.00  0.00     0.049 A 
ATOM     63  H   UNL     1      16.792   5.237   5.267  1.00  0.00     0.167 HD
ATOM     64  C   UNL     1      17.665   3.693   2.821  1.00  0.00     0.074 A 
ATOM     65  C   UNL     1      16.677   3.022   3.664  1.00  0.00     0.031 C 
ATOM     66  C   UNL     1      18.019   5.008   2.709  1.00  0.00     0.037 A 
BRANCH  53  67
ATOM     67  C   UNL     1      13.948   5.727   6.145  1.00  0.00     0.057 A 
ATOM     68  C   UNL     1      14.748   5.976   7.277  1.00  0.00     0.134 A 
ATOM     69  C   UNL     1      13.066   4.634   6.277  1.00  0.00     0.134 A 
ATOM     70  F   UNL     1      15.633   6.985   7.286  1.00  0.00    -0.206 F 
ATOM     71  C   UNL     1      14.736   5.149   8.407  1.00  0.00     0.040 A 
ATOM     72  C   UNL     1      13.006   3.836   7.423  1.00  0.00     0.040 A 
ATOM     73  F   UNL     1      12.283   4.207   5.280  1.00  0.00    -0.206 F 
ATOM     74  C   UNL     1      13.869   4.068   8.479  1.00  0.00     0.006 A 
ENDBRANCH  53  67
BRANCH  54  75
ATOM     75  C   UNL     1      16.267  -0.199   0.525  1.00  0.00     0.057 A 
ATOM     76  C   UNL     1      17.287  -1.051   0.969  1.00  0.00     0.134 A 
ATOM     77  C   UNL     1      15.065  -0.823   0.144  1.00  0.00     0.134 A 
ATOM     78  F   UNL     1      18.456  -0.548   1.392  1.00  0.00    -0.206 F 
ATOM     79  C   UNL     1      17.116  -2.441   1.051  1.00  0.00     0.040 A 
ATOM     80  C   UNL     1      14.884  -2.209   0.213  1.00  0.00     0.040 A 
ATOM     81  F   UNL     1      13.996  -0.102  -0.224  1.00  0.00    -0.206 F 
ATOM     82  C   UNL     1      15.907  -3.023   0.682  1.00  0.00     0.006 A 
ENDBRANCH  54  75
BRANCH  66  83
ATOM     83  C   UNL     1      18.942   5.402   1.587  1.00  0.00     0.057 A 
ATOM     84  C   UNL     1      18.612   5.307   0.226  1.00  0.00     0.134 A 
ATOM     85  C   UNL     1      20.132   6.065   1.899  1.00  0.00     0.134 A 
ATOM     86  F   UNL     1      17.449   4.780  -0.172  1.00  0.00    -0.206 F 
ATOM     87  C   UNL     1      19.444   5.816  -0.776  1.00  0.00     0.040 A 
ATOM     88  C   UNL     1      20.957   6.608   0.910  1.00  0.00     0.040 A 
ATOM     89  F   UNL     1      20.487   6.247   3.181  1.00  0.00    -0.206 F 
ATOM     90  C   UNL     1      20.618   6.478  -0.434  1.00  0.00     0.006 A 
ENDBRANCH  66  83
ENDBRANCH  40  41
ENDBRANCH  32  35
ENDBRANCH  30  31
ENDBRANCH  29  30
ENDBRANCH   1  29
TORSDOF 14
