REMARK SMILES Cc1ccc(C)c(S(=O)(=O)N[C@H](CC2=c3ccccc3=NC2)C(=O)NCCCNC(=O)c2ccc(-c3c4nc(c(-c5c(F)cccc5F)c5ccc([nH]5)c(-c5c(F)cccc5F)c5nc(c(-c6c(F)cccc6F)c6ccc3[nH]6)C=C5)C=C4)cc2)c1
REMARK SMILES IDX 26 1 25 2 23 3 24 4 12 6 11 7 8 9 9 10 10 11 7 12 1 13 2 14
REMARK SMILES IDX 3 15 86 16 4 17 5 18 6 19 13 20 14 21 15 22 22 23 16 24
REMARK SMILES IDX 20 25 21 26 17 27 19 28 18 29 27 30 28 31 29 32 30 33 31 35
REMARK SMILES IDX 32 36 33 37 85 38 34 39 84 40 35 41 36 42 37 43 78 44 38 45
REMARK SMILES IDX 83 46 77 47 79 48 39 49 82 50 76 51 75 52 40 54 66 55 49 56
REMARK SMILES IDX 65 57 50 58 53 59 64 60 80 61 51 62 52 63 63 65 81 66 54 67
REMARK SMILES IDX 41 68 42 69 47 70 43 71 44 72 46 73 48 74 45 75 67 76 68 77
REMARK SMILES IDX 73 78 69 79 70 80 72 81 74 82 71 83 55 84 56 85 61 86 57 87
REMARK SMILES IDX 58 88 60 89 62 90 59 91
REMARK H PARENT 25 5 11 8 29 34 79 53 53 64
REMARK Flexibility Score: inf
ROOT
ATOM      1  C   UNL     1      -1.104   6.786  -2.463  1.00  0.00     0.117 C 
ENDROOT
BRANCH   1   2
ATOM      2  N   UNL     1       0.297   6.582  -2.110  1.00  0.00    -0.355 N 
ATOM      3  C   UNL     1       1.057   5.558  -1.618  1.00  0.00     0.238 C 
ATOM      4  O   UNL     1       2.262   5.800  -1.482  1.00  0.00    -0.273 OA
ATOM      5  H   UNL     1       0.835   7.392  -2.266  1.00  0.00     0.163 HD
BRANCH   3   6
ATOM      6  C   UNL     1       0.501   4.203  -1.169  1.00  0.00     0.163 C 
BRANCH   6   7
ATOM      7  N   UNL     1      -0.453   3.665  -2.174  1.00  0.00    -0.198 NA
ATOM      8  H   UNL     1      -1.202   3.217  -1.647  1.00  0.00     0.142 HD
BRANCH   7   9
ATOM      9  S   UNL     1       0.029   2.561  -3.343  1.00  0.00     0.241 S 
ATOM     10  O   UNL     1       1.474   2.655  -3.482  1.00  0.00    -0.207 OA
ATOM     11  O   UNL     1      -0.870   2.789  -4.433  1.00  0.00    -0.207 OA
BRANCH   9  12
ATOM     12  C   UNL     1      -0.373   0.982  -2.638  1.00  0.00     0.085 A 
ATOM     13  C   UNL     1      -1.727  -0.268   0.694  1.00  0.00     0.044 C 
ATOM     14  C   UNL     1      -1.172  -0.260  -0.699  1.00  0.00    -0.050 A 
ATOM     15  C   UNL     1      -0.834  -1.446  -1.348  1.00  0.00     0.004 A 
ATOM     16  C   UNL     1      -0.967   0.948  -1.366  1.00  0.00     0.025 A 
ATOM     17  C   UNL     1      -0.310  -1.421  -2.646  1.00  0.00     0.005 A 
ATOM     18  C   UNL     1      -0.073  -0.209  -3.315  1.00  0.00    -0.031 A 
ATOM     19  C   UNL     1       0.470  -0.276  -4.716  1.00  0.00     0.046 C 
ENDBRANCH   9  12
ENDBRANCH   7   9
ENDBRANCH   6   7
BRANCH   6  20
ATOM     20  C   UNL     1      -0.145   4.155   0.255  1.00  0.00     0.063 C 
BRANCH  20  21
ATOM     21  C   UNL     1       0.163   5.188   1.315  1.00  0.00    -0.037 C 
ATOM     22  C   UNL     1       0.614   5.061   2.567  1.00  0.00     0.001 A 
ATOM     23  C   UNL     1      -0.237   6.610   1.083  1.00  0.00     0.174 C 
ATOM     24  C   UNL     1       1.027   3.993   3.425  1.00  0.00     0.010 A 
ATOM     25  C   UNL     1       0.522   6.442   3.094  1.00  0.00     0.065 A 
ATOM     26  N   UNL     1       0.026   7.357   2.323  1.00  0.00    -0.280 NA
ATOM     27  C   UNL     1       1.384   4.276   4.692  1.00  0.00     0.001 A 
ATOM     28  C   UNL     1       0.979   6.683   4.473  1.00  0.00     0.028 A 
ATOM     29  C   UNL     1       1.386   5.637   5.205  1.00  0.00     0.002 A 
ENDBRANCH  20  21
ENDBRANCH   6  20
ENDBRANCH   3   6
ENDBRANCH   1   2
BRANCH   1  30
ATOM     30  C   UNL     1      -1.889   7.855  -1.698  1.00  0.00     0.042 C 
BRANCH  30  31
ATOM     31  C   UNL     1      -1.111   9.019  -1.116  1.00  0.00     0.118 C 
BRANCH  31  32
ATOM     32  N   UNL     1      -1.502  10.326  -1.615  1.00  0.00    -0.352 N 
ATOM     33  C   UNL     1      -0.958  11.549  -1.270  1.00  0.00     0.251 C 
ATOM     34  H   UNL     1      -2.236  10.343  -2.270  1.00  0.00     0.163 HD
ATOM     35  O   UNL     1      -1.400  12.586  -1.751  1.00  0.00    -0.269 OA
BRANCH  33  36
ATOM     36  C   UNL     1       0.264  11.567  -0.437  1.00  0.00     0.039 A 
ATOM     37  C   UNL     1       1.367  12.258  -0.942  1.00  0.00     0.014 A 
ATOM     38  C   UNL     1       0.390  10.747   0.686  1.00  0.00     0.014 A 
ATOM     39  C   UNL     1       2.628  11.967  -0.444  1.00  0.00     0.010 A 
ATOM     40  C   UNL     1       1.650  10.377   1.111  1.00  0.00     0.010 A 
ATOM     41  C   UNL     1       2.767  10.960   0.518  1.00  0.00    -0.014 A 
BRANCH  41  42
ATOM     42  C   UNL     1       4.085  10.683   1.062  1.00  0.00     0.031 A 
ATOM     43  C   UNL     1       4.406  11.531   2.231  1.00  0.00     0.074 A 
ATOM     44  C   UNL     1       4.883   9.664   0.697  1.00  0.00     0.049 A 
ATOM     45  N   UNL     1       5.100  12.620   2.255  1.00  0.00    -0.248 NA
ATOM     46  C   UNL     1       3.698  11.241   3.488  1.00  0.00     0.031 C 
ATOM     47  C   UNL     1       4.558   8.511  -0.142  1.00  0.00     0.029 A 
ATOM     48  N   UNL     1       6.166   9.419   1.090  1.00  0.00    -0.354 N 
ATOM     49  C   UNL     1       5.083  13.029   3.585  1.00  0.00     0.074 A 
ATOM     50  C   UNL     1       4.000  12.321   4.207  1.00  0.00     0.031 C 
ATOM     51  C   UNL     1       5.554   7.598  -0.043  1.00  0.00     0.029 A 
ATOM     52  C   UNL     1       6.638   8.159   0.749  1.00  0.00     0.049 A 
ATOM     53  H   UNL     1       6.712  10.080   1.574  1.00  0.00     0.167 HD
ATOM     54  C   UNL     1       6.161  13.642   4.147  1.00  0.00     0.037 A 
ATOM     55  C   UNL     1       7.819   7.620   1.140  1.00  0.00     0.037 A 
ATOM     56  C   UNL     1       7.112  14.030   3.133  1.00  0.00     0.049 A 
ATOM     57  C   UNL     1       8.704   8.727   1.576  1.00  0.00     0.074 A 
ATOM     58  C   UNL     1       7.176  14.944   2.106  1.00  0.00     0.029 A 
ATOM     59  N   UNL     1       8.100  13.105   2.912  1.00  0.00    -0.354 N 
ATOM     60  N   UNL     1       9.208   9.620   0.772  1.00  0.00    -0.248 NA
ATOM     61  C   UNL     1       8.785   9.055   2.995  1.00  0.00     0.031 C 
ATOM     62  C   UNL     1       8.054  14.377   1.133  1.00  0.00     0.029 A 
ATOM     63  C   UNL     1       8.511  13.148   1.610  1.00  0.00     0.049 A 
ATOM     64  H   UNL     1       8.462  12.497   3.596  1.00  0.00     0.167 HD
ATOM     65  C   UNL     1       9.272  10.776   1.529  1.00  0.00     0.074 A 
ATOM     66  C   UNL     1       9.176  10.330   2.912  1.00  0.00     0.031 C 
ATOM     67  C   UNL     1       9.081  11.995   0.946  1.00  0.00     0.037 A 
BRANCH  54  68
ATOM     68  C   UNL     1       6.614  13.446   5.585  1.00  0.00     0.057 A 
ATOM     69  C   UNL     1       6.242  12.373   6.423  1.00  0.00     0.134 A 
ATOM     70  C   UNL     1       7.723  14.187   6.040  1.00  0.00     0.134 A 
ATOM     71  F   UNL     1       5.255  11.522   6.129  1.00  0.00    -0.206 F 
ATOM     72  C   UNL     1       6.939  12.037   7.588  1.00  0.00     0.040 A 
ATOM     73  C   UNL     1       8.459  13.826   7.176  1.00  0.00     0.040 A 
ATOM     74  F   UNL     1       8.181  15.238   5.343  1.00  0.00    -0.206 F 
ATOM     75  C   UNL     1       8.075  12.739   7.948  1.00  0.00     0.006 A 
ENDBRANCH  54  68
BRANCH  55  76
ATOM     76  C   UNL     1       8.180   6.207   1.382  1.00  0.00     0.057 A 
ATOM     77  C   UNL     1       7.239   5.293   1.881  1.00  0.00     0.134 A 
ATOM     78  C   UNL     1       9.520   5.791   1.410  1.00  0.00     0.134 A 
ATOM     79  F   UNL     1       5.941   5.620   1.972  1.00  0.00    -0.206 F 
ATOM     80  C   UNL     1       7.608   4.048   2.401  1.00  0.00     0.040 A 
ATOM     81  C   UNL     1       9.905   4.550   1.933  1.00  0.00     0.040 A 
ATOM     82  F   UNL     1      10.497   6.610   0.992  1.00  0.00    -0.206 F 
ATOM     83  C   UNL     1       8.948   3.678   2.443  1.00  0.00     0.006 A 
ENDBRANCH  55  76
BRANCH  67  84
ATOM     84  C   UNL     1       9.287  12.079  -0.536  1.00  0.00     0.057 A 
ATOM     85  C   UNL     1      10.311  12.900  -1.018  1.00  0.00     0.134 A 
ATOM     86  C   UNL     1       8.471  11.450  -1.485  1.00  0.00     0.134 A 
ATOM     87  F   UNL     1      11.102  13.568  -0.162  1.00  0.00    -0.206 F 
ATOM     88  C   UNL     1      10.525  13.085  -2.384  1.00  0.00     0.040 A 
ATOM     89  C   UNL     1       8.696  11.597  -2.857  1.00  0.00     0.040 A 
ATOM     90  F   UNL     1       7.417  10.712  -1.113  1.00  0.00    -0.206 F 
ATOM     91  C   UNL     1       9.723  12.421  -3.309  1.00  0.00     0.006 A 
ENDBRANCH  67  84
ENDBRANCH  41  42
ENDBRANCH  33  36
ENDBRANCH  31  32
ENDBRANCH  30  31
ENDBRANCH   1  30
TORSDOF 15
