REMARK SMILES CC(C)C[C@@H](CNc1ccc(C(N)=O)cc1)C(=O)NCCCNC(=O)c1ccc(-c2c3nc(c(-c4c(F)cccc4F)c4ccc([nH]4)c(-c4c(F)cccc4F)c4nc(c(-c5c(F)cccc5F)c5ccc2[nH]5)C=C4)C=C3)cc1
REMARK SMILES IDX 20 1 19 2 17 3 18 4 5 6 4 7 2 8 1 9 3 10 6 11 7 12 8 14 9 15
REMARK SMILES IDX 16 16 10 17 15 18 11 19 12 20 13 21 14 22 21 25 22 26 23 27
REMARK SMILES IDX 24 28 25 30 26 31 27 32 79 33 28 34 78 35 29 36 30 37 31 38
REMARK SMILES IDX 72 39 32 40 77 41 71 42 73 43 33 44 76 45 70 46 69 47 34 49
REMARK SMILES IDX 60 50 43 51 59 52 44 53 47 54 58 55 74 56 45 57 46 58 57 60
REMARK SMILES IDX 75 61 48 62 35 63 36 64 41 65 37 66 38 67 40 68 42 69 39 70
REMARK SMILES IDX 61 71 62 72 67 73 63 74 64 75 66 76 68 77 65 78 49 79 50 80
REMARK SMILES IDX 55 81 51 82 52 83 54 84 56 85 53 86
REMARK H PARENT 19 5 7 13 13 23 13 24 23 29 73 48 47 59
REMARK Flexibility Score: inf
ROOT
ATOM      1  C   UNL     1      -3.285   2.360  -2.276  1.00  0.00     0.117 C 
ENDROOT
BRANCH   1   2
ATOM      2  N   UNL     1      -3.643   1.623  -1.088  1.00  0.00    -0.356 N 
ATOM      3  C   UNL     1      -2.919   1.503   0.061  1.00  0.00     0.224 C 
ATOM      4  O   UNL     1      -3.522   1.165   1.083  1.00  0.00    -0.275 OA
ATOM      5  H   UNL     1      -4.508   1.154  -1.110  1.00  0.00     0.163 HD
BRANCH   3   6
ATOM      6  C   UNL     1      -1.406   1.710   0.078  1.00  0.00     0.098 C 
BRANCH   6   7
ATOM      7  C   UNL     1      -0.731   0.797  -0.970  1.00  0.00     0.018 C 
BRANCH   7   8
ATOM      8  C   UNL     1       0.801   0.790  -1.015  1.00  0.00    -0.017 C 
ATOM      9  C   UNL     1       1.399   0.086   0.201  1.00  0.00     0.007 C 
ATOM     10  C   UNL     1       1.255   0.077  -2.296  1.00  0.00     0.007 C 
ENDBRANCH   7   8
ENDBRANCH   6   7
BRANCH   6  11
ATOM     11  C   UNL     1      -0.996   3.192   0.240  1.00  0.00     0.126 C 
BRANCH  11  12
ATOM     12  N   UNL     1      -1.276   4.079  -0.888  1.00  0.00    -0.384 N 
ATOM     13  H   UNL     1      -0.956   3.809  -1.779  1.00  0.00     0.160 HD
BRANCH  12  14
ATOM     14  C   UNL     1      -1.966   5.280  -0.782  1.00  0.00     0.034 A 
ATOM     15  C   UNL     1      -2.754   5.724  -1.858  1.00  0.00     0.026 A 
ATOM     16  C   UNL     1      -2.003   6.047   0.384  1.00  0.00     0.026 A 
ATOM     17  C   UNL     1      -3.626   6.819  -1.747  1.00  0.00     0.016 A 
ATOM     18  C   UNL     1      -2.820   7.185   0.487  1.00  0.00     0.016 A 
ATOM     19  C   UNL     1      -3.668   7.554  -0.562  1.00  0.00     0.039 A 
BRANCH  19  20
ATOM     20  C   UNL     1      -4.562   8.731  -0.369  1.00  0.00     0.248 C 
ATOM     21  N   UNL     1      -5.646   8.862  -1.193  1.00  0.00    -0.366 N 
ATOM     22  O   UNL     1      -4.358   9.550   0.518  1.00  0.00    -0.270 OA
ATOM     23  H   UNL     1      -5.806   8.201  -1.905  1.00  0.00     0.159 HD
ATOM     24  H   UNL     1      -6.266   9.617  -1.075  1.00  0.00     0.159 HD
ENDBRANCH  19  20
ENDBRANCH  12  14
ENDBRANCH  11  12
ENDBRANCH   6  11
ENDBRANCH   3   6
ENDBRANCH   1   2
BRANCH   1  25
ATOM     25  C   UNL     1      -3.793   1.764  -3.566  1.00  0.00     0.042 C 
BRANCH  25  26
ATOM     26  C   UNL     1      -5.280   2.002  -3.735  1.00  0.00     0.118 C 
BRANCH  26  27
ATOM     27  N   UNL     1      -5.615   3.427  -3.837  1.00  0.00    -0.352 N 
ATOM     28  C   UNL     1      -6.051   4.162  -4.915  1.00  0.00     0.251 C 
ATOM     29  H   UNL     1      -5.511   3.938  -3.001  1.00  0.00     0.163 HD
ATOM     30  O   UNL     1      -6.077   5.388  -4.863  1.00  0.00    -0.269 OA
BRANCH  28  31
ATOM     31  C   UNL     1      -6.453   3.446  -6.140  1.00  0.00     0.039 A 
ATOM     32  C   UNL     1      -5.994   3.873  -7.387  1.00  0.00     0.014 A 
ATOM     33  C   UNL     1      -7.208   2.280  -6.025  1.00  0.00     0.014 A 
ATOM     34  C   UNL     1      -6.189   3.053  -8.501  1.00  0.00     0.010 A 
ATOM     35  C   UNL     1      -7.269   1.406  -7.095  1.00  0.00     0.010 A 
ATOM     36  C   UNL     1      -6.763   1.780  -8.349  1.00  0.00    -0.014 A 
BRANCH  36  37
ATOM     37  C   UNL     1      -6.867   0.803  -9.462  1.00  0.00     0.031 A 
ATOM     38  C   UNL     1      -8.216   0.236  -9.818  1.00  0.00     0.074 A 
ATOM     39  C   UNL     1      -5.754   0.329 -10.056  1.00  0.00     0.049 A 
ATOM     40  N   UNL     1      -8.513  -0.765 -10.604  1.00  0.00    -0.248 NA
ATOM     41  C   UNL     1      -9.383   0.846  -9.157  1.00  0.00     0.031 C 
ATOM     42  C   UNL     1      -4.383   0.755  -9.765  1.00  0.00     0.029 A 
ATOM     43  N   UNL     1      -5.599  -0.642 -11.015  1.00  0.00    -0.354 N 
ATOM     44  C   UNL     1      -9.889  -0.925 -10.503  1.00  0.00     0.074 A 
ATOM     45  C   UNL     1     -10.359   0.033  -9.528  1.00  0.00     0.031 C 
ATOM     46  C   UNL     1      -3.532   0.069 -10.545  1.00  0.00     0.029 A 
ATOM     47  C   UNL     1      -4.288  -0.885 -11.349  1.00  0.00     0.049 A 
ATOM     48  H   UNL     1      -6.356  -1.119 -11.425  1.00  0.00     0.167 HD
ATOM     49  C   UNL     1     -10.695  -1.773 -11.183  1.00  0.00     0.037 A 
ATOM     50  C   UNL     1      -3.755  -1.788 -12.195  1.00  0.00     0.037 A 
ATOM     51  C   UNL     1     -10.227  -2.694 -12.181  1.00  0.00     0.049 A 
ATOM     52  C   UNL     1      -4.670  -2.724 -12.938  1.00  0.00     0.074 A 
ATOM     53  C   UNL     1     -10.966  -3.550 -12.977  1.00  0.00     0.029 A 
ATOM     54  N   UNL     1      -8.895  -2.877 -12.521  1.00  0.00    -0.354 N 
ATOM     55  N   UNL     1      -5.976  -2.822 -12.879  1.00  0.00    -0.248 NA
ATOM     56  C   UNL     1      -4.039  -3.672 -13.867  1.00  0.00     0.031 C 
ATOM     57  C   UNL     1     -10.077  -4.287 -13.764  1.00  0.00     0.029 A 
ATOM     58  C   UNL     1      -8.790  -3.846 -13.503  1.00  0.00     0.049 A 
ATOM     59  H   UNL     1      -8.137  -2.389 -12.124  1.00  0.00     0.167 HD
ATOM     60  C   UNL     1      -6.326  -3.810 -13.791  1.00  0.00     0.074 A 
ATOM     61  C   UNL     1      -5.095  -4.280 -14.390  1.00  0.00     0.031 C 
ATOM     62  C   UNL     1      -7.556  -4.281 -14.107  1.00  0.00     0.037 A 
BRANCH  49  63
ATOM     63  C   UNL     1     -12.164  -1.733 -10.873  1.00  0.00     0.057 A 
ATOM     64  C   UNL     1     -12.961  -0.627 -11.200  1.00  0.00     0.134 A 
ATOM     65  C   UNL     1     -12.795  -2.825 -10.263  1.00  0.00     0.134 A 
ATOM     66  F   UNL     1     -12.418   0.458 -11.773  1.00  0.00    -0.206 F 
ATOM     67  C   UNL     1     -14.325  -0.595 -10.902  1.00  0.00     0.040 A 
ATOM     68  C   UNL     1     -14.164  -2.818  -9.991  1.00  0.00     0.040 A 
ATOM     69  F   UNL     1     -12.094  -3.918  -9.928  1.00  0.00    -0.206 F 
ATOM     70  C   UNL     1     -14.931  -1.697 -10.303  1.00  0.00     0.006 A 
ENDBRANCH  49  63
BRANCH  50  71
ATOM     71  C   UNL     1      -2.284  -1.841 -12.404  1.00  0.00     0.057 A 
ATOM     72  C   UNL     1      -1.717  -1.455 -13.624  1.00  0.00     0.134 A 
ATOM     73  C   UNL     1      -1.413  -2.284 -11.402  1.00  0.00     0.134 A 
ATOM     74  F   UNL     1      -2.500  -1.037 -14.630  1.00  0.00    -0.206 F 
ATOM     75  C   UNL     1      -0.341  -1.532 -13.850  1.00  0.00     0.040 A 
ATOM     76  C   UNL     1      -0.032  -2.339 -11.604  1.00  0.00     0.040 A 
ATOM     77  F   UNL     1      -1.890  -2.657 -10.205  1.00  0.00    -0.206 F 
ATOM     78  C   UNL     1       0.506  -1.970 -12.835  1.00  0.00     0.006 A 
ENDBRANCH  50  71
BRANCH  62  79
ATOM     79  C   UNL     1      -7.650  -5.312 -15.194  1.00  0.00     0.057 A 
ATOM     80  C   UNL     1      -7.244  -6.638 -15.000  1.00  0.00     0.134 A 
ATOM     81  C   UNL     1      -8.230  -4.985 -16.427  1.00  0.00     0.134 A 
ATOM     82  F   UNL     1      -6.671  -7.012 -13.847  1.00  0.00    -0.206 F 
ATOM     83  C   UNL     1      -7.401  -7.599 -16.000  1.00  0.00     0.040 A 
ATOM     84  C   UNL     1      -8.419  -5.943 -17.422  1.00  0.00     0.040 A 
ATOM     85  F   UNL     1      -8.649  -3.734 -16.671  1.00  0.00    -0.206 F 
ATOM     86  C   UNL     1      -8.000  -7.254 -17.211  1.00  0.00     0.006 A 
ENDBRANCH  62  79
ENDBRANCH  36  37
ENDBRANCH  28  31
ENDBRANCH  26  27
ENDBRANCH  25  26
ENDBRANCH   1  25
TORSDOF 16
