REMARK SMILES CCOCCC(=O)Nc1cc(C(=O)NCCCNC(=O)c2ccc(-c3c4nc(c(-c5c(F)cccc5F)c5ccc([nH]5)c(-c5c(F)cccc5F)c5nc(c(-c6c(F)cccc6F)c6ccc3[nH]6)C=C5)C=C4)cc2)ccc1Cl
REMARK SMILES IDX 12 1 13 2 14 3 11 5 9 6 10 7 77 8 76 9 78 10 75 11 8 12 6 13
REMARK SMILES IDX 7 14 5 16 4 17 3 18 2 19 1 20 15 21 16 22 17 23 18 24 19 25
REMARK SMILES IDX 20 27 21 28 22 29 74 30 23 31 73 32 24 33 25 34 26 35 67 36
REMARK SMILES IDX 27 37 72 38 66 39 68 40 28 41 71 42 65 43 64 44 29 46 55 47
REMARK SMILES IDX 38 48 54 49 39 50 42 51 53 52 69 53 40 54 41 55 52 57 70 58
REMARK SMILES IDX 43 59 30 60 31 61 36 62 32 63 33 64 35 65 37 66 34 67 56 68
REMARK SMILES IDX 57 69 62 70 58 71 59 72 61 73 63 74 60 75 44 76 45 77 50 78
REMARK SMILES IDX 46 79 47 80 49 81 51 82 48 83
REMARK H PARENT 14 4 8 15 18 26 68 45 42 56
REMARK Flexibility Score: inf
ROOT
ATOM      1  C   UNL     1      -3.184  -4.653   2.666  1.00  0.00     0.251 C 
ATOM      2  O   UNL     1      -3.390  -5.522   1.825  1.00  0.00    -0.269 OA
ATOM      3  N   UNL     1      -4.176  -4.297   3.546  1.00  0.00    -0.352 N 
ATOM      4  H   UNL     1      -4.995  -4.840   3.490  1.00  0.00     0.163 HD
ENDROOT
BRANCH   1   5
ATOM      5  C   UNL     1      -1.901  -3.926   2.675  1.00  0.00     0.041 A 
ATOM      6  C   UNL     1      -0.213  -2.770   1.437  1.00  0.00     0.060 A 
ATOM      7  C   UNL     1      -1.294  -3.640   1.452  1.00  0.00     0.041 A 
ATOM      8  C   UNL     1      -0.025  -1.970   2.567  1.00  0.00     0.064 A 
ATOM      9  C   UNL     1      -0.446  -2.411   3.812  1.00  0.00     0.023 A 
ATOM     10  Cl  UNL     1       0.094  -0.249   2.431  1.00  0.00    -0.082 Cl
ATOM     11  C   UNL     1      -1.320  -3.480   3.866  1.00  0.00     0.015 A 
BRANCH   6  12
ATOM     12  N   UNL     1       0.685  -2.921   0.361  1.00  0.00    -0.325 N 
ATOM     13  C   UNL     1       2.052  -2.831   0.333  1.00  0.00     0.226 C 
ATOM     14  O   UNL     1       2.631  -3.167  -0.706  1.00  0.00    -0.275 OA
ATOM     15  H   UNL     1       0.264  -3.122  -0.506  1.00  0.00     0.169 HD
BRANCH  13  16
ATOM     16  C   UNL     1       2.857  -2.382   1.525  1.00  0.00     0.129 C 
BRANCH  16  17
ATOM     17  C   UNL     1       3.438  -0.982   1.368  1.00  0.00     0.170 C 
BRANCH  17  18
ATOM     18  O   UNL     1       2.540   0.065   1.028  1.00  0.00    -0.381 OA
BRANCH  18  19
ATOM     19  C   UNL     1       2.046   0.050  -0.309  1.00  0.00     0.156 C 
ATOM     20  C   UNL     1       1.805   1.477  -0.744  1.00  0.00     0.035 C 
ENDBRANCH  18  19
ENDBRANCH  17  18
ENDBRANCH  16  17
ENDBRANCH  13  16
ENDBRANCH   6  12
ENDBRANCH   1   5
BRANCH   3  21
ATOM     21  C   UNL     1      -4.206  -3.241   4.552  1.00  0.00     0.118 C 
BRANCH  21  22
ATOM     22  C   UNL     1      -5.458  -2.393   4.511  1.00  0.00     0.042 C 
BRANCH  22  23
ATOM     23  C   UNL     1      -6.731  -3.182   4.721  1.00  0.00     0.118 C 
BRANCH  23  24
ATOM     24  N   UNL     1      -6.746  -3.891   5.996  1.00  0.00    -0.352 N 
ATOM     25  C   UNL     1      -7.472  -3.646   7.134  1.00  0.00     0.251 C 
ATOM     26  H   UNL     1      -6.141  -4.666   6.048  1.00  0.00     0.163 HD
ATOM     27  O   UNL     1      -7.171  -4.209   8.187  1.00  0.00    -0.269 OA
BRANCH  25  28
ATOM     28  C   UNL     1      -8.597  -2.693   7.098  1.00  0.00     0.039 A 
ATOM     29  C   UNL     1      -8.806  -1.831   8.176  1.00  0.00     0.014 A 
ATOM     30  C   UNL     1      -9.443  -2.645   5.990  1.00  0.00     0.014 A 
ATOM     31  C   UNL     1      -9.815  -0.870   8.102  1.00  0.00     0.010 A 
ATOM     32  C   UNL     1     -10.351  -1.607   5.860  1.00  0.00     0.010 A 
ATOM     33  C   UNL     1     -10.565  -0.721   6.923  1.00  0.00    -0.014 A 
BRANCH  33  34
ATOM     34  C   UNL     1     -11.601   0.330   6.781  1.00  0.00     0.031 A 
ATOM     35  C   UNL     1     -13.027  -0.062   6.497  1.00  0.00     0.074 A 
ATOM     36  C   UNL     1     -11.246   1.628   6.826  1.00  0.00     0.049 A 
ATOM     37  N   UNL     1     -14.060   0.700   6.248  1.00  0.00    -0.248 NA
ATOM     38  C   UNL     1     -13.323  -1.505   6.447  1.00  0.00     0.031 C 
ATOM     39  C   UNL     1      -9.885   2.130   7.032  1.00  0.00     0.029 A 
ATOM     40  N   UNL     1     -12.000   2.765   6.690  1.00  0.00    -0.354 N 
ATOM     41  C   UNL     1     -15.114  -0.168   5.993  1.00  0.00     0.074 A 
ATOM     42  C   UNL     1     -14.583  -1.511   6.045  1.00  0.00     0.031 C 
ATOM     43  C   UNL     1      -9.908   3.471   7.043  1.00  0.00     0.029 A 
ATOM     44  C   UNL     1     -11.272   3.925   6.798  1.00  0.00     0.049 A 
ATOM     45  H   UNL     1     -12.971   2.752   6.530  1.00  0.00     0.167 HD
ATOM     46  C   UNL     1     -16.416   0.125   5.767  1.00  0.00     0.037 A 
ATOM     47  C   UNL     1     -11.663   5.210   6.702  1.00  0.00     0.037 A 
ATOM     48  C   UNL     1     -16.942   1.464   5.749  1.00  0.00     0.049 A 
ATOM     49  C   UNL     1     -13.114   5.511   6.450  1.00  0.00     0.074 A 
ATOM     50  C   UNL     1     -18.255   1.872   5.595  1.00  0.00     0.029 A 
ATOM     51  N   UNL     1     -16.177   2.612   5.887  1.00  0.00    -0.354 N 
ATOM     52  N   UNL     1     -14.116   4.679   6.287  1.00  0.00    -0.248 NA
ATOM     53  C   UNL     1     -13.493   6.928   6.377  1.00  0.00     0.031 C 
ATOM     54  C   UNL     1     -18.277   3.270   5.587  1.00  0.00     0.029 A 
ATOM     55  C   UNL     1     -16.987   3.732   5.797  1.00  0.00     0.049 A 
ATOM     56  H   UNL     1     -15.203   2.629   6.029  1.00  0.00     0.167 HD
ATOM     57  C   UNL     1     -15.245   5.471   6.122  1.00  0.00     0.074 A 
ATOM     58  C   UNL     1     -14.806   6.848   6.221  1.00  0.00     0.031 C 
ATOM     59  C   UNL     1     -16.529   5.094   5.907  1.00  0.00     0.037 A 
BRANCH  46  60
ATOM     60  C   UNL     1     -17.357  -1.022   5.531  1.00  0.00     0.057 A 
ATOM     61  C   UNL     1     -17.685  -1.934   6.545  1.00  0.00     0.134 A 
ATOM     62  C   UNL     1     -17.961  -1.206   4.281  1.00  0.00     0.134 A 
ATOM     63  F   UNL     1     -17.131  -1.826   7.762  1.00  0.00    -0.206 F 
ATOM     64  C   UNL     1     -18.555  -3.001   6.316  1.00  0.00     0.040 A 
ATOM     65  C   UNL     1     -18.858  -2.251   4.049  1.00  0.00     0.040 A 
ATOM     66  F   UNL     1     -17.696  -0.370   3.266  1.00  0.00    -0.206 F 
ATOM     67  C   UNL     1     -19.150  -3.157   5.066  1.00  0.00     0.006 A 
ENDBRANCH  46  60
BRANCH  47  68
ATOM     68  C   UNL     1     -10.673   6.305   6.869  1.00  0.00     0.057 A 
ATOM     69  C   UNL     1     -10.712   7.149   7.986  1.00  0.00     0.134 A 
ATOM     70  C   UNL     1      -9.671   6.540   5.920  1.00  0.00     0.134 A 
ATOM     71  F   UNL     1     -11.657   6.985   8.923  1.00  0.00    -0.206 F 
ATOM     72  C   UNL     1      -9.808   8.201   8.140  1.00  0.00     0.040 A 
ATOM     73  C   UNL     1      -8.742   7.570   6.076  1.00  0.00     0.040 A 
ATOM     74  F   UNL     1      -9.571   5.760   4.834  1.00  0.00    -0.206 F 
ATOM     75  C   UNL     1      -8.815   8.411   7.185  1.00  0.00     0.006 A 
ENDBRANCH  47  68
BRANCH  59  76
ATOM     76  C   UNL     1     -17.557   6.183   5.807  1.00  0.00     0.057 A 
ATOM     77  C   UNL     1     -17.625   7.040   4.701  1.00  0.00     0.134 A 
ATOM     78  C   UNL     1     -18.517   6.348   6.814  1.00  0.00     0.134 A 
ATOM     79  F   UNL     1     -16.728   6.942   3.708  1.00  0.00    -0.206 F 
ATOM     80  C   UNL     1     -18.597   8.038   4.613  1.00  0.00     0.040 A 
ATOM     81  C   UNL     1     -19.512   7.321   6.722  1.00  0.00     0.040 A 
ATOM     82  F   UNL     1     -18.515   5.553   7.895  1.00  0.00    -0.206 F 
ATOM     83  C   UNL     1     -19.548   8.175   5.622  1.00  0.00     0.006 A 
ENDBRANCH  59  76
ENDBRANCH  33  34
ENDBRANCH  25  28
ENDBRANCH  23  24
ENDBRANCH  22  23
ENDBRANCH  21  22
ENDBRANCH   3  21
TORSDOF 15
