REMARK SMILES NS(=O)(=O)c1ccc(-n2nc(C(=O)NCCCNC(=O)c3ccc(-c4c5nc(c(-c6c(F)cccc6F)c6ccc([nH]6)c(-c6c(F)cccc6F)c6nc(c(-c7c(F)cccc7F)c7ccc4[nH]7)C=C6)C=C5)cc3)cc2-c2ccc(Cl)s2)cc1
REMARK SMILES IDX 15 1 14 2 12 3 13 4 11 6 9 7 10 8 76 9 75 10 8 11 5 12 6 13
REMARK SMILES IDX 84 14 7 15 83 16 2 17 3 18 4 19 1 20 77 23 78 24 82 25 79 26
REMARK SMILES IDX 80 27 81 28 16 29 17 30 18 31 19 32 20 34 21 35 22 36 74 37
REMARK SMILES IDX 23 38 73 39 24 40 25 41 26 42 67 43 27 44 72 45 66 46 68 47
REMARK SMILES IDX 28 48 71 49 65 50 64 51 29 53 55 54 38 55 54 56 39 57 42 58
REMARK SMILES IDX 53 59 69 60 40 61 41 62 52 64 70 65 43 66 30 67 31 68 36 69
REMARK SMILES IDX 32 70 33 71 35 72 37 73 34 74 56 75 57 76 62 77 58 78 59 79
REMARK SMILES IDX 61 80 63 81 60 82 44 83 45 84 50 85 46 86 47 87 49 88 51 89
REMARK SMILES IDX 48 90
REMARK H PARENT 14 5 1 21 1 22 18 33 68 52 42 63
REMARK Flexibility Score: inf
ROOT
ATOM      1  C   UNL     1       2.970   8.552  -7.667  1.00  0.00     0.118 C 
ENDROOT
BRANCH   1   2
ATOM      2  N   UNL     1       2.977   8.781  -6.231  1.00  0.00    -0.351 N 
ATOM      3  C   UNL     1       2.696   7.958  -5.159  1.00  0.00     0.271 C 
ATOM      4  O   UNL     1       2.870   8.451  -4.042  1.00  0.00    -0.267 OA
ATOM      5  H   UNL     1       3.230   9.697  -5.975  1.00  0.00     0.163 HD
BRANCH   3   6
ATOM      6  C   UNL     1       2.237   6.563  -5.351  1.00  0.00     0.151 A 
ATOM      7  N   UNL     1       1.782   4.519  -4.826  1.00  0.00    -0.231 N 
ATOM      8  N   UNL     1       2.083   5.731  -4.298  1.00  0.00    -0.162 NA
ATOM      9  C   UNL     1       1.624   4.581  -6.194  1.00  0.00     0.085 A 
ATOM     10  C   UNL     1       1.858   5.891  -6.533  1.00  0.00     0.066 A 
BRANCH   7  11
ATOM     11  C   UNL     1       1.594   3.392  -3.994  1.00  0.00     0.065 A 
ATOM     12  C   UNL     1       0.923   1.128  -2.541  1.00  0.00     0.082 A 
ATOM     13  C   UNL     1       1.809   1.016  -3.617  1.00  0.00     0.024 A 
ATOM     14  C   UNL     1       0.404   2.371  -2.161  1.00  0.00     0.024 A 
ATOM     15  C   UNL     1       2.134   2.151  -4.357  1.00  0.00     0.030 A 
ATOM     16  C   UNL     1       0.768   3.517  -2.869  1.00  0.00     0.030 A 
BRANCH  12  17
ATOM     17  S   UNL     1       0.405  -0.329  -1.685  1.00  0.00     0.238 S 
ATOM     18  O   UNL     1       1.076  -1.478  -2.240  1.00  0.00    -0.207 OA
ATOM     19  O   UNL     1      -1.030  -0.276  -1.507  1.00  0.00    -0.207 OA
BRANCH  17  20
ATOM     20  N   UNL     1       1.078  -0.104  -0.165  1.00  0.00    -0.225 NA
ATOM     21  H   UNL     1       0.843  -0.897   0.432  1.00  0.00     0.137 HD
ATOM     22  H   UNL     1       0.709   0.753   0.247  1.00  0.00     0.137 HD
ENDBRANCH  17  20
ENDBRANCH  12  17
ENDBRANCH   7  11
BRANCH   9  23
ATOM     23  C   UNL     1       1.166   3.563  -7.087  1.00  0.00     0.054 A 
ATOM     24  C   UNL     1       1.813   3.131  -8.230  1.00  0.00     0.024 A 
ATOM     25  S   UNL     1      -0.388   2.858  -6.934  1.00  0.00    -0.122 S 
ATOM     26  C   UNL     1       1.010   2.235  -8.996  1.00  0.00     0.033 A 
ATOM     27  C   UNL     1      -0.204   2.027  -8.395  1.00  0.00     0.094 A 
ATOM     28  Cl  UNL     1      -1.491   1.062  -8.994  1.00  0.00    -0.072 Cl
ENDBRANCH   9  23
ENDBRANCH   3   6
ENDBRANCH   1   2
BRANCH   1  29
ATOM     29  C   UNL     1       1.597   8.826  -8.299  1.00  0.00     0.042 C 
BRANCH  29  30
ATOM     30  C   UNL     1       1.455  10.278  -8.725  1.00  0.00     0.118 C 
BRANCH  30  31
ATOM     31  N   UNL     1       2.338  10.607  -9.853  1.00  0.00    -0.352 N 
ATOM     32  C   UNL     1       2.618  11.834 -10.422  1.00  0.00     0.251 C 
ATOM     33  H   UNL     1       2.798   9.839 -10.264  1.00  0.00     0.163 HD
ATOM     34  O   UNL     1       3.111  11.909 -11.541  1.00  0.00    -0.269 OA
BRANCH  32  35
ATOM     35  C   UNL     1       2.321  13.053  -9.657  1.00  0.00     0.039 A 
ATOM     36  C   UNL     1       1.800  14.202 -10.260  1.00  0.00     0.014 A 
ATOM     37  C   UNL     1       2.537  13.002  -8.286  1.00  0.00     0.014 A 
ATOM     38  C   UNL     1       1.425  15.270  -9.448  1.00  0.00     0.010 A 
ATOM     39  C   UNL     1       1.962  13.941  -7.485  1.00  0.00     0.010 A 
ATOM     40  C   UNL     1       1.496  15.117  -8.057  1.00  0.00    -0.014 A 
BRANCH  40  41
ATOM     41  C   UNL     1       0.990  16.125  -7.137  1.00  0.00     0.031 A 
ATOM     42  C   UNL     1      -0.466  16.374  -7.284  1.00  0.00     0.074 A 
ATOM     43  C   UNL     1       1.721  16.532  -6.073  1.00  0.00     0.049 A 
ATOM     44  N   UNL     1      -1.049  17.427  -7.751  1.00  0.00    -0.248 NA
ATOM     45  C   UNL     1      -1.387  15.243  -7.056  1.00  0.00     0.031 C 
ATOM     46  C   UNL     1       3.041  16.029  -5.655  1.00  0.00     0.029 A 
ATOM     47  N   UNL     1       1.394  17.378  -5.056  1.00  0.00    -0.354 N 
ATOM     48  C   UNL     1      -2.415  17.185  -7.606  1.00  0.00     0.074 A 
ATOM     49  C   UNL     1      -2.554  15.766  -7.438  1.00  0.00     0.031 C 
ATOM     50  C   UNL     1       3.282  16.382  -4.375  1.00  0.00     0.029 A 
ATOM     51  C   UNL     1       2.237  17.290  -3.949  1.00  0.00     0.049 A 
ATOM     52  H   UNL     1       0.630  17.997  -5.100  1.00  0.00     0.167 HD
ATOM     53  C   UNL     1      -3.259  18.199  -7.266  1.00  0.00     0.037 A 
ATOM     54  C   UNL     1       2.077  17.915  -2.758  1.00  0.00     0.037 A 
ATOM     55  C   UNL     1      -2.583  19.467  -7.391  1.00  0.00     0.049 A 
ATOM     56  C   UNL     1       1.140  19.038  -2.974  1.00  0.00     0.074 A 
ATOM     57  C   UNL     1      -2.139  20.273  -8.414  1.00  0.00     0.029 A 
ATOM     58  N   UNL     1      -1.915  19.837  -6.253  1.00  0.00    -0.354 N 
ATOM     59  N   UNL     1       1.421  20.075  -3.713  1.00  0.00    -0.248 NA
ATOM     60  C   UNL     1      -0.275  18.843  -2.684  1.00  0.00     0.031 C 
ATOM     61  C   UNL     1      -1.040  21.012  -7.882  1.00  0.00     0.029 A 
ATOM     62  C   UNL     1      -0.878  20.681  -6.537  1.00  0.00     0.049 A 
ATOM     63  H   UNL     1      -2.151  19.533  -5.347  1.00  0.00     0.167 HD
ATOM     64  C   UNL     1       0.224  20.395  -4.325  1.00  0.00     0.074 A 
ATOM     65  C   UNL     1      -0.803  19.733  -3.529  1.00  0.00     0.031 C 
ATOM     66  C   UNL     1       0.206  20.879  -5.601  1.00  0.00     0.037 A 
BRANCH  53  67
ATOM     67  C   UNL     1      -4.456  18.072  -6.338  1.00  0.00     0.057 A 
ATOM     68  C   UNL     1      -5.267  19.206  -6.129  1.00  0.00     0.134 A 
ATOM     69  C   UNL     1      -4.660  17.025  -5.415  1.00  0.00     0.134 A 
ATOM     70  F   UNL     1      -5.168  20.279  -6.929  1.00  0.00    -0.206 F 
ATOM     71  C   UNL     1      -6.147  19.317  -5.044  1.00  0.00     0.040 A 
ATOM     72  C   UNL     1      -5.572  17.107  -4.358  1.00  0.00     0.040 A 
ATOM     73  F   UNL     1      -3.927  15.908  -5.412  1.00  0.00    -0.206 F 
ATOM     74  C   UNL     1      -6.296  18.268  -4.148  1.00  0.00     0.006 A 
ENDBRANCH  53  67
BRANCH  54  75
ATOM     75  C   UNL     1       2.488  17.477  -1.407  1.00  0.00     0.057 A 
ATOM     76  C   UNL     1       2.645  18.391  -0.356  1.00  0.00     0.134 A 
ATOM     77  C   UNL     1       2.460  16.118  -1.048  1.00  0.00     0.134 A 
ATOM     78  F   UNL     1       2.650  19.709  -0.598  1.00  0.00    -0.206 F 
ATOM     79  C   UNL     1       2.739  17.979   0.980  1.00  0.00     0.040 A 
ATOM     80  C   UNL     1       2.554  15.693   0.281  1.00  0.00     0.040 A 
ATOM     81  F   UNL     1       2.248  15.168  -1.971  1.00  0.00    -0.206 F 
ATOM     82  C   UNL     1       2.679  16.627   1.304  1.00  0.00     0.006 A 
ENDBRANCH  54  75
BRANCH  66  83
ATOM     83  C   UNL     1       1.460  21.515  -6.117  1.00  0.00     0.057 A 
ATOM     84  C   UNL     1       2.650  20.830  -6.397  1.00  0.00     0.134 A 
ATOM     85  C   UNL     1       1.416  22.874  -6.442  1.00  0.00     0.134 A 
ATOM     86  F   UNL     1       2.759  19.512  -6.187  1.00  0.00    -0.206 F 
ATOM     87  C   UNL     1       3.758  21.481  -6.948  1.00  0.00     0.040 A 
ATOM     88  C   UNL     1       2.502  23.529  -7.023  1.00  0.00     0.040 A 
ATOM     89  F   UNL     1       0.293  23.580  -6.239  1.00  0.00    -0.206 F 
ATOM     90  C   UNL     1       3.682  22.834  -7.270  1.00  0.00     0.006 A 
ENDBRANCH  66  83
ENDBRANCH  40  41
ENDBRANCH  32  35
ENDBRANCH  30  31
ENDBRANCH  29  30
ENDBRANCH   1  29
TORSDOF 14
