REMARK SMILES O=C(NCCCNC(=O)[C@@H]1CCCC[C@@H]1C(=O)Nc1nc(-c2ccc(Cl)c(Cl)c2)cs1)c1ccc(-c2c3nc(c(-c4c(F)cccc4F)c4ccc([nH]4)c(-c4c(F)cccc4F)c4nc(c(-c5c(F)cccc5F)c5ccc2[nH]5)C=C4)C=C3)cc1
REMARK SMILES IDX 5 1 4 2 3 3 1 4 2 5 32 7 33 8 85 9 34 10 84 11 35 12 36 13
REMARK SMILES IDX 37 14 78 15 38 16 83 17 77 18 79 19 39 20 82 21 76 22 75 23
REMARK SMILES IDX 40 25 66 26 49 27 65 28 50 29 53 30 64 31 80 32 51 33 52 34
REMARK SMILES IDX 63 36 81 37 54 38 41 39 42 40 47 41 43 42 44 43 46 44 48 45
REMARK SMILES IDX 45 46 67 47 68 48 73 49 69 50 70 51 72 52 74 53 71 54 55 55
REMARK SMILES IDX 56 56 61 57 57 58 58 59 60 60 62 61 59 62 6 63 7 64 8 65
REMARK SMILES IDX 9 67 10 68 11 69 15 70 12 71 14 72 13 73 16 74 17 75 18 76
REMARK SMILES IDX 19 78 20 79 31 80 21 81 30 82 22 83 23 84 29 85 24 86 27 87
REMARK SMILES IDX 25 88 28 89 26 90
REMARK H PARENT 3 6 79 24 53 35 7 66 18 77
REMARK Flexibility Score: inf
ROOT
ATOM      1  C   UNL     1       4.822  -2.786   1.305  1.00  0.00     0.042 C 
ENDROOT
BRANCH   1   2
ATOM      2  C   UNL     1       4.384  -1.328   1.152  1.00  0.00     0.118 C 
BRANCH   2   3
ATOM      3  N   UNL     1       3.166  -1.087   0.387  1.00  0.00    -0.352 N 
ATOM      4  O   UNL     1       1.365   0.176  -0.220  1.00  0.00    -0.269 OA
ATOM      5  C   UNL     1       2.409   0.075   0.397  1.00  0.00     0.251 C 
ATOM      6  H   UNL     1       2.851  -1.818  -0.192  1.00  0.00     0.163 HD
BRANCH   5   7
ATOM      7  C   UNL     1       2.943   1.208   1.179  1.00  0.00     0.039 A 
ATOM      8  C   UNL     1       4.118   1.807   0.728  1.00  0.00     0.014 A 
ATOM      9  C   UNL     1       2.395   1.531   2.423  1.00  0.00     0.014 A 
ATOM     10  C   UNL     1       4.846   2.603   1.599  1.00  0.00     0.010 A 
ATOM     11  C   UNL     1       3.099   2.388   3.273  1.00  0.00     0.010 A 
ATOM     12  C   UNL     1       4.362   2.873   2.891  1.00  0.00    -0.014 A 
BRANCH  12  13
ATOM     13  C   UNL     1       5.241   3.600   3.841  1.00  0.00     0.031 A 
ATOM     14  C   UNL     1       5.820   2.888   5.035  1.00  0.00     0.074 A 
ATOM     15  C   UNL     1       5.595   4.868   3.562  1.00  0.00     0.049 A 
ATOM     16  N   UNL     1       6.614   3.348   5.968  1.00  0.00    -0.248 NA
ATOM     17  C   UNL     1       5.457   1.472   5.208  1.00  0.00     0.031 C 
ATOM     18  C   UNL     1       5.119   5.635   2.410  1.00  0.00     0.029 A 
ATOM     19  N   UNL     1       6.463   5.718   4.195  1.00  0.00    -0.354 N 
ATOM     20  C   UNL     1       6.807   2.298   6.859  1.00  0.00     0.074 A 
ATOM     21  C   UNL     1       6.049   1.174   6.356  1.00  0.00     0.031 C 
ATOM     22  C   UNL     1       5.749   6.818   2.381  1.00  0.00     0.029 A 
ATOM     23  C   UNL     1       6.618   6.920   3.547  1.00  0.00     0.049 A 
ATOM     24  H   UNL     1       6.929   5.491   5.032  1.00  0.00     0.167 HD
ATOM     25  C   UNL     1       7.545   2.281   7.996  1.00  0.00     0.037 A 
ATOM     26  C   UNL     1       7.370   7.989   3.867  1.00  0.00     0.037 A 
ATOM     27  C   UNL     1       8.331   3.398   8.457  1.00  0.00     0.049 A 
ATOM     28  C   UNL     1       8.196   7.937   5.118  1.00  0.00     0.074 A 
ATOM     29  C   UNL     1       9.116   3.495   9.592  1.00  0.00     0.029 A 
ATOM     30  N   UNL     1       8.441   4.610   7.789  1.00  0.00    -0.354 N 
ATOM     31  N   UNL     1       8.328   6.954   5.977  1.00  0.00    -0.248 NA
ATOM     32  C   UNL     1       8.963   9.142   5.454  1.00  0.00     0.031 C 
ATOM     33  C   UNL     1       9.678   4.777   9.625  1.00  0.00     0.029 A 
ATOM     34  C   UNL     1       9.274   5.464   8.491  1.00  0.00     0.049 A 
ATOM     35  H   UNL     1       7.992   4.830   6.941  1.00  0.00     0.167 HD
ATOM     36  C   UNL     1       9.196   7.419   6.954  1.00  0.00     0.074 A 
ATOM     37  C   UNL     1       9.578   8.763   6.566  1.00  0.00     0.031 C 
ATOM     38  C   UNL     1       9.631   6.797   8.077  1.00  0.00     0.037 A 
BRANCH  25  39
ATOM     39  C   UNL     1       7.500   1.039   8.840  1.00  0.00     0.057 A 
ATOM     40  C   UNL     1       8.148  -0.146   8.468  1.00  0.00     0.134 A 
ATOM     41  C   UNL     1       6.814   1.040  10.062  1.00  0.00     0.134 A 
ATOM     42  F   UNL     1       8.807  -0.224   7.302  1.00  0.00    -0.206 F 
ATOM     43  C   UNL     1       8.098  -1.290   9.270  1.00  0.00     0.040 A 
ATOM     44  C   UNL     1       6.776  -0.089  10.883  1.00  0.00     0.040 A 
ATOM     45  F   UNL     1       6.174   2.141  10.482  1.00  0.00    -0.206 F 
ATOM     46  C   UNL     1       7.415  -1.261  10.485  1.00  0.00     0.006 A 
ENDBRANCH  25  39
BRANCH  26  47
ATOM     47  C   UNL     1       7.357   9.185   2.989  1.00  0.00     0.057 A 
ATOM     48  C   UNL     1       8.473   9.536   2.223  1.00  0.00     0.134 A 
ATOM     49  C   UNL     1       6.210   9.979   2.859  1.00  0.00     0.134 A 
ATOM     50  F   UNL     1       9.608   8.826   2.317  1.00  0.00    -0.206 F 
ATOM     51  C   UNL     1       8.450  10.631   1.357  1.00  0.00     0.040 A 
ATOM     52  C   UNL     1       6.164  11.060   1.978  1.00  0.00     0.040 A 
ATOM     53  F   UNL     1       5.105   9.692   3.562  1.00  0.00    -0.206 F 
ATOM     54  C   UNL     1       7.288  11.390   1.225  1.00  0.00     0.006 A 
ENDBRANCH  26  47
BRANCH  38  55
ATOM     55  C   UNL     1      10.580   7.568   8.942  1.00  0.00     0.057 A 
ATOM     56  C   UNL     1      10.143   8.620   9.755  1.00  0.00     0.134 A 
ATOM     57  C   UNL     1      11.943   7.249   8.963  1.00  0.00     0.134 A 
ATOM     58  F   UNL     1       8.850   8.980   9.765  1.00  0.00    -0.206 F 
ATOM     59  C   UNL     1      11.035   9.349  10.540  1.00  0.00     0.040 A 
ATOM     60  C   UNL     1      12.841   7.958   9.760  1.00  0.00     0.040 A 
ATOM     61  F   UNL     1      12.420   6.247   8.210  1.00  0.00    -0.206 F 
ATOM     62  C   UNL     1      12.389   9.016  10.546  1.00  0.00     0.006 A 
ENDBRANCH  38  55
ENDBRANCH  12  13
ENDBRANCH   5   7
ENDBRANCH   2   3
ENDBRANCH   1   2
BRANCH   1  63
ATOM     63  C   UNL     1       4.923  -3.676   0.063  1.00  0.00     0.117 C 
BRANCH  63  64
ATOM     64  N   UNL     1       6.138  -3.553  -0.716  1.00  0.00    -0.356 N 
ATOM     65  C   UNL     1       6.559  -4.261  -1.815  1.00  0.00     0.223 C 
ATOM     66  H   UNL     1       6.758  -2.852  -0.411  1.00  0.00     0.163 HD
ATOM     67  O   UNL     1       7.526  -3.789  -2.424  1.00  0.00    -0.275 OA
BRANCH  65  68
ATOM     68  C   UNL     1       6.053  -5.681  -2.122  1.00  0.00     0.091 C 
ATOM     69  C   UNL     1       6.651  -6.335  -3.379  1.00  0.00     0.014 C 
ATOM     70  C   UNL     1       4.592  -6.138  -1.994  1.00  0.00     0.091 C 
ATOM     71  C   UNL     1       6.716  -7.859  -3.195  1.00  0.00     0.001 C 
ATOM     72  C   UNL     1       4.705  -7.640  -1.572  1.00  0.00     0.014 C 
ATOM     73  C   UNL     1       5.450  -8.498  -2.611  1.00  0.00     0.001 C 
BRANCH  70  74
ATOM     74  C   UNL     1       3.612  -6.068  -3.192  1.00  0.00     0.230 C 
ATOM     75  O   UNL     1       3.076  -7.095  -3.633  1.00  0.00    -0.274 OA
ATOM     76  N   UNL     1       3.078  -4.928  -3.681  1.00  0.00    -0.302 N 
ATOM     77  H   UNL     1       2.260  -5.058  -4.214  1.00  0.00     0.172 HD
BRANCH  76  78
ATOM     78  C   UNL     1       3.472  -3.640  -3.566  1.00  0.00     0.189 A 
ATOM     79  N   UNL     1       4.659  -3.139  -3.376  1.00  0.00    -0.220 NA
ATOM     80  S   UNL     1       2.194  -2.523  -3.751  1.00  0.00    -0.105 S 
ATOM     81  C   UNL     1       4.579  -1.754  -3.404  1.00  0.00     0.084 A 
ATOM     82  C   UNL     1       3.297  -1.243  -3.452  1.00  0.00     0.097 A 
BRANCH  81  83
ATOM     83  C   UNL     1       5.756  -0.915  -3.280  1.00  0.00     0.003 A 
ATOM     84  C   UNL     1       6.457  -0.463  -4.397  1.00  0.00     0.012 A 
ATOM     85  C   UNL     1       6.218  -0.576  -2.012  1.00  0.00     0.032 A 
ATOM     86  C   UNL     1       7.616   0.307  -4.230  1.00  0.00     0.023 A 
ATOM     87  C   UNL     1       7.390   0.160  -1.833  1.00  0.00     0.060 A 
ATOM     88  C   UNL     1       8.092   0.610  -2.949  1.00  0.00     0.059 A 
ATOM     89  Cl  UNL     1       7.903   0.459  -0.210  1.00  0.00    -0.083 Cl
ATOM     90  Cl  UNL     1       9.539   1.541  -2.813  1.00  0.00    -0.083 Cl
ENDBRANCH  81  83
ENDBRANCH  76  78
ENDBRANCH  70  74
ENDBRANCH  65  68
ENDBRANCH  63  64
ENDBRANCH   1  63
TORSDOF 13
