REMARK SMILES CC(C)Cc1ccc(-c2cc(Cl)cc3c2O[C@H](C(F)(F)F)C(C(=O)NCCCNC(=O)c2ccc(-c4c5nc(c(-c6c(F)cccc6F)c6ccc([nH]6)c(-c6c(F)cccc6F)c6nc(c(-c7c(F)cccc7F)c7ccc4[nH]7)C=C6)C=C5)cc2)=C3)cc1
REMARK SMILES IDX 26 1 25 2 23 3 24 4 22 6 9 7 10 8 15 9 11 10 14 11 16 12
REMARK SMILES IDX 12 13 13 14 86 15 17 16 8 17 5 18 6 19 88 20 7 21 87 22 4 23
REMARK SMILES IDX 2 24 1 25 3 26 18 27 19 28 20 29 21 30 27 31 28 32 29 33
REMARK SMILES IDX 30 34 31 36 32 37 33 38 85 39 34 40 84 41 35 42 36 43 37 44
REMARK SMILES IDX 78 45 38 46 83 47 77 48 79 49 39 50 82 51 76 52 75 53 40 55
REMARK SMILES IDX 66 56 49 57 65 58 50 59 53 60 64 61 80 62 51 63 52 64 63 66
REMARK SMILES IDX 81 67 54 68 41 69 42 70 47 71 43 72 44 73 46 74 48 75 45 76
REMARK SMILES IDX 67 77 68 78 73 79 69 80 70 81 72 82 74 83 71 84 55 85 56 86
REMARK SMILES IDX 61 87 57 88 58 89 60 90 62 91 59 92
REMARK H PARENT 25 5 29 35 79 54 53 65
REMARK Flexibility Score: inf
ROOT
ATOM      1  C   UNL     1      -0.621  -5.578  11.152  1.00  0.00     0.118 C 
ENDROOT
BRANCH   1   2
ATOM      2  N   UNL     1      -1.633  -4.660  10.671  1.00  0.00    -0.352 N 
ATOM      3  C   UNL     1      -1.593  -3.960   9.511  1.00  0.00     0.251 C 
ATOM      4  O   UNL     1      -1.960  -2.792   9.491  1.00  0.00    -0.270 OA
ATOM      5  H   UNL     1      -2.425  -4.533  11.241  1.00  0.00     0.163 HD
BRANCH   3   6
ATOM      6  C   UNL     1      -1.237  -4.729   8.284  1.00  0.00     0.067 C 
ATOM      7  C   UNL     1      -1.949  -1.843   5.530  1.00  0.00     0.026 A 
ATOM      8  C   UNL     1      -3.202  -1.259   5.850  1.00  0.00     0.033 A 
ATOM      9  C   UNL     1      -1.640  -3.056   6.169  1.00  0.00     0.135 A 
ATOM     10  C   UNL     1      -4.159  -1.913   6.621  1.00  0.00     0.042 A 
ATOM     11  C   UNL     1      -2.668  -3.754   6.852  1.00  0.00     0.019 A 
ATOM     12  O   UNL     1      -0.358  -3.592   6.214  1.00  0.00    -0.475 OA
ATOM     13  Cl  UNL     1      -5.641  -1.128   6.992  1.00  0.00    -0.084 Cl
ATOM     14  C   UNL     1      -3.925  -3.198   7.068  1.00  0.00     0.032 A 
ATOM     15  C   UNL     1      -2.311  -5.021   7.525  1.00  0.00     0.025 C 
ATOM     16  C   UNL     1      -0.021  -4.221   7.526  1.00  0.00     0.314 C 
BRANCH   7  17
ATOM     17  C   UNL     1      -1.240  -1.197   4.398  1.00  0.00    -0.015 A 
ATOM     18  C   UNL     1      -0.899   0.197   1.936  1.00  0.00    -0.048 A 
ATOM     19  C   UNL     1      -0.900   0.889   3.150  1.00  0.00     0.004 A 
ATOM     20  C   UNL     1      -0.984  -1.201   1.966  1.00  0.00     0.004 A 
ATOM     21  C   UNL     1      -1.054   0.201   4.363  1.00  0.00     0.009 A 
ATOM     22  C   UNL     1      -1.134  -1.889   3.180  1.00  0.00     0.009 A 
BRANCH  18  23
ATOM     23  C   UNL     1      -0.787   0.941   0.623  1.00  0.00     0.038 C 
BRANCH  23  24
ATOM     24  C   UNL     1       0.673   1.249   0.244  1.00  0.00    -0.013 C 
ATOM     25  C   UNL     1       1.460  -0.030  -0.053  1.00  0.00     0.008 C 
ATOM     26  C   UNL     1       0.741   2.181  -0.968  1.00  0.00     0.008 C 
ENDBRANCH  23  24
ENDBRANCH  18  23
ENDBRANCH   7  17
BRANCH  16  27
ATOM     27  C   UNL     1       0.969  -5.401   7.382  1.00  0.00     0.429 C 
ATOM     28  F   UNL     1       1.142  -5.792   6.101  1.00  0.00    -0.167 F 
ATOM     29  F   UNL     1       2.187  -5.083   7.885  1.00  0.00    -0.167 F 
ATOM     30  F   UNL     1       0.563  -6.506   8.067  1.00  0.00    -0.167 F 
ENDBRANCH  16  27
ENDBRANCH   3   6
ENDBRANCH   1   2
BRANCH   1  31
ATOM     31  C   UNL     1       0.021  -5.028  12.426  1.00  0.00     0.042 C 
BRANCH  31  32
ATOM     32  C   UNL     1      -0.955  -4.790  13.574  1.00  0.00     0.118 C 
BRANCH  32  33
ATOM     33  N   UNL     1      -1.656  -5.995  13.986  1.00  0.00    -0.352 N 
ATOM     34  C   UNL     1      -1.836  -6.502  15.248  1.00  0.00     0.251 C 
ATOM     35  H   UNL     1      -2.058  -6.521  13.258  1.00  0.00     0.163 HD
ATOM     36  O   UNL     1      -2.321  -7.623  15.395  1.00  0.00    -0.269 OA
BRANCH  34  37
ATOM     37  C   UNL     1      -1.427  -5.713  16.427  1.00  0.00     0.039 A 
ATOM     38  C   UNL     1      -0.775  -6.359  17.479  1.00  0.00     0.014 A 
ATOM     39  C   UNL     1      -1.692  -4.342  16.503  1.00  0.00     0.014 A 
ATOM     40  C   UNL     1      -0.357  -5.623  18.588  1.00  0.00     0.010 A 
ATOM     41  C   UNL     1      -1.184  -3.595  17.559  1.00  0.00     0.010 A 
ATOM     42  C   UNL     1      -0.537  -4.230  18.628  1.00  0.00    -0.014 A 
BRANCH  42  43
ATOM     43  C   UNL     1      -0.101  -3.438  19.807  1.00  0.00     0.031 A 
ATOM     44  C   UNL     1      -1.117  -2.688  20.628  1.00  0.00     0.074 A 
ATOM     45  C   UNL     1       1.207  -3.372  20.124  1.00  0.00     0.049 A 
ATOM     46  N   UNL     1      -0.936  -1.943  21.690  1.00  0.00    -0.248 NA
ATOM     47  C   UNL     1      -2.517  -2.755  20.179  1.00  0.00     0.031 C 
ATOM     48  C   UNL     1       2.295  -4.004  19.375  1.00  0.00     0.029 A 
ATOM     49  N   UNL     1       1.843  -2.744  21.165  1.00  0.00    -0.354 N 
ATOM     50  C   UNL     1      -2.192  -1.449  22.023  1.00  0.00     0.074 A 
ATOM     51  C   UNL     1      -3.111  -1.913  21.010  1.00  0.00     0.031 C 
ATOM     52  C   UNL     1       3.457  -3.767  20.003  1.00  0.00     0.029 A 
ATOM     53  C   UNL     1       3.203  -2.940  21.178  1.00  0.00     0.049 A 
ATOM     54  H   UNL     1       1.369  -2.205  21.839  1.00  0.00     0.167 HD
ATOM     55  C   UNL     1      -2.556  -0.706  23.095  1.00  0.00     0.037 A 
ATOM     56  C   UNL     1       4.136  -2.507  22.047  1.00  0.00     0.037 A 
ATOM     57  C   UNL     1      -1.642  -0.266  24.116  1.00  0.00     0.049 A 
ATOM     58  C   UNL     1       3.706  -1.690  23.235  1.00  0.00     0.074 A 
ATOM     59  C   UNL     1      -1.915   0.448  25.270  1.00  0.00     0.029 A 
ATOM     60  N   UNL     1      -0.275  -0.499  24.103  1.00  0.00    -0.354 N 
ATOM     61  N   UNL     1       2.504  -1.294  23.578  1.00  0.00    -0.248 NA
ATOM     62  C   UNL     1       4.764  -1.276  24.166  1.00  0.00     0.031 C 
ATOM     63  C   UNL     1      -0.705   0.688  25.930  1.00  0.00     0.029 A 
ATOM     64  C   UNL     1       0.313   0.071  25.220  1.00  0.00     0.049 A 
ATOM     65  H   UNL     1       0.207  -0.997  23.404  1.00  0.00     0.167 HD
ATOM     66  C   UNL     1       2.655  -0.615  24.780  1.00  0.00     0.074 A 
ATOM     67  C   UNL     1       4.064  -0.672  25.115  1.00  0.00     0.031 C 
ATOM     68  C   UNL     1       1.716   0.000  25.541  1.00  0.00     0.037 A 
BRANCH  55  69
ATOM     69  C   UNL     1      -4.006  -0.330  23.215  1.00  0.00     0.057 A 
ATOM     70  C   UNL     1      -5.001  -1.286  23.469  1.00  0.00     0.134 A 
ATOM     71  C   UNL     1      -4.414   1.004  23.093  1.00  0.00     0.134 A 
ATOM     72  F   UNL     1      -4.683  -2.585  23.583  1.00  0.00    -0.206 F 
ATOM     73  C   UNL     1      -6.349  -0.934  23.561  1.00  0.00     0.040 A 
ATOM     74  C   UNL     1      -5.755   1.373  23.216  1.00  0.00     0.040 A 
ATOM     75  F   UNL     1      -3.517   1.972  22.855  1.00  0.00    -0.206 F 
ATOM     76  C   UNL     1      -6.728   0.401  23.442  1.00  0.00     0.006 A 
ENDBRANCH  55  69
BRANCH  56  77
ATOM     77  C   UNL     1       5.564  -2.869  21.851  1.00  0.00     0.057 A 
ATOM     78  C   UNL     1       6.217  -3.740  22.733  1.00  0.00     0.134 A 
ATOM     79  C   UNL     1       6.315  -2.341  20.795  1.00  0.00     0.134 A 
ATOM     80  F   UNL     1       5.557  -4.266  23.774  1.00  0.00    -0.206 F 
ATOM     81  C   UNL     1       7.571  -4.050  22.588  1.00  0.00     0.040 A 
ATOM     82  C   UNL     1       7.662  -2.665  20.621  1.00  0.00     0.040 A 
ATOM     83  F   UNL     1       5.747  -1.510  19.909  1.00  0.00    -0.206 F 
ATOM     84  C   UNL     1       8.296  -3.514  21.526  1.00  0.00     0.006 A 
ENDBRANCH  56  77
BRANCH  68  85
ATOM     85  C   UNL     1       2.178   0.616  26.831  1.00  0.00     0.057 A 
ATOM     86  C   UNL     1       2.997   1.752  26.866  1.00  0.00     0.134 A 
ATOM     87  C   UNL     1       1.787   0.065  28.059  1.00  0.00     0.134 A 
ATOM     88  F   UNL     1       3.415   2.324  25.726  1.00  0.00    -0.206 F 
ATOM     89  C   UNL     1       3.445   2.292  28.072  1.00  0.00     0.040 A 
ATOM     90  C   UNL     1       2.201   0.616  29.272  1.00  0.00     0.040 A 
ATOM     91  F   UNL     1       0.992  -1.015  28.101  1.00  0.00    -0.206 F 
ATOM     92  C   UNL     1       3.043   1.726  29.280  1.00  0.00     0.006 A 
ENDBRANCH  68  85
ENDBRANCH  42  43
ENDBRANCH  34  37
ENDBRANCH  32  33
ENDBRANCH  31  32
ENDBRANCH   1  31
TORSDOF 14
