REMARK SMILES O=C(NCc1ccc(C(=O)NCCCNC(=O)c2ccc(-c3c4nc(c(-c5c(F)cccc5F)c5ccc([nH]5)c(-c5c(F)cccc5F)c5nc(c(-c6c(F)cccc6F)c6ccc3[nH]6)C=C5)C=C4)cc2)cc1)Nc1ccccc1Br
REMARK SMILES IDX 12 1 11 2 9 3 10 4 8 6 5 7 6 8 73 9 7 10 72 11 4 12 3 13
REMARK SMILES IDX 1 14 2 15 74 16 75 19 76 20 80 21 77 22 79 23 81 24 78 25
REMARK SMILES IDX 13 26 14 27 15 28 16 29 17 31 18 32 19 33 71 34 20 35 70 36
REMARK SMILES IDX 21 37 22 38 23 39 64 40 24 41 69 42 63 43 65 44 25 45 68 46
REMARK SMILES IDX 62 47 61 48 26 50 52 51 35 52 51 53 36 54 39 55 50 56 66 57
REMARK SMILES IDX 37 58 38 59 49 61 67 62 40 63 27 64 28 65 33 66 29 67 30 68
REMARK SMILES IDX 32 69 34 70 31 71 53 72 54 73 59 74 55 75 56 76 58 77 60 78
REMARK SMILES IDX 57 79 41 80 42 81 47 82 43 83 44 84 46 85 48 86 45 87
REMARK H PARENT 11 5 3 17 74 18 15 30 65 49 39 60
REMARK Flexibility Score: inf
ROOT
ATOM      1  C   UNL     1       7.588  -5.302   2.782  1.00  0.00     0.118 C 
ENDROOT
BRANCH   1   2
ATOM      2  N   UNL     1       6.665  -6.201   2.114  1.00  0.00    -0.352 N 
ATOM      3  C   UNL     1       5.689  -5.979   1.177  1.00  0.00     0.251 C 
ATOM      4  O   UNL     1       5.115  -6.959   0.702  1.00  0.00    -0.269 OA
ATOM      5  H   UNL     1       6.756  -7.144   2.383  1.00  0.00     0.163 HD
BRANCH   3   6
ATOM      6  C   UNL     1       5.338  -4.624   0.678  1.00  0.00     0.039 A 
ATOM      7  C   UNL     1       4.636  -2.123  -0.424  1.00  0.00    -0.029 A 
ATOM      8  C   UNL     1       4.603  -3.281  -1.212  1.00  0.00     0.006 A 
ATOM      9  C   UNL     1       4.969  -2.238   0.931  1.00  0.00     0.006 A 
ATOM     10  C   UNL     1       4.952  -4.518  -0.665  1.00  0.00     0.014 A 
ATOM     11  C   UNL     1       5.305  -3.481   1.480  1.00  0.00     0.014 A 
BRANCH   7  12
ATOM     12  C   UNL     1       4.278  -0.786  -1.016  1.00  0.00     0.153 C 
BRANCH  12  13
ATOM     13  N   UNL     1       2.853  -0.555  -0.966  1.00  0.00    -0.334 N 
ATOM     14  O   UNL     1       0.887   0.227  -0.299  1.00  0.00    -0.248 OA
ATOM     15  C   UNL     1       2.106   0.248  -0.163  1.00  0.00     0.319 C 
ATOM     16  N   UNL     1       2.796   1.064   0.689  1.00  0.00    -0.307 N 
ATOM     17  H   UNL     1       2.333  -1.068  -1.627  1.00  0.00     0.165 HD
ATOM     18  H   UNL     1       3.773   1.113   0.574  1.00  0.00     0.171 HD
BRANCH  16  19
ATOM     19  C   UNL     1       2.225   1.845   1.721  1.00  0.00     0.057 A 
ATOM     20  C   UNL     1       2.801   3.114   1.907  1.00  0.00     0.027 A 
ATOM     21  C   UNL     1       1.172   1.457   2.567  1.00  0.00     0.041 A 
ATOM     22  C   UNL     1       2.286   4.009   2.848  1.00  0.00     0.002 A 
ATOM     23  C   UNL     1       0.653   2.365   3.502  1.00  0.00     0.018 A 
ATOM     24  Br  UNL     1       0.523  -0.328   2.711  1.00  0.00    -0.049 Br
ATOM     25  C   UNL     1       1.198   3.642   3.632  1.00  0.00     0.001 A 
ENDBRANCH  16  19
ENDBRANCH  12  13
ENDBRANCH   7  12
ENDBRANCH   3   6
ENDBRANCH   1   2
BRANCH   1  26
ATOM     26  C   UNL     1       7.171  -5.051   4.231  1.00  0.00     0.042 C 
BRANCH  26  27
ATOM     27  C   UNL     1       7.364  -6.258   5.146  1.00  0.00     0.118 C 
BRANCH  27  28
ATOM     28  N   UNL     1       8.768  -6.524   5.417  1.00  0.00    -0.352 N 
ATOM     29  C   UNL     1       9.432  -6.622   6.614  1.00  0.00     0.251 C 
ATOM     30  H   UNL     1       9.329  -6.655   4.618  1.00  0.00     0.163 HD
ATOM     31  O   UNL     1      10.660  -6.651   6.622  1.00  0.00    -0.269 OA
BRANCH  29  32
ATOM     32  C   UNL     1       8.692  -6.680   7.895  1.00  0.00     0.039 A 
ATOM     33  C   UNL     1       9.198  -5.975   8.993  1.00  0.00     0.014 A 
ATOM     34  C   UNL     1       7.545  -7.466   8.042  1.00  0.00     0.014 A 
ATOM     35  C   UNL     1       8.531  -6.019  10.220  1.00  0.00     0.010 A 
ATOM     36  C   UNL     1       6.847  -7.462   9.250  1.00  0.00     0.010 A 
ATOM     37  C   UNL     1       7.337  -6.744  10.351  1.00  0.00    -0.014 A 
BRANCH  37  38
ATOM     38  C   UNL     1       6.591  -6.768  11.636  1.00  0.00     0.031 A 
ATOM     39  C   UNL     1       6.466  -8.047  12.416  1.00  0.00     0.074 A 
ATOM     40  C   UNL     1       5.976  -5.652  12.069  1.00  0.00     0.049 A 
ATOM     41  N   UNL     1       5.794  -8.283  13.514  1.00  0.00    -0.248 NA
ATOM     42  C   UNL     1       7.170  -9.221  11.879  1.00  0.00     0.031 C 
ATOM     43  C   UNL     1       5.988  -4.359  11.383  1.00  0.00     0.029 A 
ATOM     44  N   UNL     1       5.208  -5.430  13.184  1.00  0.00    -0.354 N 
ATOM     45  C   UNL     1       5.977  -9.633  13.788  1.00  0.00     0.074 A 
ATOM     46  C   UNL     1       6.792 -10.172  12.720  1.00  0.00     0.031 C 
ATOM     47  C   UNL     1       5.273  -3.476  12.099  1.00  0.00     0.029 A 
ATOM     48  C   UNL     1       4.727  -4.147  13.275  1.00  0.00     0.049 A 
ATOM     49  H   UNL     1       5.020  -6.125  13.856  1.00  0.00     0.167 HD
ATOM     50  C   UNL     1       5.522 -10.353  14.841  1.00  0.00     0.037 A 
ATOM     51  C   UNL     1       3.929  -3.577  14.197  1.00  0.00     0.037 A 
ATOM     52  C   UNL     1       4.737  -9.810  15.918  1.00  0.00     0.049 A 
ATOM     53  C   UNL     1       3.445  -4.395  15.361  1.00  0.00     0.074 A 
ATOM     54  C   UNL     1       4.281 -10.446  17.060  1.00  0.00     0.029 A 
ATOM     55  N   UNL     1       4.292  -8.498  15.986  1.00  0.00    -0.354 N 
ATOM     56  N   UNL     1       3.675  -5.656  15.636  1.00  0.00    -0.248 NA
ATOM     57  C   UNL     1       2.597  -3.709  16.346  1.00  0.00     0.031 C 
ATOM     58  C   UNL     1       3.533  -9.527  17.804  1.00  0.00     0.029 A 
ATOM     59  C   UNL     1       3.554  -8.309  17.143  1.00  0.00     0.049 A 
ATOM     60  H   UNL     1       4.474  -7.804  15.312  1.00  0.00     0.167 HD
ATOM     61  C   UNL     1       3.020  -5.908  16.835  1.00  0.00     0.074 A 
ATOM     62  C   UNL     1       2.395  -4.666  17.241  1.00  0.00     0.031 C 
ATOM     63  C   UNL     1       2.945  -7.065  17.535  1.00  0.00     0.037 A 
BRANCH  50  64
ATOM     64  C   UNL     1       5.867 -11.813  14.880  1.00  0.00     0.057 A 
ATOM     65  C   UNL     1       7.166 -12.255  15.161  1.00  0.00     0.134 A 
ATOM     66  C   UNL     1       4.884 -12.787  14.667  1.00  0.00     0.134 A 
ATOM     67  F   UNL     1       8.156 -11.373  15.363  1.00  0.00    -0.206 F 
ATOM     68  C   UNL     1       7.481 -13.615  15.204  1.00  0.00     0.040 A 
ATOM     69  C   UNL     1       5.181 -14.149  14.731  1.00  0.00     0.040 A 
ATOM     70  F   UNL     1       3.619 -12.431  14.399  1.00  0.00    -0.206 F 
ATOM     71  C   UNL     1       6.484 -14.566  14.995  1.00  0.00     0.006 A 
ENDBRANCH  50  64
BRANCH  51  72
ATOM     72  C   UNL     1       3.554  -2.148  14.068  1.00  0.00     0.057 A 
ATOM     73  C   UNL     1       4.096  -1.182  14.923  1.00  0.00     0.134 A 
ATOM     74  C   UNL     1       2.649  -1.714  13.092  1.00  0.00     0.134 A 
ATOM     75  F   UNL     1       4.954  -1.542  15.889  1.00  0.00    -0.206 F 
ATOM     76  C   UNL     1       3.743   0.164  14.822  1.00  0.00     0.040 A 
ATOM     77  C   UNL     1       2.303  -0.368  12.966  1.00  0.00     0.040 A 
ATOM     78  F   UNL     1       2.101  -2.591  12.239  1.00  0.00    -0.206 F 
ATOM     79  C   UNL     1       2.846   0.575  13.837  1.00  0.00     0.006 A 
ENDBRANCH  51  72
BRANCH  63  80
ATOM     80  C   UNL     1       2.184  -7.034  18.827  1.00  0.00     0.057 A 
ATOM     81  C   UNL     1       0.785  -6.992  18.857  1.00  0.00     0.134 A 
ATOM     82  C   UNL     1       2.859  -7.081  20.053  1.00  0.00     0.134 A 
ATOM     83  F   UNL     1       0.082  -6.931  17.716  1.00  0.00    -0.206 F 
ATOM     84  C   UNL     1       0.083  -6.980  20.063  1.00  0.00     0.040 A 
ATOM     85  C   UNL     1       2.168  -7.092  21.265  1.00  0.00     0.040 A 
ATOM     86  F   UNL     1       4.199  -7.129  20.091  1.00  0.00    -0.206 F 
ATOM     87  C   UNL     1       0.775  -7.036  21.272  1.00  0.00     0.006 A 
ENDBRANCH  63  80
ENDBRANCH  37  38
ENDBRANCH  29  32
ENDBRANCH  27  28
ENDBRANCH  26  27
ENDBRANCH   1  26
TORSDOF 13
