REMARK SMILES CCCc1nc(C[N@H+]2CCCC[C@@H]2C(=O)NCCCNC(=O)c2ccc(-c3c4nc(c(-c5c(F)cccc5F)c5ccc([nH]5)c(-c5c(F)cccc5F)c5nc(c(-c6c(F)cccc6F)c6ccc3[nH]6)C=C5)C=C4)cc2)cs1
REMARK SMILES IDX 17 1 16 2 14 3 15 4 13 6 8 7 9 8 10 10 12 11 11 12 7 13 6 14
REMARK SMILES IDX 4 15 5 16 78 17 77 18 3 19 2 20 1 21 18 22 19 23 20 24 21 25
REMARK SMILES IDX 22 27 23 28 24 29 76 30 25 31 75 32 26 33 27 34 28 35 69 36
REMARK SMILES IDX 29 37 74 38 68 39 70 40 30 41 73 42 67 43 66 44 31 46 57 47
REMARK SMILES IDX 40 48 56 49 41 50 44 51 55 52 71 53 42 54 43 55 54 57 72 58
REMARK SMILES IDX 45 59 32 60 33 61 38 62 34 63 35 64 37 65 39 66 36 67 58 68
REMARK SMILES IDX 59 69 64 70 60 71 61 72 63 73 65 74 62 75 46 76 47 77 52 78
REMARK SMILES IDX 48 79 49 80 51 81 53 82 50 83
REMARK H PARENT 16 5 8 9 20 26 70 45 44 56
REMARK Flexibility Score: inf
ROOT
ATOM      1  C   UNL     1      -0.339   5.299   6.205  1.00  0.00     0.118 C 
ENDROOT
BRANCH   1   2
ATOM      2  N   UNL     1      -0.200   4.069   6.968  1.00  0.00    -0.351 N 
ATOM      3  C   UNL     1      -0.713   2.826   6.734  1.00  0.00     0.278 C 
ATOM      4  O   UNL     1      -0.451   1.940   7.554  1.00  0.00    -0.268 OA
ATOM      5  H   UNL     1       0.351   4.145   7.780  1.00  0.00     0.163 HD
BRANCH   3   6
ATOM      6  C   UNL     1      -1.566   2.517   5.485  1.00  0.00     0.274 C 
ATOM      7  N   UNL     1      -0.849   2.887   4.242  1.00  0.00    -0.320 N 
ATOM      8  C   UNL     1      -1.663   2.687   3.038  1.00  0.00     0.263 C 
ATOM      9  H   UNL     1      -0.687   3.889   4.333  1.00  0.00     0.349 HD
ATOM     10  C   UNL     1      -2.987   3.448   3.132  1.00  0.00     0.062 C 
ATOM     11  C   UNL     1      -2.941   3.192   5.614  1.00  0.00     0.076 C 
ATOM     12  C   UNL     1      -3.780   3.011   4.357  1.00  0.00     0.012 C 
BRANCH   7  13
ATOM     13  C   UNL     1       0.496   2.288   4.109  1.00  0.00     0.321 C 
BRANCH  13  14
ATOM     14  C   UNL     1       0.512   0.799   3.906  1.00  0.00     0.106 A 
ATOM     15  C   UNL     1       0.780  -0.999   2.623  1.00  0.00     0.093 A 
ATOM     16  N   UNL     1       0.741   0.316   2.625  1.00  0.00    -0.240 NA
ATOM     17  S   UNL     1       0.510  -1.736   4.153  1.00  0.00    -0.127 S 
ATOM     18  C   UNL     1       0.386  -0.186   4.868  1.00  0.00     0.096 A 
BRANCH  15  19
ATOM     19  C   UNL     1       1.106  -1.844   1.429  1.00  0.00     0.067 C 
BRANCH  19  20
ATOM     20  C   UNL     1       0.468  -1.357   0.125  1.00  0.00     0.004 C 
ATOM     21  C   UNL     1       1.049  -0.051  -0.404  1.00  0.00     0.004 C 
ENDBRANCH  19  20
ENDBRANCH  15  19
ENDBRANCH  13  14
ENDBRANCH   7  13
ENDBRANCH   3   6
ENDBRANCH   1   2
BRANCH   1  22
ATOM     22  C   UNL     1      -1.176   6.332   6.952  1.00  0.00     0.042 C 
BRANCH  22  23
ATOM     23  C   UNL     1      -0.540   6.825   8.245  1.00  0.00     0.118 C 
BRANCH  23  24
ATOM     24  N   UNL     1       0.666   7.606   8.015  1.00  0.00    -0.352 N 
ATOM     25  C   UNL     1       0.987   8.870   8.441  1.00  0.00     0.251 C 
ATOM     26  H   UNL     1       1.355   7.161   7.471  1.00  0.00     0.163 HD
ATOM     27  O   UNL     1       1.991   9.423   7.996  1.00  0.00    -0.269 OA
BRANCH  25  28
ATOM     28  C   UNL     1       0.126   9.582   9.410  1.00  0.00     0.039 A 
ATOM     29  C   UNL     1      -0.120  10.943   9.209  1.00  0.00     0.014 A 
ATOM     30  C   UNL     1      -0.415   8.932  10.523  1.00  0.00     0.014 A 
ATOM     31  C   UNL     1      -0.951  11.637  10.091  1.00  0.00     0.010 A 
ATOM     32  C   UNL     1      -1.303   9.606  11.360  1.00  0.00     0.010 A 
ATOM     33  C   UNL     1      -1.574  10.966  11.157  1.00  0.00    -0.014 A 
BRANCH  33  34
ATOM     34  C   UNL     1      -2.509  11.683  12.060  1.00  0.00     0.031 A 
ATOM     35  C   UNL     1      -2.168  11.881  13.510  1.00  0.00     0.074 A 
ATOM     36  C   UNL     1      -3.688  12.121  11.579  1.00  0.00     0.049 A 
ATOM     37  N   UNL     1      -2.862  12.476  14.448  1.00  0.00    -0.248 NA
ATOM     38  C   UNL     1      -0.892  11.315  13.976  1.00  0.00     0.031 C 
ATOM     39  C   UNL     1      -4.162  11.938  10.206  1.00  0.00     0.029 A 
ATOM     40  N   UNL     1      -4.702  12.811  12.192  1.00  0.00    -0.354 N 
ATOM     41  C   UNL     1      -2.116  12.345  15.612  1.00  0.00     0.074 A 
ATOM     42  C   UNL     1      -0.940  11.572  15.275  1.00  0.00     0.031 C 
ATOM     43  C   UNL     1      -5.361  12.528  10.073  1.00  0.00     0.029 A 
ATOM     44  C   UNL     1      -5.750  13.108  11.355  1.00  0.00     0.049 A 
ATOM     45  H   UNL     1      -4.682  13.068  13.142  1.00  0.00     0.167 HD
ATOM     46  C   UNL     1      -2.373  12.845  16.844  1.00  0.00     0.037 A 
ATOM     47  C   UNL     1      -6.892  13.780  11.592  1.00  0.00     0.037 A 
ATOM     48  C   UNL     1      -3.528  13.639  17.173  1.00  0.00     0.049 A 
ATOM     49  C   UNL     1      -7.141  14.347  12.960  1.00  0.00     0.074 A 
ATOM     50  C   UNL     1      -3.846  14.245  18.376  1.00  0.00     0.029 A 
ATOM     51  N   UNL     1      -4.557  13.936  16.292  1.00  0.00    -0.354 N 
ATOM     52  N   UNL     1      -6.392  14.278  14.033  1.00  0.00    -0.248 NA
ATOM     53  C   UNL     1      -8.393  15.095  13.146  1.00  0.00     0.031 C 
ATOM     54  C   UNL     1      -5.084  14.882  18.233  1.00  0.00     0.029 A 
ATOM     55  C   UNL     1      -5.518  14.704  16.930  1.00  0.00     0.049 A 
ATOM     56  H   UNL     1      -4.598  13.645  15.353  1.00  0.00     0.167 HD
ATOM     57  C   UNL     1      -7.069  14.987  15.015  1.00  0.00     0.074 A 
ATOM     58  C   UNL     1      -8.280  15.496  14.405  1.00  0.00     0.031 C 
ATOM     59  C   UNL     1      -6.720  15.197  16.308  1.00  0.00     0.037 A 
BRANCH  46  60
ATOM     60  C   UNL     1      -1.377  12.553  17.927  1.00  0.00     0.057 A 
ATOM     61  C   UNL     1      -0.113  13.158  17.948  1.00  0.00     0.134 A 
ATOM     62  C   UNL     1      -1.692  11.678  18.974  1.00  0.00     0.134 A 
ATOM     63  F   UNL     1       0.255  13.996  16.968  1.00  0.00    -0.206 F 
ATOM     64  C   UNL     1       0.811  12.884  18.957  1.00  0.00     0.040 A 
ATOM     65  C   UNL     1      -0.784  11.414  20.002  1.00  0.00     0.040 A 
ATOM     66  F   UNL     1      -2.886  11.068  19.017  1.00  0.00    -0.206 F 
ATOM     67  C   UNL     1       0.474  12.013  19.992  1.00  0.00     0.006 A 
ENDBRANCH  46  60
BRANCH  47  68
ATOM     68  C   UNL     1      -7.869  13.988  10.495  1.00  0.00     0.057 A 
ATOM     69  C   UNL     1      -8.037  15.248   9.912  1.00  0.00     0.134 A 
ATOM     70  C   UNL     1      -8.653  12.938  10.006  1.00  0.00     0.134 A 
ATOM     71  F   UNL     1      -7.325  16.296  10.353  1.00  0.00    -0.206 F 
ATOM     72  C   UNL     1      -8.963  15.463   8.891  1.00  0.00     0.040 A 
ATOM     73  C   UNL     1      -9.568  13.133   8.970  1.00  0.00     0.040 A 
ATOM     74  F   UNL     1      -8.531  11.705  10.519  1.00  0.00    -0.206 F 
ATOM     75  C   UNL     1      -9.729  14.401   8.414  1.00  0.00     0.006 A 
ENDBRANCH  47  68
BRANCH  59  76
ATOM     76  C   UNL     1      -7.656  16.025  17.137  1.00  0.00     0.057 A 
ATOM     77  C   UNL     1      -8.888  15.524  17.578  1.00  0.00     0.134 A 
ATOM     78  C   UNL     1      -7.317  17.331  17.509  1.00  0.00     0.134 A 
ATOM     79  F   UNL     1      -9.277  14.284  17.242  1.00  0.00    -0.206 F 
ATOM     80  C   UNL     1      -9.761  16.303  18.338  1.00  0.00     0.040 A 
ATOM     81  C   UNL     1      -8.171  18.112  18.289  1.00  0.00     0.040 A 
ATOM     82  F   UNL     1      -6.149  17.868  17.125  1.00  0.00    -0.206 F 
ATOM     83  C   UNL     1      -9.401  17.600  18.699  1.00  0.00     0.006 A 
ENDBRANCH  59  76
ENDBRANCH  33  34
ENDBRANCH  25  28
ENDBRANCH  23  24
ENDBRANCH  22  23
ENDBRANCH   1  22
TORSDOF 14
