REMARK SMILES C[C@@H]1C[C@H](C)C[C@H]([N@@H+]2[C@@H](C(=O)NCCCNC(=O)c3ccc(-c4c5nc(c(-c6c(F)cccc6F)c6ccc([nH]6)c(-c6c(F)cccc6F)c6nc(c(-c7c(F)cccc7F)c7ccc4[nH]7)C=C6)C=C5)cc3)CC[C@@H]3CCCC[C@@H]32)C1
REMARK SMILES IDX 14 1 13 2 12 3 10 4 11 5 9 7 8 8 80 9 73 11 75 12 79 13
REMARK SMILES IDX 74 14 76 15 78 16 77 17 7 18 5 19 4 20 6 21 3 22 2 23 81 24
REMARK SMILES IDX 1 25 15 26 16 27 17 28 18 30 19 31 20 32 72 33 21 34 71 35
REMARK SMILES IDX 22 36 23 37 24 38 65 39 25 40 70 41 64 42 66 43 26 44 69 45
REMARK SMILES IDX 63 46 62 47 27 49 53 50 36 51 52 52 37 53 40 54 51 55 67 56
REMARK SMILES IDX 38 57 39 58 50 60 68 61 41 62 28 63 29 64 34 65 30 66 31 67
REMARK SMILES IDX 33 68 35 69 32 70 54 71 55 72 60 73 56 74 57 75 59 76 61 77
REMARK SMILES IDX 58 78 42 79 43 80 48 81 44 82 45 83 47 84 49 85 46 86
REMARK H PARENT 12 6 8 10 16 29 66 48 40 59
REMARK Flexibility Score: inf
ROOT
ATOM      1  C   UNL     1       1.304   3.037   2.814  1.00  0.00     0.042 C 
ENDROOT
BRANCH   1   2
ATOM      2  C   UNL     1       1.667   1.839   3.682  1.00  0.00     0.118 C 
BRANCH   2   3
ATOM      3  N   UNL     1       0.547   0.914   3.842  1.00  0.00    -0.351 N 
ATOM      4  C   UNL     1       0.708  -0.428   3.576  1.00  0.00     0.278 C 
ATOM      5  O   UNL     1       1.329  -1.126   4.378  1.00  0.00    -0.268 OA
ATOM      6  H   UNL     1      -0.327   1.253   4.142  1.00  0.00     0.163 HD
BRANCH   4   7
ATOM      7  C   UNL     1       0.028  -1.015   2.299  1.00  0.00     0.274 C 
ATOM      8  N   UNL     1       1.036  -1.423   1.294  1.00  0.00    -0.320 N 
ATOM      9  C   UNL     1       1.643  -0.271   0.630  1.00  0.00     0.188 C 
ATOM     10  H   UNL     1       2.009  -1.726   1.341  1.00  0.00     0.349 HD
ATOM     11  C   UNL     1      -1.101  -0.193   1.678  1.00  0.00     0.076 C 
ATOM     12  C   UNL     1       0.675   0.719  -0.050  1.00  0.00     0.048 C 
ATOM     13  C   UNL     1       3.007  -0.372  -0.061  1.00  0.00     0.065 C 
ATOM     14  C   UNL     1      -0.736   0.794   0.566  1.00  0.00     0.016 C 
ATOM     15  C   UNL     1       0.670   0.737  -1.582  1.00  0.00     0.010 C 
ATOM     16  C   UNL     1       3.213   0.576  -1.241  1.00  0.00     0.006 C 
ATOM     17  C   UNL     1       2.052   0.605  -2.225  1.00  0.00     0.001 C 
BRANCH   8  18
ATOM     18  C   UNL     1       0.989  -2.856   0.941  1.00  0.00     0.185 C 
ATOM     19  C   UNL     1      -1.385  -2.350  -1.846  1.00  0.00     0.008 C 
ATOM     20  C   UNL     1      -0.270  -3.254  -1.320  1.00  0.00    -0.008 C 
ATOM     21  C   UNL     1      -0.295  -3.338   0.214  1.00  0.00     0.068 C 
ATOM     22  C   UNL     1       1.108  -2.865  -1.855  1.00  0.00     0.007 C 
ATOM     23  C   UNL     1       2.213  -3.707  -1.215  1.00  0.00    -0.008 C 
ATOM     24  C   UNL     1       2.216  -3.570   0.323  1.00  0.00     0.068 C 
ATOM     25  C   UNL     1       3.596  -3.452  -1.833  1.00  0.00     0.008 C 
ENDBRANCH   8  18
ENDBRANCH   4   7
ENDBRANCH   2   3
ENDBRANCH   1   2
BRANCH   1  26
ATOM     26  C   UNL     1       0.158   3.875   3.367  1.00  0.00     0.118 C 
BRANCH  26  27
ATOM     27  N   UNL     1       0.664   5.021   4.099  1.00  0.00    -0.352 N 
ATOM     28  C   UNL     1       0.807   6.316   3.683  1.00  0.00     0.251 C 
ATOM     29  H   UNL     1       0.943   4.841   5.025  1.00  0.00     0.163 HD
ATOM     30  O   UNL     1       1.573   7.062   4.311  1.00  0.00    -0.269 OA
BRANCH  28  31
ATOM     31  C   UNL     1       0.067   6.858   2.519  1.00  0.00     0.039 A 
ATOM     32  C   UNL     1       0.690   7.825   1.722  1.00  0.00     0.014 A 
ATOM     33  C   UNL     1      -1.272   6.531   2.280  1.00  0.00     0.014 A 
ATOM     34  C   UNL     1      -0.023   8.466   0.704  1.00  0.00     0.010 A 
ATOM     35  C   UNL     1      -1.963   7.121   1.218  1.00  0.00     0.010 A 
ATOM     36  C   UNL     1      -1.360   8.125   0.447  1.00  0.00    -0.014 A 
BRANCH  36  37
ATOM     37  C   UNL     1      -2.155   8.874  -0.563  1.00  0.00     0.031 A 
ATOM     38  C   UNL     1      -3.309   9.740  -0.125  1.00  0.00     0.074 A 
ATOM     39  C   UNL     1      -1.863   8.770  -1.873  1.00  0.00     0.049 A 
ATOM     40  N   UNL     1      -4.133  10.454  -0.852  1.00  0.00    -0.248 NA
ATOM     41  C   UNL     1      -3.590   9.791   1.318  1.00  0.00     0.031 C 
ATOM     42  C   UNL     1      -0.801   7.937  -2.439  1.00  0.00     0.029 A 
ATOM     43  N   UNL     1      -2.438   9.367  -2.967  1.00  0.00    -0.354 N 
ATOM     44  C   UNL     1      -5.040  11.013   0.040  1.00  0.00     0.074 A 
ATOM     45  C   UNL     1      -4.693  10.524   1.357  1.00  0.00     0.031 C 
ATOM     46  C   UNL     1      -0.790   8.089  -3.773  1.00  0.00     0.029 A 
ATOM     47  C   UNL     1      -1.856   9.012  -4.159  1.00  0.00     0.049 A 
ATOM     48  H   UNL     1      -3.197   9.991  -2.903  1.00  0.00     0.167 HD
ATOM     49  C   UNL     1      -6.057  11.873  -0.207  1.00  0.00     0.037 A 
ATOM     50  C   UNL     1      -2.145   9.387  -5.419  1.00  0.00     0.037 A 
ATOM     51  C   UNL     1      -6.376  12.403  -1.506  1.00  0.00     0.049 A 
ATOM     52  C   UNL     1      -3.253  10.373  -5.667  1.00  0.00     0.074 A 
ATOM     53  C   UNL     1      -7.335  13.344  -1.842  1.00  0.00     0.029 A 
ATOM     54  N   UNL     1      -5.740  12.042  -2.683  1.00  0.00    -0.354 N 
ATOM     55  N   UNL     1      -4.055  10.947  -4.804  1.00  0.00    -0.248 NA
ATOM     56  C   UNL     1      -3.488  10.771  -7.062  1.00  0.00     0.031 C 
ATOM     57  C   UNL     1      -7.301  13.527  -3.229  1.00  0.00     0.029 A 
ATOM     58  C   UNL     1      -6.297  12.727  -3.750  1.00  0.00     0.049 A 
ATOM     59  H   UNL     1      -5.002  11.394  -2.750  1.00  0.00     0.167 HD
ATOM     60  C   UNL     1      -4.874  11.788  -5.547  1.00  0.00     0.074 A 
ATOM     61  C   UNL     1      -4.463  11.659  -6.929  1.00  0.00     0.031 C 
ATOM     62  C   UNL     1      -5.876  12.594  -5.120  1.00  0.00     0.037 A 
BRANCH  49  63
ATOM     63  C   UNL     1      -6.901  12.301   0.959  1.00  0.00     0.057 A 
ATOM     64  C   UNL     1      -6.419  13.181   1.937  1.00  0.00     0.134 A 
ATOM     65  C   UNL     1      -8.221  11.852   1.087  1.00  0.00     0.134 A 
ATOM     66  F   UNL     1      -5.159  13.638   1.878  1.00  0.00    -0.206 F 
ATOM     67  C   UNL     1      -7.211  13.577   3.016  1.00  0.00     0.040 A 
ATOM     68  C   UNL     1      -9.031  12.260   2.148  1.00  0.00     0.040 A 
ATOM     69  F   UNL     1      -8.747  11.014   0.181  1.00  0.00    -0.206 F 
ATOM     70  C   UNL     1      -8.524  13.120   3.120  1.00  0.00     0.006 A 
ENDBRANCH  49  63
BRANCH  50  71
ATOM     71  C   UNL     1      -1.346   8.850  -6.547  1.00  0.00     0.057 A 
ATOM     72  C   UNL     1      -0.420   9.652  -7.223  1.00  0.00     0.134 A 
ATOM     73  C   UNL     1      -1.484   7.523  -6.971  1.00  0.00     0.134 A 
ATOM     74  F   UNL     1      -0.259  10.937  -6.873  1.00  0.00    -0.206 F 
ATOM     75  C   UNL     1       0.334   9.159  -8.288  1.00  0.00     0.040 A 
ATOM     76  C   UNL     1      -0.722   7.011  -8.022  1.00  0.00     0.040 A 
ATOM     77  F   UNL     1      -2.351   6.704  -6.359  1.00  0.00    -0.206 F 
ATOM     78  C   UNL     1       0.187   7.831  -8.687  1.00  0.00     0.006 A 
ENDBRANCH  50  71
BRANCH  62  79
ATOM     79  C   UNL     1      -6.582  13.418  -6.154  1.00  0.00     0.057 A 
ATOM     80  C   UNL     1      -7.502  12.852  -7.045  1.00  0.00     0.134 A 
ATOM     81  C   UNL     1      -6.372  14.801  -6.231  1.00  0.00     0.134 A 
ATOM     82  F   UNL     1      -7.738  11.531  -7.029  1.00  0.00    -0.206 F 
ATOM     83  C   UNL     1      -8.175  13.629  -7.989  1.00  0.00     0.040 A 
ATOM     84  C   UNL     1      -7.054  15.592  -7.156  1.00  0.00     0.040 A 
ATOM     85  F   UNL     1      -5.509  15.406  -5.400  1.00  0.00    -0.206 F 
ATOM     86  C   UNL     1      -7.956  15.005  -8.041  1.00  0.00     0.006 A 
ENDBRANCH  62  79
ENDBRANCH  36  37
ENDBRANCH  28  31
ENDBRANCH  26  27
ENDBRANCH   1  26
TORSDOF 11
