REMARK SMILES Cc1c(C(=O)NCCCNC(=O)c2ccc(-c3c4nc(c(-c5c(F)cccc5F)c5ccc([nH]5)c(-c5c(F)cccc5F)c5nc(c(-c6c(F)cccc6F)c6ccc3[nH]6)C=C5)C=C4)cc2)cccc1-n1c(C)cc(/C=C2/C(=O)NC(=S)N=C2O)c1C
REMARK SMILES IDX 7 1 6 2 4 3 5 4 3 6 1 7 2 8 70 9 67 10 69 11 68 12 71 13
REMARK SMILES IDX 72 14 86 15 73 16 74 17 75 18 87 19 76 20 77 21 78 22 84 23
REMARK SMILES IDX 79 24 80 25 83 26 81 27 82 29 85 30 8 32 9 33 10 34 11 35
REMARK SMILES IDX 12 37 13 38 14 39 66 40 15 41 65 42 16 43 17 44 18 45 59 46
REMARK SMILES IDX 19 47 64 48 58 49 60 50 20 51 63 52 57 53 56 54 21 56 47 57
REMARK SMILES IDX 30 58 46 59 31 60 34 61 45 62 61 63 32 64 33 65 44 67 62 68
REMARK SMILES IDX 35 69 22 70 23 71 28 72 24 73 25 74 27 75 29 76 26 77 48 78
REMARK SMILES IDX 49 79 54 80 50 81 51 82 53 83 55 84 52 85 36 86 37 87 42 88
REMARK SMILES IDX 38 89 39 90 41 91 43 92 40 93
REMARK H PARENT 6 5 80 28 85 31 10 36 60 55 34 66
REMARK Flexibility Score: inf
ROOT
ATOM      1  C   UNL     1       3.301  -2.100  -0.644  1.00  0.00     0.118 C 
ENDROOT
BRANCH   1   2
ATOM      2  N   UNL     1       2.112  -2.717  -0.069  1.00  0.00    -0.352 N 
ATOM      3  C   UNL     1       0.824  -2.320   0.189  1.00  0.00     0.251 C 
ATOM      4  O   UNL     1       0.112  -3.167   0.739  1.00  0.00    -0.269 OA
ATOM      5  H   UNL     1       2.274  -3.650   0.202  1.00  0.00     0.163 HD
BRANCH   3   6
ATOM      6  C   UNL     1       0.184  -1.012  -0.177  1.00  0.00     0.044 A 
ATOM      7  C   UNL     1       2.085   0.554   0.480  1.00  0.00     0.047 C 
ATOM      8  C   UNL     1       0.722   0.284  -0.055  1.00  0.00    -0.014 A 
ATOM      9  C   UNL     1      -0.089   1.395  -0.394  1.00  0.00     0.049 A 
ATOM     10  C   UNL     1      -1.184  -1.126  -0.522  1.00  0.00     0.014 A 
ATOM     11  C   UNL     1      -1.434   1.262  -0.738  1.00  0.00     0.027 A 
ATOM     12  C   UNL     1      -1.985  -0.009  -0.784  1.00  0.00     0.003 A 
BRANCH   9  13
ATOM     13  N   UNL     1       0.426   2.708  -0.267  1.00  0.00    -0.318 N 
ATOM     14  C   UNL     1       1.233   3.334  -1.202  1.00  0.00     0.020 A 
ATOM     15  C   UNL     1       0.488   3.417   0.934  1.00  0.00     0.027 A 
ATOM     16  C   UNL     1       1.626   2.723  -2.502  1.00  0.00     0.065 C 
ATOM     17  C   UNL     1       1.600   4.553  -0.670  1.00  0.00     0.031 A 
ATOM     18  C   UNL     1       1.121   4.621   0.667  1.00  0.00    -0.003 A 
ATOM     19  C   UNL     1       0.003   2.801   2.210  1.00  0.00     0.065 C 
BRANCH  18  20
ATOM     20  C   UNL     1       1.476   5.683   1.556  1.00  0.00     0.029 C 
ATOM     21  C   UNL     1       0.860   6.220   2.624  1.00  0.00     0.102 C 
ATOM     22  C   UNL     1       1.643   7.230   3.383  1.00  0.00     0.262 C 
ATOM     23  C   UNL     1      -0.439   5.919   3.225  1.00  0.00     0.226 C 
ATOM     24  O   UNL     1       2.645   7.793   2.958  1.00  0.00    -0.269 OA
ATOM     25  N   UNL     1       1.172   7.460   4.648  1.00  0.00    -0.297 N 
ATOM     26  N   UNL     1      -0.826   6.221   4.410  1.00  0.00    -0.184 NA
ATOM     27  C   UNL     1       0.033   6.934   5.204  1.00  0.00     0.203 C 
ATOM     28  H   UNL     1       1.704   8.064   5.215  1.00  0.00     0.172 HD
ATOM     29  S   UNL     1      -0.262   7.256   6.822  1.00  0.00    -0.038 S 
BRANCH  23  30
ATOM     30  O   UNL     1      -1.338   5.328   2.437  1.00  0.00    -0.493 OA
ATOM     31  H   UNL     1      -1.107   5.086   1.562  1.00  0.00     0.295 HD
ENDBRANCH  23  30
ENDBRANCH  18  20
ENDBRANCH   9  13
ENDBRANCH   3   6
ENDBRANCH   1   2
BRANCH   1  32
ATOM     32  C   UNL     1       4.182  -1.513   0.463  1.00  0.00     0.042 C 
BRANCH  32  33
ATOM     33  C   UNL     1       5.519  -2.166   0.701  1.00  0.00     0.118 C 
BRANCH  33  34
ATOM     34  N   UNL     1       6.651  -1.405   0.171  1.00  0.00    -0.352 N 
ATOM     35  C   UNL     1       8.008  -1.656   0.334  1.00  0.00     0.251 C 
ATOM     36  H   UNL     1       6.422  -0.615  -0.369  1.00  0.00     0.163 HD
ATOM     37  O   UNL     1       8.850  -0.953  -0.188  1.00  0.00    -0.269 OA
BRANCH  35  38
ATOM     38  C   UNL     1       8.388  -2.898   1.047  1.00  0.00     0.039 A 
ATOM     39  C   UNL     1       9.078  -3.865   0.311  1.00  0.00     0.014 A 
ATOM     40  C   UNL     1       7.721  -3.229   2.218  1.00  0.00     0.014 A 
ATOM     41  C   UNL     1       8.844  -5.208   0.587  1.00  0.00     0.010 A 
ATOM     42  C   UNL     1       7.356  -4.546   2.379  1.00  0.00     0.010 A 
ATOM     43  C   UNL     1       7.875  -5.537   1.530  1.00  0.00    -0.014 A 
BRANCH  43  44
ATOM     44  C   UNL     1       7.284  -6.863   1.689  1.00  0.00     0.031 A 
ATOM     45  C   UNL     1       7.453  -7.566   2.982  1.00  0.00     0.074 A 
ATOM     46  C   UNL     1       6.467  -7.378   0.741  1.00  0.00     0.049 A 
ATOM     47  N   UNL     1       7.081  -8.777   3.216  1.00  0.00    -0.248 NA
ATOM     48  C   UNL     1       8.132  -6.954   4.119  1.00  0.00     0.031 C 
ATOM     49  C   UNL     1       5.497  -8.458   0.909  1.00  0.00     0.029 A 
ATOM     50  N   UNL     1       6.502  -7.162  -0.645  1.00  0.00    -0.354 N 
ATOM     51  C   UNL     1       7.239  -9.026   4.559  1.00  0.00     0.074 A 
ATOM     52  C   UNL     1       7.960  -7.885   5.059  1.00  0.00     0.031 C 
ATOM     53  C   UNL     1       5.244  -9.010  -0.286  1.00  0.00     0.029 A 
ATOM     54  C   UNL     1       6.163  -8.410  -1.233  1.00  0.00     0.049 A 
ATOM     55  H   UNL     1       6.717  -6.322  -1.112  1.00  0.00     0.167 HD
ATOM     56  C   UNL     1       6.657 -10.141   5.086  1.00  0.00     0.037 A 
ATOM     57  C   UNL     1       7.060  -9.104  -1.994  1.00  0.00     0.037 A 
ATOM     58  C   UNL     1       6.220 -11.043   4.016  1.00  0.00     0.049 A 
ATOM     59  C   UNL     1       7.432 -10.475  -1.464  1.00  0.00     0.074 A 
ATOM     60  C   UNL     1       5.015 -11.344   3.404  1.00  0.00     0.029 A 
ATOM     61  N   UNL     1       7.199 -11.616   3.226  1.00  0.00    -0.354 N 
ATOM     62  N   UNL     1       7.008 -10.969  -0.334  1.00  0.00    -0.248 NA
ATOM     63  C   UNL     1       8.400 -11.355  -2.124  1.00  0.00     0.031 C 
ATOM     64  C   UNL     1       5.298 -12.075   2.209  1.00  0.00     0.029 A 
ATOM     65  C   UNL     1       6.670 -12.225   2.110  1.00  0.00     0.049 A 
ATOM     66  H   UNL     1       8.161 -11.592   3.437  1.00  0.00     0.167 HD
ATOM     67  C   UNL     1       7.693 -12.123  -0.061  1.00  0.00     0.074 A 
ATOM     68  C   UNL     1       8.532 -12.343  -1.223  1.00  0.00     0.031 C 
ATOM     69  C   UNL     1       7.582 -12.783   1.125  1.00  0.00     0.037 A 
BRANCH  56  70
ATOM     70  C   UNL     1       6.357 -10.397   6.550  1.00  0.00     0.057 A 
ATOM     71  C   UNL     1       5.502 -11.459   6.915  1.00  0.00     0.134 A 
ATOM     72  C   UNL     1       6.780  -9.617   7.644  1.00  0.00     0.134 A 
ATOM     73  F   UNL     1       5.035 -12.331   6.011  1.00  0.00    -0.206 F 
ATOM     74  C   UNL     1       5.064 -11.681   8.230  1.00  0.00     0.040 A 
ATOM     75  C   UNL     1       6.349  -9.825   8.961  1.00  0.00     0.040 A 
ATOM     76  F   UNL     1       7.646  -8.612   7.528  1.00  0.00    -0.206 F 
ATOM     77  C   UNL     1       5.476 -10.852   9.259  1.00  0.00     0.006 A 
ENDBRANCH  56  70
BRANCH  57  78
ATOM     78  C   UNL     1       7.981  -8.210  -2.740  1.00  0.00     0.057 A 
ATOM     79  C   UNL     1       7.447  -7.376  -3.737  1.00  0.00     0.134 A 
ATOM     80  C   UNL     1       9.238  -7.877  -2.228  1.00  0.00     0.134 A 
ATOM     81  F   UNL     1       6.244  -7.643  -4.269  1.00  0.00    -0.206 F 
ATOM     82  C   UNL     1       8.079  -6.190  -4.116  1.00  0.00     0.040 A 
ATOM     83  C   UNL     1       9.886  -6.699  -2.611  1.00  0.00     0.040 A 
ATOM     84  F   UNL     1       9.795  -8.614  -1.256  1.00  0.00    -0.206 F 
ATOM     85  C   UNL     1       9.286  -5.831  -3.523  1.00  0.00     0.006 A 
ENDBRANCH  57  78
BRANCH  69  86
ATOM     86  C   UNL     1       8.373 -14.011   1.452  1.00  0.00     0.057 A 
ATOM     87  C   UNL     1       8.360 -15.144   0.631  1.00  0.00     0.134 A 
ATOM     88  C   UNL     1       9.063 -14.137   2.673  1.00  0.00     0.134 A 
ATOM     89  F   UNL     1       7.721 -15.129  -0.548  1.00  0.00    -0.206 F 
ATOM     90  C   UNL     1       8.991 -16.336   1.006  1.00  0.00     0.040 A 
ATOM     91  C   UNL     1       9.657 -15.333   3.079  1.00  0.00     0.040 A 
ATOM     92  F   UNL     1       9.201 -13.095   3.508  1.00  0.00    -0.206 F 
ATOM     93  C   UNL     1       9.623 -16.440   2.242  1.00  0.00     0.006 A 
ENDBRANCH  69  86
ENDBRANCH  43  44
ENDBRANCH  35  38
ENDBRANCH  33  34
ENDBRANCH  32  33
ENDBRANCH   1  32
TORSDOF 13
