REMARK SMILES CCC[C@@H]1SC[C@@H](C(=O)NCCCNC(=O)c2ccc(-c3c4nc(c(-c5c(F)cccc5F)c5ccc([nH]5)c(-c5c(F)cccc5F)c5nc(c(-c6c(F)cccc6F)c6ccc3[nH]6)C=C5)C=C4)cc2)N1C(=O)C1C(C)(C)C1(C)C
REMARK SMILES IDX 12 1 11 2 10 3 8 4 9 5 7 7 4 8 5 9 71 10 6 11 3 12 2 13 1 14
REMARK SMILES IDX 72 15 73 16 74 17 75 18 78 19 76 20 77 21 79 22 80 23 13 24
REMARK SMILES IDX 14 25 15 26 16 28 17 29 18 30 70 31 19 32 69 33 20 34 21 35
REMARK SMILES IDX 22 36 63 37 23 38 68 39 62 40 64 41 24 42 67 43 61 44 60 45
REMARK SMILES IDX 25 47 51 48 34 49 50 50 35 51 38 52 49 53 65 54 36 55 37 56
REMARK SMILES IDX 48 58 66 59 39 60 26 61 27 62 32 63 28 64 29 65 31 66 33 67
REMARK SMILES IDX 30 68 52 69 53 70 58 71 54 72 55 73 57 74 59 75 56 76 40 77
REMARK SMILES IDX 41 78 46 79 42 80 43 81 45 82 47 83 44 84
REMARK H PARENT 10 6 14 27 64 46 38 57
REMARK Flexibility Score: inf
ROOT
ATOM      1  C   UNL     1       1.090  -3.701   0.531  1.00  0.00     0.042 C 
ENDROOT
BRANCH   1   2
ATOM      2  C   UNL     1      -0.247  -3.042   0.220  1.00  0.00     0.117 C 
BRANCH   2   3
ATOM      3  N   UNL     1      -1.303  -3.509   1.098  1.00  0.00    -0.354 N 
ATOM      4  C   UNL     1      -1.973  -2.929   2.135  1.00  0.00     0.243 C 
ATOM      5  O   UNL     1      -3.010  -3.512   2.475  1.00  0.00    -0.273 OA
ATOM      6  H   UNL     1      -1.595  -4.430   0.907  1.00  0.00     0.163 HD
BRANCH   4   7
ATOM      7  C   UNL     1      -1.607  -1.553   2.768  1.00  0.00     0.185 C 
ATOM      8  C   UNL     1       0.629  -0.505   2.571  1.00  0.00     0.144 C 
ATOM      9  S   UNL     1      -0.536   0.695   1.803  1.00  0.00    -0.134 SA
ATOM     10  N   UNL     1      -0.245  -1.421   3.376  1.00  0.00    -0.318 N 
ATOM     11  C   UNL     1      -1.913  -0.454   1.756  1.00  0.00     0.107 C 
BRANCH   8  12
ATOM     12  C   UNL     1       1.824   0.331   3.092  1.00  0.00     0.036 C 
BRANCH  12  13
ATOM     13  C   UNL     1       3.168   0.220   2.342  1.00  0.00    -0.000 C 
ATOM     14  C   UNL     1       3.134   0.355   0.836  1.00  0.00     0.004 C 
ENDBRANCH  12  13
ENDBRANCH   8  12
BRANCH  10  15
ATOM     15  C   UNL     1      -0.120  -2.227   4.556  1.00  0.00     0.228 C 
ATOM     16  O   UNL     1      -1.104  -2.872   4.925  1.00  0.00    -0.274 OA
BRANCH  15  17
ATOM     17  C   UNL     1       1.077  -2.435   5.491  1.00  0.00     0.091 C 
ATOM     18  C   UNL     1       2.544  -2.289   5.105  1.00  0.00    -0.017 C 
ATOM     19  C   UNL     1       1.738  -1.292   6.165  1.00  0.00    -0.017 C 
ATOM     20  C   UNL     1       3.711  -3.012   5.798  1.00  0.00     0.012 C 
ATOM     21  C   UNL     1       2.595  -2.792   3.676  1.00  0.00     0.012 C 
ATOM     22  C   UNL     1       1.032   0.052   6.052  1.00  0.00     0.012 C 
ATOM     23  C   UNL     1       2.200  -1.430   7.625  1.00  0.00     0.012 C 
ENDBRANCH  15  17
ENDBRANCH  10  15
ENDBRANCH   4   7
ENDBRANCH   2   3
ENDBRANCH   1   2
BRANCH   1  24
ATOM     24  C   UNL     1       1.286  -5.060  -0.134  1.00  0.00     0.118 C 
BRANCH  24  25
ATOM     25  N   UNL     1       1.551  -4.949  -1.561  1.00  0.00    -0.352 N 
ATOM     26  C   UNL     1       2.659  -5.267  -2.310  1.00  0.00     0.251 C 
ATOM     27  H   UNL     1       0.803  -4.579  -2.083  1.00  0.00     0.163 HD
ATOM     28  O   UNL     1       2.697  -4.903  -3.483  1.00  0.00    -0.269 OA
BRANCH  26  29
ATOM     29  C   UNL     1       3.811  -6.015  -1.746  1.00  0.00     0.039 A 
ATOM     30  C   UNL     1       5.094  -5.709  -2.219  1.00  0.00     0.014 A 
ATOM     31  C   UNL     1       3.656  -7.056  -0.828  1.00  0.00     0.014 A 
ATOM     32  C   UNL     1       6.210  -6.399  -1.735  1.00  0.00     0.010 A 
ATOM     33  C   UNL     1       4.777  -7.689  -0.284  1.00  0.00     0.010 A 
ATOM     34  C   UNL     1       6.067  -7.375  -0.737  1.00  0.00    -0.014 A 
BRANCH  34  35
ATOM     35  C   UNL     1       7.254  -8.071  -0.169  1.00  0.00     0.031 A 
ATOM     36  C   UNL     1       7.424  -9.560  -0.330  1.00  0.00     0.074 A 
ATOM     37  C   UNL     1       8.160  -7.370   0.542  1.00  0.00     0.049 A 
ATOM     38  N   UNL     1       8.370 -10.339   0.133  1.00  0.00    -0.248 NA
ATOM     39  C   UNL     1       6.383 -10.271  -1.088  1.00  0.00     0.031 C 
ATOM     40  C   UNL     1       8.088  -5.935   0.825  1.00  0.00     0.029 A 
ATOM     41  N   UNL     1       9.315  -7.772   1.168  1.00  0.00    -0.354 N 
ATOM     42  C   UNL     1       8.026 -11.628  -0.255  1.00  0.00     0.074 A 
ATOM     43  C   UNL     1       6.764 -11.534  -0.957  1.00  0.00     0.031 C 
ATOM     44  C   UNL     1       9.159  -5.574   1.550  1.00  0.00     0.029 A 
ATOM     45  C   UNL     1       9.977  -6.754   1.812  1.00  0.00     0.049 A 
ATOM     46  H   UNL     1       9.639  -8.702   1.155  1.00  0.00     0.167 HD
ATOM     47  C   UNL     1       8.706 -12.783  -0.060  1.00  0.00     0.037 A 
ATOM     48  C   UNL     1      11.111  -6.768   2.540  1.00  0.00     0.037 A 
ATOM     49  C   UNL     1       9.985 -12.874   0.596  1.00  0.00     0.049 A 
ATOM     50  C   UNL     1      11.861  -8.059   2.713  1.00  0.00     0.074 A 
ATOM     51  C   UNL     1      10.795 -13.985   0.753  1.00  0.00     0.029 A 
ATOM     52  N   UNL     1      10.637 -11.814   1.206  1.00  0.00    -0.354 N 
ATOM     53  N   UNL     1      11.567  -9.254   2.260  1.00  0.00    -0.248 NA
ATOM     54  C   UNL     1      13.107  -8.003   3.492  1.00  0.00     0.031 C 
ATOM     55  C   UNL     1      11.917 -13.608   1.498  1.00  0.00     0.029 A 
ATOM     56  C   UNL     1      11.827 -12.252   1.765  1.00  0.00     0.049 A 
ATOM     57  H   UNL     1      10.304 -10.888   1.238  1.00  0.00     0.167 HD
ATOM     58  C   UNL     1      12.599 -10.083   2.678  1.00  0.00     0.074 A 
ATOM     59  C   UNL     1      13.537  -9.253   3.403  1.00  0.00     0.031 C 
ATOM     60  C   UNL     1      12.755 -11.415   2.480  1.00  0.00     0.037 A 
BRANCH  47  61
ATOM     61  C   UNL     1       8.090 -14.054  -0.569  1.00  0.00     0.057 A 
ATOM     62  C   UNL     1       8.026 -14.351  -1.937  1.00  0.00     0.134 A 
ATOM     63  C   UNL     1       7.614 -15.022   0.325  1.00  0.00     0.134 A 
ATOM     64  F   UNL     1       8.458 -13.464  -2.846  1.00  0.00    -0.206 F 
ATOM     65  C   UNL     1       7.494 -15.557  -2.398  1.00  0.00     0.040 A 
ATOM     66  C   UNL     1       7.102 -16.241  -0.123  1.00  0.00     0.040 A 
ATOM     67  F   UNL     1       7.653 -14.806   1.648  1.00  0.00    -0.206 F 
ATOM     68  C   UNL     1       7.038 -16.510  -1.489  1.00  0.00     0.006 A 
ENDBRANCH  47  61
BRANCH  48  69
ATOM     69  C   UNL     1      11.618  -5.514   3.154  1.00  0.00     0.057 A 
ATOM     70  C   UNL     1      12.787  -4.901   2.689  1.00  0.00     0.134 A 
ATOM     71  C   UNL     1      10.960  -4.913   4.234  1.00  0.00     0.134 A 
ATOM     72  F   UNL     1      13.472  -5.441   1.670  1.00  0.00    -0.206 F 
ATOM     73  C   UNL     1      13.298  -3.750   3.290  1.00  0.00     0.040 A 
ATOM     74  C   UNL     1      11.445  -3.748   4.828  1.00  0.00     0.040 A 
ATOM     75  F   UNL     1       9.830  -5.447   4.721  1.00  0.00    -0.206 F 
ATOM     76  C   UNL     1      12.624  -3.168   4.362  1.00  0.00     0.006 A 
ENDBRANCH  48  69
BRANCH  60  77
ATOM     77  C   UNL     1      13.996 -12.050   3.034  1.00  0.00     0.057 A 
ATOM     78  C   UNL     1      14.170 -12.255   4.408  1.00  0.00     0.134 A 
ATOM     79  C   UNL     1      15.015 -12.489   2.179  1.00  0.00     0.134 A 
ATOM     80  F   UNL     1      13.237 -11.845   5.280  1.00  0.00    -0.206 F 
ATOM     81  C   UNL     1      15.325 -12.853   4.915  1.00  0.00     0.040 A 
ATOM     82  C   UNL     1      16.163 -13.111   2.672  1.00  0.00     0.040 A 
ATOM     83  F   UNL     1      14.907 -12.331   0.851  1.00  0.00    -0.206 F 
ATOM     84  C   UNL     1      16.323 -13.288   4.045  1.00  0.00     0.006 A 
ENDBRANCH  60  77
ENDBRANCH  34  35
ENDBRANCH  26  29
ENDBRANCH  24  25
ENDBRANCH   1  24
TORSDOF 14
