REMARK SMILES CC(C)c1cc(C(=O)NCCCNC(=O)c2ccc(-c3c4nc(c(-c5c(F)cccc5F)c5ccc([nH]5)c(-c5c(F)cccc5F)c5nc(c(-c6c(F)cccc6F)c6ccc3[nH]6)C=C5)C=C4)cc2)ccc1[N+](=O)[O-]
REMARK SMILES IDX 11 1 10 2 9 3 7 4 8 5 6 7 4 8 5 9 72 10 71 11 70 12 2 13
REMARK SMILES IDX 1 14 3 15 73 16 74 17 75 18 12 19 13 20 14 21 15 23 16 24
REMARK SMILES IDX 17 25 69 26 18 27 68 28 19 29 20 30 21 31 62 32 22 33 67 34
REMARK SMILES IDX 61 35 63 36 23 37 66 38 60 39 59 40 24 42 50 43 33 44 49 45
REMARK SMILES IDX 34 46 37 47 48 48 64 49 35 50 36 51 47 53 65 54 38 55 25 56
REMARK SMILES IDX 26 57 31 58 27 59 28 60 30 61 32 62 29 63 51 64 52 65 57 66
REMARK SMILES IDX 53 67 54 68 56 69 58 70 55 71 39 72 40 73 45 74 41 75 42 76
REMARK SMILES IDX 44 77 46 78 43 79
REMARK H PARENT 9 6 13 22 63 41 37 52
REMARK Flexibility Score: inf
ROOT
ATOM      1  C   UNL     1      -6.501   1.906   3.352  1.00  0.00     0.042 C 
ENDROOT
BRANCH   1   2
ATOM      2  C   UNL     1      -5.996   1.850   1.918  1.00  0.00     0.118 C 
BRANCH   2   3
ATOM      3  N   UNL     1      -5.119   2.955   1.553  1.00  0.00    -0.352 N 
ATOM      4  C   UNL     1      -3.826   3.010   1.090  1.00  0.00     0.251 C 
ATOM      5  O   UNL     1      -3.327   4.120   0.904  1.00  0.00    -0.269 OA
ATOM      6  H   UNL     1      -5.537   3.840   1.658  1.00  0.00     0.163 HD
BRANCH   4   7
ATOM      7  C   UNL     1      -2.993   1.797   0.865  1.00  0.00     0.040 A 
ATOM      8  C   UNL     1      -0.733   0.797   0.931  1.00  0.00     0.033 A 
ATOM      9  C   UNL     1      -1.597   1.910   1.034  1.00  0.00     0.025 A 
ATOM     10  C   UNL     1      -1.363  -0.460   0.797  1.00  0.00     0.272 A 
ATOM     11  C   UNL     1      -2.730  -0.569   0.499  1.00  0.00     0.087 A 
ATOM     12  C   UNL     1      -3.521   0.575   0.459  1.00  0.00     0.021 A 
BRANCH   8  13
ATOM     13  C   UNL     1       0.790   0.968   0.913  1.00  0.00     0.020 C 
ATOM     14  C   UNL     1       1.411   0.305  -0.333  1.00  0.00     0.013 C 
ATOM     15  C   UNL     1       1.287   2.426   0.924  1.00  0.00     0.013 C 
ENDBRANCH   8  13
BRANCH  10  16
ATOM     16  N   UNL     1      -0.648  -1.716   1.030  1.00  0.00     0.063 N 
ATOM     17  O   UNL     1      -0.899  -2.662   0.271  1.00  0.00    -0.258 OA
ATOM     18  O   UNL     1       0.119  -1.766   2.001  1.00  0.00    -0.258 OA
ENDBRANCH  10  16
ENDBRANCH   4   7
ENDBRANCH   2   3
ENDBRANCH   1   2
BRANCH   1  19
ATOM     19  C   UNL     1      -7.363   3.112   3.686  1.00  0.00     0.118 C 
BRANCH  19  20
ATOM     20  N   UNL     1      -8.585   3.181   2.896  1.00  0.00    -0.352 N 
ATOM     21  C   UNL     1      -9.895   2.926   3.212  1.00  0.00     0.251 C 
ATOM     22  H   UNL     1      -8.444   3.463   1.963  1.00  0.00     0.163 HD
ATOM     23  O   UNL     1     -10.727   2.889   2.301  1.00  0.00    -0.269 OA
BRANCH  21  24
ATOM     24  C   UNL     1     -10.334   2.671   4.603  1.00  0.00     0.039 A 
ATOM     25  C   UNL     1     -11.371   1.757   4.825  1.00  0.00     0.014 A 
ATOM     26  C   UNL     1      -9.787   3.357   5.687  1.00  0.00     0.014 A 
ATOM     27  C   UNL     1     -11.804   1.486   6.127  1.00  0.00     0.010 A 
ATOM     28  C   UNL     1     -10.142   3.011   6.989  1.00  0.00     0.010 A 
ATOM     29  C   UNL     1     -11.166   2.083   7.225  1.00  0.00    -0.014 A 
BRANCH  29  30
ATOM     30  C   UNL     1     -11.569   1.776   8.622  1.00  0.00     0.031 A 
ATOM     31  C   UNL     1     -12.085   2.870   9.520  1.00  0.00     0.074 A 
ATOM     32  C   UNL     1     -11.407   0.530   9.109  1.00  0.00     0.049 A 
ATOM     33  N   UNL     1     -12.399   2.822  10.790  1.00  0.00    -0.248 NA
ATOM     34  C   UNL     1     -12.234   4.205   8.918  1.00  0.00     0.031 C 
ATOM     35  C   UNL     1     -10.868  -0.609   8.364  1.00  0.00     0.029 A 
ATOM     36  N   UNL     1     -11.670   0.015  10.354  1.00  0.00    -0.354 N 
ATOM     37  C   UNL     1     -12.755   4.118  11.142  1.00  0.00     0.074 A 
ATOM     38  C   UNL     1     -12.566   4.942   9.968  1.00  0.00     0.031 C 
ATOM     39  C   UNL     1     -10.867  -1.693   9.155  1.00  0.00     0.029 A 
ATOM     40  C   UNL     1     -11.369  -1.320  10.474  1.00  0.00     0.049 A 
ATOM     41  H   UNL     1     -12.040   0.552  11.092  1.00  0.00     0.167 HD
ATOM     42  C   UNL     1     -13.222   4.579  12.327  1.00  0.00     0.037 A 
ATOM     43  C   UNL     1     -11.483  -2.149  11.528  1.00  0.00     0.037 A 
ATOM     44  C   UNL     1     -13.452   3.752  13.482  1.00  0.00     0.049 A 
ATOM     45  C   UNL     1     -12.026  -1.620  12.825  1.00  0.00     0.074 A 
ATOM     46  C   UNL     1     -13.985   4.111  14.708  1.00  0.00     0.029 A 
ATOM     47  N   UNL     1     -13.168   2.397  13.550  1.00  0.00    -0.354 N 
ATOM     48  N   UNL     1     -12.415  -0.405  13.124  1.00  0.00    -0.248 NA
ATOM     49  C   UNL     1     -12.155  -2.581  13.930  1.00  0.00     0.031 C 
ATOM     50  C   UNL     1     -13.992   2.979  15.530  1.00  0.00     0.029 A 
ATOM     51  C   UNL     1     -13.503   1.907  14.802  1.00  0.00     0.049 A 
ATOM     52  H   UNL     1     -12.785   1.862  12.818  1.00  0.00     0.167 HD
ATOM     53  C   UNL     1     -12.860  -0.460  14.439  1.00  0.00     0.074 A 
ATOM     54  C   UNL     1     -12.705  -1.833  14.875  1.00  0.00     0.031 C 
ATOM     55  C   UNL     1     -13.352   0.536  15.215  1.00  0.00     0.037 A 
BRANCH  42  56
ATOM     56  C   UNL     1     -13.526   6.046  12.427  1.00  0.00     0.057 A 
ATOM     57  C   UNL     1     -14.612   6.623  11.755  1.00  0.00     0.134 A 
ATOM     58  C   UNL     1     -12.739   6.888  13.223  1.00  0.00     0.134 A 
ATOM     59  F   UNL     1     -15.397   5.875  10.965  1.00  0.00    -0.206 F 
ATOM     60  C   UNL     1     -14.886   7.989  11.846  1.00  0.00     0.040 A 
ATOM     61  C   UNL     1     -13.020   8.251  13.344  1.00  0.00     0.040 A 
ATOM     62  F   UNL     1     -11.688   6.402  13.899  1.00  0.00    -0.206 F 
ATOM     63  C   UNL     1     -14.092   8.806  12.648  1.00  0.00     0.006 A 
ENDBRANCH  42  56
BRANCH  43  64
ATOM     64  C   UNL     1     -11.106  -3.579  11.392  1.00  0.00     0.057 A 
ATOM     65  C   UNL     1     -12.084  -4.581  11.381  1.00  0.00     0.134 A 
ATOM     66  C   UNL     1      -9.770  -3.979  11.277  1.00  0.00     0.134 A 
ATOM     67  F   UNL     1     -13.380  -4.260  11.506  1.00  0.00    -0.206 F 
ATOM     68  C   UNL     1     -11.746  -5.931  11.279  1.00  0.00     0.040 A 
ATOM     69  C   UNL     1      -9.419  -5.324  11.150  1.00  0.00     0.040 A 
ATOM     70  F   UNL     1      -8.788  -3.066  11.273  1.00  0.00    -0.206 F 
ATOM     71  C   UNL     1     -10.409  -6.305  11.158  1.00  0.00     0.006 A 
ENDBRANCH  43  64
BRANCH  55  72
ATOM     72  C   UNL     1     -13.794   0.168  16.601  1.00  0.00     0.057 A 
ATOM     73  C   UNL     1     -12.876  -0.127  17.616  1.00  0.00     0.134 A 
ATOM     74  C   UNL     1     -15.155   0.140  16.929  1.00  0.00     0.134 A 
ATOM     75  F   UNL     1     -11.559  -0.129  17.362  1.00  0.00    -0.206 F 
ATOM     76  C   UNL     1     -13.297  -0.460  18.904  1.00  0.00     0.040 A 
ATOM     77  C   UNL     1     -15.588  -0.168  18.219  1.00  0.00     0.040 A 
ATOM     78  F   UNL     1     -16.085   0.420  16.003  1.00  0.00    -0.206 F 
ATOM     79  C   UNL     1     -14.658  -0.476  19.209  1.00  0.00     0.006 A 
ENDBRANCH  55  72
ENDBRANCH  29  30
ENDBRANCH  21  24
ENDBRANCH  19  20
ENDBRANCH   1  19
TORSDOF 12
