REMARK SMILES O=C(NCCCNC(=O)c1cc(-c2ccn(C(F)F)c(=O)c2)ccc1O)c1ccc(-c2c3nc(c(-c4c(F)cccc4F)c4ccc([nH]4)c(-c4c(F)cccc4F)c4nc(c(-c5c(F)cccc5F)c5ccc2[nH]5)C=C4)C=C3)cc1
REMARK SMILES IDX 5 1 4 2 3 3 1 4 2 5 27 7 28 8 80 9 29 10 79 11 30 12 31 13
REMARK SMILES IDX 32 14 73 15 33 16 78 17 72 18 74 19 34 20 77 21 71 22 70 23
REMARK SMILES IDX 35 25 61 26 44 27 60 28 45 29 48 30 59 31 75 32 46 33 47 34
REMARK SMILES IDX 58 36 76 37 49 38 36 39 37 40 42 41 38 42 39 43 41 44 43 45
REMARK SMILES IDX 40 46 62 47 63 48 68 49 64 50 65 51 67 52 69 53 66 54 50 55
REMARK SMILES IDX 51 56 56 57 52 58 53 59 55 60 57 61 54 62 6 63 7 64 8 65
REMARK SMILES IDX 9 67 10 68 11 69 25 70 12 71 24 72 23 73 26 74 13 76 14 77
REMARK SMILES IDX 22 78 15 79 20 80 16 81 21 82 17 83 18 84 19 85
REMARK H PARENT 3 6 74 24 48 35 7 66 26 75
REMARK Flexibility Score: inf
ROOT
ATOM      1  C   UNL     1       5.083  -2.211  -1.031  1.00  0.00     0.042 C 
ENDROOT
BRANCH   1   2
ATOM      2  C   UNL     1       4.721  -0.736  -1.083  1.00  0.00     0.118 C 
BRANCH   2   3
ATOM      3  N   UNL     1       3.288  -0.502  -0.992  1.00  0.00    -0.352 N 
ATOM      4  O   UNL     1       1.295  -0.033  -0.077  1.00  0.00    -0.269 OA
ATOM      5  C   UNL     1       2.521   0.048   0.004  1.00  0.00     0.251 C 
ATOM      6  H   UNL     1       2.779  -0.788  -1.785  1.00  0.00     0.163 HD
BRANCH   5   7
ATOM      7  C   UNL     1       3.129   0.724   1.173  1.00  0.00     0.039 A 
ATOM      8  C   UNL     1       2.465   0.661   2.402  1.00  0.00     0.014 A 
ATOM      9  C   UNL     1       4.293   1.487   1.063  1.00  0.00     0.014 A 
ATOM     10  C   UNL     1       2.975   1.342   3.511  1.00  0.00     0.010 A 
ATOM     11  C   UNL     1       4.866   2.064   2.193  1.00  0.00     0.010 A 
ATOM     12  C   UNL     1       4.186   2.044   3.417  1.00  0.00    -0.014 A 
BRANCH  12  13
ATOM     13  C   UNL     1       4.689   2.865   4.549  1.00  0.00     0.031 A 
ATOM     14  C   UNL     1       4.813   4.360   4.387  1.00  0.00     0.074 A 
ATOM     15  C   UNL     1       5.041   2.282   5.711  1.00  0.00     0.049 A 
ATOM     16  N   UNL     1       5.259   5.254   5.234  1.00  0.00    -0.248 NA
ATOM     17  C   UNL     1       4.411   4.921   3.086  1.00  0.00     0.031 C 
ATOM     18  C   UNL     1       5.012   0.845   5.985  1.00  0.00     0.029 A 
ATOM     19  N   UNL     1       5.492   2.836   6.882  1.00  0.00    -0.354 N 
ATOM     20  C   UNL     1       5.200   6.470   4.563  1.00  0.00     0.074 A 
ATOM     21  C   UNL     1       4.758   6.191   3.216  1.00  0.00     0.031 C 
ATOM     22  C   UNL     1       5.395   0.633   7.255  1.00  0.00     0.029 A 
ATOM     23  C   UNL     1       5.722   1.914   7.874  1.00  0.00     0.049 A 
ATOM     24  H   UNL     1       5.637   3.802   7.001  1.00  0.00     0.167 HD
ATOM     25  C   UNL     1       5.445   7.717   5.032  1.00  0.00     0.037 A 
ATOM     26  C   UNL     1       6.143   2.089   9.140  1.00  0.00     0.037 A 
ATOM     27  C   UNL     1       5.859   8.005   6.379  1.00  0.00     0.049 A 
ATOM     28  C   UNL     1       6.407   3.483   9.640  1.00  0.00     0.074 A 
ATOM     29  C   UNL     1       6.122   9.232   6.962  1.00  0.00     0.029 A 
ATOM     30  N   UNL     1       6.058   7.045   7.359  1.00  0.00    -0.354 N 
ATOM     31  N   UNL     1       6.309   4.626   9.005  1.00  0.00    -0.248 NA
ATOM     32  C   UNL     1       6.827   3.609  11.043  1.00  0.00     0.031 C 
ATOM     33  C   UNL     1       6.503   9.011   8.291  1.00  0.00     0.029 A 
ATOM     34  C   UNL     1       6.439   7.651   8.544  1.00  0.00     0.049 A 
ATOM     35  H   UNL     1       5.945   6.075   7.231  1.00  0.00     0.167 HD
ATOM     36  C   UNL     1       6.628   5.607   9.936  1.00  0.00     0.074 A 
ATOM     37  C   UNL     1       6.897   4.924  11.185  1.00  0.00     0.031 C 
ATOM     38  C   UNL     1       6.698   6.951   9.776  1.00  0.00     0.037 A 
BRANCH  25  39
ATOM     39  C   UNL     1       5.245   8.855   4.073  1.00  0.00     0.057 A 
ATOM     40  C   UNL     1       6.333   9.584   3.579  1.00  0.00     0.134 A 
ATOM     41  C   UNL     1       3.967   9.220   3.625  1.00  0.00     0.134 A 
ATOM     42  F   UNL     1       7.583   9.292   3.968  1.00  0.00    -0.206 F 
ATOM     43  C   UNL     1       6.158  10.627   2.667  1.00  0.00     0.040 A 
ATOM     44  C   UNL     1       3.783  10.241   2.690  1.00  0.00     0.040 A 
ATOM     45  F   UNL     1       2.883   8.550   4.044  1.00  0.00    -0.206 F 
ATOM     46  C   UNL     1       4.881  10.950   2.212  1.00  0.00     0.006 A 
ENDBRANCH  25  39
BRANCH  26  47
ATOM     47  C   UNL     1       6.314   0.922  10.042  1.00  0.00     0.057 A 
ATOM     48  C   UNL     1       7.361   0.010   9.867  1.00  0.00     0.134 A 
ATOM     49  C   UNL     1       5.456   0.718  11.130  1.00  0.00     0.134 A 
ATOM     50  F   UNL     1       8.212   0.146   8.839  1.00  0.00    -0.206 F 
ATOM     51  C   UNL     1       7.553  -1.058  10.744  1.00  0.00     0.040 A 
ATOM     52  C   UNL     1       5.652  -0.331  12.030  1.00  0.00     0.040 A 
ATOM     53  F   UNL     1       4.446   1.569  11.361  1.00  0.00    -0.206 F 
ATOM     54  C   UNL     1       6.704  -1.224  11.837  1.00  0.00     0.006 A 
ENDBRANCH  26  47
BRANCH  38  55
ATOM     55  C   UNL     1       7.044   7.760  10.992  1.00  0.00     0.057 A 
ATOM     56  C   UNL     1       6.075   8.552  11.620  1.00  0.00     0.134 A 
ATOM     57  C   UNL     1       8.331   7.749  11.546  1.00  0.00     0.134 A 
ATOM     58  F   UNL     1       4.826   8.614  11.134  1.00  0.00    -0.206 F 
ATOM     59  C   UNL     1       6.370   9.294  12.763  1.00  0.00     0.040 A 
ATOM     60  C   UNL     1       8.630   8.465  12.706  1.00  0.00     0.040 A 
ATOM     61  F   UNL     1       9.300   7.000  10.999  1.00  0.00    -0.206 F 
ATOM     62  C   UNL     1       7.648   9.243  13.316  1.00  0.00     0.006 A 
ENDBRANCH  38  55
ENDBRANCH  12  13
ENDBRANCH   5   7
ENDBRANCH   2   3
ENDBRANCH   1   2
BRANCH   1  63
ATOM     63  C   UNL     1       4.531  -3.029  -2.187  1.00  0.00     0.118 C 
BRANCH  63  64
ATOM     64  N   UNL     1       5.016  -2.568  -3.477  1.00  0.00    -0.352 N 
ATOM     65  C   UNL     1       5.766  -3.234  -4.412  1.00  0.00     0.255 C 
ATOM     66  H   UNL     1       4.771  -1.645  -3.714  1.00  0.00     0.163 HD
ATOM     67  O   UNL     1       6.175  -2.634  -5.406  1.00  0.00    -0.269 OA
BRANCH  65  68
ATOM     68  C   UNL     1       6.155  -4.644  -4.205  1.00  0.00     0.082 A 
ATOM     69  C   UNL     1       7.517  -4.956  -4.325  1.00  0.00     0.026 A 
ATOM     70  C   UNL     1       5.225  -5.658  -3.946  1.00  0.00     0.128 A 
ATOM     71  C   UNL     1       7.955  -6.269  -4.127  1.00  0.00    -0.017 A 
ATOM     72  C   UNL     1       5.658  -6.960  -3.713  1.00  0.00     0.047 A 
ATOM     73  C   UNL     1       7.019  -7.260  -3.796  1.00  0.00     0.012 A 
BRANCH  70  74
ATOM     74  O   UNL     1       3.885  -5.386  -3.923  1.00  0.00    -0.507 OA
ATOM     75  H   UNL     1       3.581  -4.513  -4.078  1.00  0.00     0.293 HD
ENDBRANCH  70  74
BRANCH  71  76
ATOM     76  C   UNL     1       9.369  -6.650  -4.300  1.00  0.00    -0.011 A 
ATOM     77  C   UNL     1       9.785  -7.595  -5.319  1.00  0.00     0.027 A 
ATOM     78  C   UNL     1      10.292  -6.144  -3.464  1.00  0.00     0.080 A 
ATOM     79  C   UNL     1      11.056  -8.001  -5.396  1.00  0.00     0.095 A 
ATOM     80  C   UNL     1      11.716  -6.577  -3.548  1.00  0.00     0.255 A 
ATOM     81  N   UNL     1      12.010  -7.517  -4.522  1.00  0.00    -0.258 N 
ATOM     82  O   UNL     1      12.521  -6.098  -2.751  1.00  0.00    -0.269 OA
BRANCH  81  83
ATOM     83  C   UNL     1      13.365  -8.001  -4.582  1.00  0.00     0.451 C 
ATOM     84  F   UNL     1      14.242  -6.991  -4.792  1.00  0.00    -0.185 F 
ATOM     85  F   UNL     1      13.706  -8.624  -3.427  1.00  0.00    -0.185 F 
ENDBRANCH  81  83
ENDBRANCH  71  76
ENDBRANCH  65  68
ENDBRANCH  63  64
ENDBRANCH   1  63
TORSDOF 13
