REMARK SMILES COc1ccc(C(=O)c2ccccc2)cc1[C@@H](C)C(=O)NCCCNC(=O)c1ccc(-c2c3nc(c(-c4c(F)cccc4F)c4ccc([nH]4)c(-c4c(F)cccc4F)c4nc(c(-c5c(F)cccc5F)c5ccc2[nH]5)C=C4)C=C3)cc1
REMARK SMILES IDX 22 1 21 2 19 3 20 4 17 6 18 7 16 8 3 9 4 10 5 11 15 12 6 13
REMARK SMILES IDX 2 14 1 15 7 16 8 17 9 18 10 19 14 20 11 21 13 22 12 23 23 24
REMARK SMILES IDX 24 25 25 26 26 27 27 29 28 30 29 31 81 32 30 33 80 34 31 35
REMARK SMILES IDX 32 36 33 37 74 38 34 39 79 40 73 41 75 42 35 43 78 44 72 45
REMARK SMILES IDX 71 46 36 48 62 49 45 50 61 51 46 52 49 53 60 54 76 55 47 56
REMARK SMILES IDX 48 57 59 59 77 60 50 61 37 62 38 63 43 64 39 65 40 66 42 67
REMARK SMILES IDX 44 68 41 69 63 70 64 71 69 72 65 73 66 74 68 75 70 76 67 77
REMARK SMILES IDX 51 78 52 79 57 80 53 81 54 82 56 83 58 84 55 85
REMARK H PARENT 21 5 25 28 75 47 49 58
REMARK Flexibility Score: inf
ROOT
ATOM      1  C   UNL     1       5.288  -0.223   3.764  1.00  0.00     0.117 C 
ENDROOT
BRANCH   1   2
ATOM      2  N   UNL     1       4.537  -0.954   2.760  1.00  0.00    -0.356 N 
ATOM      3  C   UNL     1       3.664  -0.570   1.791  1.00  0.00     0.227 C 
ATOM      4  O   UNL     1       3.128  -1.495   1.166  1.00  0.00    -0.274 OA
ATOM      5  H   UNL     1       4.692  -1.926   2.786  1.00  0.00     0.163 HD
BRANCH   3   6
ATOM      6  C   UNL     1       3.297   0.888   1.460  1.00  0.00     0.109 C 
ATOM      7  C   UNL     1       4.461   1.864   1.298  1.00  0.00     0.023 C 
BRANCH   6   8
ATOM      8  C   UNL     1       2.142   1.419   2.300  1.00  0.00     0.007 A 
ATOM      9  C   UNL     1       0.829   1.472   1.806  1.00  0.00     0.122 A 
ATOM     10  C   UNL     1      -0.223   1.940   2.599  1.00  0.00     0.047 A 
ATOM     11  C   UNL     1       0.017   2.356   3.909  1.00  0.00     0.016 A 
ATOM     12  C   UNL     1       2.359   1.872   3.615  1.00  0.00     0.020 A 
ATOM     13  C   UNL     1       1.315   2.342   4.427  1.00  0.00     0.023 A 
BRANCH   9  14
ATOM     14  O   UNL     1       0.543   1.210   0.493  1.00  0.00    -0.496 OA
ATOM     15  C   UNL     1       0.329  -0.180   0.250  1.00  0.00     0.278 C 
ENDBRANCH   9  14
BRANCH  13  16
ATOM     16  C   UNL     1       1.514   2.788   5.842  1.00  0.00     0.193 C 
ATOM     17  O   UNL     1       0.541   3.078   6.535  1.00  0.00    -0.289 OA
BRANCH  16  18
ATOM     18  C   UNL     1       2.846   2.824   6.486  1.00  0.00     0.022 A 
ATOM     19  C   UNL     1       2.998   2.160   7.707  1.00  0.00     0.012 A 
ATOM     20  C   UNL     1       3.929   3.511   5.924  1.00  0.00     0.012 A 
ATOM     21  C   UNL     1       4.243   2.138   8.333  1.00  0.00     0.001 A 
ATOM     22  C   UNL     1       5.179   3.467   6.548  1.00  0.00     0.001 A 
ATOM     23  C   UNL     1       5.337   2.772   7.747  1.00  0.00     0.000 A 
ENDBRANCH  16  18
ENDBRANCH  13  16
ENDBRANCH   6   8
ENDBRANCH   3   6
ENDBRANCH   1   2
BRANCH   1  24
ATOM     24  C   UNL     1       4.597  -0.249   5.124  1.00  0.00     0.042 C 
BRANCH  24  25
ATOM     25  C   UNL     1       4.957  -1.432   6.012  1.00  0.00     0.118 C 
BRANCH  25  26
ATOM     26  N   UNL     1       6.297  -1.321   6.573  1.00  0.00    -0.352 N 
ATOM     27  C   UNL     1       6.749  -1.108   7.854  1.00  0.00     0.251 C 
ATOM     28  H   UNL     1       7.016  -1.417   5.908  1.00  0.00     0.163 HD
ATOM     29  O   UNL     1       7.943  -0.863   8.012  1.00  0.00    -0.269 OA
BRANCH  27  30
ATOM     30  C   UNL     1       5.858  -1.143   9.045  1.00  0.00     0.039 A 
ATOM     31  C   UNL     1       6.198  -0.348  10.152  1.00  0.00     0.014 A 
ATOM     32  C   UNL     1       4.745  -1.979   9.135  1.00  0.00     0.014 A 
ATOM     33  C   UNL     1       5.394  -0.337  11.299  1.00  0.00     0.010 A 
ATOM     34  C   UNL     1       3.901  -1.915  10.246  1.00  0.00     0.010 A 
ATOM     35  C   UNL     1       4.223  -1.104  11.344  1.00  0.00    -0.014 A 
BRANCH  35  36
ATOM     36  C   UNL     1       3.365  -1.149  12.555  1.00  0.00     0.031 A 
ATOM     37  C   UNL     1       3.296  -2.415  13.365  1.00  0.00     0.074 A 
ATOM     38  C   UNL     1       2.599  -0.094  12.894  1.00  0.00     0.049 A 
ATOM     39  N   UNL     1       2.545  -2.701  14.398  1.00  0.00    -0.248 NA
ATOM     40  C   UNL     1       4.175  -3.515  12.937  1.00  0.00     0.031 C 
ATOM     41  C   UNL     1       2.549   1.181  12.181  1.00  0.00     0.029 A 
ATOM     42  N   UNL     1       1.698   0.061  13.918  1.00  0.00    -0.354 N 
ATOM     43  C   UNL     1       2.851  -4.013  14.734  1.00  0.00     0.074 A 
ATOM     44  C   UNL     1       3.816  -4.485  13.764  1.00  0.00     0.031 C 
ATOM     45  C   UNL     1       1.662   1.989  12.787  1.00  0.00     0.029 A 
ATOM     46  C   UNL     1       1.065   1.281  13.916  1.00  0.00     0.049 A 
ATOM     47  H   UNL     1       1.521  -0.636  14.591  1.00  0.00     0.167 HD
ATOM     48  C   UNL     1       2.390  -4.753  15.770  1.00  0.00     0.037 A 
ATOM     49  C   UNL     1       0.107   1.768  14.728  1.00  0.00     0.037 A 
ATOM     50  C   UNL     1       1.446  -4.282  16.746  1.00  0.00     0.049 A 
ATOM     51  C   UNL     1      -0.406   0.919  15.859  1.00  0.00     0.074 A 
ATOM     52  C   UNL     1       0.955  -4.940  17.860  1.00  0.00     0.029 A 
ATOM     53  N   UNL     1       0.846  -3.032  16.722  1.00  0.00    -0.354 N 
ATOM     54  N   UNL     1      -0.059  -0.297  16.205  1.00  0.00    -0.248 NA
ATOM     55  C   UNL     1      -1.440   1.515  16.718  1.00  0.00     0.031 C 
ATOM     56  C   UNL     1       0.030  -4.101  18.491  1.00  0.00     0.029 A 
ATOM     57  C   UNL     1      -0.023  -2.905  17.792  1.00  0.00     0.049 A 
ATOM     58  H   UNL     1       1.014  -2.338  16.044  1.00  0.00     0.167 HD
ATOM     59  C   UNL     1      -0.805  -0.598  17.338  1.00  0.00     0.074 A 
ATOM     60  C   UNL     1      -1.617   0.566  17.626  1.00  0.00     0.031 C 
ATOM     61  C   UNL     1      -0.813  -1.735  18.075  1.00  0.00     0.037 A 
BRANCH  48  62
ATOM     62  C   UNL     1       2.913  -6.154  15.894  1.00  0.00     0.057 A 
ATOM     63  C   UNL     1       4.234  -6.415  16.283  1.00  0.00     0.134 A 
ATOM     64  C   UNL     1       2.087  -7.254  15.633  1.00  0.00     0.134 A 
ATOM     65  F   UNL     1       5.080  -5.404  16.533  1.00  0.00    -0.206 F 
ATOM     66  C   UNL     1       4.723  -7.718  16.377  1.00  0.00     0.040 A 
ATOM     67  C   UNL     1       2.558  -8.562  15.748  1.00  0.00     0.040 A 
ATOM     68  F   UNL     1       0.810  -7.074  15.260  1.00  0.00    -0.206 F 
ATOM     69  C   UNL     1       3.882  -8.797  16.113  1.00  0.00     0.006 A 
ENDBRANCH  48  62
BRANCH  49  70
ATOM     70  C   UNL     1      -0.419   3.141  14.522  1.00  0.00     0.057 A 
ATOM     71  C   UNL     1      -0.113   4.171  15.420  1.00  0.00     0.134 A 
ATOM     72  C   UNL     1      -1.258   3.450  13.445  1.00  0.00     0.134 A 
ATOM     73  F   UNL     1       0.667   3.928  16.483  1.00  0.00    -0.206 F 
ATOM     74  C   UNL     1      -0.638   5.455  15.266  1.00  0.00     0.040 A 
ATOM     75  C   UNL     1      -1.772   4.736  13.266  1.00  0.00     0.040 A 
ATOM     76  F   UNL     1      -1.587   2.506  12.552  1.00  0.00    -0.206 F 
ATOM     77  C   UNL     1      -1.468   5.740  14.184  1.00  0.00     0.006 A 
ENDBRANCH  49  70
BRANCH  61  78
ATOM     78  C   UNL     1      -1.693  -1.762  19.289  1.00  0.00     0.057 A 
ATOM     79  C   UNL     1      -3.085  -1.874  19.192  1.00  0.00     0.134 A 
ATOM     80  C   UNL     1      -1.134  -1.722  20.573  1.00  0.00     0.134 A 
ATOM     81  F   UNL     1      -3.682  -1.904  17.991  1.00  0.00    -0.206 F 
ATOM     82  C   UNL     1      -3.893  -1.927  20.329  1.00  0.00     0.040 A 
ATOM     83  C   UNL     1      -1.929  -1.799  21.718  1.00  0.00     0.040 A 
ATOM     84  F   UNL     1       0.194  -1.624  20.735  1.00  0.00    -0.206 F 
ATOM     85  C   UNL     1      -3.313  -1.898  21.597  1.00  0.00     0.006 A 
ENDBRANCH  61  78
ENDBRANCH  35  36
ENDBRANCH  27  30
ENDBRANCH  25  26
ENDBRANCH  24  25
ENDBRANCH   1  24
TORSDOF 14
