REMARK SMILES O=C(NCCCNC(=O)[C@@H]1CC2(CCN(C(=O)C3(c4ccccc4F)CC3)CC2)C[NH2+]1)c1ccc(-c2c3nc(c(-c4c(F)cccc4F)c4ccc([nH]4)c(-c4c(F)cccc4F)c4nc(c(-c5c(F)cccc5F)c5ccc2[nH]5)C=C4)C=C3)cc1
REMARK SMILES IDX 5 1 4 2 3 3 1 4 2 5 32 7 33 8 85 9 34 10 84 11 35 12 36 13
REMARK SMILES IDX 37 14 78 15 38 16 83 17 77 18 79 19 39 20 82 21 76 22 75 23
REMARK SMILES IDX 40 25 66 26 49 27 65 28 50 29 53 30 64 31 80 32 51 33 52 34
REMARK SMILES IDX 63 36 81 37 54 38 41 39 42 40 47 41 43 42 44 43 46 44 48 45
REMARK SMILES IDX 45 46 67 47 68 48 73 49 69 50 70 51 72 52 74 53 71 54 55 55
REMARK SMILES IDX 56 56 61 57 57 58 58 59 60 60 62 61 59 62 6 63 7 64 8 65
REMARK SMILES IDX 9 67 10 68 11 69 31 70 12 71 30 72 13 75 29 76 14 77 28 78
REMARK SMILES IDX 15 79 16 80 17 81 18 82 26 83 27 84 19 85 20 86 24 87 21 88
REMARK SMILES IDX 23 89 25 90 22 91
REMARK H PARENT 3 6 79 24 53 35 7 66 31 73 31 74
REMARK Flexibility Score: inf
ROOT
ATOM      1  C   UNL     1       4.979  -1.677   1.499  1.00  0.00     0.042 C 
ENDROOT
BRANCH   1   2
ATOM      2  C   UNL     1       4.596  -1.166   0.119  1.00  0.00     0.118 C 
BRANCH   2   3
ATOM      3  N   UNL     1       3.156  -1.008  -0.042  1.00  0.00    -0.352 N 
ATOM      4  O   UNL     1       1.173   0.066  -0.001  1.00  0.00    -0.269 OA
ATOM      5  C   UNL     1       2.393   0.136  -0.061  1.00  0.00     0.251 C 
ATOM      6  H   UNL     1       2.654  -1.848  -0.155  1.00  0.00     0.163 HD
BRANCH   5   7
ATOM      7  C   UNL     1       3.062   1.450  -0.128  1.00  0.00     0.039 A 
ATOM      8  C   UNL     1       4.143   1.643  -0.987  1.00  0.00     0.014 A 
ATOM      9  C   UNL     1       2.610   2.497   0.680  1.00  0.00     0.014 A 
ATOM     10  C   UNL     1       4.893   2.804  -0.897  1.00  0.00     0.010 A 
ATOM     11  C   UNL     1       3.291   3.717   0.672  1.00  0.00     0.010 A 
ATOM     12  C   UNL     1       4.458   3.868  -0.092  1.00  0.00    -0.014 A 
BRANCH  12  13
ATOM     13  C   UNL     1       5.202   5.149  -0.145  1.00  0.00     0.031 A 
ATOM     14  C   UNL     1       5.885   5.710   1.069  1.00  0.00     0.074 A 
ATOM     15  C   UNL     1       5.293   5.780  -1.332  1.00  0.00     0.049 A 
ATOM     16  N   UNL     1       6.585   6.811   1.178  1.00  0.00    -0.248 NA
ATOM     17  C   UNL     1       5.768   4.948   2.321  1.00  0.00     0.031 C 
ATOM     18  C   UNL     1       4.668   5.322  -2.577  1.00  0.00     0.029 A 
ATOM     19  N   UNL     1       5.967   6.914  -1.700  1.00  0.00    -0.354 N 
ATOM     20  C   UNL     1       6.972   6.886   2.509  1.00  0.00     0.074 A 
ATOM     21  C   UNL     1       6.414   5.730   3.177  1.00  0.00     0.031 C 
ATOM     22  C   UNL     1       5.045   6.123  -3.581  1.00  0.00     0.029 A 
ATOM     23  C   UNL     1       5.867   7.198  -3.041  1.00  0.00     0.049 A 
ATOM     24  H   UNL     1       6.474   7.471  -1.067  1.00  0.00     0.167 HD
ATOM     25  C   UNL     1       7.729   7.834   3.111  1.00  0.00     0.037 A 
ATOM     26  C   UNL     1       6.363   8.221  -3.758  1.00  0.00     0.037 A 
ATOM     27  C   UNL     1       8.297   8.969   2.430  1.00  0.00     0.049 A 
ATOM     28  C   UNL     1       7.171   9.270  -3.059  1.00  0.00     0.074 A 
ATOM     29  C   UNL     1       9.098   9.972   2.949  1.00  0.00     0.029 A 
ATOM     30  N   UNL     1       8.126   9.252   1.082  1.00  0.00    -0.354 N 
ATOM     31  N   UNL     1       7.527   9.327  -1.799  1.00  0.00    -0.248 NA
ATOM     32  C   UNL     1       7.632  10.402  -3.871  1.00  0.00     0.031 C 
ATOM     33  C   UNL     1       9.376  10.883   1.927  1.00  0.00     0.029 A 
ATOM     34  C   UNL     1       8.789  10.425   0.758  1.00  0.00     0.049 A 
ATOM     35  H   UNL     1       7.610   8.701   0.450  1.00  0.00     0.167 HD
ATOM     36  C   UNL     1       8.259  10.497  -1.666  1.00  0.00     0.074 A 
ATOM     37  C   UNL     1       8.314  11.108  -2.979  1.00  0.00     0.031 C 
ATOM     38  C   UNL     1       8.829  11.019  -0.553  1.00  0.00     0.037 A 
BRANCH  25  39
ATOM     39  C   UNL     1       7.984   7.701   4.584  1.00  0.00     0.057 A 
ATOM     40  C   UNL     1       7.395   8.590   5.493  1.00  0.00     0.134 A 
ATOM     41  C   UNL     1       8.874   6.749   5.097  1.00  0.00     0.134 A 
ATOM     42  F   UNL     1       6.538   9.530   5.067  1.00  0.00    -0.206 F 
ATOM     43  C   UNL     1       7.693   8.546   6.856  1.00  0.00     0.040 A 
ATOM     44  C   UNL     1       9.163   6.681   6.462  1.00  0.00     0.040 A 
ATOM     45  F   UNL     1       9.464   5.861   4.282  1.00  0.00    -0.206 F 
ATOM     46  C   UNL     1       8.579   7.589   7.344  1.00  0.00     0.006 A 
ENDBRANCH  25  39
BRANCH  26  47
ATOM     47  C   UNL     1       6.092   8.288  -5.215  1.00  0.00     0.057 A 
ATOM     48  C   UNL     1       4.801   8.521  -5.706  1.00  0.00     0.134 A 
ATOM     49  C   UNL     1       7.107   8.059  -6.148  1.00  0.00     0.134 A 
ATOM     50  F   UNL     1       3.783   8.735  -4.860  1.00  0.00    -0.206 F 
ATOM     51  C   UNL     1       4.524   8.497  -7.073  1.00  0.00     0.040 A 
ATOM     52  C   UNL     1       6.849   8.058  -7.520  1.00  0.00     0.040 A 
ATOM     53  F   UNL     1       8.366   7.841  -5.738  1.00  0.00    -0.206 F 
ATOM     54  C   UNL     1       5.552   8.267  -7.985  1.00  0.00     0.006 A 
ENDBRANCH  26  47
BRANCH  38  55
ATOM     55  C   UNL     1       9.572  12.312  -0.708  1.00  0.00     0.057 A 
ATOM     56  C   UNL     1      10.970  12.344  -0.635  1.00  0.00     0.134 A 
ATOM     57  C   UNL     1       8.899  13.529  -0.866  1.00  0.00     0.134 A 
ATOM     58  F   UNL     1      11.671  11.211  -0.477  1.00  0.00    -0.206 F 
ATOM     59  C   UNL     1      11.673  13.547  -0.702  1.00  0.00     0.040 A 
ATOM     60  C   UNL     1       9.593  14.736  -0.956  1.00  0.00     0.040 A 
ATOM     61  F   UNL     1       7.561  13.560  -0.955  1.00  0.00    -0.206 F 
ATOM     62  C   UNL     1      10.984  14.747  -0.865  1.00  0.00     0.006 A 
ENDBRANCH  38  55
ENDBRANCH  12  13
ENDBRANCH   5   7
ENDBRANCH   2   3
ENDBRANCH   1   2
BRANCH   1  63
ATOM     63  C   UNL     1       4.441  -3.065   1.798  1.00  0.00     0.118 C 
BRANCH  63  64
ATOM     64  N   UNL     1       4.849  -4.011   0.781  1.00  0.00    -0.351 N 
ATOM     65  C   UNL     1       5.669  -5.091   0.887  1.00  0.00     0.278 C 
ATOM     66  H   UNL     1       4.480  -3.850  -0.117  1.00  0.00     0.163 HD
ATOM     67  O   UNL     1       6.128  -5.554  -0.158  1.00  0.00    -0.268 OA
BRANCH  65  68
ATOM     68  C   UNL     1       5.988  -5.662   2.281  1.00  0.00     0.273 C 
ATOM     69  C   UNL     1       6.636  -7.036   2.182  1.00  0.00     0.088 C 
ATOM     70  N   UNL     1       4.769  -5.979   3.057  1.00  0.00    -0.336 N 
ATOM     71  C   UNL     1       5.446  -8.026   2.068  1.00  0.00     0.029 C 
ATOM     72  C   UNL     1       4.218  -7.186   2.445  1.00  0.00     0.268 C 
ATOM     73  H   UNL     1       4.099  -5.211   2.997  1.00  0.00     0.346 HD
ATOM     74  H   UNL     1       4.975  -6.117   4.046  1.00  0.00     0.346 HD
ATOM     75  C   UNL     1       5.625  -9.195   3.056  1.00  0.00     0.034 C 
ATOM     76  C   UNL     1       5.274  -8.600   0.644  1.00  0.00     0.034 C 
ATOM     77  C   UNL     1       6.740 -10.152   2.625  1.00  0.00     0.120 C 
ATOM     78  C   UNL     1       6.418  -9.538   0.278  1.00  0.00     0.120 C 
ATOM     79  N   UNL     1       6.514 -10.614   1.262  1.00  0.00    -0.342 N 
ATOM     80  C   UNL     1       5.982 -11.846   0.887  1.00  0.00     0.233 C 
ATOM     81  O   UNL     1       5.226 -11.912  -0.085  1.00  0.00    -0.274 OA
BRANCH  80  82
ATOM     82  C   UNL     1       6.365 -13.161   1.554  1.00  0.00     0.077 C 
ATOM     83  C   UNL     1       7.016 -13.412   2.911  1.00  0.00     0.023 C 
ATOM     84  C   UNL     1       5.531 -13.498   2.792  1.00  0.00     0.023 C 
BRANCH  82  85
ATOM     85  C   UNL     1       6.695 -14.258   0.525  1.00  0.00     0.003 A 
ATOM     86  C   UNL     1       8.029 -14.526   0.161  1.00  0.00     0.008 A 
ATOM     87  C   UNL     1       5.693 -14.969  -0.153  1.00  0.00     0.127 A 
ATOM     88  C   UNL     1       8.338 -15.449  -0.843  1.00  0.00     0.001 A 
ATOM     89  C   UNL     1       5.990 -15.877  -1.166  1.00  0.00     0.039 A 
ATOM     90  F   UNL     1       4.405 -14.768   0.164  1.00  0.00    -0.207 F 
ATOM     91  C   UNL     1       7.317 -16.116  -1.515  1.00  0.00     0.003 A 
ENDBRANCH  82  85
ENDBRANCH  80  82
ENDBRANCH  65  68
ENDBRANCH  63  64
ENDBRANCH   1  63
TORSDOF 12
