REMARK SMILES O=C(C[NH2+]C1CCCC1)N[C@@H]1CCCCC[C@H]1C(=O)NCCCNC(=O)c1ccc(-c2c3nc(c(-c4c(F)cccc4F)c4ccc([nH]4)c(-c4c(F)cccc4F)c4nc(c(-c5c(F)cccc5F)c5ccc2[nH]5)C=C4)C=C3)cc1
REMARK SMILES IDX 18 1 19 2 20 3 17 5 11 6 10 8 1 9 2 10 3 12 4 13 5 16 6 17
REMARK SMILES IDX 9 18 7 19 8 20 16 21 15 22 14 23 13 24 12 25 21 27 22 28
REMARK SMILES IDX 23 29 24 30 25 31 26 33 27 34 28 35 80 36 29 37 79 38 30 39
REMARK SMILES IDX 31 40 32 41 73 42 33 43 78 44 72 45 74 46 34 47 77 48 71 49
REMARK SMILES IDX 70 50 35 52 61 53 44 54 60 55 45 56 48 57 59 58 75 59 46 60
REMARK SMILES IDX 47 61 58 63 76 64 49 65 36 66 37 67 42 68 38 69 39 70 41 71
REMARK SMILES IDX 43 72 40 73 62 74 63 75 68 76 64 77 65 78 67 79 69 80 66 81
REMARK SMILES IDX 50 82 51 83 56 84 52 85 53 86 55 87 57 88 54 89
REMARK H PARENT 20 4 10 11 4 14 4 15 24 32 74 51 48 62
REMARK Flexibility Score: 90.00
ROOT
ATOM      1  C   UNL     1       0.436  -3.305   1.442  1.00  0.00     0.225 C 
ATOM      2  O   UNL     1      -0.490  -3.141   0.637  1.00  0.00    -0.275 OA
ATOM      3  N   UNL     1       0.048  -3.680   2.688  1.00  0.00    -0.356 N 
ATOM      4  H   UNL     1      -0.885  -3.456   2.910  1.00  0.00     0.163 HD
ENDROOT
BRANCH   1   5
ATOM      5  C   UNL     1       1.896  -3.104   0.980  1.00  0.00     0.101 C 
BRANCH   5   6
ATOM      6  C   UNL     1       2.695  -2.002   1.721  1.00  0.00     0.094 CG0
ATOM      7  G   UNL     1       4.075  -2.404   2.273  1.00  0.00     0.000 G0
BRANCH   6   8
ATOM      8  N   UNL     1       2.983  -0.876   0.803  1.00  0.00    -0.348 N 
ATOM      9  O   UNL     1       0.874   0.017   0.622  1.00  0.00    -0.268 OA
ATOM     10  C   UNL     1       2.055   0.009   0.301  1.00  0.00     0.275 C 
ATOM     11  H   UNL     1       3.920  -0.750   0.527  1.00  0.00     0.163 HD
BRANCH  10  12
ATOM     12  C   UNL     1       2.652   0.961  -0.752  1.00  0.00     0.362 C 
BRANCH  12  13
ATOM     13  N   UNL     1       3.825   1.647  -0.182  1.00  0.00    -0.336 N 
ATOM     14  H   UNL     1       4.526   0.940   0.042  1.00  0.00     0.346 HD
ATOM     15  H   UNL     1       3.483   2.159   0.631  1.00  0.00     0.346 HD
BRANCH  13  16
ATOM     16  C   UNL     1       4.453   2.646  -1.049  1.00  0.00     0.182 C 
ATOM     17  C   UNL     1       4.223   2.588  -2.561  1.00  0.00     0.065 C 
ATOM     18  C   UNL     1       4.051   4.084  -0.710  1.00  0.00     0.065 C 
ATOM     19  C   UNL     1       4.769   3.926  -3.047  1.00  0.00     0.006 C 
ATOM     20  C   UNL     1       4.497   4.916  -1.914  1.00  0.00     0.006 C 
ENDBRANCH  13  16
ENDBRANCH  12  13
ENDBRANCH  10  12
ENDBRANCH   6   8
ENDBRANCH   5   6
BRANCH   5  21
ATOM     21  C   UNL     1       2.663  -4.362   0.553  1.00  0.00     0.015 C 
BRANCH  21  22
ATOM     22  C   UNL     1       3.126  -5.377   1.585  1.00  0.00     0.001 C 
BRANCH  22  23
ATOM     23  C   UNL     1       4.177  -4.950   2.612  1.00  0.00     0.000 C 
BRANCH  23  24
ATOM     24  C   UNL     1       4.131  -3.561   3.244  1.00  0.00     0.002 C 
BRANCH  24  25
ATOM     25  C   UNL     1       4.075  -2.404   2.273  1.00  0.00     0.026 CG0
ATOM     26  G   UNL     1       2.695  -2.002   1.721  1.00  0.00     0.000 G0
ENDBRANCH  24  25
ENDBRANCH  23  24
ENDBRANCH  22  23
ENDBRANCH  21  22
ENDBRANCH   5  21
ENDBRANCH   1   5
BRANCH   3  27
ATOM     27  C   UNL     1       0.768  -4.349   3.738  1.00  0.00     0.117 C 
BRANCH  27  28
ATOM     28  C   UNL     1       0.845  -3.571   5.037  1.00  0.00     0.042 C 
BRANCH  28  29
ATOM     29  C   UNL     1      -0.078  -4.132   6.100  1.00  0.00     0.118 C 
BRANCH  29  30
ATOM     30  N   UNL     1       0.344  -5.457   6.563  1.00  0.00    -0.352 N 
ATOM     31  C   UNL     1       0.870  -5.879   7.760  1.00  0.00     0.251 C 
ATOM     32  H   UNL     1       0.231  -6.173   5.897  1.00  0.00     0.163 HD
ATOM     33  O   UNL     1       1.342  -7.014   7.844  1.00  0.00    -0.269 OA
BRANCH  31  34
ATOM     34  C   UNL     1       0.897  -4.987   8.939  1.00  0.00     0.039 A 
ATOM     35  C   UNL     1       1.946  -5.085   9.860  1.00  0.00     0.014 A 
ATOM     36  C   UNL     1      -0.118  -4.058   9.154  1.00  0.00     0.014 A 
ATOM     37  C   UNL     1       2.006  -4.201  10.940  1.00  0.00     0.010 A 
ATOM     38  C   UNL     1       0.026  -3.083  10.127  1.00  0.00     0.010 A 
ATOM     39  C   UNL     1       1.071  -3.160  11.056  1.00  0.00    -0.014 A 
BRANCH  39  40
ATOM     40  C   UNL     1       1.118  -2.168  12.160  1.00  0.00     0.031 A 
ATOM     41  C   UNL     1      -0.077  -2.004  13.066  1.00  0.00     0.074 A 
ATOM     42  C   UNL     1       2.187  -1.360  12.293  1.00  0.00     0.049 A 
ATOM     43  N   UNL     1      -0.286  -1.121  14.009  1.00  0.00    -0.248 NA
ATOM     44  C   UNL     1      -1.208  -2.924  12.852  1.00  0.00     0.031 C 
ATOM     45  C   UNL     1       3.377  -1.376  11.438  1.00  0.00     0.029 A 
ATOM     46  N   UNL     1       2.442  -0.358  13.194  1.00  0.00    -0.354 N 
ATOM     47  C   UNL     1      -1.575  -1.362  14.470  1.00  0.00     0.074 A 
ATOM     48  C   UNL     1      -2.129  -2.418  13.655  1.00  0.00     0.031 C 
ATOM     49  C   UNL     1       4.248  -0.456  11.879  1.00  0.00     0.029 A 
ATOM     50  C   UNL     1       3.663   0.247  13.015  1.00  0.00     0.049 A 
ATOM     51  H   UNL     1       1.810  -0.097  13.902  1.00  0.00     0.167 HD
ATOM     52  C   UNL     1      -2.229  -0.783  15.505  1.00  0.00     0.037 A 
ATOM     53  C   UNL     1       4.240   1.259  13.689  1.00  0.00     0.037 A 
ATOM     54  C   UNL     1      -1.654   0.234  16.342  1.00  0.00     0.049 A 
ATOM     55  C   UNL     1       3.502   1.878  14.844  1.00  0.00     0.074 A 
ATOM     56  C   UNL     1      -2.196   0.838  17.461  1.00  0.00     0.029 A 
ATOM     57  N   UNL     1      -0.400   0.795  16.150  1.00  0.00    -0.354 N 
ATOM     58  N   UNL     1       2.313   1.589  15.317  1.00  0.00    -0.248 NA
ATOM     59  C   UNL     1       4.189   2.958  15.566  1.00  0.00     0.031 C 
ATOM     60  C   UNL     1      -1.291   1.801  17.918  1.00  0.00     0.029 A 
ATOM     61  C   UNL     1      -0.159   1.755  17.118  1.00  0.00     0.049 A 
ATOM     62  H   UNL     1       0.227   0.547  15.431  1.00  0.00     0.167 HD
ATOM     63  C   UNL     1       2.123   2.427  16.408  1.00  0.00     0.074 A 
ATOM     64  C   UNL     1       3.325   3.225  16.535  1.00  0.00     0.031 C 
ATOM     65  C   UNL     1       1.050   2.529  17.231  1.00  0.00     0.037 A 
BRANCH  52  66
ATOM     66  C   UNL     1      -3.629  -1.247  15.791  1.00  0.00     0.057 A 
ATOM     67  C   UNL     1      -3.902  -2.537  16.266  1.00  0.00     0.134 A 
ATOM     68  C   UNL     1      -4.719  -0.386  15.607  1.00  0.00     0.134 A 
ATOM     69  F   UNL     1      -2.907  -3.419  16.451  1.00  0.00    -0.206 F 
ATOM     70  C   UNL     1      -5.207  -2.966  16.515  1.00  0.00     0.040 A 
ATOM     71  C   UNL     1      -6.026  -0.792  15.885  1.00  0.00     0.040 A 
ATOM     72  F   UNL     1      -4.533   0.865  15.160  1.00  0.00    -0.206 F 
ATOM     73  C   UNL     1      -6.274  -2.088  16.332  1.00  0.00     0.006 A 
ENDBRANCH  52  66
BRANCH  53  74
ATOM     74  C   UNL     1       5.598   1.728  13.311  1.00  0.00     0.057 A 
ATOM     75  C   UNL     1       6.696   1.510  14.152  1.00  0.00     0.134 A 
ATOM     76  C   UNL     1       5.834   2.404  12.108  1.00  0.00     0.134 A 
ATOM     77  F   UNL     1       6.533   0.881  15.325  1.00  0.00    -0.206 F 
ATOM     78  C   UNL     1       7.974   1.967  13.823  1.00  0.00     0.040 A 
ATOM     79  C   UNL     1       7.111   2.842  11.753  1.00  0.00     0.040 A 
ATOM     80  F   UNL     1       4.828   2.635  11.252  1.00  0.00    -0.206 F 
ATOM     81  C   UNL     1       8.184   2.631  12.617  1.00  0.00     0.006 A 
ENDBRANCH  53  74
BRANCH  65  82
ATOM     82  C   UNL     1       1.146   3.506  18.366  1.00  0.00     0.057 A 
ATOM     83  C   UNL     1       1.109   4.890  18.160  1.00  0.00     0.134 A 
ATOM     84  C   UNL     1       1.229   3.049  19.689  1.00  0.00     0.134 A 
ATOM     85  F   UNL     1       1.042   5.391  16.917  1.00  0.00    -0.206 F 
ATOM     86  C   UNL     1       1.177   5.787  19.227  1.00  0.00     0.040 A 
ATOM     87  C   UNL     1       1.266   3.936  20.765  1.00  0.00     0.040 A 
ATOM     88  F   UNL     1       1.257   1.735  19.956  1.00  0.00    -0.206 F 
ATOM     89  C   UNL     1       1.248   5.309  20.535  1.00  0.00     0.006 A 
ENDBRANCH  65  82
ENDBRANCH  39  40
ENDBRANCH  31  34
ENDBRANCH  29  30
ENDBRANCH  28  29
ENDBRANCH  27  28
ENDBRANCH   3  27
TORSDOF 14
