REMARK SMILES CC(=O)c1nnn(-c2ccc(C(=O)NCCCNC(=O)c3ccc(-c4c5nc(c(-c6c(F)cccc6F)c6ccc([nH]6)c(-c6c(F)cccc6F)c6nc(c(-c7c(F)cccc7F)c7ccc4[nH]7)C=C6)C=C5)cc3)cc2)c1C
REMARK SMILES IDX 16 1 15 2 14 3 12 4 13 5 11 7 8 8 9 9 76 10 10 11 75 12 7 13
REMARK SMILES IDX 4 14 5 15 77 16 6 17 78 18 2 19 1 20 3 21 17 22 18 23 19 24
REMARK SMILES IDX 20 26 21 27 22 28 74 29 23 30 73 31 24 32 25 33 26 34 67 35
REMARK SMILES IDX 27 36 72 37 66 38 68 39 28 40 71 41 65 42 64 43 29 45 55 46
REMARK SMILES IDX 38 47 54 48 39 49 42 50 53 51 69 52 40 53 41 54 52 56 70 57
REMARK SMILES IDX 43 58 30 59 31 60 36 61 32 62 33 63 35 64 37 65 34 66 56 67
REMARK SMILES IDX 57 68 62 69 58 70 59 71 61 72 63 73 60 74 44 75 45 76 50 77
REMARK SMILES IDX 46 78 47 79 49 80 51 81 48 82
REMARK H PARENT 14 6 18 25 68 44 42 55
REMARK Flexibility Score: inf
ROOT
ATOM      1  C   UNL     1       8.244   5.685  -3.358  1.00  0.00     0.042 C 
ENDROOT
BRANCH   1   2
ATOM      2  C   UNL     1       8.263   5.466  -1.838  1.00  0.00     0.118 C 
BRANCH   2   3
ATOM      3  N   UNL     1       7.944   6.684  -1.100  1.00  0.00    -0.352 N 
ATOM      4  C   UNL     1       6.767   7.163  -0.571  1.00  0.00     0.251 C 
ATOM      5  O   UNL     1       6.816   8.187   0.110  1.00  0.00    -0.269 OA
ATOM      6  H   UNL     1       8.718   7.275  -0.954  1.00  0.00     0.163 HD
BRANCH   4   7
ATOM      7  C   UNL     1       5.461   6.462  -0.733  1.00  0.00     0.039 A 
ATOM      8  C   UNL     1       3.106   4.964  -0.783  1.00  0.00     0.067 A 
ATOM      9  C   UNL     1       3.279   5.916   0.221  1.00  0.00     0.029 A 
ATOM     10  C   UNL     1       4.022   4.853  -1.827  1.00  0.00     0.029 A 
ATOM     11  C   UNL     1       4.476   6.643   0.256  1.00  0.00     0.016 A 
ATOM     12  C   UNL     1       5.170   5.634  -1.816  1.00  0.00     0.016 A 
BRANCH   8  13
ATOM     13  N   UNL     1       2.048   4.044  -0.723  1.00  0.00    -0.217 N 
ATOM     14  C   UNL     1       0.820   2.259  -0.902  1.00  0.00     0.151 A 
ATOM     15  N   UNL     1       0.007   3.365  -0.850  1.00  0.00    -0.126 NA
ATOM     16  C   UNL     1       2.138   2.662  -0.768  1.00  0.00     0.073 A 
ATOM     17  N   UNL     1       0.764   4.432  -0.631  1.00  0.00    -0.061 NA
ATOM     18  C   UNL     1       3.420   1.927  -0.626  1.00  0.00     0.069 C 
BRANCH  14  19
ATOM     19  C   UNL     1       0.279   0.915  -1.032  1.00  0.00     0.181 C 
ATOM     20  C   UNL     1       0.647  -0.098   0.024  1.00  0.00     0.095 C 
ATOM     21  O   UNL     1      -0.460   0.605  -1.965  1.00  0.00    -0.293 OA
ENDBRANCH  14  19
ENDBRANCH   8  13
ENDBRANCH   4   7
ENDBRANCH   2   3
ENDBRANCH   1   2
BRANCH   1  22
ATOM     22  C   UNL     1       9.544   6.258  -3.888  1.00  0.00     0.118 C 
BRANCH  22  23
ATOM     23  N   UNL     1      10.633   5.281  -3.874  1.00  0.00    -0.352 N 
ATOM     24  C   UNL     1      11.969   5.484  -4.176  1.00  0.00     0.251 C 
ATOM     25  H   UNL     1      10.384   4.364  -3.617  1.00  0.00     0.163 HD
ATOM     26  O   UNL     1      12.694   4.554  -4.476  1.00  0.00    -0.269 OA
BRANCH  24  27
ATOM     27  C   UNL     1      12.489   6.861  -4.132  1.00  0.00     0.039 A 
ATOM     28  C   UNL     1      13.350   7.346  -5.119  1.00  0.00     0.014 A 
ATOM     29  C   UNL     1      12.038   7.686  -3.108  1.00  0.00     0.014 A 
ATOM     30  C   UNL     1      13.677   8.700  -5.112  1.00  0.00     0.010 A 
ATOM     31  C   UNL     1      12.201   9.040  -3.216  1.00  0.00     0.010 A 
ATOM     32  C   UNL     1      13.073   9.548  -4.170  1.00  0.00    -0.014 A 
BRANCH  32  33
ATOM     33  C   UNL     1      13.257  10.994  -4.233  1.00  0.00     0.031 A 
ATOM     34  C   UNL     1      12.926  11.593  -5.553  1.00  0.00     0.074 A 
ATOM     35  C   UNL     1      13.479  11.753  -3.136  1.00  0.00     0.049 A 
ATOM     36  N   UNL     1      13.743  12.093  -6.419  1.00  0.00    -0.248 NA
ATOM     37  C   UNL     1      11.540  11.489  -6.040  1.00  0.00     0.031 C 
ATOM     38  C   UNL     1      13.478  11.326  -1.729  1.00  0.00     0.029 A 
ATOM     39  N   UNL     1      13.643  13.101  -3.035  1.00  0.00    -0.354 N 
ATOM     40  C   UNL     1      12.946  12.587  -7.450  1.00  0.00     0.074 A 
ATOM     41  C   UNL     1      11.645  12.004  -7.267  1.00  0.00     0.031 C 
ATOM     42  C   UNL     1      13.381  12.406  -0.924  1.00  0.00     0.029 A 
ATOM     43  C   UNL     1      13.521  13.595  -1.741  1.00  0.00     0.049 A 
ATOM     44  H   UNL     1      13.832  13.677  -3.812  1.00  0.00     0.167 HD
ATOM     45  C   UNL     1      13.348  13.668  -8.176  1.00  0.00     0.037 A 
ATOM     46  C   UNL     1      13.536  14.893  -1.361  1.00  0.00     0.037 A 
ATOM     47  C   UNL     1      14.736  13.960  -7.917  1.00  0.00     0.049 A 
ATOM     48  C   UNL     1      14.196  15.658  -2.441  1.00  0.00     0.074 A 
ATOM     49  C   UNL     1      15.955  13.391  -8.211  1.00  0.00     0.029 A 
ATOM     50  N   UNL     1      14.928  14.825  -6.873  1.00  0.00    -0.354 N 
ATOM     51  N   UNL     1      15.455  15.527  -2.753  1.00  0.00    -0.248 NA
ATOM     52  C   UNL     1      13.373  16.333  -3.435  1.00  0.00     0.031 C 
ATOM     53  C   UNL     1      16.827  13.770  -7.145  1.00  0.00     0.029 A 
ATOM     54  C   UNL     1      16.129  14.593  -6.262  1.00  0.00     0.049 A 
ATOM     55  H   UNL     1      14.287  15.520  -6.599  1.00  0.00     0.167 HD
ATOM     56  C   UNL     1      15.488  15.694  -4.124  1.00  0.00     0.074 A 
ATOM     57  C   UNL     1      14.236  16.366  -4.454  1.00  0.00     0.031 C 
ATOM     58  C   UNL     1      16.368  14.987  -4.890  1.00  0.00     0.037 A 
BRANCH  45  59
ATOM     59  C   UNL     1      12.430  14.761  -8.695  1.00  0.00     0.057 A 
ATOM     60  C   UNL     1      12.982  15.790  -9.485  1.00  0.00     0.134 A 
ATOM     61  C   UNL     1      11.139  15.028  -8.195  1.00  0.00     0.134 A 
ATOM     62  F   UNL     1      14.210  15.670 -10.011  1.00  0.00    -0.206 F 
ATOM     63  C   UNL     1      12.334  17.016  -9.689  1.00  0.00     0.040 A 
ATOM     64  C   UNL     1      10.463  16.229  -8.435  1.00  0.00     0.040 A 
ATOM     65  F   UNL     1      10.503  14.198  -7.362  1.00  0.00    -0.206 F 
ATOM     66  C   UNL     1      11.073  17.242  -9.156  1.00  0.00     0.006 A 
ENDBRANCH  45  59
BRANCH  46  67
ATOM     67  C   UNL     1      12.820  15.551  -0.249  1.00  0.00     0.057 A 
ATOM     68  C   UNL     1      13.213  16.811   0.221  1.00  0.00     0.134 A 
ATOM     69  C   UNL     1      11.560  15.095   0.175  1.00  0.00     0.134 A 
ATOM     70  F   UNL     1      14.388  17.339  -0.152  1.00  0.00    -0.206 F 
ATOM     71  C   UNL     1      12.381  17.596   1.029  1.00  0.00     0.040 A 
ATOM     72  C   UNL     1      10.721  15.867   0.985  1.00  0.00     0.040 A 
ATOM     73  F   UNL     1      11.065  13.927  -0.261  1.00  0.00    -0.206 F 
ATOM     74  C   UNL     1      11.123  17.132   1.398  1.00  0.00     0.006 A 
ENDBRANCH  46  67
BRANCH  58  75
ATOM     75  C   UNL     1      17.585  14.434  -4.209  1.00  0.00     0.057 A 
ATOM     76  C   UNL     1      17.571  13.423  -3.239  1.00  0.00     0.134 A 
ATOM     77  C   UNL     1      18.838  14.895  -4.627  1.00  0.00     0.134 A 
ATOM     78  F   UNL     1      16.425  12.863  -2.833  1.00  0.00    -0.206 F 
ATOM     79  C   UNL     1      18.753  12.923  -2.682  1.00  0.00     0.040 A 
ATOM     80  C   UNL     1      20.025  14.381  -4.106  1.00  0.00     0.040 A 
ATOM     81  F   UNL     1      18.927  15.832  -5.584  1.00  0.00    -0.206 F 
ATOM     82  C   UNL     1      19.986  13.399  -3.121  1.00  0.00     0.006 A 
ENDBRANCH  58  75
ENDBRANCH  32  33
ENDBRANCH  24  27
ENDBRANCH  22  23
ENDBRANCH   1  22
TORSDOF 12
