REMARK SMILES COc1ccc(C(=O)NCCCNC(=O)c2ccc(-c3c4nc(c(-c5c(F)cccc5F)c5ccc([nH]5)c(-c5c(F)cccc5F)c5nc(c(-c6c(F)cccc6F)c6ccc3[nH]6)C=C5)C=C4)cc2)cc1Oc1nc(C(C)(C)C)ns1
REMARK SMILES IDX 10 1 9 2 7 3 8 4 6 6 3 7 4 8 71 9 5 10 70 11 2 12 1 13 72 14
REMARK SMILES IDX 73 15 74 16 81 17 75 18 80 19 76 20 77 21 78 22 79 23 11 24
REMARK SMILES IDX 12 25 13 26 14 27 15 29 16 30 17 31 69 32 18 33 68 34 19 35
REMARK SMILES IDX 20 36 21 37 62 38 22 39 67 40 61 41 63 42 23 43 66 44 60 45
REMARK SMILES IDX 59 46 24 48 50 49 33 50 49 51 34 52 37 53 48 54 64 55 35 56
REMARK SMILES IDX 36 57 47 59 65 60 38 61 25 62 26 63 31 64 27 65 28 66 30 67
REMARK SMILES IDX 32 68 29 69 51 70 52 71 57 72 53 73 54 74 56 75 58 76 55 77
REMARK SMILES IDX 39 78 40 79 45 80 41 81 42 82 44 83 46 84 43 85
REMARK H PARENT 9 5 13 28 63 47 37 58
REMARK Flexibility Score: inf
ROOT
ATOM      1  C   UNL     1       4.215  -5.903   1.295  1.00  0.00     0.118 C 
ENDROOT
BRANCH   1   2
ATOM      2  N   UNL     1       3.136  -6.202   2.218  1.00  0.00    -0.352 N 
ATOM      3  C   UNL     1       2.036  -5.506   2.640  1.00  0.00     0.251 C 
ATOM      4  O   UNL     1       1.296  -6.076   3.444  1.00  0.00    -0.269 OA
ATOM      5  H   UNL     1       3.212  -7.093   2.628  1.00  0.00     0.163 HD
BRANCH   3   6
ATOM      6  C   UNL     1       1.657  -4.148   2.156  1.00  0.00     0.043 A 
ATOM      7  C   UNL     1       0.712  -1.657   1.253  1.00  0.00     0.161 A 
ATOM      8  C   UNL     1      -0.175  -2.582   1.800  1.00  0.00     0.051 A 
ATOM      9  C   UNL     1       2.083  -1.938   1.210  1.00  0.00     0.173 A 
ATOM     10  C   UNL     1       0.293  -3.822   2.234  1.00  0.00     0.018 A 
ATOM     11  C   UNL     1       2.547  -3.180   1.679  1.00  0.00     0.065 A 
BRANCH   7  12
ATOM     12  O   UNL     1       0.200  -0.459   0.836  1.00  0.00    -0.493 OA
ATOM     13  C   UNL     1      -0.300  -0.569  -0.498  1.00  0.00     0.278 C 
ENDBRANCH   7  12
BRANCH   9  14
ATOM     14  O   UNL     1       3.058  -1.124   0.675  1.00  0.00    -0.426 OA
BRANCH  14  15
ATOM     15  C   UNL     1       2.889   0.190   0.556  1.00  0.00     0.298 A 
ATOM     16  N   UNL     1       2.753   0.785  -0.609  1.00  0.00    -0.185 NA
ATOM     17  S   UNL     1       2.966   1.298   1.858  1.00  0.00     0.025 S 
ATOM     18  C   UNL     1       2.612   2.156  -0.382  1.00  0.00     0.151 A 
ATOM     19  N   UNL     1       2.741   2.624   0.866  1.00  0.00    -0.172 NA
BRANCH  18  20
ATOM     20  C   UNL     1       2.363   3.098  -1.550  1.00  0.00     0.023 C 
ATOM     21  C   UNL     1       3.699   3.431  -2.237  1.00  0.00     0.019 C 
ATOM     22  C   UNL     1       1.424   2.444  -2.585  1.00  0.00     0.019 C 
ATOM     23  C   UNL     1       1.701   4.414  -1.090  1.00  0.00     0.019 C 
ENDBRANCH  18  20
ENDBRANCH  14  15
ENDBRANCH   9  14
ENDBRANCH   3   6
ENDBRANCH   1   2
BRANCH   1  24
ATOM     24  C   UNL     1       5.484  -5.510   2.051  1.00  0.00     0.042 C 
BRANCH  24  25
ATOM     25  C   UNL     1       6.178  -6.696   2.727  1.00  0.00     0.118 C 
BRANCH  25  26
ATOM     26  N   UNL     1       6.801  -7.585   1.756  1.00  0.00    -0.352 N 
ATOM     27  C   UNL     1       8.105  -7.992   1.641  1.00  0.00     0.251 C 
ATOM     28  H   UNL     1       6.191  -7.950   1.076  1.00  0.00     0.163 HD
ATOM     29  O   UNL     1       8.469  -8.566   0.615  1.00  0.00    -0.269 OA
BRANCH  27  30
ATOM     30  C   UNL     1       9.081  -7.753   2.726  1.00  0.00     0.039 A 
ATOM     31  C   UNL     1      10.382  -7.371   2.385  1.00  0.00     0.014 A 
ATOM     32  C   UNL     1       8.748  -7.972   4.066  1.00  0.00     0.014 A 
ATOM     33  C   UNL     1      11.336  -7.167   3.385  1.00  0.00     0.010 A 
ATOM     34  C   UNL     1       9.684  -7.717   5.068  1.00  0.00     0.010 A 
ATOM     35  C   UNL     1      10.989  -7.318   4.737  1.00  0.00    -0.014 A 
BRANCH  35  36
ATOM     36  C   UNL     1      11.980  -7.070   5.814  1.00  0.00     0.031 A 
ATOM     37  C   UNL     1      12.464  -8.202   6.676  1.00  0.00     0.074 A 
ATOM     38  C   UNL     1      12.400  -5.814   6.053  1.00  0.00     0.049 A 
ATOM     39  N   UNL     1      13.268  -8.170   7.709  1.00  0.00    -0.248 NA
ATOM     40  C   UNL     1      11.960  -9.545   6.349  1.00  0.00     0.031 C 
ATOM     41  C   UNL     1      11.976  -4.624   5.313  1.00  0.00     0.029 A 
ATOM     42  N   UNL     1      13.269  -5.327   6.997  1.00  0.00    -0.354 N 
ATOM     43  C   UNL     1      13.352  -9.479   8.165  1.00  0.00     0.074 A 
ATOM     44  C   UNL     1      12.487 -10.276   7.321  1.00  0.00     0.031 C 
ATOM     45  C   UNL     1      12.595  -3.547   5.822  1.00  0.00     0.029 A 
ATOM     46  C   UNL     1      13.434  -3.964   6.941  1.00  0.00     0.049 A 
ATOM     47  H   UNL     1      13.731  -5.899   7.652  1.00  0.00     0.167 HD
ATOM     48  C   UNL     1      14.095  -9.976   9.184  1.00  0.00     0.037 A 
ATOM     49  C   UNL     1      14.173  -3.143   7.710  1.00  0.00     0.037 A 
ATOM     50  C   UNL     1      14.977  -9.188  10.005  1.00  0.00     0.049 A 
ATOM     51  C   UNL     1      14.997  -3.719   8.826  1.00  0.00     0.074 A 
ATOM     52  C   UNL     1      15.814  -9.610  11.024  1.00  0.00     0.029 A 
ATOM     53  N   UNL     1      15.137  -7.815   9.899  1.00  0.00    -0.354 N 
ATOM     54  N   UNL     1      15.108  -4.967   9.211  1.00  0.00    -0.248 NA
ATOM     55  C   UNL     1      15.803  -2.773   9.611  1.00  0.00     0.031 C 
ATOM     56  C   UNL     1      16.458  -8.487  11.555  1.00  0.00     0.029 A 
ATOM     57  C   UNL     1      16.049  -7.371  10.842  1.00  0.00     0.049 A 
ATOM     58  H   UNL     1      14.671  -7.240   9.249  1.00  0.00     0.167 HD
ATOM     59  C   UNL     1      16.012  -4.961  10.264  1.00  0.00     0.074 A 
ATOM     60  C   UNL     1      16.429  -3.586  10.451  1.00  0.00     0.031 C 
ATOM     61  C   UNL     1      16.457  -6.001  11.010  1.00  0.00     0.037 A 
BRANCH  48  62
ATOM     62  C   UNL     1      13.986 -11.445   9.465  1.00  0.00     0.057 A 
ATOM     63  C   UNL     1      14.548 -12.403   8.611  1.00  0.00     0.134 A 
ATOM     64  C   UNL     1      13.340 -11.908  10.619  1.00  0.00     0.134 A 
ATOM     65  F   UNL     1      15.169 -12.026   7.483  1.00  0.00    -0.206 F 
ATOM     66  C   UNL     1      14.450 -13.769   8.880  1.00  0.00     0.040 A 
ATOM     67  C   UNL     1      13.257 -13.270  10.912  1.00  0.00     0.040 A 
ATOM     68  F   UNL     1      12.787 -11.044  11.483  1.00  0.00    -0.206 F 
ATOM     69  C   UNL     1      13.808 -14.206  10.038  1.00  0.00     0.006 A 
ENDBRANCH  48  62
BRANCH  49  70
ATOM     70  C   UNL     1      14.186  -1.685   7.434  1.00  0.00     0.057 A 
ATOM     71  C   UNL     1      15.309  -1.070   6.871  1.00  0.00     0.134 A 
ATOM     72  C   UNL     1      13.080  -0.877   7.721  1.00  0.00     0.134 A 
ATOM     73  F   UNL     1      16.405  -1.791   6.591  1.00  0.00    -0.206 F 
ATOM     74  C   UNL     1      15.340   0.302   6.617  1.00  0.00     0.040 A 
ATOM     75  C   UNL     1      13.089   0.493   7.453  1.00  0.00     0.040 A 
ATOM     76  F   UNL     1      11.972  -1.410   8.254  1.00  0.00    -0.206 F 
ATOM     77  C   UNL     1      14.224   1.087   6.904  1.00  0.00     0.006 A 
ENDBRANCH  49  70
BRANCH  61  78
ATOM     78  C   UNL     1      17.468  -5.695  12.075  1.00  0.00     0.057 A 
ATOM     79  C   UNL     1      17.109  -5.063  13.272  1.00  0.00     0.134 A 
ATOM     80  C   UNL     1      18.808  -6.067  11.914  1.00  0.00     0.134 A 
ATOM     81  F   UNL     1      15.843  -4.669  13.479  1.00  0.00    -0.206 F 
ATOM     82  C   UNL     1      18.053  -4.794  14.264  1.00  0.00     0.040 A 
ATOM     83  C   UNL     1      19.756  -5.824  12.908  1.00  0.00     0.040 A 
ATOM     84  F   UNL     1      19.214  -6.682  10.792  1.00  0.00    -0.206 F 
ATOM     85  C   UNL     1      19.380  -5.181  14.085  1.00  0.00     0.006 A 
ENDBRANCH  61  78
ENDBRANCH  35  36
ENDBRANCH  27  30
ENDBRANCH  25  26
ENDBRANCH  24  25
ENDBRANCH   1  24
TORSDOF 14
