REMARK SMILES Nc1ccc(-c2cc(Cl)cc3c2O[C@H](C(F)(F)F)C(C(=O)NCCCNC(=O)c2ccc(-c4c5nc(c(-c6c(F)cccc6F)c6ccc([nH]6)c(-c6c(F)cccc6F)c6nc(c(-c7c(F)cccc7F)c7ccc4[nH]7)C=C6)C=C5)cc2)=C3)cc1
REMARK SMILES IDX 24 1 23 2 22 3 20 4 21 5 19 7 6 8 7 9 12 10 8 11 11 12 13 13
REMARK SMILES IDX 9 14 10 15 83 16 14 17 5 18 2 19 3 20 85 21 4 22 84 23 1 24
REMARK SMILES IDX 15 27 16 28 17 29 18 30 25 31 26 32 27 33 28 35 29 36 30 37
REMARK SMILES IDX 82 38 31 39 81 40 32 41 33 42 34 43 75 44 35 45 80 46 74 47
REMARK SMILES IDX 76 48 36 49 79 50 73 51 72 52 37 54 63 55 46 56 62 57 47 58
REMARK SMILES IDX 50 59 61 60 77 61 48 62 49 63 60 65 78 66 51 67 38 68 39 69
REMARK SMILES IDX 44 70 40 71 41 72 43 73 45 74 42 75 64 76 65 77 70 78 66 79
REMARK SMILES IDX 67 80 69 81 71 82 68 83 52 84 53 85 58 86 54 87 55 88 57 89
REMARK SMILES IDX 59 90 56 91
REMARK H PARENT 22 6 1 25 1 26 26 34 76 53 50 64
REMARK Flexibility Score: inf
ROOT
ATOM      1  C   UNL     1      -3.637  -2.843   6.516  1.00  0.00     0.042 C 
ENDROOT
BRANCH   1   2
ATOM      2  C   UNL     1      -4.288  -3.638   5.395  1.00  0.00     0.118 C 
BRANCH   2   3
ATOM      3  N   UNL     1      -5.610  -3.133   5.058  1.00  0.00    -0.352 N 
ATOM      4  C   UNL     1      -6.164  -2.384   4.075  1.00  0.00     0.251 C 
ATOM      5  O   UNL     1      -7.381  -2.203   4.175  1.00  0.00    -0.270 OA
ATOM      6  H   UNL     1      -6.282  -3.410   5.722  1.00  0.00     0.163 HD
BRANCH   4   7
ATOM      7  C   UNL     1      -5.420  -1.785   2.930  1.00  0.00     0.067 C 
ATOM      8  C   UNL     1      -3.361   0.146  -0.190  1.00  0.00     0.026 A 
ATOM      9  C   UNL     1      -4.102   0.699  -1.244  1.00  0.00     0.033 A 
ATOM     10  C   UNL     1      -4.070  -0.416   0.889  1.00  0.00     0.135 A 
ATOM     11  C   UNL     1      -5.499   0.682  -1.212  1.00  0.00     0.042 A 
ATOM     12  C   UNL     1      -5.470  -0.446   0.920  1.00  0.00     0.019 A 
ATOM     13  O   UNL     1      -3.339  -0.889   1.951  1.00  0.00    -0.475 OA
ATOM     14  Cl  UNL     1      -6.386   1.369  -2.518  1.00  0.00    -0.084 Cl
ATOM     15  C   UNL     1      -6.186   0.114  -0.138  1.00  0.00     0.032 A 
ATOM     16  C   UNL     1      -6.144  -1.042   2.070  1.00  0.00     0.025 C 
ATOM     17  C   UNL     1      -3.951  -1.972   2.693  1.00  0.00     0.314 C 
BRANCH   8  18
ATOM     18  C   UNL     1      -1.890   0.132  -0.221  1.00  0.00    -0.014 A 
ATOM     19  C   UNL     1       0.942   0.078  -0.122  1.00  0.00     0.031 A 
ATOM     20  C   UNL     1       0.211  -1.108  -0.170  1.00  0.00     0.026 A 
ATOM     21  C   UNL     1       0.248   1.289  -0.104  1.00  0.00     0.026 A 
ATOM     22  C   UNL     1      -1.186  -1.083  -0.238  1.00  0.00     0.011 A 
ATOM     23  C   UNL     1      -1.151   1.320  -0.166  1.00  0.00     0.011 A 
BRANCH  19  24
ATOM     24  N   UNL     1       2.317   0.049   0.040  1.00  0.00    -0.399 N 
ATOM     25  H   UNL     1       2.796  -0.811   0.026  1.00  0.00     0.156 HD
ATOM     26  H   UNL     1       2.815   0.888   0.168  1.00  0.00     0.156 HD
ENDBRANCH  19  24
ENDBRANCH   8  18
BRANCH  17  27
ATOM     27  C   UNL     1      -3.610  -3.320   2.026  1.00  0.00     0.429 C 
ATOM     28  F   UNL     1      -2.295  -3.609   2.187  1.00  0.00    -0.167 F 
ATOM     29  F   UNL     1      -4.300  -4.354   2.565  1.00  0.00    -0.167 F 
ATOM     30  F   UNL     1      -3.866  -3.333   0.699  1.00  0.00    -0.167 F 
ENDBRANCH  17  27
ENDBRANCH   4   7
ENDBRANCH   2   3
ENDBRANCH   1   2
BRANCH   1  31
ATOM     31  C   UNL     1      -4.102  -3.287   7.896  1.00  0.00     0.118 C 
BRANCH  31  32
ATOM     32  N   UNL     1      -3.666  -4.643   8.225  1.00  0.00    -0.352 N 
ATOM     33  C   UNL     1      -2.956  -5.114   9.304  1.00  0.00     0.251 C 
ATOM     34  H   UNL     1      -3.922  -5.330   7.567  1.00  0.00     0.163 HD
ATOM     35  O   UNL     1      -2.543  -6.269   9.306  1.00  0.00    -0.269 OA
BRANCH  33  36
ATOM     36  C   UNL     1      -2.665  -4.222  10.445  1.00  0.00     0.039 A 
ATOM     37  C   UNL     1      -3.628  -3.324  10.899  1.00  0.00     0.014 A 
ATOM     38  C   UNL     1      -1.408  -4.270  11.055  1.00  0.00     0.014 A 
ATOM     39  C   UNL     1      -3.268  -2.336  11.803  1.00  0.00     0.010 A 
ATOM     40  C   UNL     1      -1.087  -3.347  12.056  1.00  0.00     0.010 A 
ATOM     41  C   UNL     1      -1.993  -2.332  12.394  1.00  0.00    -0.014 A 
BRANCH  41  42
ATOM     42  C   UNL     1      -1.656  -1.237  13.341  1.00  0.00     0.031 A 
ATOM     43  C   UNL     1      -0.554  -0.257  13.035  1.00  0.00     0.074 A 
ATOM     44  C   UNL     1      -2.429  -1.065  14.432  1.00  0.00     0.049 A 
ATOM     45  N   UNL     1      -0.202   0.818  13.696  1.00  0.00    -0.248 NA
ATOM     46  C   UNL     1       0.265  -0.517  11.841  1.00  0.00     0.031 C 
ATOM     47  C   UNL     1      -3.522  -1.953  14.839  1.00  0.00     0.029 A 
ATOM     48  N   UNL     1      -2.453  -0.062  15.366  1.00  0.00    -0.354 N 
ATOM     49  C   UNL     1       0.888   1.346  13.015  1.00  0.00     0.074 A 
ATOM     50  C   UNL     1       1.161   0.458  11.906  1.00  0.00     0.031 C 
ATOM     51  C   UNL     1      -4.165  -1.410  15.882  1.00  0.00     0.029 A 
ATOM     52  C   UNL     1      -3.490  -0.174  16.260  1.00  0.00     0.049 A 
ATOM     53  H   UNL     1      -1.792   0.667  15.393  1.00  0.00     0.167 HD
ATOM     54  C   UNL     1       1.591   2.474  13.279  1.00  0.00     0.037 A 
ATOM     55  C   UNL     1      -3.858   0.630  17.273  1.00  0.00     0.037 A 
ATOM     56  C   UNL     1       1.303   3.373  14.368  1.00  0.00     0.049 A 
ATOM     57  C   UNL     1      -3.059   1.869  17.545  1.00  0.00     0.074 A 
ATOM     58  C   UNL     1       1.945   4.551  14.711  1.00  0.00     0.029 A 
ATOM     59  N   UNL     1       0.281   3.193  15.289  1.00  0.00    -0.354 N 
ATOM     60  N   UNL     1      -2.037   2.357  16.884  1.00  0.00    -0.248 NA
ATOM     61  C   UNL     1      -3.459   2.664  18.713  1.00  0.00     0.031 C 
ATOM     62  C   UNL     1       1.332   5.066  15.859  1.00  0.00     0.029 A 
ATOM     63  C   UNL     1       0.284   4.230  16.209  1.00  0.00     0.049 A 
ATOM     64  H   UNL     1      -0.353   2.441  15.289  1.00  0.00     0.167 HD
ATOM     65  C   UNL     1      -1.673   3.515  17.555  1.00  0.00     0.074 A 
ATOM     66  C   UNL     1      -2.609   3.678  18.649  1.00  0.00     0.031 C 
ATOM     67  C   UNL     1      -0.647   4.364  17.298  1.00  0.00     0.037 A 
BRANCH  54  68
ATOM     68  C   UNL     1       2.753   2.790  12.382  1.00  0.00     0.057 A 
ATOM     69  C   UNL     1       4.068   2.660  12.845  1.00  0.00     0.134 A 
ATOM     70  C   UNL     1       2.574   3.238  11.066  1.00  0.00     0.134 A 
ATOM     71  F   UNL     1       4.311   2.240  14.096  1.00  0.00    -0.206 F 
ATOM     72  C   UNL     1       5.163   2.964  12.034  1.00  0.00     0.040 A 
ATOM     73  C   UNL     1       3.661   3.523  10.237  1.00  0.00     0.040 A 
ATOM     74  F   UNL     1       1.340   3.369  10.555  1.00  0.00    -0.206 F 
ATOM     75  C   UNL     1       4.961   3.390  10.723  1.00  0.00     0.006 A 
ENDBRANCH  54  68
BRANCH  55  76
ATOM     76  C   UNL     1      -5.035   0.285  18.110  1.00  0.00     0.057 A 
ATOM     77  C   UNL     1      -5.018  -0.820  18.970  1.00  0.00     0.134 A 
ATOM     78  C   UNL     1      -6.197   1.064  18.083  1.00  0.00     0.134 A 
ATOM     79  F   UNL     1      -3.935  -1.609  19.037  1.00  0.00    -0.206 F 
ATOM     80  C   UNL     1      -6.116  -1.142  19.767  1.00  0.00     0.040 A 
ATOM     81  C   UNL     1      -7.293   0.769  18.895  1.00  0.00     0.040 A 
ATOM     82  F   UNL     1      -6.266   2.146  17.293  1.00  0.00    -0.206 F 
ATOM     83  C   UNL     1      -7.255  -0.340  19.738  1.00  0.00     0.006 A 
ENDBRANCH  55  76
BRANCH  67  84
ATOM     84  C   UNL     1      -0.505   5.537  18.222  1.00  0.00     0.057 A 
ATOM     85  C   UNL     1      -0.842   6.827  17.798  1.00  0.00     0.134 A 
ATOM     86  C   UNL     1      -0.054   5.382  19.539  1.00  0.00     0.134 A 
ATOM     87  F   UNL     1      -1.274   7.043  16.547  1.00  0.00    -0.206 F 
ATOM     88  C   UNL     1      -0.746   7.923  18.657  1.00  0.00     0.040 A 
ATOM     89  C   UNL     1       0.021   6.466  20.415  1.00  0.00     0.040 A 
ATOM     90  F   UNL     1       0.266   4.167  20.010  1.00  0.00    -0.206 F 
ATOM     91  C   UNL     1      -0.325   7.741  19.973  1.00  0.00     0.006 A 
ENDBRANCH  67  84
ENDBRANCH  41  42
ENDBRANCH  33  36
ENDBRANCH  31  32
ENDBRANCH   1  31
TORSDOF 13
