REMARK SMILES C[C@@H](NC(=O)CCCN1C(=O)/C(=C/c2c3ccccc3cc3ccccc23)SC1=S)C(=O)NCCCNC(=O)c1ccc(-c2c3nc(c(-c4c(F)cccc4F)c4ccc([nH]4)c(-c4c(F)cccc4F)c4nc(c(-c5c(F)cccc5F)c5ccc2[nH]5)C=C4)C=C3)cc1
REMARK SMILES IDX 31 1 32 2 33 3 2 5 1 6 3 7 4 8 5 10 6 11 7 12 8 13 9 14
REMARK SMILES IDX 10 15 29 16 11 17 12 18 28 19 30 20 13 21 14 22 15 23 27 24
REMARK SMILES IDX 16 25 20 26 22 27 26 28 17 29 19 30 21 31 23 32 25 33 18 34
REMARK SMILES IDX 24 35 34 36 35 37 36 38 37 39 38 40 39 42 40 43 41 44 93 45
REMARK SMILES IDX 42 46 92 47 43 48 44 49 45 50 86 51 46 52 91 53 85 54 87 55
REMARK SMILES IDX 47 56 90 57 84 58 83 59 48 61 74 62 57 63 73 64 58 65 61 66
REMARK SMILES IDX 72 67 88 68 59 69 60 70 71 72 89 73 62 74 49 75 50 76 55 77
REMARK SMILES IDX 51 78 52 79 54 80 56 81 53 82 75 83 76 84 81 85 77 86 78 87
REMARK SMILES IDX 80 88 82 89 79 90 63 91 64 92 69 93 65 94 66 95 68 96 70 97
REMARK SMILES IDX 67 98
REMARK H PARENT 33 4 3 9 37 41 87 60 61 71
REMARK Flexibility Score: inf
ROOT
ATOM      1  C   UNL     1      -1.303  -2.483   1.041  1.00  0.00     0.242 C 
ATOM      2  O   UNL     1      -2.065  -3.405   0.671  1.00  0.00    -0.273 OA
ATOM      3  N   UNL     1      -2.078  -1.350   1.355  1.00  0.00    -0.354 N 
ATOM      4  H   UNL     1      -2.841  -1.328   0.732  1.00  0.00     0.163 HD
ENDROOT
BRANCH   1   5
ATOM      5  C   UNL     1       0.429  -2.950   1.008  1.00  0.00     0.168 C 
ATOM      6  C   UNL     1       1.804  -2.346   0.448  1.00  0.00     0.041 C 
BRANCH   5   7
ATOM      7  N   UNL     1       0.867  -3.573   2.225  1.00  0.00    -0.345 N 
ATOM      8  C   UNL     1       1.000  -2.785   3.312  1.00  0.00     0.220 C 
ATOM      9  H   UNL     1       1.062  -4.537   2.264  1.00  0.00     0.164 HD
ATOM     10  O   UNL     1       1.655  -3.142   4.302  1.00  0.00    -0.275 OA
BRANCH   8  11
ATOM     11  C   UNL     1       0.220  -1.502   3.215  1.00  0.00     0.102 C 
BRANCH  11  12
ATOM     12  C   UNL     1       0.694  -0.440   2.058  1.00  0.00     0.032 C 
BRANCH  12  13
ATOM     13  C   UNL     1       0.191  -0.011   0.392  1.00  0.00     0.128 C 
BRANCH  13  14
ATOM     14  N   UNL     1      -0.624  -0.748  -0.849  1.00  0.00    -0.293 N 
ATOM     15  C   UNL     1      -0.389  -1.959  -1.492  1.00  0.00     0.266 C 
ATOM     16  C   UNL     1      -1.450  -0.043  -1.727  1.00  0.00     0.148 C 
ATOM     17  O   UNL     1       0.690  -2.501  -1.702  1.00  0.00    -0.268 OA
ATOM     18  C   UNL     1      -1.543  -2.504  -2.279  1.00  0.00     0.081 C 
ATOM     19  S   UNL     1      -2.324  -1.133  -2.889  1.00  0.00    -0.054 SA
ATOM     20  S   UNL     1      -1.625   1.613  -1.876  1.00  0.00    -0.052 S 
ATOM     21  C   UNL     1      -1.511  -3.828  -2.564  1.00  0.00     0.030 C 
BRANCH  21  22
ATOM     22  C   UNL     1      -1.804  -4.624  -3.806  1.00  0.00    -0.009 A 
ATOM     23  C   UNL     1      -0.905  -4.431  -4.914  1.00  0.00    -0.010 A 
ATOM     24  C   UNL     1      -2.691  -5.759  -3.820  1.00  0.00    -0.010 A 
ATOM     25  C   UNL     1       0.207  -3.551  -4.897  1.00  0.00     0.009 A 
ATOM     26  C   UNL     1      -1.046  -5.217  -6.080  1.00  0.00    -0.017 A 
ATOM     27  C   UNL     1      -2.775  -6.551  -5.001  1.00  0.00    -0.017 A 
ATOM     28  C   UNL     1      -3.458  -6.213  -2.716  1.00  0.00     0.009 A 
ATOM     29  C   UNL     1       1.078  -3.398  -5.974  1.00  0.00     0.001 A 
ATOM     30  C   UNL     1      -0.190  -5.030  -7.182  1.00  0.00     0.009 A 
ATOM     31  C   UNL     1      -1.997  -6.237  -6.117  1.00  0.00     0.017 A 
ATOM     32  C   UNL     1      -3.591  -7.696  -5.061  1.00  0.00     0.009 A 
ATOM     33  C   UNL     1      -4.251  -7.374  -2.782  1.00  0.00     0.001 A 
ATOM     34  C   UNL     1       0.863  -4.121  -7.132  1.00  0.00     0.001 A 
ATOM     35  C   UNL     1      -4.322  -8.111  -3.956  1.00  0.00     0.001 A 
ENDBRANCH  21  22
ENDBRANCH  13  14
ENDBRANCH  12  13
ENDBRANCH  11  12
ENDBRANCH   8  11
ENDBRANCH   5   7
ENDBRANCH   1   5
BRANCH   3  36
ATOM     36  C   UNL     1      -2.202  -0.135   2.288  1.00  0.00     0.117 C 
BRANCH  36  37
ATOM     37  C   UNL     1      -2.681   1.247   1.778  1.00  0.00     0.042 C 
BRANCH  37  38
ATOM     38  C   UNL     1      -4.126   1.644   2.049  1.00  0.00     0.118 C 
BRANCH  38  39
ATOM     39  N   UNL     1      -4.517   1.380   3.431  1.00  0.00    -0.352 N 
ATOM     40  C   UNL     1      -4.588   2.206   4.529  1.00  0.00     0.251 C 
ATOM     41  H   UNL     1      -4.777   0.447   3.608  1.00  0.00     0.163 HD
ATOM     42  O   UNL     1      -4.537   1.718   5.655  1.00  0.00    -0.269 OA
BRANCH  40  43
ATOM     43  C   UNL     1      -4.735   3.666   4.361  1.00  0.00     0.039 A 
ATOM     44  C   UNL     1      -4.206   4.555   5.304  1.00  0.00     0.014 A 
ATOM     45  C   UNL     1      -5.431   4.157   3.261  1.00  0.00     0.014 A 
ATOM     46  C   UNL     1      -4.301   5.933   5.083  1.00  0.00     0.010 A 
ATOM     47  C   UNL     1      -5.375   5.504   2.960  1.00  0.00     0.010 A 
ATOM     48  C   UNL     1      -4.840   6.414   3.879  1.00  0.00    -0.014 A 
BRANCH  48  49
ATOM     49  C   UNL     1      -4.907   7.856   3.541  1.00  0.00     0.031 A 
ATOM     50  C   UNL     1      -6.238   8.467   3.180  1.00  0.00     0.074 A 
ATOM     51  C   UNL     1      -3.770   8.570   3.431  1.00  0.00     0.049 A 
ATOM     52  N   UNL     1      -6.502   9.649   2.687  1.00  0.00    -0.248 NA
ATOM     53  C   UNL     1      -7.427   7.608   3.332  1.00  0.00     0.031 C 
ATOM     54  C   UNL     1      -2.418   8.061   3.678  1.00  0.00     0.029 A 
ATOM     55  N   UNL     1      -3.567   9.875   3.065  1.00  0.00    -0.354 N 
ATOM     56  C   UNL     1      -7.870   9.653   2.439  1.00  0.00     0.074 A 
ATOM     57  C   UNL     1      -8.365   8.332   2.745  1.00  0.00     0.031 C 
ATOM     58  C   UNL     1      -1.532   9.053   3.498  1.00  0.00     0.029 A 
ATOM     59  C   UNL     1      -2.246  10.251   3.072  1.00  0.00     0.049 A 
ATOM     60  H   UNL     1      -4.300  10.486   2.820  1.00  0.00     0.167 HD
ATOM     61  C   UNL     1      -8.653  10.680   2.036  1.00  0.00     0.037 A 
ATOM     62  C   UNL     1      -1.679  11.432   2.762  1.00  0.00     0.037 A 
ATOM     63  C   UNL     1      -8.152  12.003   1.786  1.00  0.00     0.049 A 
ATOM     64  C   UNL     1      -2.570  12.564   2.333  1.00  0.00     0.074 A 
ATOM     65  C   UNL     1      -8.856  13.145   1.456  1.00  0.00     0.029 A 
ATOM     66  N   UNL     1      -6.811  12.356   1.847  1.00  0.00    -0.354 N 
ATOM     67  N   UNL     1      -3.874  12.582   2.187  1.00  0.00    -0.248 NA
ATOM     68  C   UNL     1      -1.914  13.842   2.029  1.00  0.00     0.031 C 
ATOM     69  C   UNL     1      -7.935  14.179   1.262  1.00  0.00     0.029 A 
ATOM     70  C   UNL     1      -6.663  13.695   1.531  1.00  0.00     0.049 A 
ATOM     71  H   UNL     1      -6.075  11.745   2.079  1.00  0.00     0.167 HD
ATOM     72  C   UNL     1      -4.197  13.874   1.798  1.00  0.00     0.074 A 
ATOM     73  C   UNL     1      -2.953  14.617   1.755  1.00  0.00     0.031 C 
ATOM     74  C   UNL     1      -5.409  14.404   1.498  1.00  0.00     0.037 A 
BRANCH  61  75
ATOM     75  C   UNL     1     -10.121  10.410   1.864  1.00  0.00     0.057 A 
ATOM     76  C   UNL     1     -10.953  10.104   2.952  1.00  0.00     0.134 A 
ATOM     77  C   UNL     1     -10.717  10.468   0.598  1.00  0.00     0.134 A 
ATOM     78  F   UNL     1     -10.447  10.014   4.191  1.00  0.00    -0.206 F 
ATOM     79  C   UNL     1     -12.311   9.830   2.782  1.00  0.00     0.040 A 
ATOM     80  C   UNL     1     -12.082  10.230   0.420  1.00  0.00     0.040 A 
ATOM     81  F   UNL     1      -9.984  10.757  -0.488  1.00  0.00    -0.206 F 
ATOM     82  C   UNL     1     -12.881   9.901   1.513  1.00  0.00     0.006 A 
ENDBRANCH  61  75
BRANCH  62  83
ATOM     83  C   UNL     1      -0.208  11.611   2.878  1.00  0.00     0.057 A 
ATOM     84  C   UNL     1       0.341  12.446   3.858  1.00  0.00     0.134 A 
ATOM     85  C   UNL     1       0.684  10.957   2.020  1.00  0.00     0.134 A 
ATOM     86  F   UNL     1      -0.460  13.110   4.704  1.00  0.00    -0.206 F 
ATOM     87  C   UNL     1       1.719  12.646   3.965  1.00  0.00     0.040 A 
ATOM     88  C   UNL     1       2.066  11.124   2.134  1.00  0.00     0.040 A 
ATOM     89  F   UNL     1       0.227  10.130   1.068  1.00  0.00    -0.206 F 
ATOM     90  C   UNL     1       2.586  11.979   3.103  1.00  0.00     0.006 A 
ENDBRANCH  62  83
BRANCH  74  91
ATOM     91  C   UNL     1      -5.445  15.855   1.123  1.00  0.00     0.057 A 
ATOM     92  C   UNL     1      -4.936  16.315  -0.097  1.00  0.00     0.134 A 
ATOM     93  C   UNL     1      -6.039  16.795   1.975  1.00  0.00     0.134 A 
ATOM     94  F   UNL     1      -4.344  15.465  -0.951  1.00  0.00    -0.206 F 
ATOM     95  C   UNL     1      -4.991  17.664  -0.446  1.00  0.00     0.040 A 
ATOM     96  C   UNL     1      -6.131  18.141   1.622  1.00  0.00     0.040 A 
ATOM     97  F   UNL     1      -6.559  16.417   3.153  1.00  0.00    -0.206 F 
ATOM     98  C   UNL     1      -5.598  18.580   0.412  1.00  0.00     0.006 A 
ENDBRANCH  74  91
ENDBRANCH  48  49
ENDBRANCH  40  43
ENDBRANCH  38  39
ENDBRANCH  37  38
ENDBRANCH  36  37
ENDBRANCH   3  36
TORSDOF 16
