REMARK SMILES Cc1ccccc1NC(=O)CSc1nc(C(=O)NCCCNC(=O)c2ccc(-c3c4nc(c(-c5c(F)cccc5F)c5ccc([nH]5)c(-c5c(F)cccc5F)c5nc(c(-c6c(F)cccc6F)c6ccc3[nH]6)C=C5)C=C4)cc2)c2ccccc2n1
REMARK SMILES IDX 19 1 18 2 16 3 17 4 15 6 13 7 14 8 85 9 84 10 79 11 83 12
REMARK SMILES IDX 80 13 82 14 81 15 12 16 11 17 9 18 8 19 10 21 7 22 1 23 2 24
REMARK SMILES IDX 3 25 4 26 6 27 5 28 20 29 21 30 22 31 23 32 24 34 25 35
REMARK SMILES IDX 26 36 78 37 27 38 77 39 28 40 29 41 30 42 71 43 31 44 76 45
REMARK SMILES IDX 70 46 72 47 32 48 75 49 69 50 68 51 33 53 59 54 42 55 58 56
REMARK SMILES IDX 43 57 46 58 57 59 73 60 44 61 45 62 56 64 74 65 47 66 34 67
REMARK SMILES IDX 35 68 40 69 36 70 37 71 39 72 41 73 38 74 60 75 61 76 66 77
REMARK SMILES IDX 62 78 63 79 65 80 67 81 64 82 48 83 49 84 54 85 50 86 51 87
REMARK SMILES IDX 53 88 55 89 52 90
REMARK H PARENT 18 5 8 20 22 33 72 52 46 63
REMARK Flexibility Score: inf
ROOT
ATOM      1  C   UNL     1      -0.867   6.961  -6.706  1.00  0.00     0.118 C 
ENDROOT
BRANCH   1   2
ATOM      2  N   UNL     1      -0.845   7.612  -5.408  1.00  0.00    -0.351 N 
ATOM      3  C   UNL     1      -0.574   7.072  -4.159  1.00  0.00     0.270 C 
ATOM      4  O   UNL     1      -0.517   7.839  -3.199  1.00  0.00    -0.267 OA
ATOM      5  H   UNL     1      -1.051   8.575  -5.416  1.00  0.00     0.163 HD
BRANCH   3   6
ATOM      6  C   UNL     1      -0.462   5.587  -3.947  1.00  0.00     0.140 A 
ATOM      7  C   UNL     1      -1.434   3.827  -2.893  1.00  0.00     0.189 A 
ATOM      8  N   UNL     1      -1.287   5.144  -2.972  1.00  0.00    -0.217 NA
ATOM      9  N   UNL     1      -0.951   2.948  -3.778  1.00  0.00    -0.222 NA
ATOM     10  C   UNL     1      -0.128   3.408  -4.723  1.00  0.00     0.076 A 
ATOM     11  C   UNL     1       0.271   4.743  -4.792  1.00  0.00     0.032 A 
ATOM     12  C   UNL     1       0.317   2.535  -5.708  1.00  0.00     0.029 A 
ATOM     13  C   UNL     1       1.274   5.123  -5.724  1.00  0.00     0.013 A 
ATOM     14  C   UNL     1       1.192   2.944  -6.718  1.00  0.00     0.002 A 
ATOM     15  C   UNL     1       1.704   4.234  -6.705  1.00  0.00     0.001 A 
BRANCH   7  16
ATOM     16  S   UNL     1      -2.390   3.179  -1.559  1.00  0.00    -0.076 SA
BRANCH  16  17
ATOM     17  C   UNL     1      -1.451   3.869  -0.163  1.00  0.00     0.178 C 
BRANCH  17  18
ATOM     18  C   UNL     1       0.028   3.542  -0.194  1.00  0.00     0.234 C 
ATOM     19  N   UNL     1       0.567   2.305  -0.013  1.00  0.00    -0.325 N 
ATOM     20  H   UNL     1       1.551   2.328  -0.021  1.00  0.00     0.169 HD
ATOM     21  O   UNL     1       0.847   4.453  -0.383  1.00  0.00    -0.274 OA
BRANCH  19  22
ATOM     22  C   UNL     1       0.070   1.001   0.185  1.00  0.00     0.044 A 
ATOM     23  C   UNL     1       2.446   0.011  -0.165  1.00  0.00     0.046 C 
ATOM     24  C   UNL     1       0.957  -0.095   0.048  1.00  0.00    -0.027 A 
ATOM     25  C   UNL     1       0.443  -1.409   0.082  1.00  0.00     0.005 A 
ATOM     26  C   UNL     1      -0.908  -1.649   0.298  1.00  0.00     0.000 A 
ATOM     27  C   UNL     1      -1.266   0.729   0.487  1.00  0.00     0.026 A 
ATOM     28  C   UNL     1      -1.758  -0.580   0.527  1.00  0.00     0.002 A 
ENDBRANCH  19  22
ENDBRANCH  17  18
ENDBRANCH  16  17
ENDBRANCH   7  16
ENDBRANCH   3   6
ENDBRANCH   1   2
BRANCH   1  29
ATOM     29  C   UNL     1      -2.013   7.341  -7.612  1.00  0.00     0.042 C 
BRANCH  29  30
ATOM     30  C   UNL     1      -1.707   8.516  -8.521  1.00  0.00     0.118 C 
BRANCH  30  31
ATOM     31  N   UNL     1      -0.730   8.235  -9.583  1.00  0.00    -0.352 N 
ATOM     32  C   UNL     1      -0.469   8.990 -10.723  1.00  0.00     0.251 C 
ATOM     33  H   UNL     1      -0.197   7.415  -9.475  1.00  0.00     0.163 HD
ATOM     34  O   UNL     1       0.502   8.775 -11.426  1.00  0.00    -0.269 OA
BRANCH  32  35
ATOM     35  C   UNL     1      -1.363  10.139 -10.987  1.00  0.00     0.039 A 
ATOM     36  C   UNL     1      -0.843  11.409 -10.730  1.00  0.00     0.014 A 
ATOM     37  C   UNL     1      -2.734   9.899 -11.000  1.00  0.00     0.014 A 
ATOM     38  C   UNL     1      -1.680  12.359 -10.163  1.00  0.00     0.010 A 
ATOM     39  C   UNL     1      -3.541  10.809 -10.342  1.00  0.00     0.010 A 
ATOM     40  C   UNL     1      -2.982  11.988  -9.828  1.00  0.00    -0.014 A 
BRANCH  40  41
ATOM     41  C   UNL     1      -3.732  12.678  -8.779  1.00  0.00     0.031 A 
ATOM     42  C   UNL     1      -4.962  13.422  -9.117  1.00  0.00     0.074 A 
ATOM     43  C   UNL     1      -3.314  12.627  -7.489  1.00  0.00     0.049 A 
ATOM     44  N   UNL     1      -5.459  14.354  -8.376  1.00  0.00    -0.248 NA
ATOM     45  C   UNL     1      -5.686  13.247 -10.374  1.00  0.00     0.031 C 
ATOM     46  C   UNL     1      -4.057  13.040  -6.298  1.00  0.00     0.029 A 
ATOM     47  N   UNL     1      -2.008  12.402  -7.017  1.00  0.00    -0.354 N 
ATOM     48  C   UNL     1      -6.694  14.668  -8.882  1.00  0.00     0.074 A 
ATOM     49  C   UNL     1      -6.719  14.076 -10.193  1.00  0.00     0.031 C 
ATOM     50  C   UNL     1      -3.184  13.340  -5.324  1.00  0.00     0.029 A 
ATOM     51  C   UNL     1      -1.853  13.249  -5.894  1.00  0.00     0.049 A 
ATOM     52  H   UNL     1      -1.340  11.783  -7.390  1.00  0.00     0.167 HD
ATOM     53  C   UNL     1      -7.603  15.265  -8.064  1.00  0.00     0.037 A 
ATOM     54  C   UNL     1      -0.911  14.232  -5.848  1.00  0.00     0.037 A 
ATOM     55  C   UNL     1      -6.952  15.825  -6.878  1.00  0.00     0.049 A 
ATOM     56  C   UNL     1      -1.472  15.618  -5.632  1.00  0.00     0.074 A 
ATOM     57  C   UNL     1      -6.947  15.490  -5.535  1.00  0.00     0.029 A 
ATOM     58  N   UNL     1      -5.948  16.779  -7.047  1.00  0.00    -0.354 N 
ATOM     59  N   UNL     1      -2.734  15.922  -5.768  1.00  0.00    -0.248 NA
ATOM     60  C   UNL     1      -0.653  16.781  -5.299  1.00  0.00     0.031 C 
ATOM     61  C   UNL     1      -5.867  16.180  -4.919  1.00  0.00     0.029 A 
ATOM     62  C   UNL     1      -5.245  16.966  -5.875  1.00  0.00     0.049 A 
ATOM     63  H   UNL     1      -5.766  17.254  -7.890  1.00  0.00     0.167 HD
ATOM     64  C   UNL     1      -2.897  17.275  -5.623  1.00  0.00     0.074 A 
ATOM     65  C   UNL     1      -1.572  17.762  -5.290  1.00  0.00     0.031 C 
ATOM     66  C   UNL     1      -4.106  17.878  -5.827  1.00  0.00     0.037 A 
BRANCH  53  67
ATOM     67  C   UNL     1      -9.109  15.169  -8.231  1.00  0.00     0.057 A 
ATOM     68  C   UNL     1      -9.965  15.823  -7.323  1.00  0.00     0.134 A 
ATOM     69  C   UNL     1      -9.784  14.344  -9.158  1.00  0.00     0.134 A 
ATOM     70  F   UNL     1      -9.484  16.634  -6.369  1.00  0.00    -0.206 F 
ATOM     71  C   UNL     1     -11.360  15.658  -7.328  1.00  0.00     0.040 A 
ATOM     72  C   UNL     1     -11.179  14.212  -9.206  1.00  0.00     0.040 A 
ATOM     73  F   UNL     1      -9.145  13.561 -10.032  1.00  0.00    -0.206 F 
ATOM     74  C   UNL     1     -11.975  14.857  -8.279  1.00  0.00     0.006 A 
ENDBRANCH  53  67
BRANCH  54  75
ATOM     75  C   UNL     1       0.317  13.921  -6.620  1.00  0.00     0.057 A 
ATOM     76  C   UNL     1       1.127  12.853  -6.195  1.00  0.00     0.134 A 
ATOM     77  C   UNL     1       0.514  14.392  -7.919  1.00  0.00     0.134 A 
ATOM     78  F   UNL     1       0.990  12.355  -4.956  1.00  0.00    -0.206 F 
ATOM     79  C   UNL     1       2.014  12.209  -7.060  1.00  0.00     0.040 A 
ATOM     80  C   UNL     1       1.407  13.760  -8.794  1.00  0.00     0.040 A 
ATOM     81  F   UNL     1      -0.237  15.391  -8.404  1.00  0.00    -0.206 F 
ATOM     82  C   UNL     1       2.131  12.643  -8.377  1.00  0.00     0.006 A 
ENDBRANCH  54  75
BRANCH  66  83
ATOM     83  C   UNL     1      -4.343  19.368  -5.938  1.00  0.00     0.057 A 
ATOM     84  C   UNL     1      -3.387  20.297  -6.377  1.00  0.00     0.134 A 
ATOM     85  C   UNL     1      -5.633  19.903  -5.724  1.00  0.00     0.134 A 
ATOM     86  F   UNL     1      -2.154  19.921  -6.742  1.00  0.00    -0.206 F 
ATOM     87  C   UNL     1      -3.671  21.664  -6.523  1.00  0.00     0.040 A 
ATOM     88  C   UNL     1      -5.942  21.253  -5.919  1.00  0.00     0.040 A 
ATOM     89  F   UNL     1      -6.660  19.131  -5.338  1.00  0.00    -0.206 F 
ATOM     90  C   UNL     1      -4.954  22.145  -6.303  1.00  0.00     0.006 A 
ENDBRANCH  66  83
ENDBRANCH  40  41
ENDBRANCH  32  35
ENDBRANCH  30  31
ENDBRANCH  29  30
ENDBRANCH   1  29
TORSDOF 14
