REMARK SMILES O=C(C[C@H]1C(=O)Nc2ccccc21)NCCCNC(=O)c1ccc(-c2c3nc(c(-c4c(F)cccc4F)c4ccc([nH]4)c(-c4c(F)cccc4F)c4nc(c(-c5c(F)cccc5F)c5ccc2[nH]5)C=C4)C=C3)cc1
REMARK SMILES IDX 16 1 15 2 14 3 1 4 2 5 3 7 4 8 5 9 13 10 6 11 7 12 8 13
REMARK SMILES IDX 12 14 9 16 11 17 10 18 17 19 18 20 19 21 20 23 21 24 22 25
REMARK SMILES IDX 74 26 23 27 73 28 24 29 25 30 26 31 67 32 27 33 72 34 66 35
REMARK SMILES IDX 68 36 28 37 71 38 65 39 64 40 29 42 55 43 38 44 54 45 39 46
REMARK SMILES IDX 42 47 53 48 69 49 40 50 41 51 52 53 70 54 43 55 30 56 31 57
REMARK SMILES IDX 36 58 32 59 33 60 35 61 37 62 34 63 56 64 57 65 62 66 58 67
REMARK SMILES IDX 59 68 61 69 63 70 60 71 44 72 45 73 50 74 46 75 47 76 49 77
REMARK SMILES IDX 51 78 48 79
REMARK H PARENT 14 6 7 15 18 22 68 41 42 52
REMARK Flexibility Score: inf
ROOT
ATOM      1  C   UNL     1       7.264   1.251   3.950  1.00  0.00     0.042 C 
ENDROOT
BRANCH   1   2
ATOM      2  C   UNL     1       6.065   0.641   3.238  1.00  0.00     0.117 C 
BRANCH   2   3
ATOM      3  N   UNL     1       5.901   1.159   1.895  1.00  0.00    -0.356 N 
ATOM      4  O   UNL     1       5.492  -0.869   0.878  1.00  0.00    -0.275 OA
ATOM      5  C   UNL     1       5.534   0.354   0.838  1.00  0.00     0.221 C 
ATOM      6  H   UNL     1       6.057   2.117   1.732  1.00  0.00     0.163 HD
BRANCH   5   7
ATOM      7  C   UNL     1       5.215   1.128  -0.421  1.00  0.00     0.118 C 
BRANCH   7   8
ATOM      8  C   UNL     1       3.845   1.812  -0.428  1.00  0.00     0.120 C 
ATOM      9  C   UNL     1       3.290   2.205   0.962  1.00  0.00     0.232 C 
ATOM     10  C   UNL     1       3.930   3.163  -1.102  1.00  0.00    -0.011 A 
ATOM     11  O   UNL     1       2.943   1.461   1.864  1.00  0.00    -0.274 OA
ATOM     12  N   UNL     1       3.271   3.591   1.031  1.00  0.00    -0.325 N 
ATOM     13  C   UNL     1       3.623   4.162  -0.179  1.00  0.00     0.045 A 
ATOM     14  C   UNL     1       4.258   3.489  -2.406  1.00  0.00     0.007 A 
ATOM     15  H   UNL     1       3.037   4.104   1.839  1.00  0.00     0.169 HD
ATOM     16  C   UNL     1       3.654   5.502  -0.494  1.00  0.00     0.026 A 
ATOM     17  C   UNL     1       4.285   4.843  -2.755  1.00  0.00     0.000 A 
ATOM     18  C   UNL     1       3.993   5.841  -1.805  1.00  0.00     0.002 A 
ENDBRANCH   7   8
ENDBRANCH   5   7
ENDBRANCH   2   3
ENDBRANCH   1   2
BRANCH   1  19
ATOM     19  C   UNL     1       7.217   2.768   4.109  1.00  0.00     0.118 C 
BRANCH  19  20
ATOM     20  N   UNL     1       6.155   3.232   4.990  1.00  0.00    -0.352 N 
ATOM     21  C   UNL     1       6.222   4.062   6.085  1.00  0.00     0.251 C 
ATOM     22  H   UNL     1       5.254   2.904   4.768  1.00  0.00     0.163 HD
ATOM     23  O   UNL     1       5.222   4.258   6.768  1.00  0.00    -0.269 OA
BRANCH  21  24
ATOM     24  C   UNL     1       7.505   4.693   6.471  1.00  0.00     0.039 A 
ATOM     25  C   UNL     1       7.891   4.657   7.814  1.00  0.00     0.014 A 
ATOM     26  C   UNL     1       8.330   5.308   5.526  1.00  0.00     0.014 A 
ATOM     27  C   UNL     1       9.141   5.154   8.193  1.00  0.00     0.010 A 
ATOM     28  C   UNL     1       9.606   5.736   5.892  1.00  0.00     0.010 A 
ATOM     29  C   UNL     1      10.031   5.650   7.226  1.00  0.00    -0.014 A 
BRANCH  29  30
ATOM     30  C   UNL     1      11.423   6.034   7.586  1.00  0.00     0.031 A 
ATOM     31  C   UNL     1      11.899   7.449   7.415  1.00  0.00     0.074 A 
ATOM     32  C   UNL     1      12.284   5.084   8.002  1.00  0.00     0.049 A 
ATOM     33  N   UNL     1      13.095   7.948   7.601  1.00  0.00    -0.248 NA
ATOM     34  C   UNL     1      10.905   8.430   6.952  1.00  0.00     0.031 C 
ATOM     35  C   UNL     1      11.962   3.666   8.172  1.00  0.00     0.029 A 
ATOM     36  N   UNL     1      13.612   5.164   8.344  1.00  0.00    -0.354 N 
ATOM     37  C   UNL     1      13.002   9.294   7.274  1.00  0.00     0.074 A 
ATOM     38  C   UNL     1      11.644   9.524   6.827  1.00  0.00     0.031 C 
ATOM     39  C   UNL     1      13.053   3.015   8.605  1.00  0.00     0.029 A 
ATOM     40  C   UNL     1      14.165   3.955   8.696  1.00  0.00     0.049 A 
ATOM     41  H   UNL     1      14.120   6.007   8.338  1.00  0.00     0.167 HD
ATOM     42  C   UNL     1      13.954  10.255   7.354  1.00  0.00     0.037 A 
ATOM     43  C   UNL     1      15.427   3.635   9.037  1.00  0.00     0.037 A 
ATOM     44  C   UNL     1      15.303  10.026   7.806  1.00  0.00     0.049 A 
ATOM     45  C   UNL     1      16.475   4.712   9.080  1.00  0.00     0.074 A 
ATOM     46  C   UNL     1      16.322  10.947   7.976  1.00  0.00     0.029 A 
ATOM     47  N   UNL     1      15.825   8.787   8.150  1.00  0.00    -0.354 N 
ATOM     48  N   UNL     1      16.354   5.994   8.835  1.00  0.00    -0.248 NA
ATOM     49  C   UNL     1      17.836   4.298   9.450  1.00  0.00     0.031 C 
ATOM     50  C   UNL     1      17.476  10.258   8.364  1.00  0.00     0.029 A 
ATOM     51  C   UNL     1      17.161   8.916   8.496  1.00  0.00     0.049 A 
ATOM     52  H   UNL     1      15.321   7.942   8.148  1.00  0.00     0.167 HD
ATOM     53  C   UNL     1      17.613   6.543   9.043  1.00  0.00     0.074 A 
ATOM     54  C   UNL     1      18.479   5.457   9.455  1.00  0.00     0.031 C 
ATOM     55  C   UNL     1      18.016   7.829   8.902  1.00  0.00     0.037 A 
BRANCH  42  56
ATOM     56  C   UNL     1      13.574  11.648   6.938  1.00  0.00     0.057 A 
ATOM     57  C   UNL     1      12.686  12.429   7.690  1.00  0.00     0.134 A 
ATOM     58  C   UNL     1      14.137  12.232   5.797  1.00  0.00     0.134 A 
ATOM     59  F   UNL     1      12.103  11.928   8.790  1.00  0.00    -0.206 F 
ATOM     60  C   UNL     1      12.351  13.729   7.307  1.00  0.00     0.040 A 
ATOM     61  C   UNL     1      13.834  13.542   5.420  1.00  0.00     0.040 A 
ATOM     62  F   UNL     1      15.002  11.545   5.035  1.00  0.00    -0.206 F 
ATOM     63  C   UNL     1      12.933  14.292   6.173  1.00  0.00     0.006 A 
ENDBRANCH  42  56
BRANCH  43  64
ATOM     64  C   UNL     1      15.776   2.228   9.366  1.00  0.00     0.057 A 
ATOM     65  C   UNL     1      16.132   1.857  10.668  1.00  0.00     0.134 A 
ATOM     66  C   UNL     1      15.775   1.226   8.388  1.00  0.00     0.134 A 
ATOM     67  F   UNL     1      16.172   2.775  11.644  1.00  0.00    -0.206 F 
ATOM     68  C   UNL     1      16.496   0.546  10.981  1.00  0.00     0.040 A 
ATOM     69  C   UNL     1      16.108  -0.095   8.694  1.00  0.00     0.040 A 
ATOM     70  F   UNL     1      15.437   1.514   7.122  1.00  0.00    -0.206 F 
ATOM     71  C   UNL     1      16.479  -0.436   9.993  1.00  0.00     0.006 A 
ENDBRANCH  43  64
BRANCH  55  72
ATOM     72  C   UNL     1      19.451   8.139   9.222  1.00  0.00     0.057 A 
ATOM     73  C   UNL     1      20.502   7.712   8.400  1.00  0.00     0.134 A 
ATOM     74  C   UNL     1      19.783   8.903  10.348  1.00  0.00     0.134 A 
ATOM     75  F   UNL     1      20.255   6.965   7.313  1.00  0.00    -0.206 F 
ATOM     76  C   UNL     1      21.832   8.010   8.702  1.00  0.00     0.040 A 
ATOM     77  C   UNL     1      21.107   9.233  10.644  1.00  0.00     0.040 A 
ATOM     78  F   UNL     1      18.826   9.353  11.174  1.00  0.00    -0.206 F 
ATOM     79  C   UNL     1      22.137   8.780   9.823  1.00  0.00     0.006 A 
ENDBRANCH  55  72
ENDBRANCH  29  30
ENDBRANCH  21  24
ENDBRANCH  19  20
ENDBRANCH   1  19
TORSDOF 11
