REMARK SMILES O=C(NCCCNC(=O)c1ccc(CNC(=O)c2cccnc2)o1)c1ccc(-c2c3nc(c(-c4c(F)cccc4F)c4ccc([nH]4)c(-c4c(F)cccc4F)c4nc(c(-c5c(F)cccc5F)c5ccc2[nH]5)C=C4)C=C3)cc1
REMARK SMILES IDX 5 1 4 2 3 3 1 4 2 5 25 7 26 8 78 9 27 10 77 11 28 12 29 13
REMARK SMILES IDX 30 14 71 15 31 16 76 17 70 18 72 19 32 20 75 21 69 22 68 23
REMARK SMILES IDX 33 25 59 26 42 27 58 28 43 29 46 30 57 31 73 32 44 33 45 34
REMARK SMILES IDX 56 36 74 37 47 38 34 39 35 40 40 41 36 42 37 43 39 44 41 45
REMARK SMILES IDX 38 46 60 47 61 48 66 49 62 50 63 51 65 52 67 53 64 54 48 55
REMARK SMILES IDX 49 56 54 57 50 58 51 59 53 60 55 61 52 62 6 63 7 64 8 65
REMARK SMILES IDX 9 67 10 68 11 69 24 70 12 71 13 72 14 73 15 74 16 75 17 77
REMARK SMILES IDX 18 78 19 79 23 80 20 81 22 82 21 83
REMARK H PARENT 3 6 72 24 46 35 7 66 15 76
REMARK Flexibility Score: inf
ROOT
ATOM      1  C   UNL     1       4.896  -2.591   0.429  1.00  0.00     0.042 C 
ENDROOT
BRANCH   1   2
ATOM      2  C   UNL     1       4.614  -1.380  -0.453  1.00  0.00     0.118 C 
BRANCH   2   3
ATOM      3  N   UNL     1       3.195  -1.068  -0.551  1.00  0.00    -0.352 N 
ATOM      4  O   UNL     1       1.254  -0.010  -0.145  1.00  0.00    -0.269 OA
ATOM      5  C   UNL     1       2.481   0.019  -0.109  1.00  0.00     0.251 C 
ATOM      6  H   UNL     1       2.656  -1.752  -1.012  1.00  0.00     0.163 HD
BRANCH   5   7
ATOM      7  C   UNL     1       3.169   1.212   0.434  1.00  0.00     0.039 A 
ATOM      8  C   UNL     1       4.327   1.717  -0.159  1.00  0.00     0.014 A 
ATOM      9  C   UNL     1       2.618   1.864   1.544  1.00  0.00     0.014 A 
ATOM     10  C   UNL     1       5.023   2.756   0.451  1.00  0.00     0.010 A 
ATOM     11  C   UNL     1       3.270   2.968   2.102  1.00  0.00     0.010 A 
ATOM     12  C   UNL     1       4.503   3.396   1.588  1.00  0.00    -0.014 A 
BRANCH  12  13
ATOM     13  C   UNL     1       5.258   4.518   2.202  1.00  0.00     0.031 A 
ATOM     14  C   UNL     1       5.826   4.402   3.590  1.00  0.00     0.074 A 
ATOM     15  C   UNL     1       5.468   5.638   1.483  1.00  0.00     0.049 A 
ATOM     16  N   UNL     1       6.552   5.263   4.259  1.00  0.00    -0.248 NA
ATOM     17  C   UNL     1       5.535   3.164   4.330  1.00  0.00     0.031 C 
ATOM     18  C   UNL     1       4.959   5.878   0.131  1.00  0.00     0.029 A 
ATOM     19  N   UNL     1       6.185   6.769   1.775  1.00  0.00    -0.354 N 
ATOM     20  C   UNL     1       6.782   4.686   5.502  1.00  0.00     0.074 A 
ATOM     21  C   UNL     1       6.099   3.410   5.504  1.00  0.00     0.031 C 
ATOM     22  C   UNL     1       5.428   7.054  -0.311  1.00  0.00     0.029 A 
ATOM     23  C   UNL     1       6.225   7.673   0.742  1.00  0.00     0.049 A 
ATOM     24  H   UNL     1       6.628   6.920   2.641  1.00  0.00     0.167 HD
ATOM     25  C   UNL     1       7.503   5.171   6.542  1.00  0.00     0.037 A 
ATOM     26  C   UNL     1       6.837   8.868   0.649  1.00  0.00     0.037 A 
ATOM     27  C   UNL     1       8.208   6.426   6.529  1.00  0.00     0.049 A 
ATOM     28  C   UNL     1       7.630   9.380   1.814  1.00  0.00     0.074 A 
ATOM     29  C   UNL     1       9.004   6.980   7.518  1.00  0.00     0.029 A 
ATOM     30  N   UNL     1       8.201   7.325   5.473  1.00  0.00    -0.354 N 
ATOM     31  N   UNL     1       7.867   8.806   2.968  1.00  0.00    -0.248 NA
ATOM     32  C   UNL     1       8.239  10.709   1.665  1.00  0.00     0.031 C 
ATOM     33  C   UNL     1       9.450   8.230   7.074  1.00  0.00     0.029 A 
ATOM     34  C   UNL     1       8.964   8.437   5.793  1.00  0.00     0.049 A 
ATOM     35  H   UNL     1       7.726   7.193   4.621  1.00  0.00     0.167 HD
ATOM     36  C   UNL     1       8.668   9.692   3.675  1.00  0.00     0.074 A 
ATOM     37  C   UNL     1       8.887  10.836   2.814  1.00  0.00     0.031 C 
ATOM     38  C   UNL     1       9.177   9.567   4.925  1.00  0.00     0.037 A 
BRANCH  25  39
ATOM     39  C   UNL     1       7.550   4.345   7.794  1.00  0.00     0.057 A 
ATOM     40  C   UNL     1       8.296   3.162   7.877  1.00  0.00     0.134 A 
ATOM     41  C   UNL     1       6.861   4.756   8.943  1.00  0.00     0.134 A 
ATOM     42  F   UNL     1       8.967   2.706   6.808  1.00  0.00    -0.206 F 
ATOM     43  C   UNL     1       8.336   2.405   9.050  1.00  0.00     0.040 A 
ATOM     44  C   UNL     1       6.912   4.020  10.128  1.00  0.00     0.040 A 
ATOM     45  F   UNL     1       6.133   5.882   8.934  1.00  0.00    -0.206 F 
ATOM     46  C   UNL     1       7.647   2.837  10.181  1.00  0.00     0.006 A 
ENDBRANCH  25  39
BRANCH  26  47
ATOM     47  C   UNL     1       6.738   9.647  -0.609  1.00  0.00     0.057 A 
ATOM     48  C   UNL     1       7.841   9.784  -1.458  1.00  0.00     0.134 A 
ATOM     49  C   UNL     1       5.539  10.253  -1.000  1.00  0.00     0.134 A 
ATOM     50  F   UNL     1       9.020   9.239  -1.126  1.00  0.00    -0.206 F 
ATOM     51  C   UNL     1       7.758  10.502  -2.652  1.00  0.00     0.040 A 
ATOM     52  C   UNL     1       5.435  10.954  -2.202  1.00  0.00     0.040 A 
ATOM     53  F   UNL     1       4.445  10.150  -0.231  1.00  0.00    -0.206 F 
ATOM     54  C   UNL     1       6.549  11.084  -3.029  1.00  0.00     0.006 A 
ENDBRANCH  26  47
BRANCH  38  55
ATOM     55  C   UNL     1      10.046  10.683   5.419  1.00  0.00     0.057 A 
ATOM     56  C   UNL     1       9.512  11.916   5.811  1.00  0.00     0.134 A 
ATOM     57  C   UNL     1      11.433  10.514   5.520  1.00  0.00     0.134 A 
ATOM     58  F   UNL     1       8.193  12.145   5.724  1.00  0.00    -0.206 F 
ATOM     59  C   UNL     1      10.330  12.952   6.266  1.00  0.00     0.040 A 
ATOM     60  C   UNL     1      12.258  11.534   5.994  1.00  0.00     0.040 A 
ATOM     61  F   UNL     1      12.005   9.354   5.165  1.00  0.00    -0.206 F 
ATOM     62  C   UNL     1      11.707  12.759   6.363  1.00  0.00     0.006 A 
ENDBRANCH  38  55
ENDBRANCH  12  13
ENDBRANCH   5   7
ENDBRANCH   2   3
ENDBRANCH   1   2
BRANCH   1  63
ATOM     63  C   UNL     1       4.330  -3.903  -0.105  1.00  0.00     0.118 C 
BRANCH  63  64
ATOM     64  N   UNL     1       4.928  -4.277  -1.375  1.00  0.00    -0.349 N 
ATOM     65  C   UNL     1       5.812  -5.290  -1.663  1.00  0.00     0.286 C 
ATOM     66  H   UNL     1       4.661  -3.723  -2.143  1.00  0.00     0.163 HD
ATOM     67  O   UNL     1       6.385  -5.235  -2.753  1.00  0.00    -0.266 OA
BRANCH  65  68
ATOM     68  C   UNL     1       6.019  -6.349  -0.703  1.00  0.00     0.191 A 
ATOM     69  C   UNL     1       5.156  -7.083   0.092  1.00  0.00     0.056 A 
ATOM     70  O   UNL     1       7.296  -6.798  -0.508  1.00  0.00    -0.454 OA
ATOM     71  C   UNL     1       5.948  -7.997   0.828  1.00  0.00     0.048 A 
ATOM     72  C   UNL     1       7.249  -7.786   0.429  1.00  0.00     0.124 A 
BRANCH  72  73
ATOM     73  C   UNL     1       8.550  -8.370   0.830  1.00  0.00     0.191 C 
BRANCH  73  74
ATOM     74  N   UNL     1       9.078  -9.168  -0.257  1.00  0.00    -0.345 N 
ATOM     75  C   UNL     1      10.345  -9.170  -0.779  1.00  0.00     0.253 C 
ATOM     76  H   UNL     1       8.443  -9.792  -0.676  1.00  0.00     0.164 HD
ATOM     77  O   UNL     1      10.598  -9.808  -1.796  1.00  0.00    -0.269 OA
BRANCH  75  78
ATOM     78  C   UNL     1      11.414  -8.390  -0.134  1.00  0.00     0.058 A 
ATOM     79  C   UNL     1      11.699  -8.484   1.229  1.00  0.00     0.017 A 
ATOM     80  C   UNL     1      12.191  -7.549  -0.916  1.00  0.00     0.124 A 
ATOM     81  C   UNL     1      12.709  -7.688   1.766  1.00  0.00     0.021 A 
ATOM     82  N   UNL     1      13.181  -6.766  -0.417  1.00  0.00    -0.264 NA
ATOM     83  C   UNL     1      13.411  -6.850   0.912  1.00  0.00     0.111 A 
ENDBRANCH  75  78
ENDBRANCH  73  74
ENDBRANCH  72  73
ENDBRANCH  65  68
ENDBRANCH  63  64
ENDBRANCH   1  63
TORSDOF 13
