REMARK SMILES C[C@]1(c2ccccc2C(=O)NCCCNC(=O)c2ccc(-c3c4nc(c(-c5c(F)cccc5F)c5ccc([nH]5)c(-c5c(F)cccc5F)c5nc(c(-c6c(F)cccc6F)c6ccc3[nH]6)C=C5)C=C4)cc2)NN=C(c2ccccc2)S1
REMARK SMILES IDX 13 1 12 2 11 3 9 4 10 5 8 7 3 8 4 9 5 10 7 11 6 12 2 13 1 14
REMARK SMILES IDX 72 15 81 16 73 17 74 19 75 20 76 21 80 22 77 23 79 24 78 25
REMARK SMILES IDX 14 26 15 27 16 28 17 30 18 31 19 32 71 33 20 34 70 35 21 36
REMARK SMILES IDX 22 37 23 38 64 39 24 40 69 41 63 42 65 43 25 44 68 45 62 46
REMARK SMILES IDX 61 47 26 49 52 50 35 51 51 52 36 53 39 54 50 55 66 56 37 57
REMARK SMILES IDX 38 58 49 60 67 61 40 62 27 63 28 64 33 65 29 66 30 67 32 68
REMARK SMILES IDX 34 69 31 70 53 71 54 72 59 73 55 74 56 75 58 76 60 77 57 78
REMARK SMILES IDX 41 79 42 80 47 81 43 82 44 83 46 84 48 85 45 86
REMARK H PARENT 11 6 72 18 15 29 65 48 39 59
REMARK Flexibility Score: inf
ROOT
ATOM      1  C   UNL     1       0.121  -1.010  -3.968  1.00  0.00     0.042 C 
ENDROOT
BRANCH   1   2
ATOM      2  C   UNL     1       0.595  -1.873  -2.778  1.00  0.00     0.118 C 
BRANCH   2   3
ATOM      3  N   UNL     1       1.986  -1.715  -2.399  1.00  0.00    -0.352 N 
ATOM      4  C   UNL     1       2.601  -1.275  -1.257  1.00  0.00     0.251 C 
ATOM      5  O   UNL     1       3.829  -1.374  -1.184  1.00  0.00    -0.269 OA
ATOM      6  H   UNL     1       2.617  -1.978  -3.107  1.00  0.00     0.163 HD
BRANCH   4   7
ATOM      7  C   UNL     1       1.878  -0.772  -0.065  1.00  0.00     0.046 A 
ATOM      8  C   UNL     1       1.329   0.522   0.103  1.00  0.00     0.002 A 
ATOM      9  C   UNL     1       0.885   0.853   1.418  1.00  0.00     0.008 A 
ATOM     10  C   UNL     1       1.009  -0.015   2.505  1.00  0.00     0.000 A 
ATOM     11  C   UNL     1       1.999  -1.640   1.047  1.00  0.00     0.014 A 
ATOM     12  C   UNL     1       1.569  -1.266   2.319  1.00  0.00     0.001 A 
BRANCH   8  13
ATOM     13  C   UNL     1       1.127   1.612  -0.963  1.00  0.00     0.129 C 
ATOM     14  C   UNL     1      -0.378   1.676  -1.296  1.00  0.00     0.054 C 
ATOM     15  N   UNL     1       1.596   2.928  -0.475  1.00  0.00    -0.288 NA
ATOM     16  S   UNL     1       2.005   1.431  -2.525  1.00  0.00    -0.070 SA
ATOM     17  N   UNL     1       2.616   3.539  -1.158  1.00  0.00    -0.171 NA
ATOM     18  H   UNL     1       1.189   3.351   0.315  1.00  0.00     0.185 HD
ATOM     19  C   UNL     1       2.953   2.841  -2.196  1.00  0.00     0.126 C 
BRANCH  19  20
ATOM     20  C   UNL     1       4.093   3.101  -3.086  1.00  0.00     0.009 A 
ATOM     21  C   UNL     1       5.328   3.408  -2.513  1.00  0.00     0.011 A 
ATOM     22  C   UNL     1       3.989   2.897  -4.471  1.00  0.00     0.011 A 
ATOM     23  C   UNL     1       6.467   3.450  -3.318  1.00  0.00     0.001 A 
ATOM     24  C   UNL     1       5.129   2.943  -5.270  1.00  0.00     0.001 A 
ATOM     25  C   UNL     1       6.369   3.205  -4.690  1.00  0.00     0.000 A 
ENDBRANCH  19  20
ENDBRANCH   8  13
ENDBRANCH   4   7
ENDBRANCH   2   3
ENDBRANCH   1   2
BRANCH   1  26
ATOM     26  C   UNL     1       1.105  -0.797  -5.134  1.00  0.00     0.118 C 
BRANCH  26  27
ATOM     27  N   UNL     1       0.525  -1.235  -6.394  1.00  0.00    -0.352 N 
ATOM     28  C   UNL     1       0.062  -0.566  -7.495  1.00  0.00     0.251 C 
ATOM     29  H   UNL     1       0.449  -2.214  -6.470  1.00  0.00     0.163 HD
ATOM     30  O   UNL     1      -0.636  -1.205  -8.286  1.00  0.00    -0.269 OA
BRANCH  28  31
ATOM     31  C   UNL     1       0.365   0.857  -7.822  1.00  0.00     0.039 A 
ATOM     32  C   UNL     1      -0.599   1.554  -8.569  1.00  0.00     0.014 A 
ATOM     33  C   UNL     1       1.612   1.456  -7.621  1.00  0.00     0.014 A 
ATOM     34  C   UNL     1      -0.316   2.806  -9.133  1.00  0.00     0.010 A 
ATOM     35  C   UNL     1       1.886   2.731  -8.162  1.00  0.00     0.010 A 
ATOM     36  C   UNL     1       0.938   3.405  -8.953  1.00  0.00    -0.014 A 
BRANCH  36  37
ATOM     37  C   UNL     1       1.257   4.683  -9.661  1.00  0.00     0.031 A 
ATOM     38  C   UNL     1       2.204   4.701 -10.837  1.00  0.00     0.074 A 
ATOM     39  C   UNL     1       0.666   5.838  -9.295  1.00  0.00     0.049 A 
ATOM     40  N   UNL     1       2.563   5.708 -11.599  1.00  0.00    -0.248 NA
ATOM     41  C   UNL     1       2.834   3.424 -11.200  1.00  0.00     0.031 C 
ATOM     42  C   UNL     1      -0.272   5.994  -8.185  1.00  0.00     0.029 A 
ATOM     43  N   UNL     1       0.763   7.102  -9.830  1.00  0.00    -0.354 N 
ATOM     44  C   UNL     1       3.466   5.191 -12.519  1.00  0.00     0.074 A 
ATOM     45  C   UNL     1       3.622   3.785 -12.204  1.00  0.00     0.031 C 
ATOM     46  C   UNL     1      -0.677   7.275  -8.131  1.00  0.00     0.029 A 
ATOM     47  C   UNL     1      -0.018   8.035  -9.192  1.00  0.00     0.049 A 
ATOM     48  H   UNL     1       1.339   7.318 -10.599  1.00  0.00     0.167 HD
ATOM     49  C   UNL     1       4.100   5.815 -13.543  1.00  0.00     0.037 A 
ATOM     50  C   UNL     1      -0.192   9.350  -9.430  1.00  0.00     0.037 A 
ATOM     51  C   UNL     1       3.938   7.200 -13.902  1.00  0.00     0.049 A 
ATOM     52  C   UNL     1       0.517  10.020 -10.574  1.00  0.00     0.074 A 
ATOM     53  C   UNL     1       4.515   7.892 -14.956  1.00  0.00     0.029 A 
ATOM     54  N   UNL     1       3.139   8.105 -13.225  1.00  0.00    -0.354 N 
ATOM     55  N   UNL     1       1.336   9.503 -11.454  1.00  0.00    -0.248 NA
ATOM     56  C   UNL     1       0.267  11.459 -10.759  1.00  0.00     0.031 C 
ATOM     57  C   UNL     1       4.082   9.222 -14.902  1.00  0.00     0.029 A 
ATOM     58  C   UNL     1       3.216   9.350 -13.830  1.00  0.00     0.049 A 
ATOM     59  H   UNL     1       2.595   7.896 -12.431  1.00  0.00     0.167 HD
ATOM     60  C   UNL     1       1.681  10.544 -12.308  1.00  0.00     0.074 A 
ATOM     61  C   UNL     1       0.977  11.721 -11.848  1.00  0.00     0.031 C 
ATOM     62  C   UNL     1       2.509  10.519 -13.380  1.00  0.00     0.037 A 
BRANCH  49  63
ATOM     63  C   UNL     1       5.047   4.995 -14.367  1.00  0.00     0.057 A 
ATOM     64  C   UNL     1       4.585   4.094 -15.334  1.00  0.00     0.134 A 
ATOM     65  C   UNL     1       6.432   5.148 -14.229  1.00  0.00     0.134 A 
ATOM     66  F   UNL     1       3.270   3.900 -15.510  1.00  0.00    -0.206 F 
ATOM     67  C   UNL     1       5.471   3.358 -16.124  1.00  0.00     0.040 A 
ATOM     68  C   UNL     1       7.327   4.431 -15.025  1.00  0.00     0.040 A 
ATOM     69  F   UNL     1       6.936   6.003 -13.327  1.00  0.00    -0.206 F 
ATOM     70  C   UNL     1       6.846   3.530 -15.974  1.00  0.00     0.006 A 
ENDBRANCH  49  63
BRANCH  50  71
ATOM     71  C   UNL     1      -1.109  10.137  -8.570  1.00  0.00     0.057 A 
ATOM     72  C   UNL     1      -2.367  10.537  -9.034  1.00  0.00     0.134 A 
ATOM     73  C   UNL     1      -0.737  10.526  -7.279  1.00  0.00     0.134 A 
ATOM     74  F   UNL     1      -2.762  10.215 -10.274  1.00  0.00    -0.206 F 
ATOM     75  C   UNL     1      -3.223  11.306  -8.245  1.00  0.00     0.040 A 
ATOM     76  C   UNL     1      -1.590  11.281  -6.473  1.00  0.00     0.040 A 
ATOM     77  F   UNL     1       0.459  10.176  -6.784  1.00  0.00    -0.206 F 
ATOM     78  C   UNL     1      -2.836  11.677  -6.958  1.00  0.00     0.006 A 
ENDBRANCH  50  71
BRANCH  62  79
ATOM     79  C   UNL     1       2.680  11.794 -14.150  1.00  0.00     0.057 A 
ATOM     80  C   UNL     1       3.485  12.837 -13.676  1.00  0.00     0.134 A 
ATOM     81  C   UNL     1       2.055  11.970 -15.391  1.00  0.00     0.134 A 
ATOM     82  F   UNL     1       4.100  12.735 -12.488  1.00  0.00    -0.206 F 
ATOM     83  C   UNL     1       3.651  14.017 -14.404  1.00  0.00     0.040 A 
ATOM     84  C   UNL     1       2.226  13.139 -16.135  1.00  0.00     0.040 A 
ATOM     85  F   UNL     1       1.273  11.007 -15.902  1.00  0.00    -0.206 F 
ATOM     86  C   UNL     1       3.024  14.168 -15.639  1.00  0.00     0.006 A 
ENDBRANCH  62  79
ENDBRANCH  36  37
ENDBRANCH  28  31
ENDBRANCH  26  27
ENDBRANCH   1  26
TORSDOF 12
