REMARK SMILES C=CCOc1ccccc1/C=C/c1cc(C(=O)NCCCNC(=O)c2ccc(-c3c4nc(c(-c5c(F)cccc5F)c5ccc([nH]5)c(-c5c(F)cccc5F)c5nc(c(-c6c(F)cccc6F)c6ccc3[nH]6)C=C5)C=C4)cc2)ncn1
REMARK SMILES IDX 16 1 17 2 18 3 15 5 13 6 14 7 81 8 80 9 79 10 12 11 11 12
REMARK SMILES IDX 10 13 5 14 6 15 7 16 9 17 8 18 4 19 3 20 2 21 1 22 19 23
REMARK SMILES IDX 20 24 21 25 22 26 23 27 24 29 25 30 26 31 78 32 27 33 77 34
REMARK SMILES IDX 28 35 29 36 30 37 71 38 31 39 76 40 70 41 72 42 32 43 75 44
REMARK SMILES IDX 69 45 68 46 33 48 59 49 42 50 58 51 43 52 46 53 57 54 73 55
REMARK SMILES IDX 44 56 45 57 56 59 74 60 47 61 34 62 35 63 40 64 36 65 37 66
REMARK SMILES IDX 39 67 41 68 38 69 60 70 61 71 66 72 62 73 63 74 65 75 67 76
REMARK SMILES IDX 64 77 48 78 49 79 54 80 50 81 51 82 53 83 55 84 52 85
REMARK H PARENT 18 4 22 28 72 47 46 58
REMARK Flexibility Score: inf
ROOT
ATOM      1  C   UNL     1       4.969  -0.278   3.204  1.00  0.00     0.270 C 
ATOM      2  O   UNL     1       6.047   0.145   3.623  1.00  0.00    -0.268 OA
ATOM      3  N   UNL     1       3.964  -0.474   4.131  1.00  0.00    -0.351 N 
ATOM      4  H   UNL     1       4.245  -0.324   5.063  1.00  0.00     0.163 HD
ENDROOT
BRANCH   1   5
ATOM      5  C   UNL     1       4.777  -0.524   1.737  1.00  0.00     0.132 A 
ATOM      6  C   UNL     1       3.724  -1.543  -0.083  1.00  0.00     0.067 A 
ATOM      7  C   UNL     1       3.988  -1.546   1.269  1.00  0.00     0.062 A 
ATOM      8  N   UNL     1       4.352  -0.717  -0.938  1.00  0.00    -0.237 NA
ATOM      9  C   UNL     1       5.194   0.170  -0.391  1.00  0.00     0.223 A 
ATOM     10  N   UNL     1       5.415   0.338   0.916  1.00  0.00    -0.231 NA
BRANCH   6  11
ATOM     11  C   UNL     1       2.644  -2.351  -0.670  1.00  0.00     0.029 C 
ATOM     12  C   UNL     1       1.537  -2.663   0.026  1.00  0.00     0.014 C 
BRANCH  12  13
ATOM     13  C   UNL     1       0.290  -3.233  -0.508  1.00  0.00     0.017 A 
ATOM     14  C   UNL     1      -0.940  -2.860   0.069  1.00  0.00     0.126 A 
ATOM     15  C   UNL     1      -2.143  -3.423  -0.361  1.00  0.00     0.047 A 
ATOM     16  C   UNL     1      -2.134  -4.346  -1.404  1.00  0.00     0.004 A 
ATOM     17  C   UNL     1       0.281  -4.167  -1.549  1.00  0.00     0.012 A 
ATOM     18  C   UNL     1      -0.926  -4.713  -1.999  1.00  0.00     0.001 A 
BRANCH  14  19
ATOM     19  O   UNL     1      -0.981  -1.962   1.113  1.00  0.00    -0.489 OA
BRANCH  19  20
ATOM     20  C   UNL     1      -1.280  -0.639   0.644  1.00  0.00     0.257 C 
BRANCH  20  21
ATOM     21  C   UNL     1      -0.106   0.250   0.940  1.00  0.00     0.006 C 
ATOM     22  C   UNL     1       0.635   0.860   0.005  1.00  0.00     0.007 C 
ENDBRANCH  20  21
ENDBRANCH  19  20
ENDBRANCH  14  19
ENDBRANCH  12  13
ENDBRANCH   6  11
ENDBRANCH   1   5
BRANCH   3  23
ATOM     23  C   UNL     1       2.568  -0.861   3.990  1.00  0.00     0.118 C 
BRANCH  23  24
ATOM     24  C   UNL     1       2.345  -2.323   4.380  1.00  0.00     0.042 C 
BRANCH  24  25
ATOM     25  C   UNL     1       2.391  -2.577   5.885  1.00  0.00     0.118 C 
BRANCH  25  26
ATOM     26  N   UNL     1       1.219  -2.055   6.569  1.00  0.00    -0.352 N 
ATOM     27  C   UNL     1       0.343  -2.671   7.425  1.00  0.00     0.251 C 
ATOM     28  H   UNL     1       1.024  -1.107   6.389  1.00  0.00     0.163 HD
ATOM     29  O   UNL     1      -0.690  -2.082   7.743  1.00  0.00    -0.269 OA
BRANCH  27  30
ATOM     30  C   UNL     1       0.602  -4.027   7.964  1.00  0.00     0.039 A 
ATOM     31  C   UNL     1      -0.487  -4.889   8.140  1.00  0.00     0.014 A 
ATOM     32  C   UNL     1       1.877  -4.439   8.362  1.00  0.00     0.014 A 
ATOM     33  C   UNL     1      -0.294  -6.165   8.674  1.00  0.00     0.010 A 
ATOM     34  C   UNL     1       2.080  -5.738   8.834  1.00  0.00     0.010 A 
ATOM     35  C   UNL     1       0.995  -6.609   9.006  1.00  0.00    -0.014 A 
BRANCH  35  36
ATOM     36  C   UNL     1       1.208  -7.981   9.533  1.00  0.00     0.031 A 
ATOM     37  C   UNL     1       1.683  -8.199  10.943  1.00  0.00     0.074 A 
ATOM     38  C   UNL     1       1.008  -9.039   8.725  1.00  0.00     0.049 A 
ATOM     39  N   UNL     1       1.909  -9.325  11.575  1.00  0.00    -0.248 NA
ATOM     40  C   UNL     1       1.968  -6.997  11.740  1.00  0.00     0.031 C 
ATOM     41  C   UNL     1       0.610  -8.963   7.318  1.00  0.00     0.029 A 
ATOM     42  N   UNL     1       1.115 -10.385   8.968  1.00  0.00    -0.354 N 
ATOM     43  C   UNL     1       2.375  -8.967  12.833  1.00  0.00     0.074 A 
ATOM     44  C   UNL     1       2.445  -7.521  12.860  1.00  0.00     0.031 C 
ATOM     45  C   UNL     1       0.481 -10.207   6.831  1.00  0.00     0.029 A 
ATOM     46  C   UNL     1       0.805 -11.166   7.883  1.00  0.00     0.049 A 
ATOM     47  H   UNL     1       1.387 -10.756   9.839  1.00  0.00     0.167 HD
ATOM     48  C   UNL     1       2.696  -9.767  13.878  1.00  0.00     0.037 A 
ATOM     49  C   UNL     1       0.775 -12.505   7.750  1.00  0.00     0.037 A 
ATOM     50  C   UNL     1       2.600 -11.203  13.862  1.00  0.00     0.049 A 
ATOM     51  C   UNL     1       1.088 -13.373   8.934  1.00  0.00     0.074 A 
ATOM     52  C   UNL     1       2.832 -12.097  14.894  1.00  0.00     0.029 A 
ATOM     53  N   UNL     1       2.246 -11.957  12.753  1.00  0.00    -0.354 N 
ATOM     54  N   UNL     1       1.445 -13.019  10.144  1.00  0.00    -0.248 NA
ATOM     55  C   UNL     1       0.979 -14.825   8.739  1.00  0.00     0.031 C 
ATOM     56  C   UNL     1       2.650 -13.394  14.399  1.00  0.00     0.029 A 
ATOM     57  C   UNL     1       2.268 -13.306  13.070  1.00  0.00     0.049 A 
ATOM     58  H   UNL     1       2.013 -11.588  11.871  1.00  0.00     0.167 HD
ATOM     59  C   UNL     1       1.583 -14.200  10.861  1.00  0.00     0.074 A 
ATOM     60  C   UNL     1       1.258 -15.281   9.953  1.00  0.00     0.031 C 
ATOM     61  C   UNL     1       1.943 -14.371  12.156  1.00  0.00     0.037 A 
BRANCH  48  62
ATOM     62  C   UNL     1       3.182  -9.097  15.131  1.00  0.00     0.057 A 
ATOM     63  C   UNL     1       2.322  -8.355  15.953  1.00  0.00     0.134 A 
ATOM     64  C   UNL     1       4.520  -9.206  15.529  1.00  0.00     0.134 A 
ATOM     65  F   UNL     1       1.031  -8.202  15.623  1.00  0.00    -0.206 F 
ATOM     66  C   UNL     1       2.783  -7.718  17.106  1.00  0.00     0.040 A 
ATOM     67  C   UNL     1       4.987  -8.595  16.694  1.00  0.00     0.040 A 
ATOM     68  F   UNL     1       5.395  -9.908  14.793  1.00  0.00    -0.206 F 
ATOM     69  C   UNL     1       4.120  -7.840  17.482  1.00  0.00     0.006 A 
ENDBRANCH  48  62
BRANCH  49  70
ATOM     70  C   UNL     1       0.380 -13.099   6.450  1.00  0.00     0.057 A 
ATOM     71  C   UNL     1      -0.882 -13.678   6.277  1.00  0.00     0.134 A 
ATOM     72  C   UNL     1       1.236 -13.069   5.343  1.00  0.00     0.134 A 
ATOM     73  F   UNL     1      -1.739 -13.748   7.307  1.00  0.00    -0.206 F 
ATOM     74  C   UNL     1      -1.278 -14.213   5.051  1.00  0.00     0.040 A 
ATOM     75  C   UNL     1       0.846 -13.583   4.106  1.00  0.00     0.040 A 
ATOM     76  F   UNL     1       2.455 -12.518   5.445  1.00  0.00    -0.206 F 
ATOM     77  C   UNL     1      -0.414 -14.160   3.958  1.00  0.00     0.006 A 
ENDBRANCH  49  70
BRANCH  61  78
ATOM     78  C   UNL     1       1.984 -15.778  12.674  1.00  0.00     0.057 A 
ATOM     79  C   UNL     1       3.010 -16.663  12.321  1.00  0.00     0.134 A 
ATOM     80  C   UNL     1       1.003 -16.241  13.559  1.00  0.00     0.134 A 
ATOM     81  F   UNL     1       3.973 -16.284  11.467  1.00  0.00    -0.206 F 
ATOM     82  C   UNL     1       3.047 -17.968  12.815  1.00  0.00     0.040 A 
ATOM     83  C   UNL     1       1.041 -17.537  14.076  1.00  0.00     0.040 A 
ATOM     84  F   UNL     1      -0.004 -15.440  13.940  1.00  0.00    -0.206 F 
ATOM     85  C   UNL     1       2.063 -18.406  13.700  1.00  0.00     0.006 A 
ENDBRANCH  61  78
ENDBRANCH  35  36
ENDBRANCH  27  30
ENDBRANCH  25  26
ENDBRANCH  24  25
ENDBRANCH  23  24
ENDBRANCH   3  23
TORSDOF 15
