REMARK SMILES O=C(NCCCNC(=O)[C@H](F)[C@H](O)C1CCOCC1)c1ccc(-c2c3nc(c(-c4c(F)cccc4F)c4ccc([nH]4)c(-c4c(F)cccc4F)c4nc(c(-c5c(F)cccc5F)c5ccc2[nH]5)C=C4)C=C3)cc1
REMARK SMILES IDX 5 1 4 2 3 3 1 4 2 5 20 7 21 8 73 9 22 10 72 11 23 12 24 13
REMARK SMILES IDX 25 14 66 15 26 16 71 17 65 18 67 19 27 20 70 21 64 22 63 23
REMARK SMILES IDX 28 25 54 26 37 27 53 28 38 29 41 30 52 31 68 32 39 33 40 34
REMARK SMILES IDX 51 36 69 37 42 38 29 39 30 40 35 41 31 42 32 43 34 44 36 45
REMARK SMILES IDX 33 46 55 47 56 48 61 49 57 50 58 51 60 52 62 53 59 54 43 55
REMARK SMILES IDX 44 56 49 57 45 58 46 59 48 60 50 61 47 62 6 63 7 64 8 65
REMARK SMILES IDX 9 67 10 68 11 69 12 70 14 71 15 72 19 73 16 74 18 75 17 76
REMARK SMILES IDX 13 77
REMARK H PARENT 3 6 67 24 41 35 7 66 13 78
REMARK Flexibility Score: inf
ROOT
ATOM      1  C   UNL     1       1.770   5.064  -0.218  1.00  0.00     0.042 C 
ENDROOT
BRANCH   1   2
ATOM      2  C   UNL     1       0.522   5.776  -0.714  1.00  0.00     0.118 C 
BRANCH   2   3
ATOM      3  N   UNL     1       0.773   6.640  -1.866  1.00  0.00    -0.352 N 
ATOM      4  O   UNL     1       1.107   7.198  -4.025  1.00  0.00    -0.269 OA
ATOM      5  C   UNL     1       0.645   6.404  -3.219  1.00  0.00     0.251 C 
ATOM      6  H   UNL     1       1.087   7.544  -1.637  1.00  0.00     0.163 HD
BRANCH   5   7
ATOM      7  C   UNL     1      -0.031   5.176  -3.689  1.00  0.00     0.039 A 
ATOM      8  C   UNL     1      -1.155   4.709  -3.018  1.00  0.00     0.014 A 
ATOM      9  C   UNL     1       0.443   4.493  -4.813  1.00  0.00     0.014 A 
ATOM     10  C   UNL     1      -1.657   3.454  -3.305  1.00  0.00     0.010 A 
ATOM     11  C   UNL     1      -0.176   3.302  -5.212  1.00  0.00     0.010 A 
ATOM     12  C   UNL     1      -1.214   2.761  -4.440  1.00  0.00    -0.014 A 
BRANCH  12  13
ATOM     13  C   UNL     1      -1.969   1.550  -4.841  1.00  0.00     0.031 A 
ATOM     14  C   UNL     1      -1.321   0.200  -4.899  1.00  0.00     0.074 A 
ATOM     15  C   UNL     1      -3.288   1.697  -5.083  1.00  0.00     0.049 A 
ATOM     16  N   UNL     1      -1.864  -0.951  -5.203  1.00  0.00    -0.248 NA
ATOM     17  C   UNL     1       0.115   0.122  -4.590  1.00  0.00     0.031 C 
ATOM     18  C   UNL     1      -4.008   2.977  -5.063  1.00  0.00     0.029 A 
ATOM     19  N   UNL     1      -4.266   0.778  -5.350  1.00  0.00    -0.354 N 
ATOM     20  C   UNL     1      -0.834  -1.882  -5.159  1.00  0.00     0.074 A 
ATOM     21  C   UNL     1       0.369  -1.165  -4.798  1.00  0.00     0.031 C 
ATOM     22  C   UNL     1      -5.317   2.753  -5.225  1.00  0.00     0.029 A 
ATOM     23  C   UNL     1      -5.518   1.333  -5.467  1.00  0.00     0.049 A 
ATOM     24  H   UNL     1      -4.091  -0.185  -5.448  1.00  0.00     0.167 HD
ATOM     25  C   UNL     1      -0.901  -3.211  -5.405  1.00  0.00     0.037 A 
ATOM     26  C   UNL     1      -6.699   0.769  -5.776  1.00  0.00     0.037 A 
ATOM     27  C   UNL     1      -2.119  -3.911  -5.727  1.00  0.00     0.049 A 
ATOM     28  C   UNL     1      -6.731  -0.701  -6.048  1.00  0.00     0.074 A 
ATOM     29  C   UNL     1      -2.304  -5.267  -5.934  1.00  0.00     0.029 A 
ATOM     30  N   UNL     1      -3.357  -3.308  -5.890  1.00  0.00    -0.354 N 
ATOM     31  N   UNL     1      -5.752  -1.571  -5.979  1.00  0.00    -0.248 NA
ATOM     32  C   UNL     1      -8.018  -1.267  -6.466  1.00  0.00     0.031 C 
ATOM     33  C   UNL     1      -3.645  -5.478  -6.268  1.00  0.00     0.029 A 
ATOM     34  C   UNL     1      -4.305  -4.260  -6.230  1.00  0.00     0.049 A 
ATOM     35  H   UNL     1      -3.537  -2.346  -5.782  1.00  0.00     0.167 HD
ATOM     36  C   UNL     1      -6.301  -2.785  -6.356  1.00  0.00     0.074 A 
ATOM     37  C   UNL     1      -7.708  -2.547  -6.613  1.00  0.00     0.031 C 
ATOM     38  C   UNL     1      -5.693  -3.988  -6.495  1.00  0.00     0.037 A 
BRANCH  25  39
ATOM     39  C   UNL     1       0.372  -4.004  -5.367  1.00  0.00     0.057 A 
ATOM     40  C   UNL     1       0.989  -4.365  -4.163  1.00  0.00     0.134 A 
ATOM     41  C   UNL     1       0.938  -4.487  -6.554  1.00  0.00     0.134 A 
ATOM     42  F   UNL     1       0.504  -3.926  -2.992  1.00  0.00    -0.206 F 
ATOM     43  C   UNL     1       2.125  -5.178  -4.142  1.00  0.00     0.040 A 
ATOM     44  C   UNL     1       2.062  -5.315  -6.545  1.00  0.00     0.040 A 
ATOM     45  F   UNL     1       0.394  -4.180  -7.741  1.00  0.00    -0.206 F 
ATOM     46  C   UNL     1       2.658  -5.664  -5.335  1.00  0.00     0.006 A 
ENDBRANCH  25  39
BRANCH  26  47
ATOM     47  C   UNL     1      -7.912   1.614  -5.906  1.00  0.00     0.057 A 
ATOM     48  C   UNL     1      -8.980   1.501  -5.011  1.00  0.00     0.134 A 
ATOM     49  C   UNL     1      -8.021   2.571  -6.924  1.00  0.00     0.134 A 
ATOM     50  F   UNL     1      -8.941   0.594  -4.024  1.00  0.00    -0.206 F 
ATOM     51  C   UNL     1     -10.118   2.301  -5.130  1.00  0.00     0.040 A 
ATOM     52  C   UNL     1      -9.138   3.399  -7.036  1.00  0.00     0.040 A 
ATOM     53  F   UNL     1      -7.026   2.735  -7.809  1.00  0.00    -0.206 F 
ATOM     54  C   UNL     1     -10.195   3.259  -6.140  1.00  0.00     0.006 A 
ENDBRANCH  26  47
BRANCH  38  55
ATOM     55  C   UNL     1      -6.558  -5.120  -6.953  1.00  0.00     0.057 A 
ATOM     56  C   UNL     1      -6.984  -5.219  -8.283  1.00  0.00     0.134 A 
ATOM     57  C   UNL     1      -6.960  -6.122  -6.062  1.00  0.00     0.134 A 
ATOM     58  F   UNL     1      -6.645  -4.277  -9.177  1.00  0.00    -0.206 F 
ATOM     59  C   UNL     1      -7.800  -6.266  -8.708  1.00  0.00     0.040 A 
ATOM     60  C   UNL     1      -7.757  -7.186  -6.480  1.00  0.00     0.040 A 
ATOM     61  F   UNL     1      -6.581  -6.082  -4.776  1.00  0.00    -0.206 F 
ATOM     62  C   UNL     1      -8.184  -7.257  -7.806  1.00  0.00     0.006 A 
ENDBRANCH  38  55
ENDBRANCH  12  13
ENDBRANCH   5   7
ENDBRANCH   2   3
ENDBRANCH   1   2
BRANCH   1  63
ATOM     63  C   UNL     1       2.780   6.009   0.394  1.00  0.00     0.117 C 
BRANCH  63  64
ATOM     64  N   UNL     1       2.321   6.660   1.600  1.00  0.00    -0.353 N 
ATOM     65  C   UNL     1       2.998   7.156   2.671  1.00  0.00     0.257 C 
ATOM     66  H   UNL     1       1.343   6.763   1.657  1.00  0.00     0.163 HD
ATOM     67  O   UNL     1       2.314   7.845   3.439  1.00  0.00    -0.272 OA
BRANCH  65  68
ATOM     68  C   UNL     1       4.451   6.801   3.016  1.00  0.00     0.283 C 
ATOM     69  F   UNL     1       4.874   7.572   4.075  1.00  0.00    -0.234 F 
BRANCH  68  70
ATOM     70  C   UNL     1       5.556   6.846   1.945  1.00  0.00     0.161 C 
BRANCH  70  71
ATOM     71  C   UNL     1       5.881   8.185   1.244  1.00  0.00     0.026 C 
ATOM     72  C   UNL     1       5.984   9.393   2.179  1.00  0.00     0.035 C 
ATOM     73  C   UNL     1       4.915   8.518   0.102  1.00  0.00     0.035 C 
ATOM     74  C   UNL     1       6.322  10.648   1.377  1.00  0.00     0.160 C 
ATOM     75  C   UNL     1       5.299   9.817  -0.591  1.00  0.00     0.160 C 
ATOM     76  O   UNL     1       5.352  10.879   0.354  1.00  0.00    -0.381 OA
ENDBRANCH  70  71
BRANCH  70  77
ATOM     77  O   UNL     1       6.769   6.363   2.566  1.00  0.00    -0.389 OA
ATOM     78  H   UNL     1       7.037   6.973   3.271  1.00  0.00     0.211 HD
ENDBRANCH  70  77
ENDBRANCH  68  70
ENDBRANCH  65  68
ENDBRANCH  63  64
ENDBRANCH   1  63
TORSDOF 13
