REMARK SMILES Cc1cccc(-c2cc(C(=O)NCCCNC(=O)c3ccc(-c4c5nc(c(-c6c(F)cccc6F)c6ccc([nH]6)c(-c6c(F)cccc6F)c6nc(c(-c7c(F)cccc7F)c7ccc4[nH]7)C=C6)C=C5)cc3)ccn2)c1
REMARK SMILES IDX 14 1 13 2 12 3 10 4 11 5 9 7 7 8 8 9 75 10 74 11 73 12 6 13
REMARK SMILES IDX 1 14 2 15 3 16 76 17 4 18 5 19 15 20 16 21 17 22 18 24 19 25
REMARK SMILES IDX 20 26 72 27 21 28 71 29 22 30 23 31 24 32 65 33 25 34 70 35
REMARK SMILES IDX 64 36 66 37 26 38 69 39 63 40 62 41 27 43 53 44 36 45 52 46
REMARK SMILES IDX 37 47 40 48 51 49 67 50 38 51 39 52 50 54 68 55 41 56 28 57
REMARK SMILES IDX 29 58 34 59 30 60 31 61 33 62 35 63 32 64 54 65 55 66 60 67
REMARK SMILES IDX 56 68 57 69 59 70 61 71 58 72 42 73 43 74 48 75 44 76 45 77
REMARK SMILES IDX 47 78 49 79 46 80
REMARK H PARENT 12 6 16 23 66 42 40 53
REMARK Flexibility Score: inf
ROOT
ATOM      1  C   UNL     1      -0.396   3.128  -3.784  1.00  0.00     0.042 C 
ENDROOT
BRANCH   1   2
ATOM      2  C   UNL     1      -0.037   4.444  -3.082  1.00  0.00     0.118 C 
BRANCH   2   3
ATOM      3  N   UNL     1      -1.191   5.322  -2.920  1.00  0.00    -0.352 N 
ATOM      4  C   UNL     1      -2.173   5.424  -1.958  1.00  0.00     0.251 C 
ATOM      5  O   UNL     1      -2.958   6.369  -2.055  1.00  0.00    -0.269 OA
ATOM      6  H   UNL     1      -1.288   5.978  -3.648  1.00  0.00     0.163 HD
BRANCH   4   7
ATOM      7  C   UNL     1      -2.343   4.479  -0.816  1.00  0.00     0.043 A 
ATOM      8  C   UNL     1      -1.968   2.394   0.340  1.00  0.00     0.071 A 
ATOM      9  C   UNL     1      -1.767   3.223  -0.759  1.00  0.00     0.042 A 
ATOM     10  N   UNL     1      -2.769   2.740   1.365  1.00  0.00    -0.256 NA
ATOM     11  C   UNL     1      -3.351   3.960   1.295  1.00  0.00     0.112 A 
ATOM     12  C   UNL     1      -3.167   4.852   0.247  1.00  0.00     0.034 A 
BRANCH   8  13
ATOM     13  C   UNL     1      -1.256   1.112   0.392  1.00  0.00     0.000 A 
ATOM     14  C   UNL     1       2.363  -0.089   0.078  1.00  0.00     0.044 C 
ATOM     15  C   UNL     1       0.867  -0.100   0.190  1.00  0.00    -0.050 A 
ATOM     16  C   UNL     1       0.161  -1.306   0.165  1.00  0.00     0.003 A 
ATOM     17  C   UNL     1       0.152   1.096   0.314  1.00  0.00     0.013 A 
ATOM     18  C   UNL     1      -1.232  -1.311   0.269  1.00  0.00     0.001 A 
ATOM     19  C   UNL     1      -1.937  -0.110   0.385  1.00  0.00     0.010 A 
ENDBRANCH   8  13
ENDBRANCH   4   7
ENDBRANCH   2   3
ENDBRANCH   1   2
BRANCH   1  20
ATOM     20  C   UNL     1      -0.125   3.122  -5.278  1.00  0.00     0.118 C 
BRANCH  20  21
ATOM     21  N   UNL     1       1.069   2.370  -5.662  1.00  0.00    -0.352 N 
ATOM     22  C   UNL     1       1.629   2.257  -6.927  1.00  0.00     0.251 C 
ATOM     23  H   UNL     1       1.530   1.887  -4.938  1.00  0.00     0.163 HD
ATOM     24  O   UNL     1       2.653   1.631  -7.118  1.00  0.00    -0.269 OA
BRANCH  22  25
ATOM     25  C   UNL     1       0.994   3.033  -8.016  1.00  0.00     0.039 A 
ATOM     26  C   UNL     1       1.739   4.075  -8.572  1.00  0.00     0.014 A 
ATOM     27  C   UNL     1      -0.385   2.945  -8.203  1.00  0.00     0.014 A 
ATOM     28  C   UNL     1       1.064   5.174  -9.087  1.00  0.00     0.010 A 
ATOM     29  C   UNL     1      -1.056   4.073  -8.636  1.00  0.00     0.010 A 
ATOM     30  C   UNL     1      -0.329   5.214  -8.995  1.00  0.00    -0.014 A 
BRANCH  30  31
ATOM     31  C   UNL     1      -1.071   6.465  -9.105  1.00  0.00     0.031 A 
ATOM     32  C   UNL     1      -1.820   6.787 -10.331  1.00  0.00     0.074 A 
ATOM     33  C   UNL     1      -1.069   7.336  -8.071  1.00  0.00     0.049 A 
ATOM     34  N   UNL     1      -2.049   7.984 -10.755  1.00  0.00    -0.248 NA
ATOM     35  C   UNL     1      -2.322   5.751 -11.220  1.00  0.00     0.031 C 
ATOM     36  C   UNL     1      -1.891   8.533  -7.917  1.00  0.00     0.029 A 
ATOM     37  N   UNL     1      -0.128   7.421  -7.034  1.00  0.00    -0.354 N 
ATOM     38  C   UNL     1      -2.958   7.895 -11.786  1.00  0.00     0.074 A 
ATOM     39  C   UNL     1      -3.011   6.485 -12.098  1.00  0.00     0.031 C 
ATOM     40  C   UNL     1      -1.271   9.374  -7.075  1.00  0.00     0.029 A 
ATOM     41  C   UNL     1       0.027   8.798  -6.767  1.00  0.00     0.049 A 
ATOM     42  H   UNL     1       0.330   6.674  -6.585  1.00  0.00     0.167 HD
ATOM     43  C   UNL     1      -3.670   9.005 -12.143  1.00  0.00     0.037 A 
ATOM     44  C   UNL     1       1.223   9.430  -6.930  1.00  0.00     0.037 A 
ATOM     45  C   UNL     1      -3.199  10.190 -11.419  1.00  0.00     0.049 A 
ATOM     46  C   UNL     1       1.181  10.582  -7.904  1.00  0.00     0.074 A 
ATOM     47  C   UNL     1      -3.689  10.869 -10.314  1.00  0.00     0.029 A 
ATOM     48  N   UNL     1      -1.908  10.670 -11.630  1.00  0.00    -0.354 N 
ATOM     49  N   UNL     1       0.245  10.747  -8.796  1.00  0.00    -0.248 NA
ATOM     50  C   UNL     1       2.210  11.616  -7.975  1.00  0.00     0.031 C 
ATOM     51  C   UNL     1      -2.670  11.726  -9.832  1.00  0.00     0.029 A 
ATOM     52  C   UNL     1      -1.562  11.580 -10.648  1.00  0.00     0.049 A 
ATOM     53  H   UNL     1      -1.324  10.399 -12.374  1.00  0.00     0.167 HD
ATOM     54  C   UNL     1       0.539  11.842  -9.569  1.00  0.00     0.074 A 
ATOM     55  C   UNL     1       1.763  12.368  -8.995  1.00  0.00     0.031 C 
ATOM     56  C   UNL     1      -0.247  12.208 -10.625  1.00  0.00     0.037 A 
BRANCH  43  57
ATOM     57  C   UNL     1      -5.006   8.954 -12.874  1.00  0.00     0.057 A 
ATOM     58  C   UNL     1      -5.965   9.974 -12.701  1.00  0.00     0.134 A 
ATOM     59  C   UNL     1      -5.454   7.897 -13.685  1.00  0.00     0.134 A 
ATOM     60  F   UNL     1      -5.667  11.128 -12.091  1.00  0.00    -0.206 F 
ATOM     61  C   UNL     1      -7.289   9.872 -13.153  1.00  0.00     0.040 A 
ATOM     62  C   UNL     1      -6.787   7.755 -14.103  1.00  0.00     0.040 A 
ATOM     63  F   UNL     1      -4.615   6.984 -14.182  1.00  0.00    -0.206 F 
ATOM     64  C   UNL     1      -7.720   8.737 -13.817  1.00  0.00     0.006 A 
ENDBRANCH  43  57
BRANCH  44  65
ATOM     65  C   UNL     1       2.402   8.553  -6.710  1.00  0.00     0.057 A 
ATOM     66  C   UNL     1       2.609   7.998  -5.435  1.00  0.00     0.134 A 
ATOM     67  C   UNL     1       3.116   7.992  -7.772  1.00  0.00     0.134 A 
ATOM     68  F   UNL     1       1.951   8.486  -4.372  1.00  0.00    -0.206 F 
ATOM     69  C   UNL     1       3.411   6.871  -5.240  1.00  0.00     0.040 A 
ATOM     70  C   UNL     1       3.930   6.868  -7.587  1.00  0.00     0.040 A 
ATOM     71  F   UNL     1       2.956   8.450  -9.021  1.00  0.00    -0.206 F 
ATOM     72  C   UNL     1       4.051   6.284  -6.326  1.00  0.00     0.006 A 
ENDBRANCH  44  65
BRANCH  56  73
ATOM     73  C   UNL     1       0.090  13.251 -11.666  1.00  0.00     0.057 A 
ATOM     74  C   UNL     1       1.395  13.606 -12.042  1.00  0.00     0.134 A 
ATOM     75  C   UNL     1      -0.933  13.852 -12.435  1.00  0.00     0.134 A 
ATOM     76  F   UNL     1       2.468  13.025 -11.490  1.00  0.00    -0.206 F 
ATOM     77  C   UNL     1       1.661  14.540 -13.054  1.00  0.00     0.040 A 
ATOM     78  C   UNL     1      -0.677  14.743 -13.482  1.00  0.00     0.040 A 
ATOM     79  F   UNL     1      -2.229  13.583 -12.219  1.00  0.00    -0.206 F 
ATOM     80  C   UNL     1       0.625  15.105 -13.784  1.00  0.00     0.006 A 
ENDBRANCH  56  73
ENDBRANCH  30  31
ENDBRANCH  22  25
ENDBRANCH  20  21
ENDBRANCH   1  20
TORSDOF 11
