REMARK SMILES C[NH+]1CCC([NH+]2CCC(Oc3ccc4ccccc4c3)(C(=O)NCCCNC(=O)c3ccc(-c4c5nc(c(-c6c(F)cccc6F)c6ccc([nH]6)c(-c6c(F)cccc6F)c6nc(c(-c7c(F)cccc7F)c7ccc4[nH]7)C=C6)C=C5)cc3)CC2)CC1
REMARK SMILES IDX 25 1 24 2 23 3 21 4 22 5 9 7 6 8 7 9 85 10 8 12 84 13 5 14
REMARK SMILES IDX 1 15 2 16 3 17 87 18 4 20 86 21 10 22 11 23 12 24 20 25
REMARK SMILES IDX 13 26 19 27 14 28 18 29 15 30 17 31 16 32 26 33 27 34 28 35
REMARK SMILES IDX 29 37 30 38 31 39 83 40 32 41 82 42 33 43 34 44 35 45 76 46
REMARK SMILES IDX 36 47 81 48 75 49 77 50 37 51 80 52 74 53 73 54 38 56 64 57
REMARK SMILES IDX 47 58 63 59 48 60 51 61 62 62 78 63 49 64 50 65 61 67 79 68
REMARK SMILES IDX 52 69 39 70 40 71 45 72 41 73 42 74 44 75 46 76 43 77 65 78
REMARK SMILES IDX 66 79 71 80 67 81 68 82 70 83 72 84 69 85 53 86 54 87 59 88
REMARK SMILES IDX 55 89 56 90 58 91 60 92 57 93
REMARK H PARENT 23 6 6 11 2 19 27 36 77 55 51 66
REMARK Flexibility Score: inf
ROOT
ATOM      1  C   UNL     1       4.786  -1.155   5.547  1.00  0.00     0.042 C 
ENDROOT
BRANCH   1   2
ATOM      2  C   UNL     1       5.876  -1.657   4.605  1.00  0.00     0.118 C 
BRANCH   2   3
ATOM      3  N   UNL     1       5.348  -2.509   3.553  1.00  0.00    -0.353 N 
ATOM      4  C   UNL     1       5.252  -2.312   2.203  1.00  0.00     0.264 C 
ATOM      5  O   UNL     1       4.862  -3.287   1.550  1.00  0.00    -0.270 OA
ATOM      6  H   UNL     1       5.000  -3.375   3.865  1.00  0.00     0.163 HD
BRANCH   4   7
ATOM      7  C   UNL     1       5.594  -0.943   1.541  1.00  0.00     0.197 C 
ATOM      8  N   UNL     1       3.094  -0.107   0.219  1.00  0.00    -0.332 N 
ATOM      9  C   UNL     1       3.213  -0.121   1.680  1.00  0.00     0.267 C 
ATOM     10  C   UNL     1       3.927  -1.154  -0.398  1.00  0.00     0.267 C 
ATOM     11  H   UNL     1       3.456   0.797  -0.084  1.00  0.00     0.348 HD
ATOM     12  C   UNL     1       4.661   0.155   2.064  1.00  0.00     0.120 C 
ATOM     13  C   UNL     1       5.408  -1.044   0.011  1.00  0.00     0.120 C 
BRANCH   8  14
ATOM     14  C   UNL     1       1.692  -0.135  -0.271  1.00  0.00     0.195 C 
ATOM     15  C   UNL     1      -2.618   0.066  -0.268  1.00  0.00     0.332 C 
ATOM     16  N   UNL     1      -1.208   0.019   0.113  1.00  0.00    -0.337 N 
ATOM     17  C   UNL     1      -0.482   1.170  -0.438  1.00  0.00     0.268 C 
ATOM     18  C   UNL     1      -0.590  -1.238  -0.321  1.00  0.00     0.268 C 
ATOM     19  H   UNL     1      -1.154   0.065   1.131  1.00  0.00     0.347 HD
ATOM     20  C   UNL     1       0.962   1.182   0.064  1.00  0.00     0.126 C 
ATOM     21  C   UNL     1       0.849  -1.338   0.191  1.00  0.00     0.126 C 
ENDBRANCH   8  14
BRANCH   7  22
ATOM     22  O   UNL     1       6.987  -0.803   1.912  1.00  0.00    -0.477 OA
BRANCH  22  23
ATOM     23  C   UNL     1       7.696   0.278   1.484  1.00  0.00     0.121 A 
ATOM     24  C   UNL     1       7.481   1.558   1.982  1.00  0.00     0.047 A 
ATOM     25  C   UNL     1       8.788   0.032   0.652  1.00  0.00     0.055 A 
ATOM     26  C   UNL     1       8.287   2.617   1.562  1.00  0.00     0.012 A 
ATOM     27  C   UNL     1       9.633   1.079   0.249  1.00  0.00    -0.015 A 
ATOM     28  C   UNL     1       9.364   2.394   0.693  1.00  0.00    -0.018 A 
ATOM     29  C   UNL     1      10.746   0.850  -0.575  1.00  0.00     0.009 A 
ATOM     30  C   UNL     1      10.193   3.447   0.277  1.00  0.00     0.009 A 
ATOM     31  C   UNL     1      11.571   1.906  -0.968  1.00  0.00     0.001 A 
ATOM     32  C   UNL     1      11.290   3.203  -0.550  1.00  0.00     0.001 A 
ENDBRANCH  22  23
ENDBRANCH   7  22
ENDBRANCH   4   7
ENDBRANCH   2   3
ENDBRANCH   1   2
BRANCH   1  33
ATOM     33  C   UNL     1       4.072  -2.250   6.331  1.00  0.00     0.118 C 
BRANCH  33  34
ATOM     34  N   UNL     1       4.949  -2.933   7.269  1.00  0.00    -0.352 N 
ATOM     35  C   UNL     1       4.892  -3.028   8.636  1.00  0.00     0.251 C 
ATOM     36  H   UNL     1       5.707  -3.405   6.854  1.00  0.00     0.163 HD
ATOM     37  O   UNL     1       5.846  -3.510   9.245  1.00  0.00    -0.269 OA
BRANCH  35  38
ATOM     38  C   UNL     1       3.715  -2.544   9.392  1.00  0.00     0.039 A 
ATOM     39  C   UNL     1       3.929  -1.886  10.608  1.00  0.00     0.014 A 
ATOM     40  C   UNL     1       2.410  -2.775   8.950  1.00  0.00     0.014 A 
ATOM     41  C   UNL     1       2.842  -1.411  11.347  1.00  0.00     0.010 A 
ATOM     42  C   UNL     1       1.330  -2.240   9.650  1.00  0.00     0.010 A 
ATOM     43  C   UNL     1       1.534  -1.557  10.858  1.00  0.00    -0.014 A 
BRANCH  43  44
ATOM     44  C   UNL     1       0.374  -1.000  11.600  1.00  0.00     0.031 A 
ATOM     45  C   UNL     1      -0.669  -1.913  12.182  1.00  0.00     0.074 A 
ATOM     46  C   UNL     1       0.228   0.336  11.697  1.00  0.00     0.049 A 
ATOM     47  N   UNL     1      -1.778  -1.608  12.808  1.00  0.00    -0.248 NA
ATOM     48  C   UNL     1      -0.451  -3.358  12.017  1.00  0.00     0.031 C 
ATOM     49  C   UNL     1       1.141   1.331  11.133  1.00  0.00     0.029 A 
ATOM     50  N   UNL     1      -0.752   1.086  12.298  1.00  0.00    -0.354 N 
ATOM     51  C   UNL     1      -2.396  -2.818  13.093  1.00  0.00     0.074 A 
ATOM     52  C   UNL     1      -1.561  -3.861  12.536  1.00  0.00     0.031 C 
ATOM     53  C   UNL     1       0.688   2.560  11.429  1.00  0.00     0.029 A 
ATOM     54  C   UNL     1      -0.560   2.440  12.175  1.00  0.00     0.049 A 
ATOM     55  H   UNL     1      -1.519   0.691  12.771  1.00  0.00     0.167 HD
ATOM     56  C   UNL     1      -3.546  -3.043  13.774  1.00  0.00     0.037 A 
ATOM     57  C   UNL     1      -1.308   3.471  12.612  1.00  0.00     0.037 A 
ATOM     58  C   UNL     1      -4.360  -2.009  14.358  1.00  0.00     0.049 A 
ATOM     59  C   UNL     1      -2.568   3.196  13.382  1.00  0.00     0.074 A 
ATOM     60  C   UNL     1      -5.503  -2.143  15.128  1.00  0.00     0.029 A 
ATOM     61  N   UNL     1      -4.117  -0.650  14.236  1.00  0.00    -0.354 N 
ATOM     62  N   UNL     1      -3.104   2.044  13.702  1.00  0.00    -0.248 NA
ATOM     63  C   UNL     1      -3.323   4.364  13.856  1.00  0.00     0.031 C 
ATOM     64  C   UNL     1      -5.971  -0.862  15.444  1.00  0.00     0.029 A 
ATOM     65  C   UNL     1      -5.098   0.067  14.901  1.00  0.00     0.049 A 
ATOM     66  H   UNL     1      -3.359  -0.253  13.748  1.00  0.00     0.167 HD
ATOM     67  C   UNL     1      -4.246   2.347  14.432  1.00  0.00     0.074 A 
ATOM     68  C   UNL     1      -4.316   3.791  14.520  1.00  0.00     0.031 C 
ATOM     69  C   UNL     1      -5.155   1.504  14.980  1.00  0.00     0.037 A 
BRANCH  56  70
ATOM     70  C   UNL     1      -3.990  -4.468  13.928  1.00  0.00     0.057 A 
ATOM     71  C   UNL     1      -3.328  -5.358  14.784  1.00  0.00     0.134 A 
ATOM     72  C   UNL     1      -5.110  -4.947  13.237  1.00  0.00     0.134 A 
ATOM     73  F   UNL     1      -2.241  -4.964  15.465  1.00  0.00    -0.206 F 
ATOM     74  C   UNL     1      -3.750  -6.681  14.928  1.00  0.00     0.040 A 
ATOM     75  C   UNL     1      -5.555  -6.261  13.392  1.00  0.00     0.040 A 
ATOM     76  F   UNL     1      -5.793  -4.145  12.406  1.00  0.00    -0.206 F 
ATOM     77  C   UNL     1      -4.871  -7.133  14.235  1.00  0.00     0.006 A 
ENDBRANCH  56  70
BRANCH  57  78
ATOM     78  C   UNL     1      -0.869   4.863  12.351  1.00  0.00     0.057 A 
ATOM     79  C   UNL     1      -0.366   5.664  13.382  1.00  0.00     0.134 A 
ATOM     80  C   UNL     1      -0.941   5.424  11.071  1.00  0.00     0.134 A 
ATOM     81  F   UNL     1      -0.291   5.186  14.632  1.00  0.00    -0.206 F 
ATOM     82  C   UNL     1       0.038   6.980  13.153  1.00  0.00     0.040 A 
ATOM     83  C   UNL     1      -0.520   6.732  10.823  1.00  0.00     0.040 A 
ATOM     84  F   UNL     1      -1.408   4.704  10.040  1.00  0.00    -0.206 F 
ATOM     85  C   UNL     1      -0.034   7.516  11.868  1.00  0.00     0.006 A 
ENDBRANCH  57  78
BRANCH  69  86
ATOM     86  C   UNL     1      -6.288   2.123  15.741  1.00  0.00     0.057 A 
ATOM     87  C   UNL     1      -7.348   2.765  15.089  1.00  0.00     0.134 A 
ATOM     88  C   UNL     1      -6.333   2.053  17.139  1.00  0.00     0.134 A 
ATOM     89  F   UNL     1      -7.356   2.878  13.752  1.00  0.00    -0.206 F 
ATOM     90  C   UNL     1      -8.404   3.334  15.802  1.00  0.00     0.040 A 
ATOM     91  C   UNL     1      -7.394   2.599  17.862  1.00  0.00     0.040 A 
ATOM     92  F   UNL     1      -5.351   1.447  17.822  1.00  0.00    -0.206 F 
ATOM     93  C   UNL     1      -8.431   3.246  17.193  1.00  0.00     0.006 A 
ENDBRANCH  69  86
ENDBRANCH  43  44
ENDBRANCH  35  38
ENDBRANCH  33  34
ENDBRANCH   1  33
TORSDOF 13
