REMARK SMILES CC[C@H]1CO[C@@H](C)CN1c1cccc(F)c1C(=O)NCCCNC(=O)c1ccc(-c2c3nc(c(-c4c(F)cccc4F)c4ccc([nH]4)c(-c4c(F)cccc4F)c4nc(c(-c5c(F)cccc5F)c5ccc2[nH]5)C=C4)C=C3)cc1
REMARK SMILES IDX 21 1 20 2 19 3 17 4 18 5 16 7 10 8 11 9 12 10 14 11 13 12
REMARK SMILES IDX 15 13 9 14 3 15 4 16 5 17 8 18 6 19 7 20 2 21 1 22 22 23
REMARK SMILES IDX 23 24 24 25 25 27 26 28 27 29 79 30 28 31 78 32 29 33 30 34
REMARK SMILES IDX 31 35 72 36 32 37 77 38 71 39 73 40 33 41 76 42 70 43 69 44
REMARK SMILES IDX 34 46 60 47 43 48 59 49 44 50 47 51 58 52 74 53 45 54 46 55
REMARK SMILES IDX 57 57 75 58 48 59 35 60 36 61 41 62 37 63 38 64 40 65 42 66
REMARK SMILES IDX 39 67 61 68 62 69 67 70 63 71 64 72 66 73 68 74 65 75 49 76
REMARK SMILES IDX 50 77 55 78 51 79 52 80 54 81 56 82 53 83
REMARK H PARENT 19 6 23 26 73 45 47 56
REMARK Flexibility Score: inf
ROOT
ATOM      1  C   UNL     1       0.555   8.878  -4.012  1.00  0.00     0.042 C 
ENDROOT
BRANCH   1   2
ATOM      2  C   UNL     1       1.614   7.787  -3.973  1.00  0.00     0.118 C 
BRANCH   2   3
ATOM      3  N   UNL     1       1.692   7.055  -2.720  1.00  0.00    -0.352 N 
ATOM      4  C   UNL     1       1.899   5.695  -2.571  1.00  0.00     0.256 C 
ATOM      5  O   UNL     1       2.771   5.331  -1.786  1.00  0.00    -0.269 OA
ATOM      6  H   UNL     1       1.589   7.580  -1.894  1.00  0.00     0.163 HD
BRANCH   4   7
ATOM      7  C   UNL     1       0.971   4.717  -3.198  1.00  0.00     0.098 A 
ATOM      8  C   UNL     1       0.182   3.877  -2.373  1.00  0.00     0.053 A 
ATOM      9  C   UNL     1      -0.759   3.022  -2.981  1.00  0.00     0.027 A 
ATOM     10  C   UNL     1      -0.871   2.940  -4.368  1.00  0.00     0.005 A 
ATOM     11  C   UNL     1       0.907   4.555  -4.582  1.00  0.00     0.138 A 
ATOM     12  C   UNL     1      -0.018   3.691  -5.168  1.00  0.00     0.040 A 
ATOM     13  F   UNL     1       1.778   5.167  -5.396  1.00  0.00    -0.206 F 
BRANCH   8  14
ATOM     14  N   UNL     1       0.350   3.843  -0.992  1.00  0.00    -0.363 N 
ATOM     15  C   UNL     1       1.002   2.674  -0.335  1.00  0.00     0.108 C 
ATOM     16  C   UNL     1       1.427   3.113   1.097  1.00  0.00     0.185 C 
ATOM     17  O   UNL     1       0.343   3.662   1.863  1.00  0.00    -0.375 OA
ATOM     18  C   UNL     1      -0.757   4.417  -0.207  1.00  0.00     0.148 C 
ATOM     19  C   UNL     1      -0.279   4.783   1.212  1.00  0.00     0.134 C 
ATOM     20  C   UNL     1       0.614   6.023   1.230  1.00  0.00     0.040 C 
BRANCH  15  21
ATOM     21  C   UNL     1       2.260   2.110  -1.032  1.00  0.00     0.024 C 
ATOM     22  C   UNL     1       2.026   1.308  -2.306  1.00  0.00     0.006 C 
ENDBRANCH  15  21
ENDBRANCH   8  14
ENDBRANCH   4   7
ENDBRANCH   2   3
ENDBRANCH   1   2
BRANCH   1  23
ATOM     23  C   UNL     1       0.789  10.041  -3.055  1.00  0.00     0.118 C 
BRANCH  23  24
ATOM     24  N   UNL     1       2.025  10.767  -3.323  1.00  0.00    -0.352 N 
ATOM     25  C   UNL     1       2.272  11.961  -3.955  1.00  0.00     0.251 C 
ATOM     26  H   UNL     1       2.833  10.317  -2.988  1.00  0.00     0.163 HD
ATOM     27  O   UNL     1       3.433  12.263  -4.222  1.00  0.00    -0.269 OA
BRANCH  25  28
ATOM     28  C   UNL     1       1.182  12.888  -4.338  1.00  0.00     0.039 A 
ATOM     29  C   UNL     1       1.293  13.593  -5.543  1.00  0.00     0.014 A 
ATOM     30  C   UNL     1       0.093  13.132  -3.500  1.00  0.00     0.014 A 
ATOM     31  C   UNL     1       0.284  14.477  -5.938  1.00  0.00     0.010 A 
ATOM     32  C   UNL     1      -0.951  13.950  -3.929  1.00  0.00     0.010 A 
ATOM     33  C   UNL     1      -0.868  14.632  -5.152  1.00  0.00    -0.014 A 
BRANCH  33  34
ATOM     34  C   UNL     1      -1.998  15.491  -5.588  1.00  0.00     0.031 A 
ATOM     35  C   UNL     1      -2.400  16.694  -4.781  1.00  0.00     0.074 A 
ATOM     36  C   UNL     1      -2.721  15.140  -6.669  1.00  0.00     0.049 A 
ATOM     37  N   UNL     1      -3.425  17.492  -4.940  1.00  0.00    -0.248 NA
ATOM     38  C   UNL     1      -1.555  17.025  -3.623  1.00  0.00     0.031 C 
ATOM     39  C   UNL     1      -2.465  13.972  -7.513  1.00  0.00     0.029 A 
ATOM     40  N   UNL     1      -3.827  15.723  -7.235  1.00  0.00    -0.354 N 
ATOM     41  C   UNL     1      -3.367  18.398  -3.888  1.00  0.00     0.074 A 
ATOM     42  C   UNL     1      -2.227  18.028  -3.076  1.00  0.00     0.031 C 
ATOM     43  C   UNL     1      -3.371  13.938  -8.503  1.00  0.00     0.029 A 
ATOM     44  C   UNL     1      -4.294  15.058  -8.342  1.00  0.00     0.049 A 
ATOM     45  H   UNL     1      -4.245  16.541  -6.882  1.00  0.00     0.167 HD
ATOM     46  C   UNL     1      -4.178  19.452  -3.633  1.00  0.00     0.037 A 
ATOM     47  C   UNL     1      -5.351  15.313  -9.136  1.00  0.00     0.037 A 
ATOM     48  C   UNL     1      -5.282  19.847  -4.467  1.00  0.00     0.049 A 
ATOM     49  C   UNL     1      -6.226  16.497  -8.847  1.00  0.00     0.074 A 
ATOM     50  C   UNL     1      -6.106  20.951  -4.338  1.00  0.00     0.029 A 
ATOM     51  N   UNL     1      -5.713  19.153  -5.587  1.00  0.00    -0.354 N 
ATOM     52  N   UNL     1      -6.130  17.373  -7.877  1.00  0.00    -0.248 NA
ATOM     53  C   UNL     1      -7.356  16.728  -9.758  1.00  0.00     0.031 C 
ATOM     54  C   UNL     1      -7.059  20.907  -5.361  1.00  0.00     0.029 A 
ATOM     55  C   UNL     1      -6.806  19.794  -6.147  1.00  0.00     0.049 A 
ATOM     56  H   UNL     1      -5.304  18.327  -5.933  1.00  0.00     0.167 HD
ATOM     57  C   UNL     1      -7.176  18.265  -8.065  1.00  0.00     0.074 A 
ATOM     58  C   UNL     1      -7.889  17.831  -9.249  1.00  0.00     0.031 C 
ATOM     59  C   UNL     1      -7.513  19.346  -7.320  1.00  0.00     0.037 A 
BRANCH  46  60
ATOM     60  C   UNL     1      -3.897  20.259  -2.399  1.00  0.00     0.057 A 
ATOM     61  C   UNL     1      -4.766  20.213  -1.302  1.00  0.00     0.134 A 
ATOM     62  C   UNL     1      -2.785  21.106  -2.309  1.00  0.00     0.134 A 
ATOM     63  F   UNL     1      -5.853  19.427  -1.326  1.00  0.00    -0.206 F 
ATOM     64  C   UNL     1      -4.538  20.980  -0.158  1.00  0.00     0.040 A 
ATOM     65  C   UNL     1      -2.533  21.859  -1.161  1.00  0.00     0.040 A 
ATOM     66  F   UNL     1      -1.909  21.188  -3.321  1.00  0.00    -0.206 F 
ATOM     67  C   UNL     1      -3.415  21.801  -0.083  1.00  0.00     0.006 A 
ENDBRANCH  46  60
BRANCH  47  68
ATOM     68  C   UNL     1      -5.605  14.437 -10.305  1.00  0.00     0.057 A 
ATOM     69  C   UNL     1      -6.114  13.142 -10.154  1.00  0.00     0.134 A 
ATOM     70  C   UNL     1      -5.281  14.861 -11.598  1.00  0.00     0.134 A 
ATOM     71  F   UNL     1      -6.434  12.677  -8.938  1.00  0.00    -0.206 F 
ATOM     72  C   UNL     1      -6.272  12.290 -11.249  1.00  0.00     0.040 A 
ATOM     73  C   UNL     1      -5.449  14.026 -12.703  1.00  0.00     0.040 A 
ATOM     74  F   UNL     1      -4.803  16.097 -11.802  1.00  0.00    -0.206 F 
ATOM     75  C   UNL     1      -5.938  12.732 -12.528  1.00  0.00     0.006 A 
ENDBRANCH  47  68
BRANCH  59  76
ATOM     76  C   UNL     1      -8.703  20.143  -7.759  1.00  0.00     0.057 A 
ATOM     77  C   UNL     1      -8.543  21.405  -8.346  1.00  0.00     0.134 A 
ATOM     78  C   UNL     1     -10.009  19.694  -7.531  1.00  0.00     0.134 A 
ATOM     79  F   UNL     1      -7.317  21.895  -8.584  1.00  0.00    -0.206 F 
ATOM     80  C   UNL     1      -9.642  22.198  -8.678  1.00  0.00     0.040 A 
ATOM     81  C   UNL     1     -11.116  20.470  -7.876  1.00  0.00     0.040 A 
ATOM     82  F   UNL     1     -10.227  18.489  -6.981  1.00  0.00    -0.206 F 
ATOM     83  C   UNL     1     -10.933  21.730  -8.443  1.00  0.00     0.006 A 
ENDBRANCH  59  76
ENDBRANCH  33  34
ENDBRANCH  25  28
ENDBRANCH  23  24
ENDBRANCH   1  23
TORSDOF 12
