REMARK SMILES CC(C)Cc1cc2c(cc1Cl)C=C(C(=O)NCCCNC(=O)c1ccc(-c3c4nc(c(-c5c(F)cccc5F)c5ccc([nH]5)c(-c5c(F)cccc5F)c5nc(c(-c6c(F)cccc6F)c6ccc3[nH]6)C=C5)C=C4)cc1)[C@@H](C(F)(F)F)O2
REMARK SMILES IDX 18 1 17 2 16 3 14 4 15 5 13 7 5 8 6 9 10 10 7 11 9 12 11 13
REMARK SMILES IDX 8 14 82 15 12 16 77 17 4 18 2 19 1 20 3 21 78 22 79 23 80 24
REMARK SMILES IDX 81 25 19 26 20 27 21 28 22 30 23 31 24 32 76 33 25 34 75 35
REMARK SMILES IDX 26 36 27 37 28 38 69 39 29 40 74 41 68 42 70 43 30 44 73 45
REMARK SMILES IDX 67 46 66 47 31 49 57 50 40 51 56 52 41 53 44 54 55 55 71 56
REMARK SMILES IDX 42 57 43 58 54 60 72 61 45 62 32 63 33 64 38 65 34 66 35 67
REMARK SMILES IDX 37 68 39 69 36 70 58 71 59 72 64 73 60 74 61 75 63 76 65 77
REMARK SMILES IDX 62 78 46 79 47 80 52 81 48 82 49 83 51 84 53 85 50 86
REMARK H PARENT 16 6 20 29 70 48 44 59
REMARK Flexibility Score: inf
ROOT
ATOM      1  C   UNL     1      -0.546  -9.109   2.510  1.00  0.00     0.042 C 
ENDROOT
BRANCH   1   2
ATOM      2  C   UNL     1      -0.406  -8.602   1.083  1.00  0.00     0.118 C 
BRANCH   2   3
ATOM      3  N   UNL     1      -1.693  -8.282   0.488  1.00  0.00    -0.352 N 
ATOM      4  C   UNL     1      -2.415  -7.165   0.234  1.00  0.00     0.251 C 
ATOM      5  O   UNL     1      -3.503  -7.355  -0.317  1.00  0.00    -0.270 OA
ATOM      6  H   UNL     1      -2.165  -9.093   0.191  1.00  0.00     0.163 HD
BRANCH   4   7
ATOM      7  C   UNL     1      -1.991  -5.777   0.573  1.00  0.00     0.067 C 
ATOM      8  C   UNL     1      -1.583  -0.787   1.115  1.00  0.00    -0.025 A 
ATOM      9  C   UNL     1      -0.994  -1.900   1.734  1.00  0.00     0.052 A 
ATOM     10  C   UNL     1      -2.683  -1.015   0.266  1.00  0.00     0.045 A 
ATOM     11  C   UNL     1      -1.404  -3.189   1.417  1.00  0.00     0.128 A 
ATOM     12  C   UNL     1      -3.123  -2.319  -0.013  1.00  0.00     0.032 A 
ATOM     13  Cl  UNL     1      -3.555   0.279  -0.478  1.00  0.00    -0.084 Cl
ATOM     14  C   UNL     1      -2.463  -3.415   0.541  1.00  0.00     0.019 A 
ATOM     15  O   UNL     1      -0.716  -4.212   2.008  1.00  0.00    -0.475 OA
ATOM     16  C   UNL     1      -2.851  -4.792   0.249  1.00  0.00     0.025 C 
ATOM     17  C   UNL     1      -0.680  -5.434   1.223  1.00  0.00     0.314 C 
BRANCH   8  18
ATOM     18  C   UNL     1      -1.022   0.593   1.401  1.00  0.00     0.040 C 
BRANCH  18  19
ATOM     19  C   UNL     1       0.524   0.693   1.373  1.00  0.00    -0.013 C 
ATOM     20  C   UNL     1       1.101   0.323   0.003  1.00  0.00     0.008 C 
ATOM     21  C   UNL     1       0.968   2.105   1.759  1.00  0.00     0.008 C 
ENDBRANCH  18  19
ENDBRANCH   8  18
BRANCH  17  22
ATOM     22  C   UNL     1       0.490  -5.382   0.216  1.00  0.00     0.429 C 
ATOM     23  F   UNL     1       1.677  -5.452   0.871  1.00  0.00    -0.167 F 
ATOM     24  F   UNL     1       0.470  -6.421  -0.654  1.00  0.00    -0.167 F 
ATOM     25  F   UNL     1       0.503  -4.255  -0.527  1.00  0.00    -0.167 F 
ENDBRANCH  17  22
ENDBRANCH   4   7
ENDBRANCH   2   3
ENDBRANCH   1   2
BRANCH   1  26
ATOM     26  C   UNL     1      -0.925 -10.581   2.565  1.00  0.00     0.118 C 
BRANCH  26  27
ATOM     27  N   UNL     1       0.132 -11.445   2.042  1.00  0.00    -0.352 N 
ATOM     28  C   UNL     1       0.848 -12.447   2.652  1.00  0.00     0.251 C 
ATOM     29  H   UNL     1       0.370 -11.283   1.101  1.00  0.00     0.163 HD
ATOM     30  O   UNL     1       1.838 -12.916   2.097  1.00  0.00    -0.269 OA
BRANCH  28  31
ATOM     31  C   UNL     1       0.438 -12.944   3.979  1.00  0.00     0.039 A 
ATOM     32  C   UNL     1      -0.913 -13.098   4.285  1.00  0.00     0.014 A 
ATOM     33  C   UNL     1       1.413 -13.252   4.933  1.00  0.00     0.014 A 
ATOM     34  C   UNL     1      -1.294 -13.349   5.593  1.00  0.00     0.010 A 
ATOM     35  C   UNL     1       1.025 -13.627   6.222  1.00  0.00     0.010 A 
ATOM     36  C   UNL     1      -0.332 -13.624   6.578  1.00  0.00    -0.014 A 
BRANCH  36  37
ATOM     37  C   UNL     1      -0.791 -13.903   7.962  1.00  0.00     0.031 A 
ATOM     38  C   UNL     1      -0.400 -13.004   9.104  1.00  0.00     0.074 A 
ATOM     39  C   UNL     1      -1.634 -14.933   8.169  1.00  0.00     0.049 A 
ATOM     40  N   UNL     1      -0.756 -13.070  10.363  1.00  0.00    -0.248 NA
ATOM     41  C   UNL     1       0.516 -11.894   8.800  1.00  0.00     0.031 C 
ATOM     42  C   UNL     1      -2.080 -15.876   7.139  1.00  0.00     0.029 A 
ATOM     43  N   UNL     1      -2.296 -15.338   9.297  1.00  0.00    -0.354 N 
ATOM     44  C   UNL     1      -0.088 -12.034  11.003  1.00  0.00     0.074 A 
ATOM     45  C   UNL     1       0.717 -11.370  10.000  1.00  0.00     0.031 C 
ATOM     46  C   UNL     1      -2.995 -16.701   7.665  1.00  0.00     0.029 A 
ATOM     47  C   UNL     1      -3.144 -16.397   9.082  1.00  0.00     0.049 A 
ATOM     48  H   UNL     1      -2.176 -14.912  10.177  1.00  0.00     0.167 HD
ATOM     49  C   UNL     1      -0.146 -11.665  12.305  1.00  0.00     0.037 A 
ATOM     50  C   UNL     1      -3.945 -17.061   9.934  1.00  0.00     0.037 A 
ATOM     51  C   UNL     1      -0.970 -12.314  13.294  1.00  0.00     0.049 A 
ATOM     52  C   UNL     1      -3.980 -16.640  11.373  1.00  0.00     0.074 A 
ATOM     53  C   UNL     1      -1.126 -11.997  14.632  1.00  0.00     0.029 A 
ATOM     54  N   UNL     1      -1.778 -13.415  13.048  1.00  0.00    -0.354 N 
ATOM     55  N   UNL     1      -3.354 -15.648  11.958  1.00  0.00    -0.248 NA
ATOM     56  C   UNL     1      -4.825 -17.437  12.271  1.00  0.00     0.031 C 
ATOM     57  C   UNL     1      -1.996 -12.932  15.205  1.00  0.00     0.029 A 
ATOM     58  C   UNL     1      -2.417 -13.805  14.214  1.00  0.00     0.049 A 
ATOM     59  H   UNL     1      -1.881 -13.855  12.173  1.00  0.00     0.167 HD
ATOM     60  C   UNL     1      -3.730 -15.699  13.293  1.00  0.00     0.074 A 
ATOM     61  C   UNL     1      -4.664 -16.799  13.421  1.00  0.00     0.031 C 
ATOM     62  C   UNL     1      -3.332 -14.912  14.322  1.00  0.00     0.037 A 
BRANCH  49  63
ATOM     63  C   UNL     1       0.728 -10.523  12.738  1.00  0.00     0.057 A 
ATOM     64  C   UNL     1       1.844 -10.752  13.554  1.00  0.00     0.134 A 
ATOM     65  C   UNL     1       0.467  -9.199  12.361  1.00  0.00     0.134 A 
ATOM     66  F   UNL     1       2.149 -11.994  13.958  1.00  0.00    -0.206 F 
ATOM     67  C   UNL     1       2.670  -9.707  13.974  1.00  0.00     0.040 A 
ATOM     68  C   UNL     1       1.300  -8.149  12.753  1.00  0.00     0.040 A 
ATOM     69  F   UNL     1      -0.576  -8.912  11.567  1.00  0.00    -0.206 F 
ATOM     70  C   UNL     1       2.404  -8.402  13.566  1.00  0.00     0.006 A 
ENDBRANCH  49  63
BRANCH  50  71
ATOM     71  C   UNL     1      -4.757 -18.203   9.448  1.00  0.00     0.057 A 
ATOM     72  C   UNL     1      -4.155 -19.398   9.034  1.00  0.00     0.134 A 
ATOM     73  C   UNL     1      -6.152 -18.125   9.377  1.00  0.00     0.134 A 
ATOM     74  F   UNL     1      -2.821 -19.532   9.070  1.00  0.00    -0.206 F 
ATOM     75  C   UNL     1      -4.909 -20.469   8.554  1.00  0.00     0.040 A 
ATOM     76  C   UNL     1      -6.921 -19.198   8.926  1.00  0.00     0.040 A 
ATOM     77  F   UNL     1      -6.787 -17.012   9.775  1.00  0.00    -0.206 F 
ATOM     78  C   UNL     1      -6.298 -20.373   8.506  1.00  0.00     0.006 A 
ENDBRANCH  50  71
BRANCH  62  79
ATOM     79  C   UNL     1      -3.921 -15.219  15.667  1.00  0.00     0.057 A 
ATOM     80  C   UNL     1      -4.880 -14.373  16.237  1.00  0.00     0.134 A 
ATOM     81  C   UNL     1      -3.542 -16.354  16.394  1.00  0.00     0.134 A 
ATOM     82  F   UNL     1      -5.282 -13.267  15.594  1.00  0.00    -0.206 F 
ATOM     83  C   UNL     1      -5.446 -14.649  17.482  1.00  0.00     0.040 A 
ATOM     84  C   UNL     1      -4.119 -16.655  17.628  1.00  0.00     0.040 A 
ATOM     85  F   UNL     1      -2.641 -17.213  15.893  1.00  0.00    -0.206 F 
ATOM     86  C   UNL     1      -5.072 -15.798  18.177  1.00  0.00     0.006 A 
ENDBRANCH  62  79
ENDBRANCH  36  37
ENDBRANCH  28  31
ENDBRANCH  26  27
ENDBRANCH   1  26
TORSDOF 13
