REMARK SMILES O=C(NCCCNC(=O)[C@H]1CCCCN1S(=O)(=O)c1cc[nH]c1)c1ccc(-c2c3nc(c(-c4c(F)cccc4F)c4ccc([nH]4)c(-c4c(F)cccc4F)c4nc(c(-c5c(F)cccc5F)c5ccc2[nH]5)C=C4)C=C3)cc1
REMARK SMILES IDX 5 1 4 2 3 3 1 4 2 5 24 7 25 8 77 9 26 10 76 11 27 12 28 13
REMARK SMILES IDX 29 14 70 15 30 16 75 17 69 18 71 19 31 20 74 21 68 22 67 23
REMARK SMILES IDX 32 25 58 26 41 27 57 28 42 29 45 30 56 31 72 32 43 33 44 34
REMARK SMILES IDX 55 36 73 37 46 38 33 39 34 40 39 41 35 42 36 43 38 44 40 45
REMARK SMILES IDX 37 46 59 47 60 48 65 49 61 50 62 51 64 52 66 53 63 54 47 55
REMARK SMILES IDX 48 56 53 57 49 58 50 59 52 60 54 61 51 62 6 63 7 64 8 65
REMARK SMILES IDX 9 67 10 68 11 69 15 70 12 71 14 72 13 73 16 74 17 75 18 76
REMARK SMILES IDX 19 77 20 78 23 79 21 80 22 81
REMARK H PARENT 3 6 71 24 45 35 7 66 22 82
REMARK Flexibility Score: inf
ROOT
ATOM      1  C   UNL     1       7.896  -3.942   0.347  1.00  0.00     0.042 C 
ENDROOT
BRANCH   1   2
ATOM      2  C   UNL     1       9.179  -4.219   1.135  1.00  0.00     0.118 C 
BRANCH   2   3
ATOM      3  N   UNL     1       9.745  -3.064   1.812  1.00  0.00    -0.352 N 
ATOM      4  O   UNL     1      10.068  -1.392   3.248  1.00  0.00    -0.269 OA
ATOM      5  C   UNL     1       9.305  -2.267   2.837  1.00  0.00     0.251 C 
ATOM      6  H   UNL     1      10.627  -2.800   1.463  1.00  0.00     0.163 HD
BRANCH   5   7
ATOM      7  C   UNL     1       7.949  -2.371   3.442  1.00  0.00     0.039 A 
ATOM      8  C   UNL     1       7.226  -3.562   3.546  1.00  0.00     0.014 A 
ATOM      9  C   UNL     1       7.403  -1.195   3.987  1.00  0.00     0.014 A 
ATOM     10  C   UNL     1       5.963  -3.575   4.133  1.00  0.00     0.010 A 
ATOM     11  C   UNL     1       6.152  -1.207   4.607  1.00  0.00     0.010 A 
ATOM     12  C   UNL     1       5.436  -2.406   4.690  1.00  0.00    -0.014 A 
BRANCH  12  13
ATOM     13  C   UNL     1       4.228  -2.530   5.541  1.00  0.00     0.031 A 
ATOM     14  C   UNL     1       4.546  -3.054   6.945  1.00  0.00     0.074 A 
ATOM     15  C   UNL     1       3.023  -2.219   4.983  1.00  0.00     0.049 A 
ATOM     16  N   UNL     1       3.789  -3.689   7.790  1.00  0.00    -0.248 NA
ATOM     17  C   UNL     1       5.933  -2.907   7.464  1.00  0.00     0.031 C 
ATOM     18  C   UNL     1       2.867  -1.699   3.615  1.00  0.00     0.029 A 
ATOM     19  N   UNL     1       1.710  -2.264   5.421  1.00  0.00    -0.354 N 
ATOM     20  C   UNL     1       4.525  -3.825   8.986  1.00  0.00     0.074 A 
ATOM     21  C   UNL     1       5.870  -3.442   8.683  1.00  0.00     0.031 C 
ATOM     22  C   UNL     1       1.564  -1.530   3.318  1.00  0.00     0.029 A 
ATOM     23  C   UNL     1       0.739  -1.912   4.449  1.00  0.00     0.049 A 
ATOM     24  H   UNL     1       1.469  -2.522   6.340  1.00  0.00     0.167 HD
ATOM     25  C   UNL     1       3.958  -4.102  10.195  1.00  0.00     0.037 A 
ATOM     26  C   UNL     1      -0.629  -1.949   4.525  1.00  0.00     0.037 A 
ATOM     27  C   UNL     1       2.557  -4.311  10.061  1.00  0.00     0.049 A 
ATOM     28  C   UNL     1      -0.957  -2.263   5.927  1.00  0.00     0.074 A 
ATOM     29  C   UNL     1       1.792  -5.331   9.566  1.00  0.00     0.029 A 
ATOM     30  N   UNL     1       1.752  -3.221  10.278  1.00  0.00    -0.354 N 
ATOM     31  N   UNL     1      -0.844  -1.427   6.916  1.00  0.00    -0.248 NA
ATOM     32  C   UNL     1      -1.414  -3.616   6.270  1.00  0.00     0.031 C 
ATOM     33  C   UNL     1       0.597  -4.707   9.146  1.00  0.00     0.029 A 
ATOM     34  C   UNL     1       0.660  -3.345   9.458  1.00  0.00     0.049 A 
ATOM     35  H   UNL     1       1.927  -2.485  10.907  1.00  0.00     0.167 HD
ATOM     36  C   UNL     1      -0.898  -2.254   8.014  1.00  0.00     0.074 A 
ATOM     37  C   UNL     1      -1.546  -3.470   7.585  1.00  0.00     0.031 C 
ATOM     38  C   UNL     1       0.039  -2.127   8.986  1.00  0.00     0.037 A 
BRANCH  25  39
ATOM     39  C   UNL     1       4.494  -3.965  11.595  1.00  0.00     0.057 A 
ATOM     40  C   UNL     1       3.830  -4.653  12.639  1.00  0.00     0.134 A 
ATOM     41  C   UNL     1       5.373  -2.954  12.000  1.00  0.00     0.134 A 
ATOM     42  F   UNL     1       2.990  -5.666  12.374  1.00  0.00    -0.206 F 
ATOM     43  C   UNL     1       3.939  -4.277  13.980  1.00  0.00     0.040 A 
ATOM     44  C   UNL     1       5.528  -2.602  13.348  1.00  0.00     0.040 A 
ATOM     45  F   UNL     1       6.038  -2.207  11.110  1.00  0.00    -0.206 F 
ATOM     46  C   UNL     1       4.780  -3.234  14.338  1.00  0.00     0.006 A 
ENDBRANCH  25  39
BRANCH  26  47
ATOM     47  C   UNL     1      -1.810  -1.801   3.582  1.00  0.00     0.057 A 
ATOM     48  C   UNL     1      -1.753  -1.452   2.229  1.00  0.00     0.134 A 
ATOM     49  C   UNL     1      -3.130  -2.103   4.027  1.00  0.00     0.134 A 
ATOM     50  F   UNL     1      -0.622  -1.037   1.655  1.00  0.00    -0.206 F 
ATOM     51  C   UNL     1      -2.875  -1.498   1.377  1.00  0.00     0.040 A 
ATOM     52  C   UNL     1      -4.246  -2.190   3.186  1.00  0.00     0.040 A 
ATOM     53  F   UNL     1      -3.410  -2.340   5.315  1.00  0.00    -0.206 F 
ATOM     54  C   UNL     1      -4.118  -1.902   1.844  1.00  0.00     0.006 A 
ENDBRANCH  26  47
BRANCH  38  55
ATOM     55  C   UNL     1       0.633  -0.735   9.074  1.00  0.00     0.057 A 
ATOM     56  C   UNL     1      -0.160   0.350   9.464  1.00  0.00     0.134 A 
ATOM     57  C   UNL     1       1.932  -0.419   8.652  1.00  0.00     0.134 A 
ATOM     58  F   UNL     1      -1.419   0.150   9.881  1.00  0.00    -0.206 F 
ATOM     59  C   UNL     1       0.313   1.669   9.425  1.00  0.00     0.040 A 
ATOM     60  C   UNL     1       2.428   0.888   8.622  1.00  0.00     0.040 A 
ATOM     61  F   UNL     1       2.763  -1.375   8.240  1.00  0.00    -0.206 F 
ATOM     62  C   UNL     1       1.611   1.943   9.001  1.00  0.00     0.006 A 
ENDBRANCH  38  55
ENDBRANCH  12  13
ENDBRANCH   5   7
ENDBRANCH   2   3
ENDBRANCH   1   2
BRANCH   1  63
ATOM     63  C   UNL     1       8.168  -3.365  -1.038  1.00  0.00     0.117 C 
BRANCH  63  64
ATOM     64  N   UNL     1       8.626  -4.386  -1.958  1.00  0.00    -0.355 N 
ATOM     65  C   UNL     1       7.931  -5.145  -2.852  1.00  0.00     0.238 C 
ATOM     66  H   UNL     1       9.595  -4.560  -1.934  1.00  0.00     0.163 HD
ATOM     67  O   UNL     1       8.609  -5.923  -3.529  1.00  0.00    -0.273 OA
BRANCH  65  68
ATOM     68  C   UNL     1       6.405  -5.005  -3.023  1.00  0.00     0.162 C 
ATOM     69  C   UNL     1       5.936  -5.694  -4.321  1.00  0.00     0.030 C 
ATOM     70  N   UNL     1       5.642  -5.515  -1.825  1.00  0.00    -0.185 NA
ATOM     71  C   UNL     1       5.984  -7.214  -4.235  1.00  0.00     0.004 C 
ATOM     72  C   UNL     1       5.488  -6.986  -1.761  1.00  0.00     0.103 C 
ATOM     73  C   UNL     1       5.146  -7.684  -3.067  1.00  0.00     0.017 C 
BRANCH  70  74
ATOM     74  S   UNL     1       4.370  -4.502  -1.334  1.00  0.00     0.245 S 
ATOM     75  O   UNL     1       4.945  -3.204  -1.054  1.00  0.00    -0.207 OA
ATOM     76  O   UNL     1       3.295  -4.643  -2.295  1.00  0.00    -0.207 OA
BRANCH  74  77
ATOM     77  C   UNL     1       3.632  -4.908   0.184  1.00  0.00     0.100 A 
ATOM     78  C   UNL     1       3.914  -5.974   1.076  1.00  0.00     0.041 A 
ATOM     79  C   UNL     1       2.632  -4.153   0.776  1.00  0.00     0.104 A 
ATOM     80  C   UNL     1       3.060  -5.854   2.154  1.00  0.00     0.083 A 
ATOM     81  N   UNL     1       2.305  -4.724   1.977  1.00  0.00    -0.366 N 
ATOM     82  H   UNL     1       1.636  -4.379   2.611  1.00  0.00     0.165 HD
ENDBRANCH  74  77
ENDBRANCH  70  74
ENDBRANCH  65  68
ENDBRANCH  63  64
ENDBRANCH   1  63
TORSDOF 12
