REMARK SMILES O=C(NCCCNC(=O)[C@@H]1CC[C@@H](CNC(=O)c2ccc(O)nn2)O1)c1ccc(-c2c3nc(c(-c4c(F)cccc4F)c4ccc([nH]4)c(-c4c(F)cccc4F)c4nc(c(-c5c(F)cccc5F)c5ccc2[nH]5)C=C4)C=C3)cc1
REMARK SMILES IDX 6 1 5 2 4 3 3 4 1 5 2 6 26 8 27 9 79 10 28 11 78 12 29 13
REMARK SMILES IDX 30 14 31 15 72 16 32 17 77 18 71 19 73 20 33 21 76 22 70 23
REMARK SMILES IDX 69 24 34 26 60 27 43 28 59 29 44 30 47 31 58 32 74 33 45 34
REMARK SMILES IDX 46 35 57 37 75 38 48 39 35 40 36 41 41 42 37 43 38 44 40 45
REMARK SMILES IDX 42 46 39 47 61 48 62 49 67 50 63 51 64 52 66 53 68 54 65 55
REMARK SMILES IDX 49 56 50 57 55 58 51 59 52 60 54 61 56 62 53 63 7 64 8 65
REMARK SMILES IDX 9 67 10 68 11 69 25 70 12 71 13 72 14 73 15 74 16 75 17 77
REMARK SMILES IDX 18 78 19 79 24 80 20 81 23 82 21 83 22 84
REMARK H PARENT 3 7 73 25 47 36 7 66 15 76 22 85
REMARK Flexibility Score: inf
ROOT
ATOM      1  C   UNL     1       4.030   1.484  -3.369  1.00  0.00     0.117 C 
ENDROOT
BRANCH   1   2
ATOM      2  C   UNL     1       4.633   0.536  -2.339  1.00  0.00     0.042 C 
BRANCH   2   3
ATOM      3  C   UNL     1       4.360   0.961  -0.898  1.00  0.00     0.118 C 
BRANCH   3   4
ATOM      4  N   UNL     1       2.933   0.959  -0.600  1.00  0.00    -0.352 N 
ATOM      5  O   UNL     1       0.980   0.101   0.102  1.00  0.00    -0.269 OA
ATOM      6  C   UNL     1       2.204   0.141   0.220  1.00  0.00     0.251 C 
ATOM      7  H   UNL     1       2.412   1.656  -1.061  1.00  0.00     0.163 HD
BRANCH   6   8
ATOM      8  C   UNL     1       2.865  -0.674   1.259  1.00  0.00     0.039 A 
ATOM      9  C   UNL     1       3.882  -0.131   2.049  1.00  0.00     0.014 A 
ATOM     10  C   UNL     1       2.383  -1.962   1.521  1.00  0.00     0.014 A 
ATOM     11  C   UNL     1       4.468  -0.901   3.050  1.00  0.00     0.010 A 
ATOM     12  C   UNL     1       2.939  -2.716   2.557  1.00  0.00     0.010 A 
ATOM     13  C   UNL     1       3.992  -2.193   3.320  1.00  0.00    -0.014 A 
BRANCH  13  14
ATOM     14  C   UNL     1       4.572  -2.947   4.455  1.00  0.00     0.031 A 
ATOM     15  C   UNL     1       5.511  -4.092   4.218  1.00  0.00     0.074 A 
ATOM     16  C   UNL     1       4.288  -2.547   5.708  1.00  0.00     0.049 A 
ATOM     17  N   UNL     1       6.208  -4.778   5.088  1.00  0.00    -0.248 NA
ATOM     18  C   UNL     1       5.694  -4.522   2.824  1.00  0.00     0.031 C 
ATOM     19  C   UNL     1       3.377  -1.454   6.058  1.00  0.00     0.029 A 
ATOM     20  N   UNL     1       4.754  -2.994   6.917  1.00  0.00    -0.354 N 
ATOM     21  C   UNL     1       6.933  -5.701   4.348  1.00  0.00     0.074 A 
ATOM     22  C   UNL     1       6.551  -5.524   2.962  1.00  0.00     0.031 C 
ATOM     23  C   UNL     1       3.379  -1.292   7.391  1.00  0.00     0.029 A 
ATOM     24  C   UNL     1       4.272  -2.280   7.987  1.00  0.00     0.049 A 
ATOM     25  H   UNL     1       5.374  -3.753   7.009  1.00  0.00     0.167 HD
ATOM     26  C   UNL     1       7.851  -6.597   4.783  1.00  0.00     0.037 A 
ATOM     27  C   UNL     1       4.532  -2.405   9.300  1.00  0.00     0.037 A 
ATOM     28  C   UNL     1       8.209  -6.790   6.164  1.00  0.00     0.049 A 
ATOM     29  C   UNL     1       5.512  -3.447   9.756  1.00  0.00     0.074 A 
ATOM     30  C   UNL     1       9.118  -7.682   6.707  1.00  0.00     0.029 A 
ATOM     31  N   UNL     1       7.667  -6.080   7.225  1.00  0.00    -0.354 N 
ATOM     32  N   UNL     1       6.225  -4.282   9.041  1.00  0.00    -0.248 NA
ATOM     33  C   UNL     1       5.728  -3.556  11.205  1.00  0.00     0.031 C 
ATOM     34  C   UNL     1       9.105  -7.531   8.099  1.00  0.00     0.029 A 
ATOM     35  C   UNL     1       8.213  -6.521   8.419  1.00  0.00     0.049 A 
ATOM     36  H   UNL     1       6.993  -5.367   7.141  1.00  0.00     0.167 HD
ATOM     37  C   UNL     1       6.991  -4.999   9.949  1.00  0.00     0.074 A 
ATOM     38  C   UNL     1       6.669  -4.486  11.265  1.00  0.00     0.031 C 
ATOM     39  C   UNL     1       7.879  -5.997   9.718  1.00  0.00     0.037 A 
BRANCH  26  40
ATOM     40  C   UNL     1       8.539  -7.431   3.744  1.00  0.00     0.057 A 
ATOM     41  C   UNL     1       8.245  -8.792   3.597  1.00  0.00     0.134 A 
ATOM     42  C   UNL     1       9.521  -6.886   2.907  1.00  0.00     0.134 A 
ATOM     43  F   UNL     1       7.316  -9.376   4.368  1.00  0.00    -0.206 F 
ATOM     44  C   UNL     1       8.908  -9.582   2.655  1.00  0.00     0.040 A 
ATOM     45  C   UNL     1      10.177  -7.661   1.950  1.00  0.00     0.040 A 
ATOM     46  F   UNL     1       9.838  -5.585   2.989  1.00  0.00    -0.206 F 
ATOM     47  C   UNL     1       9.874  -9.016   1.826  1.00  0.00     0.006 A 
ENDBRANCH  26  40
BRANCH  27  48
ATOM     48  C   UNL     1       3.876  -1.508  10.282  1.00  0.00     0.057 A 
ATOM     49  C   UNL     1       2.516  -1.633  10.585  1.00  0.00     0.134 A 
ATOM     50  C   UNL     1       4.606  -0.532  10.968  1.00  0.00     0.134 A 
ATOM     51  F   UNL     1       1.763  -2.549   9.958  1.00  0.00    -0.206 F 
ATOM     52  C   UNL     1       1.904  -0.820  11.540  1.00  0.00     0.040 A 
ATOM     53  C   UNL     1       4.013   0.273  11.941  1.00  0.00     0.040 A 
ATOM     54  F   UNL     1       5.918  -0.380  10.732  1.00  0.00    -0.206 F 
ATOM     55  C   UNL     1       2.657   0.130  12.228  1.00  0.00     0.006 A 
ENDBRANCH  27  48
BRANCH  39  56
ATOM     56  C   UNL     1       8.573  -6.567  10.918  1.00  0.00     0.057 A 
ATOM     57  C   UNL     1       9.915  -6.264  11.177  1.00  0.00     0.134 A 
ATOM     58  C   UNL     1       7.907  -7.402  11.824  1.00  0.00     0.134 A 
ATOM     59  F   UNL     1      10.609  -5.474  10.345  1.00  0.00    -0.206 F 
ATOM     60  C   UNL     1      10.569  -6.765  12.303  1.00  0.00     0.040 A 
ATOM     61  C   UNL     1       8.544  -7.889  12.966  1.00  0.00     0.040 A 
ATOM     62  F   UNL     1       6.615  -7.712  11.640  1.00  0.00    -0.206 F 
ATOM     63  C   UNL     1       9.880  -7.572  13.207  1.00  0.00     0.006 A 
ENDBRANCH  39  56
ENDBRANCH  13  14
ENDBRANCH   6   8
ENDBRANCH   3   4
ENDBRANCH   2   3
ENDBRANCH   1   2
BRANCH   1  64
ATOM     64  N   UNL     1       4.724   2.756  -3.423  1.00  0.00    -0.354 N 
ATOM     65  C   UNL     1       5.671   3.180  -4.309  1.00  0.00     0.249 C 
ATOM     66  H   UNL     1       4.477   3.403  -2.724  1.00  0.00     0.163 HD
ATOM     67  O   UNL     1       6.137   4.313  -4.162  1.00  0.00    -0.272 OA
BRANCH  65  68
ATOM     68  C   UNL     1       6.086   2.299  -5.497  1.00  0.00     0.207 C 
ATOM     69  C   UNL     1       5.036   2.291  -6.595  1.00  0.00     0.045 C 
ATOM     70  O   UNL     1       6.361   0.928  -5.183  1.00  0.00    -0.363 OA
ATOM     71  C   UNL     1       5.396   1.039  -7.353  1.00  0.00     0.037 C 
ATOM     72  C   UNL     1       5.866   0.097  -6.252  1.00  0.00     0.138 C 
BRANCH  72  73
ATOM     73  C   UNL     1       6.956  -0.897  -6.678  1.00  0.00     0.148 C 
BRANCH  73  74
ATOM     74  N   UNL     1       6.594  -1.656  -7.867  1.00  0.00    -0.348 N 
ATOM     75  C   UNL     1       6.979  -1.431  -9.171  1.00  0.00     0.271 C 
ATOM     76  H   UNL     1       6.000  -2.427  -7.720  1.00  0.00     0.163 HD
ATOM     77  O   UNL     1       6.378  -1.991 -10.087  1.00  0.00    -0.267 OA
BRANCH  75  78
ATOM     78  C   UNL     1       8.065  -0.469  -9.480  1.00  0.00     0.151 A 
ATOM     79  C   UNL     1       7.883   0.490 -10.466  1.00  0.00     0.042 A 
ATOM     80  N   UNL     1       9.202  -0.557  -8.746  1.00  0.00    -0.142 NA
ATOM     81  C   UNL     1       8.898   1.417 -10.665  1.00  0.00     0.072 A 
ATOM     82  N   UNL     1      10.197   0.350  -8.948  1.00  0.00    -0.112 NA
ATOM     83  C   UNL     1      10.025   1.304  -9.882  1.00  0.00     0.230 A 
BRANCH  83  84
ATOM     84  O   UNL     1      11.045   2.191 -10.009  1.00  0.00    -0.492 OA
ATOM     85  H   UNL     1      10.990   2.881 -10.640  1.00  0.00     0.295 HD
ENDBRANCH  83  84
ENDBRANCH  75  78
ENDBRANCH  73  74
ENDBRANCH  72  73
ENDBRANCH  65  68
ENDBRANCH   1  64
TORSDOF 14
