REMARK SMILES N#C/C(=C\c1ccc(-c2cc(C(=O)NCCCNC(=O)c3ccc(-c4c5nc(c(-c6c(F)cccc6F)c6ccc([nH]6)c(-c6c(F)cccc6F)c6nc(c(-c7c(F)cccc7F)c7ccc4[nH]7)C=C6)C=C5)cc3)ccc2Cl)o1)C(=O)N1CCOCC1
REMARK SMILES IDX 15 1 14 2 12 3 13 4 11 6 9 7 10 8 77 9 76 10 78 11 75 12
REMARK SMILES IDX 8 13 5 14 6 15 79 16 7 17 4 18 3 19 2 20 1 21 80 22 81 23
REMARK SMILES IDX 82 24 83 25 87 26 84 27 86 28 85 29 16 30 17 31 18 32 19 33
REMARK SMILES IDX 20 35 21 36 22 37 74 38 23 39 73 40 24 41 25 42 26 43 67 44
REMARK SMILES IDX 27 45 72 46 66 47 68 48 28 49 71 50 65 51 64 52 29 54 55 55
REMARK SMILES IDX 38 56 54 57 39 58 42 59 53 60 69 61 40 62 41 63 52 65 70 66
REMARK SMILES IDX 43 67 30 68 31 69 36 70 32 71 33 72 35 73 37 74 34 75 56 76
REMARK SMILES IDX 57 77 62 78 58 79 59 80 61 81 63 82 60 83 44 84 45 85 50 86
REMARK SMILES IDX 46 87 47 88 49 89 51 90 48 91
REMARK H PARENT 14 5 18 34 68 53 42 64
REMARK Flexibility Score: inf
ROOT
ATOM      1  C   UNL     1       1.913   3.016 -10.427  1.00  0.00     0.118 C 
ENDROOT
BRANCH   1   2
ATOM      2  N   UNL     1       2.265   1.824  -9.674  1.00  0.00    -0.352 N 
ATOM      3  C   UNL     1       2.672   1.612  -8.381  1.00  0.00     0.251 C 
ATOM      4  O   UNL     1       2.822   0.442  -8.026  1.00  0.00    -0.269 OA
ATOM      5  H   UNL     1       2.197   0.996 -10.202  1.00  0.00     0.163 HD
BRANCH   3   6
ATOM      6  C   UNL     1       2.912   2.697  -7.385  1.00  0.00     0.040 A 
ATOM      7  C   UNL     1       3.038   3.308  -5.004  1.00  0.00     0.037 A 
ATOM      8  C   UNL     1       2.826   2.355  -6.019  1.00  0.00     0.027 A 
ATOM      9  C   UNL     1       3.334   4.628  -5.379  1.00  0.00     0.052 A 
ATOM     10  C   UNL     1       3.457   4.968  -6.727  1.00  0.00     0.022 A 
ATOM     11  Cl  UNL     1       3.603   5.891  -4.226  1.00  0.00    -0.084 Cl
ATOM     12  C   UNL     1       3.270   4.003  -7.721  1.00  0.00     0.015 A 
BRANCH   7  13
ATOM     13  C   UNL     1       2.915   2.919  -3.606  1.00  0.00     0.136 A 
ATOM     14  C   UNL     1       3.540   1.764  -1.800  1.00  0.00     0.129 A 
ATOM     15  C   UNL     1       2.549   2.670  -1.425  1.00  0.00     0.051 A 
ATOM     16  O   UNL     1       3.769   1.956  -3.151  1.00  0.00    -0.457 OA
ATOM     17  C   UNL     1       2.122   3.365  -2.576  1.00  0.00     0.051 A 
BRANCH  14  18
ATOM     18  C   UNL     1       4.262   0.797  -1.020  1.00  0.00     0.072 C 
ATOM     19  C   UNL     1       3.710   0.069  -0.015  1.00  0.00     0.121 C 
BRANCH  19  20
ATOM     20  C   UNL     1       2.190   0.069  -0.015  1.00  0.00     0.105 C 
ATOM     21  N   UNL     1       0.929   0.069  -0.015  1.00  0.00    -0.192 NA
ENDBRANCH  19  20
BRANCH  19  22
ATOM     22  C   UNL     1       4.462  -1.028   0.648  1.00  0.00     0.264 C 
ATOM     23  O   UNL     1       3.862  -2.069   0.916  1.00  0.00    -0.268 OA
ATOM     24  N   UNL     1       5.820  -0.888   0.889  1.00  0.00    -0.333 N 
ATOM     25  C   UNL     1       6.629   0.341   0.934  1.00  0.00     0.148 C 
ATOM     26  C   UNL     1       6.623  -2.092   1.125  1.00  0.00     0.148 C 
ATOM     27  C   UNL     1       7.809   0.234  -0.046  1.00  0.00     0.181 C 
ATOM     28  C   UNL     1       7.779  -2.134   0.117  1.00  0.00     0.181 C 
ATOM     29  O   UNL     1       8.587  -0.947   0.212  1.00  0.00    -0.378 OA
ENDBRANCH  19  22
ENDBRANCH  14  18
ENDBRANCH   7  13
ENDBRANCH   3   6
ENDBRANCH   1   2
BRANCH   1  30
ATOM     30  C   UNL     1       3.067   3.476 -11.322  1.00  0.00     0.042 C 
BRANCH  30  31
ATOM     31  C   UNL     1       3.269   2.604 -12.562  1.00  0.00     0.118 C 
BRANCH  31  32
ATOM     32  N   UNL     1       2.201   2.782 -13.536  1.00  0.00    -0.352 N 
ATOM     33  C   UNL     1       2.237   3.269 -14.819  1.00  0.00     0.251 C 
ATOM     34  H   UNL     1       1.308   2.509 -13.223  1.00  0.00     0.163 HD
ATOM     35  O   UNL     1       1.186   3.551 -15.385  1.00  0.00    -0.269 OA
BRANCH  33  36
ATOM     36  C   UNL     1       3.522   3.466 -15.528  1.00  0.00     0.039 A 
ATOM     37  C   UNL     1       3.679   4.601 -16.331  1.00  0.00     0.014 A 
ATOM     38  C   UNL     1       4.545   2.516 -15.462  1.00  0.00     0.014 A 
ATOM     39  C   UNL     1       4.878   4.813 -17.017  1.00  0.00     0.010 A 
ATOM     40  C   UNL     1       5.762   2.756 -16.098  1.00  0.00     0.010 A 
ATOM     41  C   UNL     1       5.942   3.907 -16.880  1.00  0.00    -0.014 A 
BRANCH  41  42
ATOM     42  C   UNL     1       7.253   4.150 -17.535  1.00  0.00     0.031 A 
ATOM     43  C   UNL     1       7.749   3.224 -18.610  1.00  0.00     0.074 A 
ATOM     44  C   UNL     1       8.030   5.162 -17.107  1.00  0.00     0.049 A 
ATOM     45  N   UNL     1       8.909   3.207 -19.217  1.00  0.00    -0.248 NA
ATOM     46  C   UNL     1       6.829   2.161 -19.042  1.00  0.00     0.031 C 
ATOM     47  C   UNL     1       7.678   6.110 -16.048  1.00  0.00     0.029 A 
ATOM     48  N   UNL     1       9.288   5.551 -17.495  1.00  0.00    -0.354 N 
ATOM     49  C   UNL     1       8.864   2.128 -20.090  1.00  0.00     0.074 A 
ATOM     50  C   UNL     1       7.579   1.488 -19.903  1.00  0.00     0.031 C 
ATOM     51  C   UNL     1       8.690   6.975 -15.877  1.00  0.00     0.029 A 
ATOM     52  C   UNL     1       9.777   6.619 -16.783  1.00  0.00     0.049 A 
ATOM     53  H   UNL     1       9.791   5.107 -18.216  1.00  0.00     0.167 HD
ATOM     54  C   UNL     1       9.802   1.718 -20.977  1.00  0.00     0.037 A 
ATOM     55  C   UNL     1      10.975   7.232 -16.840  1.00  0.00     0.037 A 
ATOM     56  C   UNL     1      11.071   2.368 -21.177  1.00  0.00     0.049 A 
ATOM     57  C   UNL     1      12.006   6.745 -17.818  1.00  0.00     0.074 A 
ATOM     58  C   UNL     1      12.060   2.067 -22.097  1.00  0.00     0.029 A 
ATOM     59  N   UNL     1      11.527   3.451 -20.440  1.00  0.00    -0.354 N 
ATOM     60  N   UNL     1      11.928   5.758 -18.677  1.00  0.00    -0.248 NA
ATOM     61  C   UNL     1      13.293   7.456 -17.833  1.00  0.00     0.031 C 
ATOM     62  C   UNL     1      13.132   2.942 -21.890  1.00  0.00     0.029 A 
ATOM     63  C   UNL     1      12.794   3.813 -20.867  1.00  0.00     0.049 A 
ATOM     64  H   UNL     1      11.024   3.896 -19.720  1.00  0.00     0.167 HD
ATOM     65  C   UNL     1      13.146   5.737 -19.343  1.00  0.00     0.074 A 
ATOM     66  C   UNL     1      13.938   6.823 -18.803  1.00  0.00     0.031 C 
ATOM     67  C   UNL     1      13.571   4.892 -20.314  1.00  0.00     0.037 A 
BRANCH  54  68
ATOM     68  C   UNL     1       9.487   0.505 -21.804  1.00  0.00     0.057 A 
ATOM     69  C   UNL     1       8.536   0.541 -22.832  1.00  0.00     0.134 A 
ATOM     70  C   UNL     1      10.165  -0.702 -21.593  1.00  0.00     0.134 A 
ATOM     71  F   UNL     1       7.845   1.663 -23.080  1.00  0.00    -0.206 F 
ATOM     72  C   UNL     1       8.251  -0.588 -23.603  1.00  0.00     0.040 A 
ATOM     73  C   UNL     1       9.906  -1.831 -22.373  1.00  0.00     0.040 A 
ATOM     74  F   UNL     1      11.093  -0.803 -20.630  1.00  0.00    -0.206 F 
ATOM     75  C   UNL     1       8.942  -1.777 -23.377  1.00  0.00     0.006 A 
ENDBRANCH  54  68
BRANCH  55  76
ATOM     76  C   UNL     1      11.262   8.378 -15.942  1.00  0.00     0.057 A 
ATOM     77  C   UNL     1      11.351   9.681 -16.443  1.00  0.00     0.134 A 
ATOM     78  C   UNL     1      11.453   8.199 -14.567  1.00  0.00     0.134 A 
ATOM     79  F   UNL     1      11.197   9.911 -17.755  1.00  0.00    -0.206 F 
ATOM     80  C   UNL     1      11.633  10.766 -15.611  1.00  0.00     0.040 A 
ATOM     81  C   UNL     1      11.712   9.278 -13.720  1.00  0.00     0.040 A 
ATOM     82  F   UNL     1      11.373   6.975 -14.025  1.00  0.00    -0.206 F 
ATOM     83  C   UNL     1      11.808  10.566 -14.243  1.00  0.00     0.006 A 
ENDBRANCH  55  76
BRANCH  67  84
ATOM     84  C   UNL     1      14.950   5.115 -20.858  1.00  0.00     0.057 A 
ATOM     85  C   UNL     1      16.093   4.772 -20.125  1.00  0.00     0.134 A 
ATOM     86  C   UNL     1      15.137   5.643 -22.142  1.00  0.00     0.134 A 
ATOM     87  F   UNL     1      15.980   4.277 -18.883  1.00  0.00    -0.206 F 
ATOM     88  C   UNL     1      17.375   4.959 -20.644  1.00  0.00     0.040 A 
ATOM     89  C   UNL     1      16.413   5.814 -22.681  1.00  0.00     0.040 A 
ATOM     90  F   UNL     1      14.083   5.987 -22.897  1.00  0.00    -0.206 F 
ATOM     91  C   UNL     1      17.537   5.475 -21.929  1.00  0.00     0.006 A 
ENDBRANCH  67  84
ENDBRANCH  41  42
ENDBRANCH  33  36
ENDBRANCH  31  32
ENDBRANCH  30  31
ENDBRANCH   1  30
TORSDOF 14
