REMARK SMILES O=C(NCCCNC(=O)[C@H]1Cc2[nH]cnc2CN1C(=O)c1ccncc1Cl)c1ccc(-c2c3nc(c(-c4c(F)cccc4F)c4ccc([nH]4)c(-c4c(F)cccc4F)c4nc(c(-c5c(F)cccc5F)c5ccc2[nH]5)C=C4)C=C3)cc1
REMARK SMILES IDX 5 1 4 2 3 3 1 4 2 5 28 7 29 8 81 9 30 10 80 11 31 12 32 13
REMARK SMILES IDX 33 14 74 15 34 16 79 17 73 18 75 19 35 20 78 21 72 22 71 23
REMARK SMILES IDX 36 25 62 26 45 27 61 28 46 29 49 30 60 31 76 32 47 33 48 34
REMARK SMILES IDX 59 36 77 37 50 38 37 39 38 40 43 41 39 42 40 43 42 44 44 45
REMARK SMILES IDX 41 46 63 47 64 48 69 49 65 50 66 51 68 52 70 53 67 54 51 55
REMARK SMILES IDX 52 56 57 57 53 58 54 59 56 60 58 61 55 62 6 63 7 64 8 65
REMARK SMILES IDX 9 67 10 68 11 69 18 70 12 71 17 72 13 73 16 74 14 75 15 77
REMARK SMILES IDX 19 78 20 79 21 80 22 81 26 82 23 83 25 84 27 85 24 86
REMARK H PARENT 3 6 75 24 49 35 7 66 13 76
REMARK Flexibility Score: inf
ROOT
ATOM      1  C   UNL     1       3.921   0.344   2.940  1.00  0.00     0.042 C 
ENDROOT
BRANCH   1   2
ATOM      2  C   UNL     1       4.052  -0.391   1.613  1.00  0.00     0.118 C 
BRANCH   2   3
ATOM      3  N   UNL     1       2.829  -0.756   0.931  1.00  0.00    -0.352 N 
ATOM      4  O   UNL     1       1.149  -0.727  -0.540  1.00  0.00    -0.269 OA
ATOM      5  C   UNL     1       2.022  -0.087   0.050  1.00  0.00     0.251 C 
ATOM      6  H   UNL     1       2.514  -1.664   1.143  1.00  0.00     0.163 HD
BRANCH   5   7
ATOM      7  C   UNL     1       2.075   1.378  -0.141  1.00  0.00     0.039 A 
ATOM      8  C   UNL     1       3.248   2.124  -0.253  1.00  0.00     0.014 A 
ATOM      9  C   UNL     1       0.831   2.022  -0.252  1.00  0.00     0.014 A 
ATOM     10  C   UNL     1       3.176   3.511  -0.356  1.00  0.00     0.010 A 
ATOM     11  C   UNL     1       0.757   3.402  -0.383  1.00  0.00     0.010 A 
ATOM     12  C   UNL     1       1.931   4.152  -0.397  1.00  0.00    -0.014 A 
BRANCH  12  13
ATOM     13  C   UNL     1       1.902   5.599  -0.613  1.00  0.00     0.031 A 
ATOM     14  C   UNL     1       2.441   6.059  -1.927  1.00  0.00     0.074 A 
ATOM     15  C   UNL     1       1.285   6.474   0.205  1.00  0.00     0.049 A 
ATOM     16  N   UNL     1       3.419   6.876  -2.153  1.00  0.00    -0.248 NA
ATOM     17  C   UNL     1       1.852   5.480  -3.144  1.00  0.00     0.031 C 
ATOM     18  C   UNL     1       0.428   6.182   1.355  1.00  0.00     0.029 A 
ATOM     19  N   UNL     1       1.214   7.834   0.103  1.00  0.00    -0.354 N 
ATOM     20  C   UNL     1       3.474   7.041  -3.538  1.00  0.00     0.074 A 
ATOM     21  C   UNL     1       2.567   6.073  -4.100  1.00  0.00     0.031 C 
ATOM     22  C   UNL     1      -0.241   7.304   1.707  1.00  0.00     0.029 A 
ATOM     23  C   UNL     1       0.233   8.413   0.895  1.00  0.00     0.049 A 
ATOM     24  H   UNL     1       1.808   8.358  -0.481  1.00  0.00     0.167 HD
ATOM     25  C   UNL     1       4.122   8.088  -4.118  1.00  0.00     0.037 A 
ATOM     26  C   UNL     1      -0.203   9.696   0.842  1.00  0.00     0.037 A 
ATOM     27  C   UNL     1       5.039   8.720  -3.212  1.00  0.00     0.049 A 
ATOM     28  C   UNL     1       0.822  10.502   0.137  1.00  0.00     0.074 A 
ATOM     29  C   UNL     1       6.159   8.317  -2.511  1.00  0.00     0.029 A 
ATOM     30  N   UNL     1       4.676   9.925  -2.665  1.00  0.00    -0.354 N 
ATOM     31  N   UNL     1       1.986  10.809   0.631  1.00  0.00    -0.248 NA
ATOM     32  C   UNL     1       0.696  10.657  -1.304  1.00  0.00     0.031 C 
ATOM     33  C   UNL     1       6.106   9.041  -1.284  1.00  0.00     0.029 A 
ATOM     34  C   UNL     1       4.981   9.863  -1.332  1.00  0.00     0.049 A 
ATOM     35  H   UNL     1       4.273  10.687  -3.140  1.00  0.00     0.167 HD
ATOM     36  C   UNL     1       2.848  10.772  -0.453  1.00  0.00     0.074 A 
ATOM     37  C   UNL     1       1.983  10.791  -1.628  1.00  0.00     0.031 C 
ATOM     38  C   UNL     1       4.164  10.446  -0.295  1.00  0.00     0.037 A 
BRANCH  25  39
ATOM     39  C   UNL     1       3.688   8.757  -5.399  1.00  0.00     0.057 A 
ATOM     40  C   UNL     1       4.533   9.705  -6.008  1.00  0.00     0.134 A 
ATOM     41  C   UNL     1       2.364   8.737  -5.880  1.00  0.00     0.134 A 
ATOM     42  F   UNL     1       5.812   9.835  -5.624  1.00  0.00    -0.206 F 
ATOM     43  C   UNL     1       4.073  10.613  -6.969  1.00  0.00     0.040 A 
ATOM     44  C   UNL     1       1.909   9.604  -6.878  1.00  0.00     0.040 A 
ATOM     45  F   UNL     1       1.421   7.954  -5.342  1.00  0.00    -0.206 F 
ATOM     46  C   UNL     1       2.754  10.569  -7.402  1.00  0.00     0.006 A 
ENDBRANCH  25  39
BRANCH  26  47
ATOM     47  C   UNL     1      -1.550  10.238   1.133  1.00  0.00     0.057 A 
ATOM     48  C   UNL     1      -1.751  11.609   1.349  1.00  0.00     0.134 A 
ATOM     49  C   UNL     1      -2.709   9.468   0.937  1.00  0.00     0.134 A 
ATOM     50  F   UNL     1      -0.707  12.436   1.506  1.00  0.00    -0.206 F 
ATOM     51  C   UNL     1      -3.029  12.185   1.344  1.00  0.00     0.040 A 
ATOM     52  C   UNL     1      -3.991  10.029   0.940  1.00  0.00     0.040 A 
ATOM     53  F   UNL     1      -2.634   8.162   0.646  1.00  0.00    -0.206 F 
ATOM     54  C   UNL     1      -4.153  11.395   1.128  1.00  0.00     0.006 A 
ENDBRANCH  26  47
BRANCH  38  55
ATOM     55  C   UNL     1       4.723  10.426   1.098  1.00  0.00     0.057 A 
ATOM     56  C   UNL     1       4.280   9.562   2.110  1.00  0.00     0.134 A 
ATOM     57  C   UNL     1       5.849  11.208   1.379  1.00  0.00     0.134 A 
ATOM     58  F   UNL     1       3.276   8.701   1.899  1.00  0.00    -0.206 F 
ATOM     59  C   UNL     1       4.901   9.517   3.361  1.00  0.00     0.040 A 
ATOM     60  C   UNL     1       6.500  11.146   2.612  1.00  0.00     0.040 A 
ATOM     61  F   UNL     1       6.365  12.016   0.438  1.00  0.00    -0.206 F 
ATOM     62  C   UNL     1       6.019  10.306   3.613  1.00  0.00     0.006 A 
ENDBRANCH  38  55
ENDBRANCH  12  13
ENDBRANCH   5   7
ENDBRANCH   2   3
ENDBRANCH   1   2
BRANCH   1  63
ATOM     63  C   UNL     1       3.467  -0.429   4.190  1.00  0.00     0.117 C 
BRANCH  63  64
ATOM     64  N   UNL     1       3.883  -1.815   4.386  1.00  0.00    -0.354 N 
ATOM     65  C   UNL     1       4.837  -2.381   5.205  1.00  0.00     0.243 C 
ATOM     66  H   UNL     1       3.393  -2.465   3.831  1.00  0.00     0.163 HD
ATOM     67  O   UNL     1       4.656  -3.532   5.613  1.00  0.00    -0.273 OA
BRANCH  65  68
ATOM     68  C   UNL     1       6.006  -1.558   5.712  1.00  0.00     0.181 C 
ATOM     69  C   UNL     1       7.187  -2.234   6.471  1.00  0.00     0.091 C 
ATOM     70  N   UNL     1       6.529  -0.453   4.887  1.00  0.00    -0.320 N 
ATOM     71  C   UNL     1       7.845  -1.106   7.223  1.00  0.00     0.042 A 
ATOM     72  C   UNL     1       6.846   0.736   5.752  1.00  0.00     0.178 C 
ATOM     73  N   UNL     1       8.587  -1.129   8.368  1.00  0.00    -0.348 N 
ATOM     74  C   UNL     1       7.678   0.235   6.913  1.00  0.00     0.081 A 
ATOM     75  C   UNL     1       8.764   0.180   8.748  1.00  0.00     0.197 A 
ATOM     76  H   UNL     1       8.928  -1.927   8.832  1.00  0.00     0.167 HD
ATOM     77  N   UNL     1       8.233   1.023   7.886  1.00  0.00    -0.240 NA
BRANCH  70  78
ATOM     78  C   UNL     1       7.101  -0.439   3.610  1.00  0.00     0.256 C 
ATOM     79  O   UNL     1       7.371   0.692   3.162  1.00  0.00    -0.269 OA
BRANCH  78  80
ATOM     80  C   UNL     1       7.475  -1.535   2.619  1.00  0.00     0.061 A 
ATOM     81  C   UNL     1       8.596  -1.113   1.852  1.00  0.00     0.035 A 
ATOM     82  C   UNL     1       6.866  -2.706   2.146  1.00  0.00     0.072 A 
ATOM     83  C   UNL     1       8.962  -1.739   0.669  1.00  0.00     0.112 A 
ATOM     84  C   UNL     1       7.306  -3.259   0.929  1.00  0.00     0.132 A 
ATOM     85  Cl  UNL     1       5.593  -3.639   2.783  1.00  0.00    -0.082 Cl
ATOM     86  N   UNL     1       8.320  -2.800   0.175  1.00  0.00    -0.263 NA
ENDBRANCH  78  80
ENDBRANCH  70  78
ENDBRANCH  65  68
ENDBRANCH  63  64
ENDBRANCH   1  63
TORSDOF 12
