REMARK SMILES Cc1ccc(C(=O)NCCCNC(=O)c2ccc(-c3c4nc(c(-c5c(F)cccc5F)c5ccc([nH]5)c(-c5c(F)cccc5F)c5nc(c(-c6c(F)cccc6F)c6ccc3[nH]6)C=C5)C=C4)cc2)cc1NC(=O)Cc1ccc2ccccc2c1
REMARK SMILES IDX 9 1 8 2 6 3 7 4 5 6 1 7 2 8 3 9 70 10 4 11 69 12 71 13 72 14
REMARK SMILES IDX 73 16 74 17 75 18 76 19 84 20 77 21 83 22 78 23 82 24 79 25
REMARK SMILES IDX 81 26 80 27 10 28 11 29 12 30 13 31 14 33 15 34 16 35 68 36
REMARK SMILES IDX 17 37 67 38 18 39 19 40 20 41 61 42 21 43 66 44 60 45 62 46
REMARK SMILES IDX 22 47 65 48 59 49 58 50 23 52 49 53 32 54 48 55 33 56 36 57
REMARK SMILES IDX 47 58 63 59 34 60 35 61 46 63 64 64 37 65 24 66 25 67 30 68
REMARK SMILES IDX 26 69 27 70 29 71 31 72 28 73 50 74 51 75 56 76 52 77 53 78
REMARK SMILES IDX 55 79 57 80 54 81 38 82 39 83 44 84 40 85 41 86 43 87 45 88
REMARK SMILES IDX 42 89
REMARK H PARENT 8 5 71 15 12 32 62 51 36 62
REMARK Flexibility Score: inf
ROOT
ATOM      1  C   UNL     1      -3.825   2.431  -0.042  1.00  0.00     0.118 C 
ENDROOT
BRANCH   1   2
ATOM      2  N   UNL     1      -3.884   0.984   0.019  1.00  0.00    -0.352 N 
ATOM      3  C   UNL     1      -2.974  -0.038   0.100  1.00  0.00     0.251 C 
ATOM      4  O   UNL     1      -3.450  -1.173   0.191  1.00  0.00    -0.269 OA
ATOM      5  H   UNL     1      -4.810   0.651  -0.002  1.00  0.00     0.163 HD
BRANCH   3   6
ATOM      6  C   UNL     1      -1.484   0.096   0.041  1.00  0.00     0.041 A 
ATOM      7  C   UNL     1       2.848  -0.023  -0.155  1.00  0.00     0.046 C 
ATOM      8  C   UNL     1       1.348   0.130  -0.105  1.00  0.00    -0.027 A 
ATOM      9  C   UNL     1       0.616  -1.056  -0.319  1.00  0.00     0.006 A 
ATOM     10  C   UNL     1       0.660   1.328   0.203  1.00  0.00     0.044 A 
ATOM     11  C   UNL     1      -0.775  -1.066  -0.271  1.00  0.00     0.014 A 
ATOM     12  C   UNL     1      -0.746   1.254   0.320  1.00  0.00     0.040 A 
BRANCH  10  13
ATOM     13  N   UNL     1       1.414   2.533   0.358  1.00  0.00    -0.326 N 
ATOM     14  C   UNL     1       1.107   3.875   0.526  1.00  0.00     0.228 C 
ATOM     15  H   UNL     1       2.385   2.371   0.341  1.00  0.00     0.169 HD
ATOM     16  O   UNL     1       2.035   4.683   0.548  1.00  0.00    -0.274 OA
BRANCH  14  17
ATOM     17  C   UNL     1      -0.329   4.268   0.679  1.00  0.00     0.135 C 
BRANCH  17  18
ATOM     18  C   UNL     1      -0.875   5.673   0.764  1.00  0.00    -0.038 A 
ATOM     19  C   UNL     1      -2.245   5.725   1.065  1.00  0.00     0.005 A 
ATOM     20  C   UNL     1      -0.225   6.884   0.502  1.00  0.00     0.013 A 
ATOM     21  C   UNL     1      -2.975   6.899   0.962  1.00  0.00     0.009 A 
ATOM     22  C   UNL     1      -0.958   8.107   0.436  1.00  0.00    -0.018 A 
ATOM     23  C   UNL     1      -2.361   8.078   0.573  1.00  0.00    -0.018 A 
ATOM     24  C   UNL     1      -0.366   9.369   0.237  1.00  0.00     0.009 A 
ATOM     25  C   UNL     1      -3.141   9.220   0.341  1.00  0.00     0.009 A 
ATOM     26  C   UNL     1      -1.148  10.527   0.094  1.00  0.00     0.001 A 
ATOM     27  C   UNL     1      -2.536  10.444   0.094  1.00  0.00     0.001 A 
ENDBRANCH  17  18
ENDBRANCH  14  17
ENDBRANCH  10  13
ENDBRANCH   3   6
ENDBRANCH   1   2
BRANCH   1  28
ATOM     28  C   UNL     1      -3.608   2.985  -1.446  1.00  0.00     0.042 C 
BRANCH  28  29
ATOM     29  C   UNL     1      -4.750   3.901  -1.897  1.00  0.00     0.118 C 
BRANCH  29  30
ATOM     30  N   UNL     1      -4.795   5.193  -1.206  1.00  0.00    -0.352 N 
ATOM     31  C   UNL     1      -5.668   6.271  -1.316  1.00  0.00     0.251 C 
ATOM     32  H   UNL     1      -4.078   5.321  -0.544  1.00  0.00     0.163 HD
ATOM     33  O   UNL     1      -5.610   7.226  -0.562  1.00  0.00    -0.269 OA
BRANCH  31  34
ATOM     34  C   UNL     1      -6.820   6.170  -2.226  1.00  0.00     0.039 A 
ATOM     35  C   UNL     1      -8.049   6.174  -1.558  1.00  0.00     0.014 A 
ATOM     36  C   UNL     1      -6.639   5.508  -3.429  1.00  0.00     0.014 A 
ATOM     37  C   UNL     1      -8.940   5.162  -1.851  1.00  0.00     0.010 A 
ATOM     38  C   UNL     1      -7.478   4.444  -3.667  1.00  0.00     0.010 A 
ATOM     39  C   UNL     1      -8.559   4.218  -2.806  1.00  0.00    -0.014 A 
BRANCH  39  40
ATOM     40  C   UNL     1      -9.264   2.958  -2.937  1.00  0.00     0.031 A 
ATOM     41  C   UNL     1     -10.304   2.901  -3.974  1.00  0.00     0.074 A 
ATOM     42  C   UNL     1      -9.104   1.932  -2.071  1.00  0.00     0.049 A 
ATOM     43  N   UNL     1     -11.476   2.398  -3.793  1.00  0.00    -0.248 NA
ATOM     44  C   UNL     1     -10.113   3.510  -5.285  1.00  0.00     0.031 C 
ATOM     45  C   UNL     1      -9.771   0.635  -2.151  1.00  0.00     0.029 A 
ATOM     46  N   UNL     1      -8.490   1.917  -0.815  1.00  0.00    -0.354 N 
ATOM     47  C   UNL     1     -12.088   2.369  -5.022  1.00  0.00     0.074 A 
ATOM     48  C   UNL     1     -11.240   3.147  -5.897  1.00  0.00     0.031 C 
ATOM     49  C   UNL     1      -9.813   0.099  -0.921  1.00  0.00     0.029 A 
ATOM     50  C   UNL     1      -9.266   1.079   0.005  1.00  0.00     0.049 A 
ATOM     51  H   UNL     1      -7.672   2.399  -0.554  1.00  0.00     0.167 HD
ATOM     52  C   UNL     1     -13.164   1.560  -5.227  1.00  0.00     0.037 A 
ATOM     53  C   UNL     1      -9.832   1.447   1.191  1.00  0.00     0.037 A 
ATOM     54  C   UNL     1     -13.491   0.797  -4.028  1.00  0.00     0.049 A 
ATOM     55  C   UNL     1     -11.337   1.276   1.214  1.00  0.00     0.074 A 
ATOM     56  C   UNL     1     -13.105  -0.469  -3.615  1.00  0.00     0.029 A 
ATOM     57  N   UNL     1     -14.011   1.434  -2.907  1.00  0.00    -0.354 N 
ATOM     58  N   UNL     1     -12.054   1.072   0.145  1.00  0.00    -0.248 NA
ATOM     59  C   UNL     1     -12.159   1.412   2.417  1.00  0.00     0.031 C 
ATOM     60  C   UNL     1     -13.357  -0.578  -2.228  1.00  0.00     0.029 A 
ATOM     61  C   UNL     1     -13.908   0.615  -1.796  1.00  0.00     0.049 A 
ATOM     62  H   UNL     1     -14.397   2.340  -2.904  1.00  0.00     0.167 HD
ATOM     63  C   UNL     1     -13.385   1.123   0.470  1.00  0.00     0.074 A 
ATOM     64  C   UNL     1     -13.400   1.298   1.909  1.00  0.00     0.031 C 
ATOM     65  C   UNL     1     -14.358   1.058  -0.485  1.00  0.00     0.037 A 
BRANCH  52  66
ATOM     66  C   UNL     1     -13.614   1.210  -6.622  1.00  0.00     0.057 A 
ATOM     67  C   UNL     1     -14.013  -0.097  -6.952  1.00  0.00     0.134 A 
ATOM     68  C   UNL     1     -13.587   2.107  -7.704  1.00  0.00     0.134 A 
ATOM     69  F   UNL     1     -14.216  -1.030  -6.014  1.00  0.00    -0.206 F 
ATOM     70  C   UNL     1     -14.212  -0.515  -8.272  1.00  0.00     0.040 A 
ATOM     71  C   UNL     1     -13.724   1.692  -9.035  1.00  0.00     0.040 A 
ATOM     72  F   UNL     1     -13.440   3.426  -7.507  1.00  0.00    -0.206 F 
ATOM     73  C   UNL     1     -14.016   0.367  -9.324  1.00  0.00     0.006 A 
ENDBRANCH  52  66
BRANCH  53  74
ATOM     74  C   UNL     1      -9.113   2.532   1.901  1.00  0.00     0.057 A 
ATOM     75  C   UNL     1      -7.855   2.256   2.458  1.00  0.00     0.134 A 
ATOM     76  C   UNL     1      -9.449   3.874   1.699  1.00  0.00     0.134 A 
ATOM     77  F   UNL     1      -7.486   0.989   2.698  1.00  0.00    -0.206 F 
ATOM     78  C   UNL     1      -6.913   3.264   2.673  1.00  0.00     0.040 A 
ATOM     79  C   UNL     1      -8.513   4.890   1.909  1.00  0.00     0.040 A 
ATOM     80  F   UNL     1     -10.634   4.208   1.170  1.00  0.00    -0.206 F 
ATOM     81  C   UNL     1      -7.228   4.582   2.355  1.00  0.00     0.006 A 
ENDBRANCH  53  74
BRANCH  65  82
ATOM     82  C   UNL     1     -15.824   1.318  -0.260  1.00  0.00     0.057 A 
ATOM     83  C   UNL     1     -16.327   2.229   0.680  1.00  0.00     0.134 A 
ATOM     84  C   UNL     1     -16.790   0.735  -1.110  1.00  0.00     0.134 A 
ATOM     85  F   UNL     1     -15.511   2.938   1.472  1.00  0.00    -0.206 F 
ATOM     86  C   UNL     1     -17.697   2.493   0.811  1.00  0.00     0.040 A 
ATOM     87  C   UNL     1     -18.154   1.029  -1.022  1.00  0.00     0.040 A 
ATOM     88  F   UNL     1     -16.445  -0.130  -2.075  1.00  0.00    -0.206 F 
ATOM     89  C   UNL     1     -18.615   1.899  -0.047  1.00  0.00     0.006 A 
ENDBRANCH  65  82
ENDBRANCH  39  40
ENDBRANCH  31  34
ENDBRANCH  29  30
ENDBRANCH  28  29
ENDBRANCH   1  28
TORSDOF 13
