REMARK SMILES CC(=O)O[C@@H](C)c1nc2ccc(C(=O)NCCCNC(=O)c3ccc(-c4c5nc(c(-c6c(F)cccc6F)c6ccc([nH]6)c(-c6c(F)cccc6F)c6nc(c(-c7c(F)cccc7F)c7ccc4[nH]7)C=C6)C=C5)cc3)cc2[nH]1
REMARK SMILES IDX 16 1 15 2 13 3 14 4 12 6 7 7 8 8 78 9 9 10 77 11 10 13 76 14
REMARK SMILES IDX 11 15 5 16 6 17 4 18 2 19 1 20 3 21 17 22 18 23 19 24 20 25
REMARK SMILES IDX 21 27 22 28 23 29 75 30 24 31 74 32 25 33 26 34 27 35 68 36
REMARK SMILES IDX 28 37 73 38 67 39 69 40 29 41 72 42 66 43 65 44 30 46 56 47
REMARK SMILES IDX 39 48 55 49 40 50 43 51 54 52 70 53 41 54 42 55 53 57 71 58
REMARK SMILES IDX 44 59 31 60 32 61 37 62 33 63 34 64 36 65 38 66 35 67 57 68
REMARK SMILES IDX 58 69 63 70 59 71 60 72 62 73 64 74 61 75 45 76 46 77 51 78
REMARK SMILES IDX 47 79 48 80 50 81 52 82 49 83
REMARK H PARENT 15 5 78 12 19 26 69 45 43 56
REMARK Flexibility Score: inf
ROOT
ATOM      1  C   UNL     1      -8.249   3.299  -0.668  1.00  0.00     0.118 C 
ENDROOT
BRANCH   1   2
ATOM      2  N   UNL     1      -7.840   4.636  -0.279  1.00  0.00    -0.352 N 
ATOM      3  C   UNL     1      -6.618   5.178   0.024  1.00  0.00     0.251 C 
ATOM      4  O   UNL     1      -6.577   6.390   0.239  1.00  0.00    -0.269 OA
ATOM      5  H   UNL     1      -8.585   5.278  -0.223  1.00  0.00     0.163 HD
BRANCH   3   6
ATOM      6  C   UNL     1      -5.348   4.395   0.074  1.00  0.00     0.042 A 
ATOM      7  C   UNL     1      -0.846   3.696  -0.096  1.00  0.00     0.148 A 
ATOM      8  N   UNL     1      -1.579   2.638   0.199  1.00  0.00    -0.229 NA
ATOM      9  N   UNL     1      -1.644   4.809  -0.242  1.00  0.00    -0.339 N 
ATOM     10  C   UNL     1      -2.876   3.067   0.190  1.00  0.00     0.089 A 
ATOM     11  C   UNL     1      -2.951   4.423  -0.085  1.00  0.00     0.066 A 
ATOM     12  H   UNL     1      -1.331   5.723  -0.427  1.00  0.00     0.168 HD
ATOM     13  C   UNL     1      -4.051   2.348   0.426  1.00  0.00     0.031 A 
ATOM     14  C   UNL     1      -4.160   5.122  -0.151  1.00  0.00     0.042 A 
ATOM     15  C   UNL     1      -5.275   3.031   0.386  1.00  0.00     0.016 A 
BRANCH   7  16
ATOM     16  C   UNL     1       0.649   3.749  -0.224  1.00  0.00     0.239 C 
ATOM     17  C   UNL     1       1.142   4.264  -1.571  1.00  0.00     0.062 C 
BRANCH  16  18
ATOM     18  O   UNL     1       1.190   2.464   0.151  1.00  0.00    -0.455 OA
BRANCH  18  19
ATOM     19  C   UNL     1       0.966   1.395  -0.660  1.00  0.00     0.303 C 
ATOM     20  C   UNL     1       1.281   0.130   0.080  1.00  0.00     0.139 C 
ATOM     21  O   UNL     1       0.596   1.429  -1.824  1.00  0.00    -0.253 OA
ENDBRANCH  18  19
ENDBRANCH  16  18
ENDBRANCH   7  16
ENDBRANCH   3   6
ENDBRANCH   1   2
BRANCH   1  22
ATOM     22  C   UNL     1      -8.808   2.518   0.522  1.00  0.00     0.042 C 
BRANCH  22  23
ATOM     23  C   UNL     1     -10.208   2.955   0.940  1.00  0.00     0.118 C 
BRANCH  23  24
ATOM     24  N   UNL     1     -11.210   2.584  -0.047  1.00  0.00    -0.352 N 
ATOM     25  C   UNL     1     -12.331   1.805   0.075  1.00  0.00     0.251 C 
ATOM     26  H   UNL     1     -11.059   2.953  -0.947  1.00  0.00     0.163 HD
ATOM     27  O   UNL     1     -12.913   1.432  -0.941  1.00  0.00    -0.269 OA
BRANCH  25  28
ATOM     28  C   UNL     1     -12.852   1.405   1.402  1.00  0.00     0.039 A 
ATOM     29  C   UNL     1     -13.424   0.135   1.538  1.00  0.00     0.014 A 
ATOM     30  C   UNL     1     -12.861   2.289   2.485  1.00  0.00     0.014 A 
ATOM     31  C   UNL     1     -13.975  -0.257   2.760  1.00  0.00     0.010 A 
ATOM     32  C   UNL     1     -13.349   1.872   3.724  1.00  0.00     0.010 A 
ATOM     33  C   UNL     1     -13.928   0.603   3.868  1.00  0.00    -0.014 A 
BRANCH  33  34
ATOM     34  C   UNL     1     -14.508   0.199   5.174  1.00  0.00     0.031 A 
ATOM     35  C   UNL     1     -15.698   0.930   5.733  1.00  0.00     0.074 A 
ATOM     36  C   UNL     1     -13.936  -0.796   5.877  1.00  0.00     0.049 A 
ATOM     37  N   UNL     1     -16.314   0.758   6.875  1.00  0.00    -0.248 NA
ATOM     38  C   UNL     1     -16.255   2.015   4.910  1.00  0.00     0.031 C 
ATOM     39  C   UNL     1     -12.753  -1.553   5.464  1.00  0.00     0.029 A 
ATOM     40  N   UNL     1     -14.270  -1.339   7.093  1.00  0.00    -0.354 N 
ATOM     41  C   UNL     1     -17.314   1.723   6.916  1.00  0.00     0.074 A 
ATOM     42  C   UNL     1     -17.193   2.507   5.706  1.00  0.00     0.031 C 
ATOM     43  C   UNL     1     -12.473  -2.475   6.398  1.00  0.00     0.029 A 
ATOM     44  C   UNL     1     -13.435  -2.355   7.489  1.00  0.00     0.049 A 
ATOM     45  H   UNL     1     -15.034  -1.029   7.629  1.00  0.00     0.167 HD
ATOM     46  C   UNL     1     -18.260   1.923   7.864  1.00  0.00     0.037 A 
ATOM     47  C   UNL     1     -13.445  -3.104   8.607  1.00  0.00     0.037 A 
ATOM     48  C   UNL     1     -18.398   1.122   9.052  1.00  0.00     0.049 A 
ATOM     49  C   UNL     1     -14.517  -2.875   9.635  1.00  0.00     0.074 A 
ATOM     50  C   UNL     1     -19.356   1.209  10.046  1.00  0.00     0.029 A 
ATOM     51  N   UNL     1     -17.550   0.082   9.403  1.00  0.00    -0.354 N 
ATOM     52  N   UNL     1     -15.491  -1.998   9.633  1.00  0.00    -0.248 NA
ATOM     53  C   UNL     1     -14.497  -3.748  10.817  1.00  0.00     0.031 C 
ATOM     54  C   UNL     1     -19.068   0.243  11.017  1.00  0.00     0.029 A 
ATOM     55  C   UNL     1     -17.956  -0.473  10.605  1.00  0.00     0.049 A 
ATOM     56  H   UNL     1     -16.775  -0.218   8.876  1.00  0.00     0.167 HD
ATOM     57  C   UNL     1     -16.216  -2.230  10.794  1.00  0.00     0.074 A 
ATOM     58  C   UNL     1     -15.576  -3.340  11.470  1.00  0.00     0.031 C 
ATOM     59  C   UNL     1     -17.312  -1.583  11.259  1.00  0.00     0.037 A 
BRANCH  46  60
ATOM     60  C   UNL     1     -19.225   3.054   7.649  1.00  0.00     0.057 A 
ATOM     61  C   UNL     1     -20.215   3.002   6.659  1.00  0.00     0.134 A 
ATOM     62  C   UNL     1     -19.183   4.195   8.460  1.00  0.00     0.134 A 
ATOM     63  F   UNL     1     -20.303   1.943   5.841  1.00  0.00    -0.206 F 
ATOM     64  C   UNL     1     -21.109   4.057   6.463  1.00  0.00     0.040 A 
ATOM     65  C   UNL     1     -20.088   5.245   8.291  1.00  0.00     0.040 A 
ATOM     66  F   UNL     1     -18.265   4.308   9.432  1.00  0.00    -0.206 F 
ATOM     67  C   UNL     1     -21.051   5.180   7.285  1.00  0.00     0.006 A 
ENDBRANCH  46  60
BRANCH  47  68
ATOM     68  C   UNL     1     -12.426  -4.166   8.796  1.00  0.00     0.057 A 
ATOM     69  C   UNL     1     -12.772  -5.520   8.718  1.00  0.00     0.134 A 
ATOM     70  C   UNL     1     -11.086  -3.856   9.060  1.00  0.00     0.134 A 
ATOM     71  F   UNL     1     -14.044  -5.878   8.485  1.00  0.00    -0.206 F 
ATOM     72  C   UNL     1     -11.828  -6.529   8.912  1.00  0.00     0.040 A 
ATOM     73  C   UNL     1     -10.127  -4.855   9.233  1.00  0.00     0.040 A 
ATOM     74  F   UNL     1     -10.690  -2.578   9.139  1.00  0.00    -0.206 F 
ATOM     75  C   UNL     1     -10.499  -6.197   9.166  1.00  0.00     0.006 A 
ENDBRANCH  47  68
BRANCH  59  76
ATOM     76  C   UNL     1     -17.909  -2.086  12.540  1.00  0.00     0.057 A 
ATOM     77  C   UNL     1     -17.291  -1.872  13.779  1.00  0.00     0.134 A 
ATOM     78  C   UNL     1     -19.131  -2.771  12.535  1.00  0.00     0.134 A 
ATOM     79  F   UNL     1     -16.113  -1.234  13.849  1.00  0.00    -0.206 F 
ATOM     80  C   UNL     1     -17.855  -2.343  14.965  1.00  0.00     0.040 A 
ATOM     81  C   UNL     1     -19.717  -3.225  13.717  1.00  0.00     0.040 A 
ATOM     82  F   UNL     1     -19.777  -3.002  11.383  1.00  0.00    -0.206 F 
ATOM     83  C   UNL     1     -19.075  -3.017  14.936  1.00  0.00     0.006 A 
ENDBRANCH  59  76
ENDBRANCH  33  34
ENDBRANCH  25  28
ENDBRANCH  23  24
ENDBRANCH  22  23
ENDBRANCH   1  22
TORSDOF 13
