REMARK SMILES C[C@H]1[NH2+]CC[C@H]1C(=O)N1CC(C(=O)NCCCNC(=O)c2ccc(-c3c4nc(c(-c5c(F)cccc5F)c5ccc([nH]5)c(-c5c(F)cccc5F)c5nc(c(-c6c(F)cccc6F)c6ccc3[nH]6)C=C5)C=C4)cc2)C1
REMARK SMILES IDX 16 1 15 2 14 3 12 4 13 5 11 7 7 8 8 9 9 10 10 11 75 12 6 13
REMARK SMILES IDX 1 14 2 15 3 16 4 17 5 20 17 21 18 22 19 23 20 25 21 26 22 27
REMARK SMILES IDX 74 28 23 29 73 30 24 31 25 32 26 33 67 34 27 35 72 36 66 37
REMARK SMILES IDX 68 38 28 39 71 40 65 41 64 42 29 44 55 45 38 46 54 47 39 48
REMARK SMILES IDX 42 49 53 50 69 51 40 52 41 53 52 55 70 56 43 57 30 58 31 59
REMARK SMILES IDX 36 60 32 61 33 62 35 63 37 64 34 65 56 66 57 67 62 68 58 69
REMARK SMILES IDX 59 70 61 71 63 72 60 73 44 74 45 75 50 76 46 77 47 78 49 79
REMARK SMILES IDX 51 80 48 81
REMARK H PARENT 14 6 3 18 3 19 18 24 68 43 42 54
REMARK Flexibility Score: inf
ROOT
ATOM      1  C   UNL     1       1.670   0.338   5.039  1.00  0.00     0.042 C 
ENDROOT
BRANCH   1   2
ATOM      2  C   UNL     1       1.332   1.795   4.750  1.00  0.00     0.117 C 
BRANCH   2   3
ATOM      3  N   UNL     1       2.477   2.675   4.886  1.00  0.00    -0.356 N 
ATOM      4  C   UNL     1       3.127   3.470   3.973  1.00  0.00     0.226 C 
ATOM      5  O   UNL     1       4.080   4.124   4.425  1.00  0.00    -0.275 OA
ATOM      6  H   UNL     1       2.856   2.709   5.793  1.00  0.00     0.163 HD
BRANCH   4   7
ATOM      7  C   UNL     1       2.733   3.535   2.495  1.00  0.00     0.117 C 
ATOM      8  C   UNL     1       0.936   2.394  -0.015  1.00  0.00     0.231 C 
ATOM      9  O   UNL     1       1.227   3.253  -0.846  1.00  0.00    -0.274 OA
ATOM     10  N   UNL     1       1.345   2.482   1.304  1.00  0.00    -0.341 N 
ATOM     11  C   UNL     1       1.301   3.766   2.045  1.00  0.00     0.134 C 
ATOM     12  C   UNL     1       2.758   2.262   1.675  1.00  0.00     0.134 C 
BRANCH   8  13
ATOM     13  C   UNL     1       0.083   1.187  -0.384  1.00  0.00     0.142 C 
ATOM     14  C   UNL     1       1.819  -0.571   0.467  1.00  0.00     0.076 C 
ATOM     15  C   UNL     1       0.772  -0.165  -0.564  1.00  0.00     0.192 C 
ATOM     16  N   UNL     1      -0.345  -1.129  -0.529  1.00  0.00    -0.343 N 
ATOM     17  C   UNL     1      -1.452  -0.541   0.226  1.00  0.00     0.261 C 
ATOM     18  H   UNL     1      -0.040  -1.990  -0.076  1.00  0.00     0.346 HD
ATOM     19  H   UNL     1      -0.648  -1.342  -1.480  1.00  0.00     0.346 HD
ATOM     20  C   UNL     1      -1.052   0.882   0.581  1.00  0.00     0.081 C 
ENDBRANCH   8  13
ENDBRANCH   4   7
ENDBRANCH   2   3
ENDBRANCH   1   2
BRANCH   1  21
ATOM     21  C   UNL     1       2.129   0.067   6.468  1.00  0.00     0.118 C 
BRANCH  21  22
ATOM     22  N   UNL     1       1.113   0.388   7.461  1.00  0.00    -0.352 N 
ATOM     23  C   UNL     1       0.490  -0.408   8.389  1.00  0.00     0.251 C 
ATOM     24  H   UNL     1       0.827   1.330   7.469  1.00  0.00     0.163 HD
ATOM     25  O   UNL     1      -0.470   0.036   9.018  1.00  0.00    -0.269 OA
BRANCH  23  26
ATOM     26  C   UNL     1       0.939  -1.797   8.624  1.00  0.00     0.039 A 
ATOM     27  C   UNL     1      -0.023  -2.793   8.816  1.00  0.00     0.014 A 
ATOM     28  C   UNL     1       2.297  -2.122   8.680  1.00  0.00     0.014 A 
ATOM     29  C   UNL     1       0.374  -4.121   8.989  1.00  0.00     0.010 A 
ATOM     30  C   UNL     1       2.689  -3.456   8.766  1.00  0.00     0.010 A 
ATOM     31  C   UNL     1       1.732  -4.470   8.921  1.00  0.00    -0.014 A 
BRANCH  31  32
ATOM     32  C   UNL     1       2.169  -5.888   8.999  1.00  0.00     0.031 A 
ATOM     33  C   UNL     1       3.055  -6.352  10.122  1.00  0.00     0.074 A 
ATOM     34  C   UNL     1       1.824  -6.744   8.018  1.00  0.00     0.049 A 
ATOM     35  N   UNL     1       3.593  -7.529  10.319  1.00  0.00    -0.248 NA
ATOM     36  C   UNL     1       3.406  -5.354  11.144  1.00  0.00     0.031 C 
ATOM     37  C   UNL     1       1.009  -6.407   6.849  1.00  0.00     0.029 A 
ATOM     38  N   UNL     1       2.125  -8.072   7.840  1.00  0.00    -0.354 N 
ATOM     39  C   UNL     1       4.355  -7.409  11.474  1.00  0.00     0.074 A 
ATOM     40  C   UNL     1       4.255  -6.031  11.903  1.00  0.00     0.031 C 
ATOM     41  C   UNL     1       0.855  -7.503   6.089  1.00  0.00     0.029 A 
ATOM     42  C   UNL     1       1.594  -8.608   6.692  1.00  0.00     0.049 A 
ATOM     43  H   UNL     1       2.669  -8.590   8.475  1.00  0.00     0.167 HD
ATOM     44  C   UNL     1       5.056  -8.365  12.131  1.00  0.00     0.037 A 
ATOM     45  C   UNL     1       1.698  -9.847   6.176  1.00  0.00     0.037 A 
ATOM     46  C   UNL     1       5.138  -9.740  11.711  1.00  0.00     0.049 A 
ATOM     47  C   UNL     1       2.492 -10.887   6.915  1.00  0.00     0.074 A 
ATOM     48  C   UNL     1       5.771 -10.797  12.341  1.00  0.00     0.029 A 
ATOM     49  N   UNL     1       4.576 -10.247  10.549  1.00  0.00    -0.354 N 
ATOM     50  N   UNL     1       3.148 -10.778   8.045  1.00  0.00    -0.248 NA
ATOM     51  C   UNL     1       2.556 -12.226   6.311  1.00  0.00     0.031 C 
ATOM     52  C   UNL     1       5.638 -11.931  11.534  1.00  0.00     0.029 A 
ATOM     53  C   UNL     1       4.871 -11.595  10.430  1.00  0.00     0.049 A 
ATOM     54  H   UNL     1       4.045  -9.726   9.904  1.00  0.00     0.167 HD
ATOM     55  C   UNL     1       3.676 -12.036   8.303  1.00  0.00     0.074 A 
ATOM     56  C   UNL     1       3.253 -12.897   7.217  1.00  0.00     0.031 C 
ATOM     57  C   UNL     1       4.441 -12.443   9.346  1.00  0.00     0.037 A 
BRANCH  44  58
ATOM     58  C   UNL     1       5.793  -7.952  13.374  1.00  0.00     0.057 A 
ATOM     59  C   UNL     1       5.120  -7.584  14.547  1.00  0.00     0.134 A 
ATOM     60  C   UNL     1       7.193  -7.949  13.407  1.00  0.00     0.134 A 
ATOM     61  F   UNL     1       3.779  -7.556  14.582  1.00  0.00    -0.206 F 
ATOM     62  C   UNL     1       5.812  -7.197  15.696  1.00  0.00     0.040 A 
ATOM     63  C   UNL     1       7.896  -7.593  14.560  1.00  0.00     0.040 A 
ATOM     64  F   UNL     1       7.902  -8.297  12.323  1.00  0.00    -0.206 F 
ATOM     65  C   UNL     1       7.205  -7.207  15.706  1.00  0.00     0.006 A 
ENDBRANCH  44  58
BRANCH  45  66
ATOM     66  C   UNL     1       1.014 -10.178   4.900  1.00  0.00     0.057 A 
ATOM     67  C   UNL     1      -0.088 -11.040   4.874  1.00  0.00     0.134 A 
ATOM     68  C   UNL     1       1.441  -9.641   3.679  1.00  0.00     0.134 A 
ATOM     69  F   UNL     1      -0.534 -11.600   6.008  1.00  0.00    -0.206 F 
ATOM     70  C   UNL     1      -0.731 -11.371   3.680  1.00  0.00     0.040 A 
ATOM     71  C   UNL     1       0.792  -9.942   2.481  1.00  0.00     0.040 A 
ATOM     72  F   UNL     1       2.485  -8.800   3.637  1.00  0.00    -0.206 F 
ATOM     73  C   UNL     1      -0.293 -10.816   2.478  1.00  0.00     0.006 A 
ENDBRANCH  45  66
BRANCH  57  74
ATOM     74  C   UNL     1       4.839 -13.890   9.386  1.00  0.00     0.057 A 
ATOM     75  C   UNL     1       5.781 -14.426   8.499  1.00  0.00     0.134 A 
ATOM     76  C   UNL     1       4.301 -14.749  10.354  1.00  0.00     0.134 A 
ATOM     77  F   UNL     1       6.325 -13.661   7.541  1.00  0.00    -0.206 F 
ATOM     78  C   UNL     1       6.156 -15.770   8.559  1.00  0.00     0.040 A 
ATOM     79  C   UNL     1       4.690 -16.086  10.442  1.00  0.00     0.040 A 
ATOM     80  F   UNL     1       3.400 -14.298  11.240  1.00  0.00    -0.206 F 
ATOM     81  C   UNL     1       5.616 -16.601   9.538  1.00  0.00     0.006 A 
ENDBRANCH  57  74
ENDBRANCH  31  32
ENDBRANCH  23  26
ENDBRANCH  21  22
ENDBRANCH   1  21
TORSDOF 11
