REMARK SMILES Nc1c(CC(=O)NCCCNC(=O)c2ccc(-c3c4nc(c(-c5c(F)cccc5F)c5ccc([nH]5)c(-c5c(F)cccc5F)c5nc(c(-c6c(F)cccc6F)c6ccc3[nH]6)C=C5)C=C4)cc2)cccc1C(=O)c1ccc(Br)cc1
REMARK SMILES IDX 8 1 7 2 5 3 6 4 4 6 3 7 2 8 71 9 68 10 70 11 69 12 1 13
REMARK SMILES IDX 72 16 73 17 74 18 75 19 80 20 76 21 79 22 77 23 78 24 9 25
REMARK SMILES IDX 10 26 11 27 12 28 13 30 14 31 15 32 67 33 16 34 66 35 17 36
REMARK SMILES IDX 18 37 19 38 60 39 20 40 65 41 59 42 61 43 21 44 64 45 58 46
REMARK SMILES IDX 57 47 22 49 48 50 31 51 47 52 32 53 35 54 46 55 62 56 33 57
REMARK SMILES IDX 34 58 45 60 63 61 36 62 23 63 24 64 29 65 25 66 26 67 28 68
REMARK SMILES IDX 30 69 27 70 49 71 50 72 55 73 51 74 52 75 54 76 56 77 53 78
REMARK SMILES IDX 37 79 38 80 43 81 39 82 40 83 42 84 44 85 41 86
REMARK H PARENT 7 5 1 14 1 15 11 29 61 48 35 59
REMARK Flexibility Score: inf
ROOT
ATOM      1  C   UNL     1       1.766  -1.989   2.831  1.00  0.00     0.117 C 
ENDROOT
BRANCH   1   2
ATOM      2  N   UNL     1       0.899  -3.087   2.450  1.00  0.00    -0.356 N 
ATOM      3  C   UNL     1       0.402  -3.402   1.218  1.00  0.00     0.224 C 
ATOM      4  O   UNL     1      -0.379  -4.352   1.131  1.00  0.00    -0.275 OA
ATOM      5  H   UNL     1       0.632  -3.690   3.181  1.00  0.00     0.163 HD
BRANCH   3   6
ATOM      6  C   UNL     1       0.841  -2.626  -0.013  1.00  0.00     0.137 C 
BRANCH   6   7
ATOM      7  C   UNL     1       0.242  -1.234  -0.119  1.00  0.00    -0.015 A 
ATOM      8  C   UNL     1       1.031  -0.050  -0.115  1.00  0.00     0.046 A 
ATOM      9  C   UNL     1       0.372   1.207  -0.140  1.00  0.00     0.046 A 
ATOM     10  C   UNL     1      -1.163  -1.145  -0.175  1.00  0.00     0.006 A 
ATOM     11  C   UNL     1      -1.036   1.252  -0.179  1.00  0.00     0.014 A 
ATOM     12  C   UNL     1      -1.797   0.088  -0.200  1.00  0.00     0.001 A 
BRANCH   8  13
ATOM     13  N   UNL     1       2.413  -0.183  -0.041  1.00  0.00    -0.398 N 
ATOM     14  H   UNL     1       2.821  -1.078  -0.026  1.00  0.00     0.156 HD
ATOM     15  H   UNL     1       2.983   0.619  -0.004  1.00  0.00     0.156 HD
ENDBRANCH   8  13
BRANCH   9  16
ATOM     16  C   UNL     1       1.033   2.556  -0.086  1.00  0.00     0.195 C 
ATOM     17  O   UNL     1       0.374   3.562   0.179  1.00  0.00    -0.289 OA
BRANCH  16  18
ATOM     18  C   UNL     1       2.479   2.761  -0.274  1.00  0.00     0.023 A 
ATOM     19  C   UNL     1       3.201   3.331   0.783  1.00  0.00     0.013 A 
ATOM     20  C   UNL     1       3.130   2.369  -1.448  1.00  0.00     0.013 A 
ATOM     21  C   UNL     1       4.588   3.447   0.693  1.00  0.00     0.016 A 
ATOM     22  C   UNL     1       4.520   2.480  -1.532  1.00  0.00     0.016 A 
ATOM     23  C   UNL     1       5.242   3.007  -0.458  1.00  0.00     0.018 A 
ATOM     24  Br  UNL     1       7.127   3.108  -0.555  1.00  0.00    -0.051 Br
ENDBRANCH  16  18
ENDBRANCH   9  16
ENDBRANCH   6   7
ENDBRANCH   3   6
ENDBRANCH   1   2
BRANCH   1  25
ATOM     25  C   UNL     1       0.986  -0.812   3.413  1.00  0.00     0.042 C 
BRANCH  25  26
ATOM     26  C   UNL     1       0.414  -1.081   4.803  1.00  0.00     0.118 C 
BRANCH  26  27
ATOM     27  N   UNL     1       1.454  -1.274   5.804  1.00  0.00    -0.352 N 
ATOM     28  C   UNL     1       1.636  -0.682   7.026  1.00  0.00     0.251 C 
ATOM     29  H   UNL     1       2.139  -1.938   5.562  1.00  0.00     0.163 HD
ATOM     30  O   UNL     1       2.694  -0.868   7.628  1.00  0.00    -0.269 OA
BRANCH  28  31
ATOM     31  C   UNL     1       0.597   0.182   7.626  1.00  0.00     0.039 A 
ATOM     32  C   UNL     1       1.005   1.318   8.333  1.00  0.00     0.014 A 
ATOM     33  C   UNL     1      -0.762  -0.138   7.550  1.00  0.00     0.014 A 
ATOM     34  C   UNL     1       0.054   2.157   8.916  1.00  0.00     0.010 A 
ATOM     35  C   UNL     1      -1.714   0.734   8.075  1.00  0.00     0.010 A 
ATOM     36  C   UNL     1      -1.316   1.888   8.766  1.00  0.00    -0.014 A 
BRANCH  36  37
ATOM     37  C   UNL     1      -2.336   2.819   9.308  1.00  0.00     0.031 A 
ATOM     38  C   UNL     1      -3.260   2.391  10.412  1.00  0.00     0.074 A 
ATOM     39  C   UNL     1      -2.473   4.038   8.753  1.00  0.00     0.049 A 
ATOM     40  N   UNL     1      -4.229   3.060  10.984  1.00  0.00    -0.248 NA
ATOM     41  C   UNL     1      -3.093   1.022  10.920  1.00  0.00     0.031 C 
ATOM     42  C   UNL     1      -1.686   4.545   7.628  1.00  0.00     0.029 A 
ATOM     43  N   UNL     1      -3.333   5.064   9.049  1.00  0.00    -0.354 N 
ATOM     44  C   UNL     1      -4.796   2.191  11.906  1.00  0.00     0.074 A 
ATOM     45  C   UNL     1      -4.094   0.931  11.783  1.00  0.00     0.031 C 
ATOM     46  C   UNL     1      -2.091   5.791   7.336  1.00  0.00     0.029 A 
ATOM     47  C   UNL     1      -3.181   6.159   8.235  1.00  0.00     0.049 A 
ATOM     48  H   UNL     1      -3.996   5.020   9.775  1.00  0.00     0.167 HD
ATOM     49  C   UNL     1      -5.798   2.426  12.787  1.00  0.00     0.037 A 
ATOM     50  C   UNL     1      -3.847   7.328   8.210  1.00  0.00     0.037 A 
ATOM     51  C   UNL     1      -6.482   3.687  12.922  1.00  0.00     0.049 A 
ATOM     52  C   UNL     1      -4.932   7.581   9.215  1.00  0.00     0.074 A 
ATOM     53  C   UNL     1      -7.447   4.052  13.844  1.00  0.00     0.029 A 
ATOM     54  N   UNL     1      -6.277   4.787  12.102  1.00  0.00    -0.354 N 
ATOM     55  N   UNL     1      -5.396   6.782  10.145  1.00  0.00    -0.248 NA
ATOM     56  C   UNL     1      -5.577   8.899   9.175  1.00  0.00     0.031 C 
ATOM     57  C   UNL     1      -7.858   5.358  13.553  1.00  0.00     0.029 A 
ATOM     58  C   UNL     1      -7.118   5.822  12.478  1.00  0.00     0.049 A 
ATOM     59  H   UNL     1      -5.630   4.826  11.361  1.00  0.00     0.167 HD
ATOM     60  C   UNL     1      -6.380   7.502  10.808  1.00  0.00     0.074 A 
ATOM     61  C   UNL     1      -6.430   8.810  10.186  1.00  0.00     0.031 C 
ATOM     62  C   UNL     1      -7.172   7.113  11.838  1.00  0.00     0.037 A 
BRANCH  49  63
ATOM     63  C   UNL     1      -6.215   1.285  13.671  1.00  0.00     0.057 A 
ATOM     64  C   UNL     1      -5.390   0.803  14.697  1.00  0.00     0.134 A 
ATOM     65  C   UNL     1      -7.458   0.663  13.497  1.00  0.00     0.134 A 
ATOM     66  F   UNL     1      -4.182   1.347  14.910  1.00  0.00    -0.206 F 
ATOM     67  C   UNL     1      -5.770  -0.280  15.492  1.00  0.00     0.040 A 
ATOM     68  C   UNL     1      -7.860  -0.403  14.304  1.00  0.00     0.040 A 
ATOM     69  F   UNL     1      -8.300   1.079  12.540  1.00  0.00    -0.206 F 
ATOM     70  C   UNL     1      -7.010  -0.884  15.299  1.00  0.00     0.006 A 
ENDBRANCH  49  63
BRANCH  50  71
ATOM     71  C   UNL     1      -3.476   8.353   7.204  1.00  0.00     0.057 A 
ATOM     72  C   UNL     1      -2.757   9.496   7.570  1.00  0.00     0.134 A 
ATOM     73  C   UNL     1      -3.792   8.190   5.850  1.00  0.00     0.134 A 
ATOM     74  F   UNL     1      -2.440   9.711   8.855  1.00  0.00    -0.206 F 
ATOM     75  C   UNL     1      -2.367  10.445   6.624  1.00  0.00     0.040 A 
ATOM     76  C   UNL     1      -3.390   9.120   4.891  1.00  0.00     0.040 A 
ATOM     77  F   UNL     1      -4.471   7.109   5.439  1.00  0.00    -0.206 F 
ATOM     78  C   UNL     1      -2.677  10.253   5.278  1.00  0.00     0.006 A 
ENDBRANCH  50  71
BRANCH  62  79
ATOM     79  C   UNL     1      -8.159   8.117  12.353  1.00  0.00     0.057 A 
ATOM     80  C   UNL     1      -9.308   8.458  11.628  1.00  0.00     0.134 A 
ATOM     81  C   UNL     1      -7.972   8.734  13.597  1.00  0.00     0.134 A 
ATOM     82  F   UNL     1      -9.538   7.913  10.424  1.00  0.00    -0.206 F 
ATOM     83  C   UNL     1     -10.225   9.394  12.111  1.00  0.00     0.040 A 
ATOM     84  C   UNL     1      -8.893   9.653  14.101  1.00  0.00     0.040 A 
ATOM     85  F   UNL     1      -6.896   8.447  14.344  1.00  0.00    -0.206 F 
ATOM     86  C   UNL     1     -10.021   9.990  13.354  1.00  0.00     0.006 A 
ENDBRANCH  62  79
ENDBRANCH  36  37
ENDBRANCH  28  31
ENDBRANCH  26  27
ENDBRANCH  25  26
ENDBRANCH   1  25
TORSDOF 14
