REMARK SMILES CCOC(=O)C1=NN(c2ccc([N+](=O)[O-])cc2C(F)(F)F)[C@@](C)(C(=O)NCCCNC(=O)c2ccc(-c3c4nc(c(-c5c(F)cccc5F)c5ccc([nH]5)c(-c5c(F)cccc5F)c5nc(c(-c6c(F)cccc6F)c6ccc3[nH]6)C=C5)C=C4)cc2)C1
REMARK SMILES IDX 27 1 26 2 24 3 25 4 22 6 6 7 7 8 87 9 8 10 23 11 4 12 5 13
REMARK SMILES IDX 3 14 2 15 1 16 9 17 10 18 17 19 11 20 16 21 12 22 18 23
REMARK SMILES IDX 19 24 20 25 21 26 13 27 14 28 15 29 28 30 29 31 30 32 31 33
REMARK SMILES IDX 32 35 33 36 34 37 86 38 35 39 85 40 36 41 37 42 38 43 79 44
REMARK SMILES IDX 39 45 84 46 78 47 80 48 40 49 83 50 77 51 76 52 41 54 67 55
REMARK SMILES IDX 50 56 66 57 51 58 54 59 65 60 81 61 52 62 53 63 64 65 82 66
REMARK SMILES IDX 55 67 42 68 43 69 48 70 44 71 45 72 47 73 49 74 46 75 68 76
REMARK SMILES IDX 69 77 74 78 70 79 71 80 73 81 75 82 72 83 56 84 57 85 62 86
REMARK SMILES IDX 58 87 59 88 61 89 63 90 60 91
REMARK H PARENT 26 5 30 34 80 53 54 64
REMARK Flexibility Score: inf
ROOT
ATOM      1  C   UNL     1       6.001  -3.276  -7.670  1.00  0.00     0.117 C 
ENDROOT
BRANCH   1   2
ATOM      2  N   UNL     1       6.019  -2.209  -6.686  1.00  0.00    -0.354 N 
ATOM      3  C   UNL     1       5.359  -1.996  -5.519  1.00  0.00     0.248 C 
ATOM      4  O   UNL     1       5.491  -0.848  -5.073  1.00  0.00    -0.272 OA
ATOM      5  H   UNL     1       6.644  -1.484  -6.914  1.00  0.00     0.163 HD
BRANCH   3   6
ATOM      6  C   UNL     1       4.536  -3.073  -4.748  1.00  0.00     0.144 C 
ATOM      7  C   UNL     1       2.960  -1.828  -3.623  1.00  0.00     0.149 C 
ATOM      8  N   UNL     1       2.316  -2.265  -4.663  1.00  0.00    -0.169 NA
ATOM      9  C   UNL     1       4.261  -2.497  -3.333  1.00  0.00     0.106 C 
ATOM     10  N   UNL     1       3.136  -3.204  -5.245  1.00  0.00    -0.249 N 
ATOM     11  C   UNL     1       5.306  -4.376  -4.580  1.00  0.00     0.048 C 
BRANCH   7  12
ATOM     12  C   UNL     1       2.466  -0.740  -2.710  1.00  0.00     0.354 C 
ATOM     13  O   UNL     1       3.219   0.109  -2.267  1.00  0.00    -0.245 OA
BRANCH  12  14
ATOM     14  O   UNL     1       1.158  -0.907  -2.442  1.00  0.00    -0.461 OA
BRANCH  14  15
ATOM     15  C   UNL     1       0.580   0.088  -1.587  1.00  0.00     0.230 C 
ATOM     16  C   UNL     1       0.853  -0.235  -0.129  1.00  0.00     0.049 C 
ENDBRANCH  14  15
ENDBRANCH  12  14
ENDBRANCH   7  12
BRANCH  10  17
ATOM     17  C   UNL     1       2.711  -3.743  -6.450  1.00  0.00     0.073 A 
ATOM     18  C   UNL     1       2.358  -2.871  -7.502  1.00  0.00     0.036 A 
ATOM     19  C   UNL     1       2.531  -5.124  -6.654  1.00  0.00     0.088 A 
ATOM     20  C   UNL     1       1.955  -3.339  -8.758  1.00  0.00     0.088 A 
ATOM     21  C   UNL     1       2.161  -5.602  -7.936  1.00  0.00     0.101 A 
ATOM     22  C   UNL     1       1.891  -4.712  -8.980  1.00  0.00     0.270 A 
BRANCH  19  23
ATOM     23  C   UNL     1       2.663  -6.148  -5.550  1.00  0.00     0.418 C 
ATOM     24  F   UNL     1       1.733  -7.142  -5.657  1.00  0.00    -0.166 F 
ATOM     25  F   UNL     1       3.869  -6.783  -5.594  1.00  0.00    -0.166 F 
ATOM     26  F   UNL     1       2.533  -5.672  -4.284  1.00  0.00    -0.166 F 
ENDBRANCH  19  23
BRANCH  22  27
ATOM     27  N   UNL     1       1.533  -5.225 -10.309  1.00  0.00     0.062 N 
ATOM     28  O   UNL     1       1.363  -4.401 -11.219  1.00  0.00    -0.258 OA
ATOM     29  O   UNL     1       1.445  -6.453 -10.445  1.00  0.00    -0.258 OA
ENDBRANCH  22  27
ENDBRANCH  10  17
ENDBRANCH   3   6
ENDBRANCH   1   2
BRANCH   1  30
ATOM     30  C   UNL     1       5.526  -2.764  -9.028  1.00  0.00     0.042 C 
BRANCH  30  31
ATOM     31  C   UNL     1       6.443  -1.738  -9.685  1.00  0.00     0.118 C 
BRANCH  31  32
ATOM     32  N   UNL     1       7.596  -2.341 -10.329  1.00  0.00    -0.352 N 
ATOM     33  C   UNL     1       7.873  -2.517 -11.664  1.00  0.00     0.251 C 
ATOM     34  H   UNL     1       8.287  -2.676  -9.713  1.00  0.00     0.163 HD
ATOM     35  O   UNL     1       8.836  -3.205 -11.993  1.00  0.00    -0.269 OA
BRANCH  33  36
ATOM     36  C   UNL     1       7.013  -1.917 -12.711  1.00  0.00     0.039 A 
ATOM     37  C   UNL     1       6.670  -2.696 -13.821  1.00  0.00     0.014 A 
ATOM     38  C   UNL     1       6.572  -0.593 -12.633  1.00  0.00     0.014 A 
ATOM     39  C   UNL     1       5.828  -2.175 -14.809  1.00  0.00     0.010 A 
ATOM     40  C   UNL     1       5.676  -0.098 -13.581  1.00  0.00     0.010 A 
ATOM     41  C   UNL     1       5.292  -0.884 -14.677  1.00  0.00    -0.014 A 
BRANCH  41  42
ATOM     42  C   UNL     1       4.327  -0.341 -15.668  1.00  0.00     0.031 A 
ATOM     43  C   UNL     1       4.683   0.862 -16.497  1.00  0.00     0.074 A 
ATOM     44  C   UNL     1       3.096  -0.878 -15.767  1.00  0.00     0.049 A 
ATOM     45  N   UNL     1       3.930   1.556 -17.312  1.00  0.00    -0.248 NA
ATOM     46  C   UNL     1       6.059   1.368 -16.372  1.00  0.00     0.031 C 
ATOM     47  C   UNL     1       2.601  -2.017 -14.991  1.00  0.00     0.029 A 
ATOM     48  N   UNL     1       2.029  -0.523 -16.554  1.00  0.00    -0.354 N 
ATOM     49  C   UNL     1       4.725   2.602 -17.763  1.00  0.00     0.074 A 
ATOM     50  C   UNL     1       6.014   2.461 -17.121  1.00  0.00     0.031 C 
ATOM     51  C   UNL     1       1.334  -2.277 -15.352  1.00  0.00     0.029 A 
ATOM     52  C   UNL     1       0.916  -1.305 -16.357  1.00  0.00     0.049 A 
ATOM     53  H   UNL     1       2.058   0.220 -17.198  1.00  0.00     0.167 HD
ATOM     54  C   UNL     1       4.413   3.586 -18.639  1.00  0.00     0.037 A 
ATOM     55  C   UNL     1      -0.307  -1.239 -16.914  1.00  0.00     0.037 A 
ATOM     56  C   UNL     1       3.156   3.698 -19.330  1.00  0.00     0.049 A 
ATOM     57  C   UNL     1      -0.613  -0.168 -17.920  1.00  0.00     0.074 A 
ATOM     58  C   UNL     1       2.786   4.611 -20.303  1.00  0.00     0.029 A 
ATOM     59  N   UNL     1       2.070   2.864 -19.129  1.00  0.00    -0.354 N 
ATOM     60  N   UNL     1       0.162   0.792 -18.362  1.00  0.00    -0.248 NA
ATOM     61  C   UNL     1      -1.965  -0.167 -18.498  1.00  0.00     0.031 C 
ATOM     62  C   UNL     1       1.465   4.339 -20.678  1.00  0.00     0.029 A 
ATOM     63  C   UNL     1       1.023   3.247 -19.951  1.00  0.00     0.049 A 
ATOM     64  H   UNL     1       2.045   2.110 -18.496  1.00  0.00     0.167 HD
ATOM     65  C   UNL     1      -0.603   1.505 -19.274  1.00  0.00     0.074 A 
ATOM     66  C   UNL     1      -1.900   0.862 -19.332  1.00  0.00     0.031 C 
ATOM     67  C   UNL     1      -0.261   2.599 -19.996  1.00  0.00     0.037 A 
BRANCH  54  68
ATOM     68  C   UNL     1       5.457   4.627 -18.902  1.00  0.00     0.057 A 
ATOM     69  C   UNL     1       6.555   4.374 -19.732  1.00  0.00     0.134 A 
ATOM     70  C   UNL     1       5.342   5.906 -18.345  1.00  0.00     0.134 A 
ATOM     71  F   UNL     1       6.725   3.163 -20.283  1.00  0.00    -0.206 F 
ATOM     72  C   UNL     1       7.516   5.354 -19.985  1.00  0.00     0.040 A 
ATOM     73  C   UNL     1       6.287   6.900 -18.604  1.00  0.00     0.040 A 
ATOM     74  F   UNL     1       4.310   6.211 -17.544  1.00  0.00    -0.206 F 
ATOM     75  C   UNL     1       7.380   6.623 -19.424  1.00  0.00     0.006 A 
ENDBRANCH  54  68
BRANCH  55  76
ATOM     76  C   UNL     1      -1.339  -2.231 -16.535  1.00  0.00     0.057 A 
ATOM     77  C   UNL     1      -1.659  -3.292 -17.388  1.00  0.00     0.134 A 
ATOM     78  C   UNL     1      -2.021  -2.145 -15.317  1.00  0.00     0.134 A 
ATOM     79  F   UNL     1      -1.051  -3.409 -18.578  1.00  0.00    -0.206 F 
ATOM     80  C   UNL     1      -2.629  -4.235 -17.045  1.00  0.00     0.040 A 
ATOM     81  C   UNL     1      -2.982  -3.089 -14.954  1.00  0.00     0.040 A 
ATOM     82  F   UNL     1      -1.756  -1.147 -14.461  1.00  0.00    -0.206 F 
ATOM     83  C   UNL     1      -3.290  -4.136 -15.822  1.00  0.00     0.006 A 
ENDBRANCH  55  76
BRANCH  67  84
ATOM     84  C   UNL     1      -1.299   3.160 -20.915  1.00  0.00     0.057 A 
ATOM     85  C   UNL     1      -2.331   3.976 -20.436  1.00  0.00     0.134 A 
ATOM     86  C   UNL     1      -1.247   2.913 -22.291  1.00  0.00     0.134 A 
ATOM     87  F   UNL     1      -2.438   4.236 -19.124  1.00  0.00    -0.206 F 
ATOM     88  C   UNL     1      -3.285   4.521 -21.297  1.00  0.00     0.040 A 
ATOM     89  C   UNL     1      -2.188   3.463 -23.163  1.00  0.00     0.040 A 
ATOM     90  F   UNL     1      -0.281   2.141 -22.809  1.00  0.00    -0.206 F 
ATOM     91  C   UNL     1      -3.211   4.268 -22.666  1.00  0.00     0.006 A 
ENDBRANCH  67  84
ENDBRANCH  41  42
ENDBRANCH  33  36
ENDBRANCH  31  32
ENDBRANCH  30  31
ENDBRANCH   1  30
TORSDOF 16
