REMARK SMILES O=C(CCC(=O)/[NH+]=C1\S[C@H]2CS(=O)(=O)C[C@@H]2N1c1ccc(Oc2ccccc2)cc1)NCCCNC(=O)c1ccc(-c2c3nc(c(-c4c(F)cccc4F)c4ccc([nH]4)c(-c4c(F)cccc4F)c4nc(c(-c5c(F)cccc5F)c5ccc2[nH]5)C=C4)C=C3)cc1
REMARK SMILES IDX 2 1 1 2 31 3 3 5 4 6 5 7 6 8 7 9 8 10 9 12 17 13 10 14 16 15
REMARK SMILES IDX 11 16 15 17 12 18 13 19 14 20 18 21 19 22 30 23 20 24 29 25
REMARK SMILES IDX 21 26 22 27 23 28 24 29 28 30 25 31 27 32 26 33 32 34 33 35
REMARK SMILES IDX 34 36 35 37 36 38 37 40 38 41 39 42 91 43 40 44 90 45 41 46
REMARK SMILES IDX 42 47 43 48 84 49 44 50 89 51 83 52 85 53 45 54 88 55 82 56
REMARK SMILES IDX 81 57 46 59 72 60 55 61 71 62 56 63 59 64 70 65 86 66 57 67
REMARK SMILES IDX 58 68 69 70 87 71 60 72 47 73 48 74 53 75 49 76 50 77 52 78
REMARK SMILES IDX 54 79 51 80 73 81 74 82 79 83 75 84 76 85 78 86 80 87 77 88
REMARK SMILES IDX 61 89 62 90 67 91 63 92 64 93 66 94 68 95 65 96
REMARK H PARENT 31 4 7 11 35 39 85 58 59 69
REMARK Flexibility Score: inf
ROOT
ATOM      1  C   UNL     1       4.171  -1.747  -0.665  1.00  0.00     0.220 C 
ATOM      2  O   UNL     1       5.402  -1.803  -0.657  1.00  0.00    -0.275 OA
ATOM      3  N   UNL     1       3.521  -1.831  -1.855  1.00  0.00    -0.356 N 
ATOM      4  H   UNL     1       4.110  -1.844  -2.644  1.00  0.00     0.163 HD
ENDROOT
BRANCH   1   5
ATOM      5  C   UNL     1       3.400  -1.570   0.614  1.00  0.00     0.112 C 
BRANCH   5   6
ATOM      6  C   UNL     1       3.120  -0.143   1.067  1.00  0.00     0.138 C 
BRANCH   6   7
ATOM      7  C   UNL     1       3.045   1.045   0.099  1.00  0.00     0.308 C 
ATOM      8  O   UNL     1       2.216   1.926   0.329  1.00  0.00    -0.247 OA
ATOM      9  N   UNL     1       3.838   1.111  -1.021  1.00  0.00    -0.204 N 
ATOM     10  C   UNL     1       5.118   1.252  -0.946  1.00  0.00     0.319 C 
ATOM     11  H   UNL     1       3.416   1.049  -1.909  1.00  0.00     0.316 HD
ATOM     12  S   UNL     1       6.021   1.287   0.611  1.00  0.00    -0.029 SA
ATOM     13  N   UNL     1       6.039   1.280  -1.995  1.00  0.00    -0.217 N 
ATOM     14  C   UNL     1       7.604   1.334  -0.244  1.00  0.00     0.120 C 
ATOM     15  C   UNL     1       7.311   0.692  -1.601  1.00  0.00     0.212 C 
ATOM     16  C   UNL     1       8.799   0.572   0.268  1.00  0.00     0.156 C 
ATOM     17  C   UNL     1       8.564   0.941  -2.408  1.00  0.00     0.188 C 
ATOM     18  S   UNL     1       9.851   0.588  -1.199  1.00  0.00     0.155 S 
ATOM     19  O   UNL     1      10.723   1.737  -1.122  1.00  0.00    -0.229 OA
ATOM     20  O   UNL     1      10.347  -0.754  -1.428  1.00  0.00    -0.229 OA
BRANCH  13  21
ATOM     21  C   UNL     1       5.799   1.492  -3.357  1.00  0.00     0.128 A 
ATOM     22  C   UNL     1       5.957   0.464  -4.294  1.00  0.00     0.056 A 
ATOM     23  C   UNL     1       5.552   2.785  -3.849  1.00  0.00     0.056 A 
ATOM     24  C   UNL     1       5.870   0.721  -5.667  1.00  0.00     0.051 A 
ATOM     25  C   UNL     1       5.504   3.052  -5.236  1.00  0.00     0.051 A 
ATOM     26  C   UNL     1       5.644   2.012  -6.151  1.00  0.00     0.127 A 
BRANCH  26  27
ATOM     27  O   UNL     1       5.584   2.071  -7.522  1.00  0.00    -0.457 OA
BRANCH  27  28
ATOM     28  C   UNL     1       5.156   3.192  -8.186  1.00  0.00     0.127 A 
ATOM     29  C   UNL     1       3.947   3.115  -8.884  1.00  0.00     0.047 A 
ATOM     30  C   UNL     1       6.013   4.271  -8.393  1.00  0.00     0.047 A 
ATOM     31  C   UNL     1       3.576   4.132  -9.765  1.00  0.00     0.004 A 
ATOM     32  C   UNL     1       5.656   5.273  -9.299  1.00  0.00     0.004 A 
ATOM     33  C   UNL     1       4.439   5.203  -9.984  1.00  0.00     0.000 A 
ENDBRANCH  27  28
ENDBRANCH  26  27
ENDBRANCH  13  21
ENDBRANCH   6   7
ENDBRANCH   5   6
ENDBRANCH   1   5
BRANCH   3  34
ATOM     34  C   UNL     1       2.102  -1.903  -2.158  1.00  0.00     0.117 C 
BRANCH  34  35
ATOM     35  C   UNL     1       1.461  -0.587  -2.595  1.00  0.00     0.042 C 
BRANCH  35  36
ATOM     36  C   UNL     1       2.208   0.204  -3.663  1.00  0.00     0.118 C 
BRANCH  36  37
ATOM     37  N   UNL     1       2.030  -0.318  -5.008  1.00  0.00    -0.352 N 
ATOM     38  C   UNL     1       1.653   0.304  -6.177  1.00  0.00     0.251 C 
ATOM     39  H   UNL     1       2.211  -1.282  -5.099  1.00  0.00     0.163 HD
ATOM     40  O   UNL     1       1.455  -0.399  -7.168  1.00  0.00    -0.269 OA
BRANCH  38  41
ATOM     41  C   UNL     1       1.483   1.780  -6.298  1.00  0.00     0.039 A 
ATOM     42  C   UNL     1       0.579   2.289  -7.239  1.00  0.00     0.014 A 
ATOM     43  C   UNL     1       2.263   2.684  -5.582  1.00  0.00     0.014 A 
ATOM     44  C   UNL     1       0.461   3.676  -7.437  1.00  0.00     0.010 A 
ATOM     45  C   UNL     1       2.124   4.065  -5.747  1.00  0.00     0.010 A 
ATOM     46  C   UNL     1       1.235   4.582  -6.690  1.00  0.00    -0.014 A 
BRANCH  46  47
ATOM     47  C   UNL     1       0.993   6.043  -6.763  1.00  0.00     0.031 A 
ATOM     48  C   UNL     1       1.966   7.036  -7.323  1.00  0.00     0.074 A 
ATOM     49  C   UNL     1      -0.100   6.542  -6.164  1.00  0.00     0.049 A 
ATOM     50  N   UNL     1       1.720   8.214  -7.843  1.00  0.00    -0.248 NA
ATOM     51  C   UNL     1       3.390   6.700  -7.269  1.00  0.00     0.031 C 
ATOM     52  C   UNL     1      -1.062   5.772  -5.380  1.00  0.00     0.029 A 
ATOM     53  N   UNL     1      -0.538   7.835  -6.075  1.00  0.00    -0.354 N 
ATOM     54  C   UNL     1       2.932   8.655  -8.354  1.00  0.00     0.074 A 
ATOM     55  C   UNL     1       3.936   7.718  -7.926  1.00  0.00     0.031 C 
ATOM     56  C   UNL     1      -1.960   6.619  -4.852  1.00  0.00     0.029 A 
ATOM     57  C   UNL     1      -1.643   7.979  -5.284  1.00  0.00     0.049 A 
ATOM     58  H   UNL     1      -0.101   8.587  -6.536  1.00  0.00     0.167 HD
ATOM     59  C   UNL     1       3.177   9.738  -9.125  1.00  0.00     0.037 A 
ATOM     60  C   UNL     1      -2.318   9.091  -4.948  1.00  0.00     0.037 A 
ATOM     61  C   UNL     1       2.304  10.875  -9.163  1.00  0.00     0.049 A 
ATOM     62  C   UNL     1      -1.932  10.405  -5.568  1.00  0.00     0.074 A 
ATOM     63  C   UNL     1       2.465  12.080  -9.820  1.00  0.00     0.029 A 
ATOM     64  N   UNL     1       1.181  10.995  -8.362  1.00  0.00    -0.354 N 
ATOM     65  N   UNL     1      -0.990  10.669  -6.441  1.00  0.00    -0.248 NA
ATOM     66  C   UNL     1      -2.729  11.573  -5.175  1.00  0.00     0.031 C 
ATOM     67  C   UNL     1       1.525  12.978  -9.291  1.00  0.00     0.029 A 
ATOM     68  C   UNL     1       0.724  12.297  -8.386  1.00  0.00     0.049 A 
ATOM     69  H   UNL     1       0.770  10.261  -7.850  1.00  0.00     0.167 HD
ATOM     70  C   UNL     1      -1.104  12.025  -6.731  1.00  0.00     0.074 A 
ATOM     71  C   UNL     1      -2.212  12.523  -5.941  1.00  0.00     0.031 C 
ATOM     72  C   UNL     1      -0.368  12.785  -7.582  1.00  0.00     0.037 A 
BRANCH  59  73
ATOM     73  C   UNL     1       4.434   9.752  -9.939  1.00  0.00     0.057 A 
ATOM     74  C   UNL     1       4.500   9.023 -11.136  1.00  0.00     0.134 A 
ATOM     75  C   UNL     1       5.535  10.544  -9.607  1.00  0.00     0.134 A 
ATOM     76  F   UNL     1       3.468   8.258 -11.525  1.00  0.00    -0.206 F 
ATOM     77  C   UNL     1       5.622   9.072 -11.966  1.00  0.00     0.040 A 
ATOM     78  C   UNL     1       6.660  10.611 -10.435  1.00  0.00     0.040 A 
ATOM     79  F   UNL     1       5.532  11.276  -8.483  1.00  0.00    -0.206 F 
ATOM     80  C   UNL     1       6.706   9.873 -11.618  1.00  0.00     0.006 A 
ENDBRANCH  59  73
BRANCH  60  81
ATOM     81  C   UNL     1      -3.454   8.975  -4.007  1.00  0.00     0.057 A 
ATOM     82  C   UNL     1      -4.773   9.126  -4.444  1.00  0.00     0.134 A 
ATOM     83  C   UNL     1      -3.248   8.659  -2.658  1.00  0.00     0.134 A 
ATOM     84  F   UNL     1      -5.028   9.431  -5.725  1.00  0.00    -0.206 F 
ATOM     85  C   UNL     1      -5.849   8.982  -3.570  1.00  0.00     0.040 A 
ATOM     86  C   UNL     1      -4.315   8.487  -1.778  1.00  0.00     0.040 A 
ATOM     87  F   UNL     1      -2.004   8.484  -2.185  1.00  0.00    -0.206 F 
ATOM     88  C   UNL     1      -5.622   8.654  -2.234  1.00  0.00     0.006 A 
ENDBRANCH  60  81
BRANCH  72  89
ATOM     89  C   UNL     1      -0.731  14.234  -7.712  1.00  0.00     0.057 A 
ATOM     90  C   UNL     1      -0.526  15.148  -6.671  1.00  0.00     0.134 A 
ATOM     91  C   UNL     1      -1.242  14.732  -8.918  1.00  0.00     0.134 A 
ATOM     92  F   UNL     1      -0.044  14.737  -5.489  1.00  0.00    -0.206 F 
ATOM     93  C   UNL     1      -0.844  16.500  -6.815  1.00  0.00     0.040 A 
ATOM     94  C   UNL     1      -1.530  16.086  -9.086  1.00  0.00     0.040 A 
ATOM     95  F   UNL     1      -1.447  13.913  -9.962  1.00  0.00    -0.206 F 
ATOM     96  C   UNL     1      -1.339  16.972  -8.029  1.00  0.00     0.006 A 
ENDBRANCH  72  89
ENDBRANCH  46  47
ENDBRANCH  38  41
ENDBRANCH  36  37
ENDBRANCH  35  36
ENDBRANCH  34  35
ENDBRANCH   3  34
TORSDOF 15
