REMARK SMILES CC[N@@H+](C/C(Cl)=C/Cl)C[C@@H](C)C(=O)NCCCNC(=O)c1ccc(-c2c3nc(c(-c4c(F)cccc4F)c4ccc([nH]4)c(-c4c(F)cccc4F)c4nc(c(-c5c(F)cccc5F)c5ccc2[nH]5)C=C4)C=C3)cc1
REMARK SMILES IDX 15 1 14 2 12 3 13 4 10 6 11 7 9 8 3 9 2 11 1 12 4 13 5 14
REMARK SMILES IDX 6 15 7 16 8 17 16 18 17 19 18 20 19 21 20 23 21 24 22 25
REMARK SMILES IDX 74 26 23 27 73 28 24 29 25 30 26 31 67 32 27 33 72 34 66 35
REMARK SMILES IDX 68 36 28 37 71 38 65 39 64 40 29 42 55 43 38 44 54 45 39 46
REMARK SMILES IDX 42 47 53 48 69 49 40 50 41 51 52 53 70 54 43 55 30 56 31 57
REMARK SMILES IDX 36 58 32 59 33 60 35 61 37 62 34 63 56 64 57 65 62 66 58 67
REMARK SMILES IDX 59 68 61 69 63 70 60 71 44 72 45 73 50 74 46 75 47 76 49 77
REMARK SMILES IDX 51 78 48 79
REMARK H PARENT 14 5 3 10 18 22 68 41 42 52
REMARK Flexibility Score: inf
ROOT
ATOM      1  C   UNL     1       4.660   0.316  -0.109  1.00  0.00     0.117 C 
ENDROOT
BRANCH   1   2
ATOM      2  N   UNL     1       5.189   0.346  -1.457  1.00  0.00    -0.356 N 
ATOM      3  C   UNL     1       4.555   0.462  -2.653  1.00  0.00     0.228 C 
ATOM      4  O   UNL     1       5.246   0.370  -3.670  1.00  0.00    -0.275 OA
ATOM      5  H   UNL     1       6.168   0.270  -1.517  1.00  0.00     0.163 HD
BRANCH   3   6
ATOM      6  C   UNL     1       3.053   0.705  -2.746  1.00  0.00     0.130 C 
ATOM      7  C   UNL     1       2.683   2.025  -2.070  1.00  0.00     0.024 C 
BRANCH   6   8
ATOM      8  C   UNL     1       2.279  -0.571  -2.348  1.00  0.00     0.275 C 
BRANCH   8   9
ATOM      9  N   UNL     1       0.813  -0.597  -2.349  1.00  0.00    -0.330 N 
ATOM     10  H   UNL     1       0.689  -1.546  -1.997  1.00  0.00     0.348 HD
BRANCH   9  11
ATOM     11  C   UNL     1       0.090   0.120  -1.307  1.00  0.00     0.259 C 
ATOM     12  C   UNL     1       0.494  -0.259   0.116  1.00  0.00     0.071 C 
ENDBRANCH   9  11
BRANCH   9  13
ATOM     13  C   UNL     1       0.169  -0.628  -3.667  1.00  0.00     0.312 C 
BRANCH  13  14
ATOM     14  C   UNL     1       0.340   0.558  -4.588  1.00  0.00     0.083 C 
ATOM     15  Cl  UNL     1       1.188   0.210  -6.067  1.00  0.00    -0.082 Cl
ATOM     16  C   UNL     1      -0.142   1.779  -4.329  1.00  0.00     0.102 C 
ATOM     17  Cl  UNL     1       0.063   3.174  -5.304  1.00  0.00    -0.091 Cl
ENDBRANCH  13  14
ENDBRANCH   9  13
ENDBRANCH   8   9
ENDBRANCH   6   8
ENDBRANCH   3   6
ENDBRANCH   1   2
BRANCH   1  18
ATOM     18  C   UNL     1       4.918  -1.021   0.568  1.00  0.00     0.042 C 
BRANCH  18  19
ATOM     19  C   UNL     1       6.392  -1.282   0.830  1.00  0.00     0.118 C 
BRANCH  19  20
ATOM     20  N   UNL     1       6.984  -0.274   1.700  1.00  0.00    -0.352 N 
ATOM     21  C   UNL     1       7.595  -0.412   2.920  1.00  0.00     0.251 C 
ATOM     22  H   UNL     1       6.939   0.649   1.359  1.00  0.00     0.163 HD
ATOM     23  O   UNL     1       7.821   0.578   3.605  1.00  0.00    -0.269 OA
BRANCH  21  24
ATOM     24  C   UNL     1       7.965  -1.756   3.408  1.00  0.00     0.039 A 
ATOM     25  C   UNL     1       7.791  -2.052   4.761  1.00  0.00     0.014 A 
ATOM     26  C   UNL     1       8.489  -2.715   2.538  1.00  0.00     0.014 A 
ATOM     27  C   UNL     1       8.088  -3.332   5.226  1.00  0.00     0.010 A 
ATOM     28  C   UNL     1       8.685  -4.017   2.981  1.00  0.00     0.010 A 
ATOM     29  C   UNL     1       8.500  -4.335   4.332  1.00  0.00    -0.014 A 
BRANCH  29  30
ATOM     30  C   UNL     1       8.741  -5.721   4.802  1.00  0.00     0.031 A 
ATOM     31  C   UNL     1      10.108  -6.336   4.689  1.00  0.00     0.074 A 
ATOM     32  C   UNL     1       7.710  -6.437   5.289  1.00  0.00     0.049 A 
ATOM     33  N   UNL     1      10.506  -7.531   5.044  1.00  0.00    -0.248 NA
ATOM     34  C   UNL     1      11.160  -5.514   4.068  1.00  0.00     0.031 C 
ATOM     35  C   UNL     1       6.324  -5.971   5.383  1.00  0.00     0.029 A 
ATOM     36  N   UNL     1       7.666  -7.708   5.800  1.00  0.00    -0.354 N 
ATOM     37  C   UNL     1      11.846  -7.604   4.684  1.00  0.00     0.074 A 
ATOM     38  C   UNL     1      12.176  -6.362   4.022  1.00  0.00     0.031 C 
ATOM     39  C   UNL     1       5.576  -6.925   5.957  1.00  0.00     0.029 A 
ATOM     40  C   UNL     1       6.419  -8.082   6.238  1.00  0.00     0.049 A 
ATOM     41  H   UNL     1       8.454  -8.297   5.849  1.00  0.00     0.167 HD
ATOM     42  C   UNL     1      12.729  -8.606   4.911  1.00  0.00     0.037 A 
ATOM     43  C   UNL     1       6.005  -9.229   6.807  1.00  0.00     0.037 A 
ATOM     44  C   UNL     1      12.397  -9.833   5.586  1.00  0.00     0.049 A 
ATOM     45  C   UNL     1       7.007 -10.320   7.058  1.00  0.00     0.074 A 
ATOM     46  C   UNL     1      13.229 -10.888   5.917  1.00  0.00     0.029 A 
ATOM     47  N   UNL     1      11.127 -10.170   6.030  1.00  0.00    -0.354 N 
ATOM     48  N   UNL     1       8.289 -10.345   6.785  1.00  0.00    -0.248 NA
ATOM     49  C   UNL     1       6.506 -11.537   7.709  1.00  0.00     0.031 C 
ATOM     50  C   UNL     1      12.452 -11.884   6.518  1.00  0.00     0.029 A 
ATOM     51  C   UNL     1      11.148 -11.426   6.615  1.00  0.00     0.049 A 
ATOM     52  H   UNL     1      10.328  -9.600   5.944  1.00  0.00     0.167 HD
ATOM     53  C   UNL     1       8.755 -11.566   7.256  1.00  0.00     0.074 A 
ATOM     54  C   UNL     1       7.619 -12.242   7.851  1.00  0.00     0.031 C 
ATOM     55  C   UNL     1      10.007 -12.082   7.202  1.00  0.00     0.037 A 
BRANCH  42  56
ATOM     56  C   UNL     1      14.138  -8.409   4.428  1.00  0.00     0.057 A 
ATOM     57  C   UNL     1      14.995  -7.465   5.011  1.00  0.00     0.134 A 
ATOM     58  C   UNL     1      14.655  -9.191   3.388  1.00  0.00     0.134 A 
ATOM     59  F   UNL     1      14.561  -6.672   6.003  1.00  0.00    -0.206 F 
ATOM     60  C   UNL     1      16.305  -7.287   4.559  1.00  0.00     0.040 A 
ATOM     61  C   UNL     1      15.972  -9.044   2.948  1.00  0.00     0.040 A 
ATOM     62  F   UNL     1      13.893 -10.117   2.787  1.00  0.00    -0.206 F 
ATOM     63  C   UNL     1      16.799  -8.085   3.529  1.00  0.00     0.006 A 
ENDBRANCH  42  56
BRANCH  43  64
ATOM     64  C   UNL     1       4.585  -9.388   7.212  1.00  0.00     0.057 A 
ATOM     65  C   UNL     1       4.219  -9.441   8.562  1.00  0.00     0.134 A 
ATOM     66  C   UNL     1       3.561  -9.497   6.263  1.00  0.00     0.134 A 
ATOM     67  F   UNL     1       5.156  -9.357   9.518  1.00  0.00    -0.206 F 
ATOM     68  C   UNL     1       2.892  -9.620   8.955  1.00  0.00     0.040 A 
ATOM     69  C   UNL     1       2.226  -9.648   6.641  1.00  0.00     0.040 A 
ATOM     70  F   UNL     1       3.843  -9.441   4.953  1.00  0.00    -0.206 F 
ATOM     71  C   UNL     1       1.890  -9.720   7.991  1.00  0.00     0.006 A 
ENDBRANCH  43  64
BRANCH  55  72
ATOM     72  C   UNL     1      10.216 -13.428   7.835  1.00  0.00     0.057 A 
ATOM     73  C   UNL     1       9.683 -14.600   7.284  1.00  0.00     0.134 A 
ATOM     74  C   UNL     1      10.970 -13.550   9.010  1.00  0.00     0.134 A 
ATOM     75  F   UNL     1       8.941 -14.550   6.167  1.00  0.00    -0.206 F 
ATOM     76  C   UNL     1       9.860 -15.841   7.899  1.00  0.00     0.040 A 
ATOM     77  C   UNL     1      11.181 -14.789   9.616  1.00  0.00     0.040 A 
ATOM     78  F   UNL     1      11.518 -12.469   9.584  1.00  0.00    -0.206 F 
ATOM     79  C   UNL     1      10.615 -15.937   9.066  1.00  0.00     0.006 A 
ENDBRANCH  55  72
ENDBRANCH  29  30
ENDBRANCH  21  24
ENDBRANCH  19  20
ENDBRANCH  18  19
ENDBRANCH   1  18
TORSDOF 15
