REMARK SMILES Nc1c(N2CCCC2)ncnc1N1CCC(C(=O)NCCCNC(=O)c2ccc(-c3c4nc(c(-c5c(F)cccc5F)c5ccc([nH]5)c(-c5c(F)cccc5F)c5nc(c(-c6c(F)cccc6F)c6ccc3[nH]6)C=C5)C=C4)cc2)CC1
REMARK SMILES IDX 21 1 20 2 19 3 17 4 18 5 16 7 13 8 14 9 81 10 15 11 80 12
REMARK SMILES IDX 12 13 2 14 3 15 9 16 11 17 10 18 1 19 4 22 5 23 8 24 6 25
REMARK SMILES IDX 7 26 22 27 23 28 24 29 25 31 26 32 27 33 79 34 28 35 78 36
REMARK SMILES IDX 29 37 30 38 31 39 72 40 32 41 77 42 71 43 73 44 33 45 76 46
REMARK SMILES IDX 70 47 69 48 34 50 60 51 43 52 59 53 44 54 47 55 58 56 74 57
REMARK SMILES IDX 45 58 46 59 57 61 75 62 48 63 35 64 36 65 41 66 37 67 38 68
REMARK SMILES IDX 40 69 42 70 39 71 61 72 62 73 67 74 63 75 64 76 66 77 68 78
REMARK SMILES IDX 65 79 49 80 50 81 55 82 51 83 52 84 54 85 56 86 53 87
REMARK H PARENT 19 6 1 20 1 21 23 30 73 49 47 60
REMARK Flexibility Score: inf
ROOT
ATOM      1  C   UNL     1       0.462  -5.540   4.793  1.00  0.00     0.042 C 
ENDROOT
BRANCH   1   2
ATOM      2  C   UNL     1       0.616  -4.066   5.142  1.00  0.00     0.117 C 
BRANCH   2   3
ATOM      3  N   UNL     1       1.825  -3.804   5.914  1.00  0.00    -0.356 N 
ATOM      4  C   UNL     1       2.952  -3.109   5.598  1.00  0.00     0.223 C 
ATOM      5  O   UNL     1       3.852  -3.055   6.441  1.00  0.00    -0.275 OA
ATOM      6  H   UNL     1       1.827  -4.198   6.817  1.00  0.00     0.163 HD
BRANCH   4   7
ATOM      7  C   UNL     1       3.103  -2.402   4.261  1.00  0.00     0.082 C 
ATOM      8  N   UNL     1       1.765  -1.907   1.833  1.00  0.00    -0.355 N 
ATOM      9  C   UNL     1       2.890  -2.809   1.745  1.00  0.00     0.119 C 
ATOM     10  C   UNL     1       1.862  -0.772   2.730  1.00  0.00     0.119 C 
ATOM     11  C   UNL     1       3.149  -3.420   3.110  1.00  0.00     0.035 C 
ATOM     12  C   UNL     1       2.072  -1.266   4.151  1.00  0.00     0.035 C 
BRANCH   8  13
ATOM     13  C   UNL     1       0.730  -2.033   0.926  1.00  0.00     0.157 A 
ATOM     14  C   UNL     1       0.373  -0.979   0.075  1.00  0.00     0.118 A 
ATOM     15  C   UNL     1      -0.754  -1.179  -0.741  1.00  0.00     0.157 A 
ATOM     16  N   UNL     1      -1.468  -2.316  -0.709  1.00  0.00    -0.217 NA
ATOM     17  N   UNL     1       0.072  -3.207   0.908  1.00  0.00    -0.217 NA
ATOM     18  C   UNL     1      -1.002  -3.275   0.105  1.00  0.00     0.226 A 
BRANCH  14  19
ATOM     19  N   UNL     1       1.032   0.265   0.102  1.00  0.00    -0.393 N 
ATOM     20  H   UNL     1       0.753   0.983  -0.511  1.00  0.00     0.156 HD
ATOM     21  H   UNL     1       1.772   0.417   0.733  1.00  0.00     0.156 HD
ENDBRANCH  14  19
BRANCH  15  22
ATOM     22  N   UNL     1      -1.133  -0.175  -1.606  1.00  0.00    -0.355 N 
ATOM     23  C   UNL     1      -0.330   0.169  -2.762  1.00  0.00     0.118 C 
ATOM     24  C   UNL     1      -2.520   0.194  -1.804  1.00  0.00     0.118 C 
ATOM     25  C   UNL     1      -0.953   1.505  -3.139  1.00  0.00     0.023 C 
ATOM     26  C   UNL     1      -2.446   1.270  -2.902  1.00  0.00     0.023 C 
ENDBRANCH  15  22
ENDBRANCH   8  13
ENDBRANCH   4   7
ENDBRANCH   2   3
ENDBRANCH   1   2
BRANCH   1  27
ATOM     27  C   UNL     1       0.303  -6.444   6.006  1.00  0.00     0.118 C 
BRANCH  27  28
ATOM     28  N   UNL     1      -0.932  -6.189   6.735  1.00  0.00    -0.352 N 
ATOM     29  C   UNL     1      -2.035  -6.984   6.901  1.00  0.00     0.251 C 
ATOM     30  H   UNL     1      -0.981  -5.310   7.176  1.00  0.00     0.163 HD
ATOM     31  O   UNL     1      -3.064  -6.508   7.385  1.00  0.00    -0.269 OA
BRANCH  29  32
ATOM     32  C   UNL     1      -2.007  -8.402   6.491  1.00  0.00     0.039 A 
ATOM     33  C   UNL     1      -3.123  -8.942   5.846  1.00  0.00     0.014 A 
ATOM     34  C   UNL     1      -0.898  -9.209   6.761  1.00  0.00     0.014 A 
ATOM     35  C   UNL     1      -3.103 -10.271   5.420  1.00  0.00     0.010 A 
ATOM     36  C   UNL     1      -0.844 -10.505   6.260  1.00  0.00     0.010 A 
ATOM     37  C   UNL     1      -1.950 -11.054   5.596  1.00  0.00    -0.014 A 
BRANCH  37  38
ATOM     38  C   UNL     1      -1.890 -12.458   5.121  1.00  0.00     0.031 A 
ATOM     39  C   UNL     1      -1.738 -13.578   6.114  1.00  0.00     0.074 A 
ATOM     40  C   UNL     1      -1.925 -12.722   3.801  1.00  0.00     0.049 A 
ATOM     41  N   UNL     1      -1.591 -14.860   5.897  1.00  0.00    -0.248 NA
ATOM     42  C   UNL     1      -1.729 -13.207   7.539  1.00  0.00     0.031 C 
ATOM     43  C   UNL     1      -2.042 -11.720   2.740  1.00  0.00     0.029 A 
ATOM     44  N   UNL     1      -1.861 -13.915   3.125  1.00  0.00    -0.354 N 
ATOM     45  C   UNL     1      -1.466 -15.442   7.152  1.00  0.00     0.074 A 
ATOM     46  C   UNL     1      -1.495 -14.372   8.123  1.00  0.00     0.031 C 
ATOM     47  C   UNL     1      -2.071 -12.341   1.550  1.00  0.00     0.029 A 
ATOM     48  C   UNL     1      -1.932 -13.779   1.759  1.00  0.00     0.049 A 
ATOM     49  H   UNL     1      -1.773 -14.785   3.576  1.00  0.00     0.167 HD
ATOM     50  C   UNL     1      -1.365 -16.755   7.467  1.00  0.00     0.037 A 
ATOM     51  C   UNL     1      -1.884 -14.710   0.787  1.00  0.00     0.037 A 
ATOM     52  C   UNL     1      -1.363 -17.820   6.500  1.00  0.00     0.049 A 
ATOM     53  C   UNL     1      -1.741 -16.159   1.165  1.00  0.00     0.074 A 
ATOM     54  C   UNL     1      -1.301 -19.184   6.724  1.00  0.00     0.029 A 
ATOM     55  N   UNL     1      -1.432 -17.640   5.127  1.00  0.00    -0.354 N 
ATOM     56  N   UNL     1      -1.664 -16.698   2.357  1.00  0.00    -0.248 NA
ATOM     57  C   UNL     1      -1.679 -17.129   0.062  1.00  0.00     0.031 C 
ATOM     58  C   UNL     1      -1.291 -19.829   5.484  1.00  0.00     0.029 A 
ATOM     59  C   UNL     1      -1.397 -18.869   4.490  1.00  0.00     0.049 A 
ATOM     60  H   UNL     1      -1.496 -16.769   4.673  1.00  0.00     0.167 HD
ATOM     61  C   UNL     1      -1.572 -18.068   2.150  1.00  0.00     0.074 A 
ATOM     62  C   UNL     1      -1.620 -18.279   0.719  1.00  0.00     0.031 C 
ATOM     63  C   UNL     1      -1.457 -19.062   3.064  1.00  0.00     0.037 A 
BRANCH  50  64
ATOM     64  C   UNL     1      -1.273 -17.121   8.919  1.00  0.00     0.057 A 
ATOM     65  C   UNL     1      -2.378 -17.012   9.773  1.00  0.00     0.134 A 
ATOM     66  C   UNL     1      -0.095 -17.658   9.451  1.00  0.00     0.134 A 
ATOM     67  F   UNL     1      -3.533 -16.493   9.329  1.00  0.00    -0.206 F 
ATOM     68  C   UNL     1      -2.312 -17.415  11.108  1.00  0.00     0.040 A 
ATOM     69  C   UNL     1      -0.024 -18.089  10.777  1.00  0.00     0.040 A 
ATOM     70  F   UNL     1       0.999 -17.794   8.686  1.00  0.00    -0.206 F 
ATOM     71  C   UNL     1      -1.135 -17.967  11.610  1.00  0.00     0.006 A 
ENDBRANCH  50  64
BRANCH  51  72
ATOM     72  C   UNL     1      -1.998 -14.305  -0.638  1.00  0.00     0.057 A 
ATOM     73  C   UNL     1      -3.133 -14.633  -1.390  1.00  0.00     0.134 A 
ATOM     74  C   UNL     1      -0.984 -13.588  -1.283  1.00  0.00     0.134 A 
ATOM     75  F   UNL     1      -4.131 -15.335  -0.834  1.00  0.00    -0.206 F 
ATOM     76  C   UNL     1      -3.247 -14.278  -2.735  1.00  0.00     0.040 A 
ATOM     77  C   UNL     1      -1.096 -13.204  -2.620  1.00  0.00     0.040 A 
ATOM     78  F   UNL     1       0.127 -13.238  -0.617  1.00  0.00    -0.206 F 
ATOM     79  C   UNL     1      -2.228 -13.556  -3.352  1.00  0.00     0.006 A 
ENDBRANCH  51  72
BRANCH  63  80
ATOM     80  C   UNL     1      -1.401 -20.471   2.553  1.00  0.00     0.057 A 
ATOM     81  C   UNL     1      -0.268 -20.977   1.905  1.00  0.00     0.134 A 
ATOM     82  C   UNL     1      -2.469 -21.352   2.773  1.00  0.00     0.134 A 
ATOM     83  F   UNL     1       0.784 -20.181   1.656  1.00  0.00    -0.206 F 
ATOM     84  C   UNL     1      -0.203 -22.304   1.480  1.00  0.00     0.040 A 
ATOM     85  C   UNL     1      -2.405 -22.689   2.378  1.00  0.00     0.040 A 
ATOM     86  F   UNL     1      -3.579 -20.934   3.399  1.00  0.00    -0.206 F 
ATOM     87  C   UNL     1      -1.270 -23.167   1.726  1.00  0.00     0.006 A 
ENDBRANCH  63  80
ENDBRANCH  37  38
ENDBRANCH  29  32
ENDBRANCH  27  28
ENDBRANCH   1  27
TORSDOF 13
