REMARK SMILES C[NH2+][C@@]1(C(=O)NCCCNC(=O)c2ccc(-c3c4nc(c(-c5c(F)cccc5F)c5ccc([nH]5)c(-c5c(F)cccc5F)c5nc(c(-c6c(F)cccc6F)c6ccc3[nH]6)C=C5)C=C4)cc2)CCC[C@H]1CCSc1nccc(=O)[nH]1
REMARK SMILES IDX 7 1 6 2 4 3 5 4 3 6 67 7 70 8 68 9 69 10 2 11 1 12 71 15
REMARK SMILES IDX 72 16 73 17 74 18 75 19 80 20 76 21 78 22 77 24 79 25 8 26
REMARK SMILES IDX 9 27 10 28 11 29 12 31 13 32 14 33 66 34 15 35 65 36 16 37
REMARK SMILES IDX 17 38 18 39 59 40 19 41 64 42 58 43 60 44 20 45 63 46 57 47
REMARK SMILES IDX 56 48 21 50 47 51 30 52 46 53 31 54 34 55 45 56 61 57 32 58
REMARK SMILES IDX 33 59 44 61 62 62 35 63 22 64 23 65 28 66 24 67 25 68 27 69
REMARK SMILES IDX 29 70 26 71 48 72 49 73 54 74 50 75 51 76 53 77 55 78 52 79
REMARK SMILES IDX 36 80 37 81 42 82 38 83 39 84 41 85 43 86 40 87
REMARK H PARENT 6 5 2 13 2 14 80 23 10 30 60 49 34 60
REMARK Flexibility Score: inf
ROOT
ATOM      1  C   UNL     1      -4.018   0.929   2.147  1.00  0.00     0.118 C 
ENDROOT
BRANCH   1   2
ATOM      2  N   UNL     1      -2.721   1.095   2.748  1.00  0.00    -0.351 N 
ATOM      3  C   UNL     1      -1.463   1.192   2.253  1.00  0.00     0.281 C 
ATOM      4  O   UNL     1      -0.648   1.558   3.119  1.00  0.00    -0.268 OA
ATOM      5  H   UNL     1      -2.755   1.150   3.730  1.00  0.00     0.163 HD
BRANCH   3   6
ATOM      6  C   UNL     1      -0.988   0.891   0.737  1.00  0.00     0.178 C 
ATOM      7  C   UNL     1      -1.524   1.989  -0.200  1.00  0.00     0.079 C 
ATOM      8  C   UNL     1      -1.545  -0.468   0.190  1.00  0.00     0.061 C 
ATOM      9  C   UNL     1      -2.704   1.427  -0.971  1.00  0.00     0.008 C 
ATOM     10  C   UNL     1      -2.694  -0.082  -0.783  1.00  0.00     0.011 C 
BRANCH   6  11
ATOM     11  N   UNL     1       0.479   0.959   0.862  1.00  0.00    -0.336 N 
ATOM     12  C   UNL     1       1.367   1.185  -0.244  1.00  0.00     0.331 C 
ATOM     13  H   UNL     1       0.666   1.711   1.526  1.00  0.00     0.346 HD
ATOM     14  H   UNL     1       0.700  -0.009   1.096  1.00  0.00     0.346 HD
ENDBRANCH   6  11
BRANCH   8  15
ATOM     15  C   UNL     1      -0.632  -1.442  -0.606  1.00  0.00     0.022 C 
BRANCH  15  16
ATOM     16  C   UNL     1       0.549  -2.136   0.080  1.00  0.00     0.079 C 
BRANCH  16  17
ATOM     17  S   UNL     1       0.094  -3.649   0.977  1.00  0.00    -0.088 SA
BRANCH  17  18
ATOM     18  C   UNL     1      -0.486  -2.995   2.468  1.00  0.00     0.168 A 
ATOM     19  N   UNL     1      -0.080  -1.875   2.958  1.00  0.00    -0.233 NA
ATOM     20  N   UNL     1      -1.424  -3.793   3.041  1.00  0.00    -0.301 N 
ATOM     21  C   UNL     1      -0.659  -1.489   4.140  1.00  0.00     0.120 A 
ATOM     22  C   UNL     1      -2.076  -3.425   4.174  1.00  0.00     0.251 A 
ATOM     23  H   UNL     1      -1.636  -4.660   2.624  1.00  0.00     0.172 HD
ATOM     24  C   UNL     1      -1.625  -2.161   4.773  1.00  0.00     0.091 A 
ATOM     25  O   UNL     1      -3.000  -4.067   4.662  1.00  0.00    -0.269 OA
ENDBRANCH  17  18
ENDBRANCH  16  17
ENDBRANCH  15  16
ENDBRANCH   8  15
ENDBRANCH   3   6
ENDBRANCH   1   2
BRANCH   1  26
ATOM     26  C   UNL     1      -4.678  -0.397   2.483  1.00  0.00     0.042 C 
BRANCH  26  27
ATOM     27  C   UNL     1      -5.261  -0.445   3.890  1.00  0.00     0.118 C 
BRANCH  27  28
ATOM     28  N   UNL     1      -6.267   0.590   4.112  1.00  0.00    -0.352 N 
ATOM     29  C   UNL     1      -7.633   0.517   4.220  1.00  0.00     0.251 C 
ATOM     30  H   UNL     1      -5.902   1.500   4.198  1.00  0.00     0.163 HD
ATOM     31  O   UNL     1      -8.299   1.546   4.146  1.00  0.00    -0.269 OA
BRANCH  29  32
ATOM     32  C   UNL     1      -8.309  -0.781   4.422  1.00  0.00     0.039 A 
ATOM     33  C   UNL     1      -9.559  -0.999   3.834  1.00  0.00     0.014 A 
ATOM     34  C   UNL     1      -7.740  -1.768   5.228  1.00  0.00     0.014 A 
ATOM     35  C   UNL     1     -10.200  -2.227   4.002  1.00  0.00     0.010 A 
ATOM     36  C   UNL     1      -8.323  -3.026   5.302  1.00  0.00     0.010 A 
ATOM     37  C   UNL     1      -9.569  -3.265   4.706  1.00  0.00    -0.014 A 
BRANCH  37  38
ATOM     38  C   UNL     1     -10.198  -4.600   4.857  1.00  0.00     0.031 A 
ATOM     39  C   UNL     1     -10.519  -5.128   6.230  1.00  0.00     0.074 A 
ATOM     40  C   UNL     1     -10.409  -5.364   3.769  1.00  0.00     0.049 A 
ATOM     41  N   UNL     1     -10.989  -6.299   6.577  1.00  0.00    -0.248 NA
ATOM     42  C   UNL     1     -10.243  -4.234   7.367  1.00  0.00     0.031 C 
ATOM     43  C   UNL     1     -10.093  -4.982   2.391  1.00  0.00     0.029 A 
ATOM     44  N   UNL     1     -10.931  -6.627   3.651  1.00  0.00    -0.354 N 
ATOM     45  C   UNL     1     -11.043  -6.287   7.965  1.00  0.00     0.074 A 
ATOM     46  C   UNL     1     -10.501  -5.020   8.400  1.00  0.00     0.031 C 
ATOM     47  C   UNL     1     -10.454  -5.977   1.565  1.00  0.00     0.029 A 
ATOM     48  C   UNL     1     -10.983  -7.083   2.356  1.00  0.00     0.049 A 
ATOM     49  H   UNL     1     -11.238  -7.157   4.422  1.00  0.00     0.167 HD
ATOM     50  C   UNL     1     -11.526  -7.236   8.802  1.00  0.00     0.037 A 
ATOM     51  C   UNL     1     -11.402  -8.264   1.865  1.00  0.00     0.037 A 
ATOM     52  C   UNL     1     -12.087  -8.485   8.360  1.00  0.00     0.049 A 
ATOM     53  C   UNL     1     -11.923  -9.306   2.815  1.00  0.00     0.074 A 
ATOM     54  C   UNL     1     -12.662  -9.489   9.120  1.00  0.00     0.029 A 
ATOM     55  N   UNL     1     -12.136  -8.904   7.039  1.00  0.00    -0.354 N 
ATOM     56  N   UNL     1     -12.039  -9.253   4.120  1.00  0.00    -0.248 NA
ATOM     57  C   UNL     1     -12.378 -10.572   2.224  1.00  0.00     0.031 C 
ATOM     58  C   UNL     1     -13.009 -10.538   8.264  1.00  0.00     0.029 A 
ATOM     59  C   UNL     1     -12.708 -10.163   6.964  1.00  0.00     0.049 A 
ATOM     60  H   UNL     1     -11.813  -8.383   6.268  1.00  0.00     0.167 HD
ATOM     61  C   UNL     1     -12.610 -10.460   4.502  1.00  0.00     0.074 A 
ATOM     62  C   UNL     1     -12.828 -11.220   3.288  1.00  0.00     0.031 C 
ATOM     63  C   UNL     1     -12.926 -10.901   5.745  1.00  0.00     0.037 A 
BRANCH  50  64
ATOM     64  C   UNL     1     -11.466  -6.957  10.277  1.00  0.00     0.057 A 
ATOM     65  C   UNL     1     -12.248  -5.960  10.877  1.00  0.00     0.134 A 
ATOM     66  C   UNL     1     -10.632  -7.710  11.114  1.00  0.00     0.134 A 
ATOM     67  F   UNL     1     -13.059  -5.192  10.134  1.00  0.00    -0.206 F 
ATOM     68  C   UNL     1     -12.178  -5.701  12.248  1.00  0.00     0.040 A 
ATOM     69  C   UNL     1     -10.579  -7.482  12.490  1.00  0.00     0.040 A 
ATOM     70  F   UNL     1      -9.861  -8.685  10.610  1.00  0.00    -0.206 F 
ATOM     71  C   UNL     1     -11.347  -6.469  13.059  1.00  0.00     0.006 A 
ENDBRANCH  50  64
BRANCH  51  72
ATOM     72  C   UNL     1     -11.370  -8.516   0.401  1.00  0.00     0.057 A 
ATOM     73  C   UNL     1     -12.555  -8.629  -0.337  1.00  0.00     0.134 A 
ATOM     74  C   UNL     1     -10.163  -8.657  -0.294  1.00  0.00     0.134 A 
ATOM     75  F   UNL     1     -13.743  -8.519   0.275  1.00  0.00    -0.206 F 
ATOM     76  C   UNL     1     -12.541  -8.898  -1.706  1.00  0.00     0.040 A 
ATOM     77  C   UNL     1     -10.134  -8.898  -1.669  1.00  0.00     0.040 A 
ATOM     78  F   UNL     1      -8.992  -8.549   0.351  1.00  0.00    -0.206 F 
ATOM     79  C   UNL     1     -11.327  -9.029  -2.377  1.00  0.00     0.006 A 
ENDBRANCH  51  72
BRANCH  63  80
ATOM     80  C   UNL     1     -13.584 -12.246   5.851  1.00  0.00     0.057 A 
ATOM     81  C   UNL     1     -12.887 -13.436   5.606  1.00  0.00     0.134 A 
ATOM     82  C   UNL     1     -14.925 -12.351   6.244  1.00  0.00     0.134 A 
ATOM     83  F   UNL     1     -11.605 -13.406   5.214  1.00  0.00    -0.206 F 
ATOM     84  C   UNL     1     -13.508 -14.681   5.723  1.00  0.00     0.040 A 
ATOM     85  C   UNL     1     -15.547 -13.590   6.396  1.00  0.00     0.040 A 
ATOM     86  F   UNL     1     -15.647 -11.251   6.504  1.00  0.00    -0.206 F 
ATOM     87  C   UNL     1     -14.840 -14.760   6.127  1.00  0.00     0.006 A 
ENDBRANCH  63  80
ENDBRANCH  37  38
ENDBRANCH  29  32
ENDBRANCH  27  28
ENDBRANCH  26  27
ENDBRANCH   1  26
TORSDOF 15
