REMARK SMILES COc1cccc(CSc2nc3ccccc3c(=O)n2CCC(=O)NCCCNC(=O)c2ccc(-c3c4nc(c(-c5c(F)cccc5F)c5ccc([nH]5)c(-c5c(F)cccc5F)c5nc(c(-c6c(F)cccc6F)c6ccc3[nH]6)C=C5)C=C4)cc2)c1
REMARK SMILES IDX 23 1 24 2 25 3 22 5 21 6 20 7 10 8 11 9 12 10 18 11 13 12
REMARK SMILES IDX 17 13 19 14 14 15 16 16 15 17 9 18 8 19 7 20 3 21 4 22 86 23
REMARK SMILES IDX 5 24 6 25 2 26 1 27 26 28 27 29 28 30 29 31 30 32 31 34
REMARK SMILES IDX 32 35 33 36 85 37 34 38 84 39 35 40 36 41 37 42 78 43 38 44
REMARK SMILES IDX 83 45 77 46 79 47 39 48 82 49 76 50 75 51 40 53 66 54 49 55
REMARK SMILES IDX 65 56 50 57 53 58 64 59 80 60 51 61 52 62 63 64 81 65 54 66
REMARK SMILES IDX 41 67 42 68 47 69 43 70 44 71 46 72 48 73 45 74 67 75 68 76
REMARK SMILES IDX 73 77 69 78 70 79 72 80 74 81 71 82 55 83 56 84 61 85 57 86
REMARK SMILES IDX 58 87 60 88 62 89 59 90
REMARK H PARENT 25 4 29 33 79 52 53 63
REMARK Flexibility Score: inf
ROOT
ATOM      1  C   UNL     1       6.018  -1.407   2.725  1.00  0.00     0.221 C 
ATOM      2  O   UNL     1       5.673  -2.387   2.060  1.00  0.00    -0.275 OA
ATOM      3  N   UNL     1       6.989  -1.576   3.665  1.00  0.00    -0.356 N 
ATOM      4  H   UNL     1       7.331  -2.496   3.749  1.00  0.00     0.163 HD
ENDROOT
BRANCH   1   5
ATOM      5  C   UNL     1       5.383  -0.052   2.480  1.00  0.00     0.122 C 
BRANCH   5   6
ATOM      6  C   UNL     1       3.860  -0.087   2.663  1.00  0.00     0.138 C 
BRANCH   6   7
ATOM      7  N   UNL     1       3.418   0.311   3.999  1.00  0.00    -0.287 N 
ATOM      8  C   UNL     1       3.469  -0.448   5.152  1.00  0.00     0.171 A 
ATOM      9  N   UNL     1       3.629   0.112   6.319  1.00  0.00    -0.224 NA
ATOM     10  C   UNL     1       3.818   1.501   6.378  1.00  0.00     0.079 A 
ATOM     11  C   UNL     1       3.009   1.654   4.097  1.00  0.00     0.262 A 
ATOM     12  C   UNL     1       4.543   2.082   7.423  1.00  0.00     0.029 A 
ATOM     13  C   UNL     1       3.374   2.325   5.357  1.00  0.00     0.066 A 
ATOM     14  O   UNL     1       2.497   2.294   3.202  1.00  0.00    -0.269 OA
ATOM     15  C   UNL     1       4.767   3.465   7.457  1.00  0.00     0.002 A 
ATOM     16  C   UNL     1       3.508   3.717   5.418  1.00  0.00     0.016 A 
ATOM     17  C   UNL     1       4.212   4.288   6.477  1.00  0.00     0.001 A 
BRANCH   8  18
ATOM     18  S   UNL     1       3.550  -2.201   5.234  1.00  0.00    -0.083 SA
BRANCH  18  19
ATOM     19  C   UNL     1       2.836  -3.034   3.813  1.00  0.00     0.113 C 
BRANCH  19  20
ATOM     20  C   UNL     1       1.429  -2.644   3.466  1.00  0.00    -0.034 A 
ATOM     21  C   UNL     1      -0.103  -1.465   1.992  1.00  0.00     0.119 A 
ATOM     22  C   UNL     1      -1.115  -1.637   2.934  1.00  0.00     0.046 A 
ATOM     23  C   UNL     1       1.141  -2.040   2.230  1.00  0.00     0.051 A 
ATOM     24  C   UNL     1      -0.883  -2.362   4.104  1.00  0.00     0.004 A 
ATOM     25  C   UNL     1       0.389  -2.854   4.377  1.00  0.00     0.005 A 
BRANCH  21  26
ATOM     26  O   UNL     1      -0.433  -0.713   0.899  1.00  0.00    -0.497 OA
ATOM     27  C   UNL     1       0.638  -0.279   0.065  1.00  0.00     0.278 C 
ENDBRANCH  21  26
ENDBRANCH  19  20
ENDBRANCH  18  19
ENDBRANCH   8  18
ENDBRANCH   6   7
ENDBRANCH   5   6
ENDBRANCH   1   5
BRANCH   3  28
ATOM     28  C   UNL     1       7.602  -0.608   4.567  1.00  0.00     0.117 C 
BRANCH  28  29
ATOM     29  C   UNL     1       6.826  -0.467   5.870  1.00  0.00     0.042 C 
BRANCH  29  30
ATOM     30  C   UNL     1       7.166  -1.456   6.980  1.00  0.00     0.118 C 
BRANCH  30  31
ATOM     31  N   UNL     1       8.191  -0.915   7.856  1.00  0.00    -0.352 N 
ATOM     32  C   UNL     1       8.126  -0.177   9.012  1.00  0.00     0.251 C 
ATOM     33  H   UNL     1       9.109  -1.116   7.564  1.00  0.00     0.163 HD
ATOM     34  O   UNL     1       9.143   0.445   9.327  1.00  0.00    -0.269 OA
BRANCH  32  35
ATOM     35  C   UNL     1       6.933  -0.084   9.907  1.00  0.00     0.039 A 
ATOM     36  C   UNL     1       6.855   1.039  10.749  1.00  0.00     0.014 A 
ATOM     37  C   UNL     1       5.981  -1.093  10.072  1.00  0.00     0.014 A 
ATOM     38  C   UNL     1       5.866   1.143  11.738  1.00  0.00     0.010 A 
ATOM     39  C   UNL     1       4.946  -0.957  11.019  1.00  0.00     0.010 A 
ATOM     40  C   UNL     1       4.893   0.145  11.887  1.00  0.00    -0.014 A 
BRANCH  40  41
ATOM     41  C   UNL     1       3.875   0.233  12.979  1.00  0.00     0.031 A 
ATOM     42  C   UNL     1       3.861  -0.770  14.109  1.00  0.00     0.074 A 
ATOM     43  C   UNL     1       2.961   1.225  12.983  1.00  0.00     0.049 A 
ATOM     44  N   UNL     1       3.062  -0.845  15.149  1.00  0.00    -0.248 NA
ATOM     45  C   UNL     1       4.870  -1.837  14.058  1.00  0.00     0.031 C 
ATOM     46  C   UNL     1       2.843   2.266  11.963  1.00  0.00     0.029 A 
ATOM     47  N   UNL     1       1.963   1.524  13.881  1.00  0.00    -0.354 N 
ATOM     48  C   UNL     1       3.466  -1.966  15.865  1.00  0.00     0.074 A 
ATOM     49  C   UNL     1       4.547  -2.570  15.114  1.00  0.00     0.031 C 
ATOM     50  C   UNL     1       1.855   3.108  12.309  1.00  0.00     0.029 A 
ATOM     51  C   UNL     1       1.241   2.646  13.551  1.00  0.00     0.049 A 
ATOM     52  H   UNL     1       1.782   0.984  14.684  1.00  0.00     0.167 HD
ATOM     53  C   UNL     1       3.001  -2.444  17.047  1.00  0.00     0.037 A 
ATOM     54  C   UNL     1       0.201   3.238  14.171  1.00  0.00     0.037 A 
ATOM     55  C   UNL     1       1.932  -1.848  17.809  1.00  0.00     0.049 A 
ATOM     56  C   UNL     1      -0.339   2.657  15.450  1.00  0.00     0.074 A 
ATOM     57  C   UNL     1       1.420  -2.243  19.034  1.00  0.00     0.029 A 
ATOM     58  N   UNL     1       1.203  -0.737  17.415  1.00  0.00    -0.354 N 
ATOM     59  N   UNL     1       0.087   1.625  16.137  1.00  0.00    -0.248 NA
ATOM     60  C   UNL     1      -1.508   3.328  16.041  1.00  0.00     0.031 C 
ATOM     61  C   UNL     1       0.348  -1.403  19.356  1.00  0.00     0.029 A 
ATOM     62  C   UNL     1       0.227  -0.450  18.359  1.00  0.00     0.049 A 
ATOM     63  H   UNL     1       1.355  -0.226  16.587  1.00  0.00     0.167 HD
ATOM     64  C   UNL     1      -0.738   1.542  17.253  1.00  0.00     0.074 A 
ATOM     65  C   UNL     1      -1.683   2.635  17.157  1.00  0.00     0.031 C 
ATOM     66  C   UNL     1      -0.710   0.642  18.266  1.00  0.00     0.037 A 
BRANCH  53  67
ATOM     67  C   UNL     1       3.647  -3.691  17.587  1.00  0.00     0.057 A 
ATOM     68  C   UNL     1       4.967  -3.698  18.060  1.00  0.00     0.134 A 
ATOM     69  C   UNL     1       2.937  -4.898  17.651  1.00  0.00     0.134 A 
ATOM     70  F   UNL     1       5.707  -2.579  18.025  1.00  0.00    -0.206 F 
ATOM     71  C   UNL     1       5.569  -4.865  18.535  1.00  0.00     0.040 A 
ATOM     72  C   UNL     1       3.518  -6.064  18.153  1.00  0.00     0.040 A 
ATOM     73  F   UNL     1       1.664  -4.963  17.232  1.00  0.00    -0.206 F 
ATOM     74  C   UNL     1       4.843  -6.053  18.585  1.00  0.00     0.006 A 
ENDBRANCH  53  67
BRANCH  54  75
ATOM     75  C   UNL     1      -0.393   4.476  13.604  1.00  0.00     0.057 A 
ATOM     76  C   UNL     1      -0.243   5.708  14.252  1.00  0.00     0.134 A 
ATOM     77  C   UNL     1      -1.130   4.460  12.414  1.00  0.00     0.134 A 
ATOM     78  F   UNL     1       0.430   5.784  15.410  1.00  0.00    -0.206 F 
ATOM     79  C   UNL     1      -0.812   6.877  13.745  1.00  0.00     0.040 A 
ATOM     80  C   UNL     1      -1.683   5.625  11.881  1.00  0.00     0.040 A 
ATOM     81  F   UNL     1      -1.313   3.311  11.746  1.00  0.00    -0.206 F 
ATOM     82  C   UNL     1      -1.529   6.838  12.550  1.00  0.00     0.006 A 
ENDBRANCH  54  75
BRANCH  66  83
ATOM     83  C   UNL     1      -1.704   0.820  19.378  1.00  0.00     0.057 A 
ATOM     84  C   UNL     1      -3.071   0.565  19.203  1.00  0.00     0.134 A 
ATOM     85  C   UNL     1      -1.283   1.224  20.653  1.00  0.00     0.134 A 
ATOM     86  F   UNL     1      -3.544   0.189  18.006  1.00  0.00    -0.206 F 
ATOM     87  C   UNL     1      -3.985   0.730  20.247  1.00  0.00     0.040 A 
ATOM     88  C   UNL     1      -2.183   1.365  21.711  1.00  0.00     0.040 A 
ATOM     89  F   UNL     1       0.012   1.478  20.894  1.00  0.00    -0.206 F 
ATOM     90  C   UNL     1      -3.540   1.124  21.507  1.00  0.00     0.006 A 
ENDBRANCH  66  83
ENDBRANCH  40  41
ENDBRANCH  32  35
ENDBRANCH  30  31
ENDBRANCH  29  30
ENDBRANCH  28  29
ENDBRANCH   3  28
TORSDOF 16
