REMARK SMILES COc1ccc2c(c1)c(CC(=O)NCCCNC(=O)c1ccc(-c3c4nc(c(-c5c(F)cccc5F)c5ccc([nH]5)c(-c5c(F)cccc5F)c5nc(c(-c6c(F)cccc6F)c6ccc3[nH]6)C=C5)C=C4)cc1)c(C)n2Cc1ccn(C(F)F)c(=O)c1
REMARK SMILES IDX 14 1 13 2 11 3 12 4 10 6 9 7 3 8 4 9 8 10 5 11 7 12 6 13
REMARK SMILES IDX 76 14 74 15 75 16 2 17 1 18 77 19 78 20 79 21 87 22 80 23
REMARK SMILES IDX 85 24 81 25 86 26 82 27 83 28 84 29 15 30 16 31 17 32 18 33
REMARK SMILES IDX 19 35 20 36 21 37 73 38 22 39 72 40 23 41 24 42 25 43 66 44
REMARK SMILES IDX 26 45 71 46 65 47 67 48 27 49 70 50 64 51 63 52 28 54 54 55
REMARK SMILES IDX 37 56 53 57 38 58 41 59 52 60 68 61 39 62 40 63 51 65 69 66
REMARK SMILES IDX 42 67 29 68 30 69 35 70 31 71 32 72 34 73 36 74 33 75 55 76
REMARK SMILES IDX 56 77 61 78 57 79 58 80 60 81 62 82 59 83 43 84 44 85 49 86
REMARK SMILES IDX 45 87 46 88 48 89 50 90 47 91
REMARK H PARENT 13 5 17 34 67 53 41 64
REMARK Flexibility Score: inf
ROOT
ATOM      1  C   UNL     1      -0.586   3.323  -7.324  1.00  0.00     0.117 C 
ENDROOT
BRANCH   1   2
ATOM      2  N   UNL     1      -1.490   2.445  -6.596  1.00  0.00    -0.356 N 
ATOM      3  C   UNL     1      -2.085   2.607  -5.375  1.00  0.00     0.224 C 
ATOM      4  O   UNL     1      -2.888   1.744  -5.007  1.00  0.00    -0.275 OA
ATOM      5  H   UNL     1      -1.709   1.602  -7.055  1.00  0.00     0.163 HD
BRANCH   3   6
ATOM      6  C   UNL     1      -1.829   3.844  -4.525  1.00  0.00     0.138 C 
BRANCH   6   7
ATOM      7  C   UNL     1      -0.400   3.985  -4.104  1.00  0.00    -0.010 A 
ATOM      8  C   UNL     1       1.074   1.087  -2.120  1.00  0.00     0.119 A 
ATOM      9  C   UNL     1       2.386   1.546  -2.127  1.00  0.00     0.048 A 
ATOM     10  C   UNL     1       0.076   1.788  -2.795  1.00  0.00     0.057 A 
ATOM     11  C   UNL     1       2.720   2.758  -2.747  1.00  0.00     0.031 A 
ATOM     12  C   UNL     1       0.381   3.027  -3.397  1.00  0.00     0.007 A 
ATOM     13  C   UNL     1       1.693   3.509  -3.347  1.00  0.00     0.049 A 
ATOM     14  N   UNL     1       1.694   4.750  -3.974  1.00  0.00    -0.340 N 
ATOM     15  C   UNL     1       0.386   5.120  -4.241  1.00  0.00     0.020 A 
ATOM     16  C   UNL     1      -0.069   6.481  -4.637  1.00  0.00     0.065 C 
BRANCH   8  17
ATOM     17  O   UNL     1       0.705  -0.086  -1.516  1.00  0.00    -0.497 OA
ATOM     18  C   UNL     1       1.044  -0.111  -0.130  1.00  0.00     0.278 C 
ENDBRANCH   8  17
BRANCH  14  19
ATOM     19  C   UNL     1       2.895   5.557  -4.231  1.00  0.00     0.158 C 
BRANCH  19  20
ATOM     20  C   UNL     1       3.249   5.650  -5.700  1.00  0.00    -0.021 A 
ATOM     21  C   UNL     1       2.562   6.630  -6.513  1.00  0.00     0.024 A 
ATOM     22  C   UNL     1       4.197   4.893  -6.281  1.00  0.00     0.077 A 
ATOM     23  C   UNL     1       2.758   6.697  -7.829  1.00  0.00     0.095 A 
ATOM     24  C   UNL     1       4.452   4.974  -7.752  1.00  0.00     0.255 A 
ATOM     25  N   UNL     1       3.698   5.904  -8.447  1.00  0.00    -0.258 N 
ATOM     26  O   UNL     1       5.289   4.205  -8.223  1.00  0.00    -0.269 OA
BRANCH  25  27
ATOM     27  C   UNL     1       3.807   5.992  -9.882  1.00  0.00     0.451 C 
ATOM     28  F   UNL     1       5.045   5.712 -10.329  1.00  0.00    -0.185 F 
ATOM     29  F   UNL     1       2.919   5.144 -10.450  1.00  0.00    -0.185 F 
ENDBRANCH  25  27
ENDBRANCH  19  20
ENDBRANCH  14  19
ENDBRANCH   6   7
ENDBRANCH   3   6
ENDBRANCH   1   2
BRANCH   1  30
ATOM     30  C   UNL     1       0.829   2.750  -7.493  1.00  0.00     0.042 C 
BRANCH  30  31
ATOM     31  C   UNL     1       0.934   1.526  -8.409  1.00  0.00     0.118 C 
BRANCH  31  32
ATOM     32  N   UNL     1       0.374   1.718  -9.737  1.00  0.00    -0.352 N 
ATOM     33  C   UNL     1       0.831   1.918 -11.011  1.00  0.00     0.251 C 
ATOM     34  H   UNL     1      -0.610   1.698  -9.713  1.00  0.00     0.163 HD
ATOM     35  O   UNL     1      -0.041   1.861 -11.886  1.00  0.00    -0.269 OA
BRANCH  33  36
ATOM     36  C   UNL     1       2.216   2.273 -11.433  1.00  0.00     0.039 A 
ATOM     37  C   UNL     1       3.340   2.318 -10.620  1.00  0.00     0.014 A 
ATOM     38  C   UNL     1       2.355   2.690 -12.780  1.00  0.00     0.014 A 
ATOM     39  C   UNL     1       4.515   2.904 -11.108  1.00  0.00     0.010 A 
ATOM     40  C   UNL     1       3.523   3.283 -13.262  1.00  0.00     0.010 A 
ATOM     41  C   UNL     1       4.587   3.470 -12.399  1.00  0.00    -0.014 A 
BRANCH  41  42
ATOM     42  C   UNL     1       5.832   4.158 -12.794  1.00  0.00     0.031 A 
ATOM     43  C   UNL     1       7.042   3.345 -12.507  1.00  0.00     0.074 A 
ATOM     44  C   UNL     1       5.960   5.379 -13.371  1.00  0.00     0.049 A 
ATOM     45  N   UNL     1       7.970   3.603 -11.647  1.00  0.00    -0.248 NA
ATOM     46  C   UNL     1       7.143   2.014 -13.125  1.00  0.00     0.031 C 
ATOM     47  C   UNL     1       4.915   6.251 -13.911  1.00  0.00     0.029 A 
ATOM     48  N   UNL     1       7.103   6.093 -13.648  1.00  0.00    -0.354 N 
ATOM     49  C   UNL     1       8.863   2.543 -11.719  1.00  0.00     0.074 A 
ATOM     50  C   UNL     1       8.236   1.532 -12.530  1.00  0.00     0.031 C 
ATOM     51  C   UNL     1       5.481   7.242 -14.643  1.00  0.00     0.029 A 
ATOM     52  C   UNL     1       6.928   7.165 -14.524  1.00  0.00     0.049 A 
ATOM     53  H   UNL     1       7.978   5.864 -13.258  1.00  0.00     0.167 HD
ATOM     54  C   UNL     1      10.151   2.704 -11.315  1.00  0.00     0.037 A 
ATOM     55  C   UNL     1       7.892   7.912 -15.134  1.00  0.00     0.037 A 
ATOM     56  C   UNL     1      10.273   3.798 -10.380  1.00  0.00     0.049 A 
ATOM     57  C   UNL     1       9.146   7.757 -14.363  1.00  0.00     0.074 A 
ATOM     58  C   UNL     1       9.702   4.108  -9.158  1.00  0.00     0.029 A 
ATOM     59  N   UNL     1      10.828   4.969 -10.831  1.00  0.00    -0.354 N 
ATOM     60  N   UNL     1       9.352   8.297 -13.198  1.00  0.00    -0.248 NA
ATOM     61  C   UNL     1      10.010   6.638 -14.701  1.00  0.00     0.031 C 
ATOM     62  C   UNL     1       9.518   5.523  -9.181  1.00  0.00     0.029 A 
ATOM     63  C   UNL     1      10.045   5.998 -10.380  1.00  0.00     0.049 A 
ATOM     64  H   UNL     1      11.641   5.054 -11.379  1.00  0.00     0.167 HD
ATOM     65  C   UNL     1       9.994   7.304 -12.478  1.00  0.00     0.074 A 
ATOM     66  C   UNL     1      10.452   6.341 -13.477  1.00  0.00     0.031 C 
ATOM     67  C   UNL     1       9.843   7.213 -11.125  1.00  0.00     0.037 A 
BRANCH  54  68
ATOM     68  C   UNL     1      11.319   2.214 -12.142  1.00  0.00     0.057 A 
ATOM     69  C   UNL     1      11.235   1.877 -13.509  1.00  0.00     0.134 A 
ATOM     70  C   UNL     1      12.622   2.441 -11.663  1.00  0.00     0.134 A 
ATOM     71  F   UNL     1      10.075   1.646 -14.133  1.00  0.00    -0.206 F 
ATOM     72  C   UNL     1      12.345   1.862 -14.354  1.00  0.00     0.040 A 
ATOM     73  C   UNL     1      13.734   2.474 -12.511  1.00  0.00     0.040 A 
ATOM     74  F   UNL     1      12.838   2.754 -10.376  1.00  0.00    -0.206 F 
ATOM     75  C   UNL     1      13.594   2.206 -13.867  1.00  0.00     0.006 A 
ENDBRANCH  54  68
BRANCH  55  76
ATOM     76  C   UNL     1       7.915   8.564 -16.472  1.00  0.00     0.057 A 
ATOM     77  C   UNL     1       7.140   8.072 -17.535  1.00  0.00     0.134 A 
ATOM     78  C   UNL     1       8.922   9.480 -16.830  1.00  0.00     0.134 A 
ATOM     79  F   UNL     1       6.194   7.145 -17.327  1.00  0.00    -0.206 F 
ATOM     80  C   UNL     1       7.371   8.437 -18.868  1.00  0.00     0.040 A 
ATOM     81  C   UNL     1       9.167   9.851 -18.162  1.00  0.00     0.040 A 
ATOM     82  F   UNL     1       9.748   9.987 -15.902  1.00  0.00    -0.206 F 
ATOM     83  C   UNL     1       8.398   9.316 -19.188  1.00  0.00     0.006 A 
ENDBRANCH  55  76
BRANCH  67  84
ATOM     84  C   UNL     1       9.238   8.383 -10.406  1.00  0.00     0.057 A 
ATOM     85  C   UNL     1       9.963   8.955  -9.354  1.00  0.00     0.134 A 
ATOM     86  C   UNL     1       7.960   8.907 -10.654  1.00  0.00     0.134 A 
ATOM     87  F   UNL     1      11.174   8.476  -9.026  1.00  0.00    -0.206 F 
ATOM     88  C   UNL     1       9.460  10.016  -8.600  1.00  0.00     0.040 A 
ATOM     89  C   UNL     1       7.461   9.996  -9.931  1.00  0.00     0.040 A 
ATOM     90  F   UNL     1       7.146   8.366 -11.573  1.00  0.00    -0.206 F 
ATOM     91  C   UNL     1       8.211  10.552  -8.898  1.00  0.00     0.006 A 
ENDBRANCH  67  84
ENDBRANCH  41  42
ENDBRANCH  33  36
ENDBRANCH  31  32
ENDBRANCH  30  31
ENDBRANCH   1  30
TORSDOF 15
