REMARK SMILES COc1ccc(CCn2cc(C(=O)NCCCNC(=O)c3ccc(-c4c5nc(c(-c6c(F)cccc6F)c6ccc([nH]6)c(-c6c(F)cccc6F)c6nc(c(-c7c(F)cccc7F)c7ccc4[nH]7)C=C6)C=C5)cc3)ccc2=O)cc1OC
REMARK SMILES IDX 15 1 14 2 12 3 13 4 11 6 9 7 10 8 77 9 76 10 78 11 75 12
REMARK SMILES IDX 8 13 7 14 6 15 3 16 4 17 80 18 5 19 79 20 2 21 1 22 81 23
REMARK SMILES IDX 82 24 16 25 17 26 18 27 19 28 20 30 21 31 22 32 74 33 23 34
REMARK SMILES IDX 73 35 24 36 25 37 26 38 67 39 27 40 72 41 66 42 68 43 28 44
REMARK SMILES IDX 71 45 65 46 64 47 29 49 55 50 38 51 54 52 39 53 42 54 53 55
REMARK SMILES IDX 69 56 40 57 41 58 52 60 70 61 43 62 30 63 31 64 36 65 32 66
REMARK SMILES IDX 33 67 35 68 37 69 34 70 56 71 57 72 62 73 58 74 59 75 61 76
REMARK SMILES IDX 63 77 60 78 44 79 45 80 50 81 46 82 47 83 49 84 51 85 48 86
REMARK H PARENT 14 5 18 29 68 48 42 59
REMARK Flexibility Score: inf
ROOT
ATOM      1  C   UNL     1      -1.291  -8.899   4.665  1.00  0.00     0.118 C 
ENDROOT
BRANCH   1   2
ATOM      2  N   UNL     1      -2.458  -8.224   5.198  1.00  0.00    -0.352 N 
ATOM      3  C   UNL     1      -2.704  -6.967   5.650  1.00  0.00     0.252 C 
ATOM      4  O   UNL     1      -3.851  -6.753   6.054  1.00  0.00    -0.269 OA
ATOM      5  H   UNL     1      -3.250  -8.807   5.243  1.00  0.00     0.163 HD
BRANCH   3   6
ATOM      6  C   UNL     1      -1.706  -5.839   5.634  1.00  0.00     0.056 A 
ATOM      7  N   UNL     1       0.478  -4.870   5.436  1.00  0.00    -0.314 N 
ATOM      8  C   UNL     1      -0.376  -5.966   5.502  1.00  0.00     0.103 A 
ATOM      9  C   UNL     1       0.039  -3.570   5.670  1.00  0.00     0.250 A 
ATOM     10  C   UNL     1      -1.425  -3.412   5.835  1.00  0.00     0.072 A 
ATOM     11  O   UNL     1       0.760  -2.573   5.715  1.00  0.00    -0.269 OA
ATOM     12  C   UNL     1      -2.228  -4.484   5.792  1.00  0.00     0.021 A 
BRANCH   7  13
ATOM     13  C   UNL     1       1.856  -5.080   4.972  1.00  0.00     0.130 C 
BRANCH  13  14
ATOM     14  C   UNL     1       1.926  -5.290   3.442  1.00  0.00     0.057 C 
BRANCH  14  15
ATOM     15  C   UNL     1       1.672  -4.026   2.653  1.00  0.00    -0.042 A 
ATOM     16  C   UNL     1       1.240  -1.535   1.408  1.00  0.00     0.160 A 
ATOM     17  C   UNL     1       0.157  -2.329   1.806  1.00  0.00     0.051 A 
ATOM     18  C   UNL     1       2.547  -2.002   1.598  1.00  0.00     0.160 A 
ATOM     19  C   UNL     1       0.371  -3.578   2.397  1.00  0.00     0.008 A 
ATOM     20  C   UNL     1       2.749  -3.235   2.232  1.00  0.00     0.054 A 
BRANCH  16  21
ATOM     21  O   UNL     1       1.039  -0.260   0.950  1.00  0.00    -0.493 OA
ATOM     22  C   UNL     1       0.081  -0.160  -0.098  1.00  0.00     0.278 C 
ENDBRANCH  16  21
BRANCH  18  23
ATOM     23  O   UNL     1       3.717  -1.374   1.256  1.00  0.00    -0.493 OA
ATOM     24  C   UNL     1       3.649  -0.402   0.222  1.00  0.00     0.278 C 
ENDBRANCH  18  23
ENDBRANCH  14  15
ENDBRANCH  13  14
ENDBRANCH   7  13
ENDBRANCH   3   6
ENDBRANCH   1   2
BRANCH   1  25
ATOM     25  C   UNL     1      -0.507  -9.608   5.772  1.00  0.00     0.042 C 
BRANCH  25  26
ATOM     26  C   UNL     1      -1.154 -10.920   6.222  1.00  0.00     0.118 C 
BRANCH  26  27
ATOM     27  N   UNL     1      -1.067 -11.942   5.189  1.00  0.00    -0.352 N 
ATOM     28  C   UNL     1      -0.627 -13.237   5.252  1.00  0.00     0.251 C 
ATOM     29  H   UNL     1      -1.374 -11.655   4.299  1.00  0.00     0.163 HD
ATOM     30  O   UNL     1      -0.436 -13.850   4.201  1.00  0.00    -0.269 OA
BRANCH  28  31
ATOM     31  C   UNL     1      -0.378 -13.913   6.545  1.00  0.00     0.039 A 
ATOM     32  C   UNL     1       0.684 -14.822   6.620  1.00  0.00     0.014 A 
ATOM     33  C   UNL     1      -1.221 -13.739   7.646  1.00  0.00     0.014 A 
ATOM     34  C   UNL     1       0.913 -15.536   7.798  1.00  0.00     0.010 A 
ATOM     35  C   UNL     1      -0.957 -14.409   8.842  1.00  0.00     0.010 A 
ATOM     36  C   UNL     1       0.102 -15.326   8.924  1.00  0.00    -0.014 A 
BRANCH  36  37
ATOM     37  C   UNL     1       0.348 -16.078  10.180  1.00  0.00     0.031 A 
ATOM     38  C   UNL     1      -0.646 -17.095  10.669  1.00  0.00     0.074 A 
ATOM     39  C   UNL     1       1.460 -15.824  10.896  1.00  0.00     0.049 A 
ATOM     40  N   UNL     1      -0.604 -17.843  11.743  1.00  0.00    -0.248 NA
ATOM     41  C   UNL     1      -1.858 -17.282   9.856  1.00  0.00     0.031 C 
ATOM     42  C   UNL     1       2.477 -14.829  10.552  1.00  0.00     0.029 A 
ATOM     43  N   UNL     1       1.919 -16.382  12.062  1.00  0.00    -0.354 N 
ATOM     44  C   UNL     1      -1.784 -18.576  11.742  1.00  0.00     0.074 A 
ATOM     45  C   UNL     1      -2.542 -18.151  10.585  1.00  0.00     0.031 C 
ATOM     46  C   UNL     1       3.454 -14.864  11.473  1.00  0.00     0.029 A 
ATOM     47  C   UNL     1       3.120 -15.865  12.482  1.00  0.00     0.049 A 
ATOM     48  H   UNL     1       1.434 -17.085  12.551  1.00  0.00     0.167 HD
ATOM     49  C   UNL     1      -2.189 -19.532  12.613  1.00  0.00     0.037 A 
ATOM     50  C   UNL     1       3.871 -16.169  13.556  1.00  0.00     0.037 A 
ATOM     51  C   UNL     1      -1.422 -19.972  13.749  1.00  0.00     0.049 A 
ATOM     52  C   UNL     1       3.414 -17.252  14.491  1.00  0.00     0.074 A 
ATOM     53  C   UNL     1      -1.725 -20.965  14.665  1.00  0.00     0.029 A 
ATOM     54  N   UNL     1      -0.195 -19.446  14.123  1.00  0.00    -0.354 N 
ATOM     55  N   UNL     1       2.324 -17.979  14.444  1.00  0.00    -0.248 NA
ATOM     56  C   UNL     1       4.300 -17.568  15.620  1.00  0.00     0.031 C 
ATOM     57  C   UNL     1      -0.695 -21.020  15.610  1.00  0.00     0.029 A 
ATOM     58  C   UNL     1       0.269 -20.088  15.260  1.00  0.00     0.049 A 
ATOM     59  H   UNL     1       0.278 -18.723  13.651  1.00  0.00     0.167 HD
ATOM     60  C   UNL     1       2.405 -18.856  15.517  1.00  0.00     0.074 A 
ATOM     61  C   UNL     1       3.659 -18.580  16.189  1.00  0.00     0.031 C 
ATOM     62  C   UNL     1       1.522 -19.806  15.911  1.00  0.00     0.037 A 
BRANCH  49  63
ATOM     63  C   UNL     1      -3.526 -20.169  12.366  1.00  0.00     0.057 A 
ATOM     64  C   UNL     1      -3.735 -21.055  11.300  1.00  0.00     0.134 A 
ATOM     65  C   UNL     1      -4.609 -19.918  13.217  1.00  0.00     0.134 A 
ATOM     66  F   UNL     1      -2.742 -21.329  10.440  1.00  0.00    -0.206 F 
ATOM     67  C   UNL     1      -4.978 -21.648  11.075  1.00  0.00     0.040 A 
ATOM     68  C   UNL     1      -5.851 -20.524  13.018  1.00  0.00     0.040 A 
ATOM     69  F   UNL     1      -4.477 -19.085  14.261  1.00  0.00    -0.206 F 
ATOM     70  C   UNL     1      -6.040 -21.387  11.940  1.00  0.00     0.006 A 
ENDBRANCH  49  63
BRANCH  50  71
ATOM     71  C   UNL     1       5.158 -15.466  13.782  1.00  0.00     0.057 A 
ATOM     72  C   UNL     1       6.380 -16.121  13.591  1.00  0.00     0.134 A 
ATOM     73  C   UNL     1       5.199 -14.128  14.190  1.00  0.00     0.134 A 
ATOM     74  F   UNL     1       6.403 -17.408  13.216  1.00  0.00    -0.206 F 
ATOM     75  C   UNL     1       7.597 -15.478  13.816  1.00  0.00     0.040 A 
ATOM     76  C   UNL     1       6.409 -13.465  14.397  1.00  0.00     0.040 A 
ATOM     77  F   UNL     1       4.061 -13.443  14.380  1.00  0.00    -0.206 F 
ATOM     78  C   UNL     1       7.613 -14.143  14.217  1.00  0.00     0.006 A 
ENDBRANCH  50  71
BRANCH  62  79
ATOM     79  C   UNL     1       1.903 -20.637  17.099  1.00  0.00     0.057 A 
ATOM     80  C   UNL     1       1.887 -20.120  18.401  1.00  0.00     0.134 A 
ATOM     81  C   UNL     1       2.277 -21.978  16.939  1.00  0.00     0.134 A 
ATOM     82  F   UNL     1       1.552 -18.839  18.619  1.00  0.00    -0.206 F 
ATOM     83  C   UNL     1       2.258 -20.898  19.498  1.00  0.00     0.040 A 
ATOM     84  C   UNL     1       2.625 -22.773  18.031  1.00  0.00     0.040 A 
ATOM     85  F   UNL     1       2.305 -22.536  15.720  1.00  0.00    -0.206 F 
ATOM     86  C   UNL     1       2.624 -22.231  19.315  1.00  0.00     0.006 A 
ENDBRANCH  62  79
ENDBRANCH  36  37
ENDBRANCH  28  31
ENDBRANCH  26  27
ENDBRANCH  25  26
ENDBRANCH   1  25
TORSDOF 15
