REMARK SMILES O=C(NCCCNC(=O)[C@@]1([NH2+]C2CC2)CCC[C@@H](n2cncn2)C1)c1ccc(-c2c3nc(c(-c4c(F)cccc4F)c4ccc([nH]4)c(-c4c(F)cccc4F)c4nc(c(-c5c(F)cccc5F)c5ccc2[nH]5)C=C4)C=C3)cc1
REMARK SMILES IDX 5 1 4 2 3 3 1 4 2 5 25 7 26 8 78 9 27 10 77 11 28 12 29 13
REMARK SMILES IDX 30 14 71 15 31 16 76 17 70 18 72 19 32 20 75 21 69 22 68 23
REMARK SMILES IDX 33 25 59 26 42 27 58 28 43 29 46 30 57 31 73 32 44 33 45 34
REMARK SMILES IDX 56 36 74 37 47 38 34 39 35 40 40 41 36 42 37 43 39 44 41 45
REMARK SMILES IDX 38 46 60 47 61 48 66 49 62 50 63 51 65 52 67 53 64 54 48 55
REMARK SMILES IDX 49 56 54 57 50 58 51 59 53 60 55 61 52 62 6 63 7 64 8 65
REMARK SMILES IDX 9 67 10 68 15 69 24 70 16 71 18 72 17 73 11 74 12 77 13 78
REMARK SMILES IDX 14 79 19 80 20 81 23 82 21 83 22 84
REMARK H PARENT 3 6 72 24 46 35 7 66 11 75 11 76
REMARK Flexibility Score: inf
ROOT
ATOM      1  C   UNL     1       4.539  -0.114   2.384  1.00  0.00     0.042 C 
ENDROOT
BRANCH   1   2
ATOM      2  C   UNL     1       4.604  -0.622   0.945  1.00  0.00     0.118 C 
BRANCH   2   3
ATOM      3  N   UNL     1       3.307  -0.880   0.349  1.00  0.00    -0.352 N 
ATOM      4  O   UNL     1       1.284  -0.675  -0.519  1.00  0.00    -0.269 OA
ATOM      5  C   UNL     1       2.272  -0.096  -0.089  1.00  0.00     0.251 C 
ATOM      6  H   UNL     1       3.129  -1.841   0.233  1.00  0.00     0.163 HD
BRANCH   5   7
ATOM      7  C   UNL     1       2.259   1.391  -0.027  1.00  0.00     0.039 A 
ATOM      8  C   UNL     1       3.390   2.208  -0.013  1.00  0.00     0.014 A 
ATOM      9  C   UNL     1       0.988   1.996  -0.057  1.00  0.00     0.014 A 
ATOM     10  C   UNL     1       3.256   3.596   0.025  1.00  0.00     0.010 A 
ATOM     11  C   UNL     1       0.849   3.381  -0.043  1.00  0.00     0.010 A 
ATOM     12  C   UNL     1       1.986   4.183   0.012  1.00  0.00    -0.014 A 
BRANCH  12  13
ATOM     13  C   UNL     1       1.897   5.636  -0.126  1.00  0.00     0.031 A 
ATOM     14  C   UNL     1       2.389   6.188  -1.424  1.00  0.00     0.074 A 
ATOM     15  C   UNL     1       1.259   6.444   0.744  1.00  0.00     0.049 A 
ATOM     16  N   UNL     1       3.337   7.046  -1.627  1.00  0.00    -0.248 NA
ATOM     17  C   UNL     1       1.783   5.667  -2.660  1.00  0.00     0.031 C 
ATOM     18  C   UNL     1       0.431   6.063   1.889  1.00  0.00     0.029 A 
ATOM     19  N   UNL     1       1.139   7.804   0.713  1.00  0.00    -0.354 N 
ATOM     20  C   UNL     1       3.348   7.298  -3.000  1.00  0.00     0.074 A 
ATOM     21  C   UNL     1       2.452   6.341  -3.596  1.00  0.00     0.031 C 
ATOM     22  C   UNL     1      -0.268   7.142   2.310  1.00  0.00     0.029 A 
ATOM     23  C   UNL     1       0.156   8.309   1.553  1.00  0.00     0.049 A 
ATOM     24  H   UNL     1       1.701   8.377   0.143  1.00  0.00     0.167 HD
ATOM     25  C   UNL     1       3.956   8.394  -3.534  1.00  0.00     0.037 A 
ATOM     26  C   UNL     1      -0.316   9.580   1.581  1.00  0.00     0.037 A 
ATOM     27  C   UNL     1       4.878   8.997  -2.611  1.00  0.00     0.049 A 
ATOM     28  C   UNL     1       0.675  10.454   0.909  1.00  0.00     0.074 A 
ATOM     29  C   UNL     1       6.023   8.586  -1.960  1.00  0.00     0.029 A 
ATOM     30  N   UNL     1       4.495  10.157  -1.987  1.00  0.00    -0.354 N 
ATOM     31  N   UNL     1       1.842  10.759   1.401  1.00  0.00    -0.248 NA
ATOM     32  C   UNL     1       0.518  10.691  -0.518  1.00  0.00     0.031 C 
ATOM     33  C   UNL     1       5.975   9.230  -0.689  1.00  0.00     0.029 A 
ATOM     34  C   UNL     1       4.825  10.019  -0.665  1.00  0.00     0.049 A 
ATOM     35  H   UNL     1       4.066  10.937  -2.407  1.00  0.00     0.167 HD
ATOM     36  C   UNL     1       2.684  10.808   0.302  1.00  0.00     0.074 A 
ATOM     37  C   UNL     1       1.797  10.872  -0.855  1.00  0.00     0.031 C 
ATOM     38  C   UNL     1       4.011  10.511   0.418  1.00  0.00     0.037 A 
BRANCH  25  39
ATOM     39  C   UNL     1       3.485   9.126  -4.767  1.00  0.00     0.057 A 
ATOM     40  C   UNL     1       4.295  10.130  -5.331  1.00  0.00     0.134 A 
ATOM     41  C   UNL     1       2.155   9.099  -5.230  1.00  0.00     0.134 A 
ATOM     42  F   UNL     1       5.577  10.270  -4.960  1.00  0.00    -0.206 F 
ATOM     43  C   UNL     1       3.797  11.083  -6.228  1.00  0.00     0.040 A 
ATOM     44  C   UNL     1       1.661  10.014  -6.165  1.00  0.00     0.040 A 
ATOM     45  F   UNL     1       1.242   8.259  -4.728  1.00  0.00    -0.206 F 
ATOM     46  C   UNL     1       2.473  11.032  -6.642  1.00  0.00     0.006 A 
ENDBRANCH  25  39
BRANCH  26  47
ATOM     47  C   UNL     1      -1.672  10.066   1.921  1.00  0.00     0.057 A 
ATOM     48  C   UNL     1      -1.907  11.415   2.226  1.00  0.00     0.134 A 
ATOM     49  C   UNL     1      -2.812   9.279   1.687  1.00  0.00     0.134 A 
ATOM     50  F   UNL     1      -0.883  12.258   2.426  1.00  0.00    -0.206 F 
ATOM     51  C   UNL     1      -3.199  11.955   2.269  1.00  0.00     0.040 A 
ATOM     52  C   UNL     1      -4.108   9.803   1.736  1.00  0.00     0.040 A 
ATOM     53  F   UNL     1      -2.703   7.996   1.312  1.00  0.00    -0.206 F 
ATOM     54  C   UNL     1      -4.304  11.150   2.013  1.00  0.00     0.006 A 
ENDBRANCH  26  47
BRANCH  38  55
ATOM     55  C   UNL     1       4.595  10.421   1.798  1.00  0.00     0.057 A 
ATOM     56  C   UNL     1       4.196   9.480   2.759  1.00  0.00     0.134 A 
ATOM     57  C   UNL     1       5.702  11.217   2.111  1.00  0.00     0.134 A 
ATOM     58  F   UNL     1       3.215   8.603   2.509  1.00  0.00    -0.206 F 
ATOM     59  C   UNL     1       4.841   9.373   3.994  1.00  0.00     0.040 A 
ATOM     60  C   UNL     1       6.378  11.095   3.326  1.00  0.00     0.040 A 
ATOM     61  F   UNL     1       6.177  12.098   1.215  1.00  0.00    -0.206 F 
ATOM     62  C   UNL     1       5.940  10.178   4.278  1.00  0.00     0.006 A 
ENDBRANCH  38  55
ENDBRANCH  12  13
ENDBRANCH   5   7
ENDBRANCH   2   3
ENDBRANCH   1   2
BRANCH   1  63
ATOM     63  C   UNL     1       3.910  -1.124   3.344  1.00  0.00     0.118 C 
BRANCH  63  64
ATOM     64  N   UNL     1       4.765  -2.274   3.556  1.00  0.00    -0.351 N 
ATOM     65  C   UNL     1       5.718  -2.585   4.472  1.00  0.00     0.281 C 
ATOM     66  H   UNL     1       4.625  -2.986   2.890  1.00  0.00     0.163 HD
ATOM     67  O   UNL     1       6.169  -3.734   4.350  1.00  0.00    -0.268 OA
BRANCH  65  68
ATOM     68  C   UNL     1       6.140  -1.656   5.676  1.00  0.00     0.177 C 
ATOM     69  C   UNL     1       6.157  -0.128   5.467  1.00  0.00     0.079 C 
ATOM     70  C   UNL     1       5.099  -1.992   6.781  1.00  0.00     0.106 C 
ATOM     71  C   UNL     1       6.419   0.653   6.758  1.00  0.00     0.009 C 
ATOM     72  C   UNL     1       5.217  -1.172   8.077  1.00  0.00     0.116 C 
ATOM     73  C   UNL     1       5.347   0.336   7.793  1.00  0.00     0.028 C 
BRANCH  68  74
ATOM     74  N   UNL     1       7.485  -2.080   6.157  1.00  0.00    -0.331 N 
ATOM     75  H   UNL     1       7.359  -2.985   6.611  1.00  0.00     0.347 HD
ATOM     76  H   UNL     1       7.778  -1.291   6.732  1.00  0.00     0.347 HD
BRANCH  74  77
ATOM     77  C   UNL     1       8.609  -2.235   5.220  1.00  0.00     0.183 C 
ATOM     78  C   UNL     1       8.641  -1.787   3.785  1.00  0.00     0.071 C 
ATOM     79  C   UNL     1       9.422  -1.031   4.816  1.00  0.00     0.071 C 
ENDBRANCH  74  77
ENDBRANCH  68  74
BRANCH  72  80
ATOM     80  N   UNL     1       4.098  -1.478   8.969  1.00  0.00    -0.250 N 
ATOM     81  C   UNL     1       3.841  -2.659   9.601  1.00  0.00     0.220 A 
ATOM     82  N   UNL     1       3.135  -0.575   9.243  1.00  0.00    -0.160 NA
ATOM     83  N   UNL     1       2.735  -2.554  10.302  1.00  0.00    -0.224 NA
ATOM     84  C   UNL     1       2.341  -1.270  10.061  1.00  0.00     0.246 A 
ENDBRANCH  72  80
ENDBRANCH  65  68
ENDBRANCH  63  64
ENDBRANCH   1  63
TORSDOF 13
