REMARK SMILES CC(C)[C@H](NC(=O)[C@H](C)NC(=O)CNC(=O)OCc1ccccc1)C(=O)NCCCNC(=O)c1ccc(-c2c3nc(c(-c4c(F)cccc4F)c4ccc([nH]4)c(-c4c(F)cccc4F)c4nc(c(-c5c(F)cccc5F)c5ccc2[nH]5)C=C4)C=C3)cc1
REMARK SMILES IDX 4 1 2 2 1 3 3 4 25 5 26 6 27 7 28 9 29 10 30 11 31 12 32 13
REMARK SMILES IDX 33 15 34 16 35 17 87 18 36 19 86 20 37 21 38 22 39 23 80 24
REMARK SMILES IDX 40 25 85 26 79 27 81 28 41 29 84 30 78 31 77 32 42 34 68 35
REMARK SMILES IDX 51 36 67 37 52 38 55 39 66 40 82 41 53 42 54 43 65 45 83 46
REMARK SMILES IDX 56 47 43 48 44 49 49 50 45 51 46 52 48 53 50 54 47 55 69 56
REMARK SMILES IDX 70 57 75 58 71 59 72 60 74 61 76 62 73 63 57 64 58 65 63 66
REMARK SMILES IDX 59 67 60 68 62 69 64 70 61 71 5 72 6 73 7 75 8 76 9 77 10 78
REMARK SMILES IDX 11 79 12 81 13 82 14 83 15 84 16 86 17 87 18 88 19 89 20 90
REMARK SMILES IDX 24 91 21 92 23 93 22 94
REMARK H PARENT 27 8 31 14 81 33 55 44 5 74 10 80 14 85
REMARK Flexibility Score: inf
ROOT
ATOM      1  C   UNL     1      -2.012  -4.923   0.234  1.00  0.00     0.173 C 
ENDROOT
BRANCH   1   2
ATOM      2  C   UNL     1      -0.833  -4.285  -0.517  1.00  0.00     0.015 C 
ATOM      3  C   UNL     1      -0.571  -2.843  -0.067  1.00  0.00     0.010 C 
ATOM      4  C   UNL     1       0.455  -5.099  -0.313  1.00  0.00     0.010 C 
ENDBRANCH   1   2
BRANCH   1   5
ATOM      5  C   UNL     1      -3.285  -4.060   0.467  1.00  0.00     0.242 C 
ATOM      6  O   UNL     1      -3.736  -3.952   1.616  1.00  0.00    -0.273 OA
ATOM      7  N   UNL     1      -4.003  -3.452  -0.520  1.00  0.00    -0.354 N 
ATOM      8  H   UNL     1      -4.823  -3.009  -0.205  1.00  0.00     0.163 HD
BRANCH   7   9
ATOM      9  C   UNL     1      -3.778  -3.337  -1.967  1.00  0.00     0.117 C 
BRANCH   9  10
ATOM     10  C   UNL     1      -5.112  -3.425  -2.758  1.00  0.00     0.042 C 
BRANCH  10  11
ATOM     11  C   UNL     1      -5.324  -3.067  -4.370  1.00  0.00     0.118 C 
BRANCH  11  12
ATOM     12  N   UNL     1      -5.518  -4.024  -5.706  1.00  0.00    -0.352 N 
ATOM     13  C   UNL     1      -6.069  -5.064  -6.548  1.00  0.00     0.251 C 
ATOM     14  H   UNL     1      -4.825  -3.655  -6.300  1.00  0.00     0.163 HD
ATOM     15  O   UNL     1      -5.473  -5.047  -7.647  1.00  0.00    -0.269 OA
BRANCH  13  16
ATOM     16  C   UNL     1      -7.238  -6.202  -6.529  1.00  0.00     0.039 A 
ATOM     17  C   UNL     1      -7.582  -6.834  -7.751  1.00  0.00     0.014 A 
ATOM     18  C   UNL     1      -8.128  -6.605  -5.521  1.00  0.00     0.014 A 
ATOM     19  C   UNL     1      -8.783  -7.627  -7.938  1.00  0.00     0.010 A 
ATOM     20  C   UNL     1      -9.360  -7.272  -5.696  1.00  0.00     0.010 A 
ATOM     21  C   UNL     1      -9.737  -7.785  -6.918  1.00  0.00    -0.014 A 
BRANCH  21  22
ATOM     22  C   UNL     1     -10.965  -8.657  -6.890  1.00  0.00     0.031 A 
ATOM     23  C   UNL     1     -12.372  -8.111  -6.648  1.00  0.00     0.074 A 
ATOM     24  C   UNL     1     -10.776  -9.974  -6.659  1.00  0.00     0.049 A 
ATOM     25  N   UNL     1     -13.504  -8.755  -6.456  1.00  0.00    -0.248 NA
ATOM     26  C   UNL     1     -12.509  -6.651  -6.540  1.00  0.00     0.031 C 
ATOM     27  C   UNL     1      -9.464 -10.614  -6.553  1.00  0.00     0.029 A 
ATOM     28  N   UNL     1     -11.663 -10.986  -6.377  1.00  0.00    -0.354 N 
ATOM     29  C   UNL     1     -14.479  -7.788  -6.197  1.00  0.00     0.074 A 
ATOM     30  C   UNL     1     -13.791  -6.513  -6.212  1.00  0.00     0.031 C 
ATOM     31  C   UNL     1      -9.628 -11.901  -6.220  1.00  0.00     0.029 A 
ATOM     32  C   UNL     1     -11.054 -12.190  -6.114  1.00  0.00     0.049 A 
ATOM     33  H   UNL     1     -12.639 -10.861  -6.366  1.00  0.00     0.167 HD
ATOM     34  C   UNL     1     -15.816  -7.944  -5.979  1.00  0.00     0.037 A 
ATOM     35  C   UNL     1     -11.570 -13.405  -5.845  1.00  0.00     0.037 A 
ATOM     36  C   UNL     1     -16.491  -9.226  -5.962  1.00  0.00     0.049 A 
ATOM     37  C   UNL     1     -13.056 -13.590  -5.823  1.00  0.00     0.074 A 
ATOM     38  C   UNL     1     -17.853  -9.495  -5.949  1.00  0.00     0.029 A 
ATOM     39  N   UNL     1     -15.851 -10.455  -5.921  1.00  0.00    -0.354 N 
ATOM     40  N   UNL     1     -13.997 -12.679  -5.841  1.00  0.00    -0.248 NA
ATOM     41  C   UNL     1     -13.553 -14.972  -5.791  1.00  0.00     0.031 C 
ATOM     42  C   UNL     1     -18.033 -10.881  -5.861  1.00  0.00     0.029 A 
ATOM     43  C   UNL     1     -16.785 -11.479  -5.872  1.00  0.00     0.049 A 
ATOM     44  H   UNL     1     -14.875 -10.582  -5.926  1.00  0.00     0.167 HD
ATOM     45  C   UNL     1     -15.197 -13.375  -5.848  1.00  0.00     0.074 A 
ATOM     46  C   UNL     1     -14.865 -14.784  -5.852  1.00  0.00     0.031 C 
ATOM     47  C   UNL     1     -16.460 -12.882  -5.854  1.00  0.00     0.037 A 
BRANCH  34  48
ATOM     48  C   UNL     1     -16.687  -6.716  -5.801  1.00  0.00     0.057 A 
ATOM     49  C   UNL     1     -16.895  -5.807  -6.848  1.00  0.00     0.134 A 
ATOM     50  C   UNL     1     -17.449  -6.518  -4.636  1.00  0.00     0.134 A 
ATOM     51  F   UNL     1     -16.226  -5.937  -8.003  1.00  0.00    -0.206 F 
ATOM     52  C   UNL     1     -17.799  -4.744  -6.739  1.00  0.00     0.040 A 
ATOM     53  C   UNL     1     -18.378  -5.476  -4.526  1.00  0.00     0.040 A 
ATOM     54  F   UNL     1     -17.337  -7.358  -3.596  1.00  0.00    -0.206 F 
ATOM     55  C   UNL     1     -18.553  -4.583  -5.580  1.00  0.00     0.006 A 
ENDBRANCH  34  48
BRANCH  35  56
ATOM     56  C   UNL     1     -10.645 -14.561  -5.764  1.00  0.00     0.057 A 
ATOM     57  C   UNL     1     -10.478 -15.396  -6.875  1.00  0.00     0.134 A 
ATOM     58  C   UNL     1      -9.831 -14.791  -4.650  1.00  0.00     0.134 A 
ATOM     59  F   UNL     1     -11.236 -15.222  -7.968  1.00  0.00    -0.206 F 
ATOM     60  C   UNL     1      -9.532 -16.419  -6.886  1.00  0.00     0.040 A 
ATOM     61  C   UNL     1      -8.864 -15.800  -4.655  1.00  0.00     0.040 A 
ATOM     62  F   UNL     1      -9.927 -14.009  -3.566  1.00  0.00    -0.206 F 
ATOM     63  C   UNL     1      -8.713 -16.615  -5.777  1.00  0.00     0.006 A 
ENDBRANCH  35  56
BRANCH  47  64
ATOM     64  C   UNL     1     -17.578 -13.882  -5.880  1.00  0.00     0.057 A 
ATOM     65  C   UNL     1     -17.889 -14.672  -4.765  1.00  0.00     0.134 A 
ATOM     66  C   UNL     1     -18.349 -14.063  -7.035  1.00  0.00     0.134 A 
ATOM     67  F   UNL     1     -17.180 -14.557  -3.631  1.00  0.00    -0.206 F 
ATOM     68  C   UNL     1     -18.902 -15.631  -4.810  1.00  0.00     0.040 A 
ATOM     69  C   UNL     1     -19.381 -15.001  -7.084  1.00  0.00     0.040 A 
ATOM     70  F   UNL     1     -18.109 -13.335  -8.136  1.00  0.00    -0.206 F 
ATOM     71  C   UNL     1     -19.654 -15.795  -5.972  1.00  0.00     0.006 A 
ENDBRANCH  47  64
ENDBRANCH  21  22
ENDBRANCH  13  16
ENDBRANCH  11  12
ENDBRANCH  10  11
ENDBRANCH   9  10
ENDBRANCH   7   9
ENDBRANCH   1   5
BRANCH   1  72
ATOM     72  N   UNL     1      -2.303  -6.355   0.017  1.00  0.00    -0.342 N 
ATOM     73  C   UNL     1      -2.351  -7.286  -0.962  1.00  0.00     0.242 C 
ATOM     74  H   UNL     1      -2.542  -6.772   0.876  1.00  0.00     0.164 HD
ATOM     75  O   UNL     1      -2.668  -8.417  -0.564  1.00  0.00    -0.273 OA
BRANCH  73  76
ATOM     76  C   UNL     1      -2.294  -7.010  -2.478  1.00  0.00     0.168 C 
ATOM     77  C   UNL     1      -2.094  -8.309  -3.267  1.00  0.00     0.041 C 
BRANCH  76  78
ATOM     78  N   UNL     1      -1.358  -6.051  -3.022  1.00  0.00    -0.343 N 
ATOM     79  C   UNL     1      -1.546  -5.224  -4.090  1.00  0.00     0.240 C 
ATOM     80  H   UNL     1      -0.486  -5.989  -2.570  1.00  0.00     0.164 HD
ATOM     81  O   UNL     1      -0.580  -4.533  -4.433  1.00  0.00    -0.273 OA
BRANCH  79  82
ATOM     82  C   UNL     1      -2.961  -4.938  -4.680  1.00  0.00     0.219 C 
BRANCH  82  83
ATOM     83  N   UNL     1      -4.040  -5.963  -4.673  1.00  0.00    -0.312 N 
ATOM     84  C   UNL     1      -5.270  -6.290  -4.091  1.00  0.00     0.407 C 
ATOM     85  H   UNL     1      -3.800  -6.671  -5.314  1.00  0.00     0.167 HD
ATOM     86  O   UNL     1      -5.409  -7.510  -3.944  1.00  0.00    -0.225 OA
BRANCH  84  87
ATOM     87  O   UNL     1      -6.366  -5.495  -3.847  1.00  0.00    -0.445 OA
BRANCH  87  88
ATOM     88  C   UNL     1      -7.665  -4.458  -3.582  1.00  0.00     0.270 C 
BRANCH  88  89
ATOM     89  C   UNL     1      -8.316  -3.407  -4.551  1.00  0.00    -0.011 A 
ATOM     90  C   UNL     1      -8.626  -3.520  -5.920  1.00  0.00     0.007 A 
ATOM     91  C   UNL     1      -8.732  -2.187  -3.984  1.00  0.00     0.007 A 
ATOM     92  C   UNL     1      -9.121  -2.471  -6.713  1.00  0.00     0.000 A 
ATOM     93  C   UNL     1      -9.277  -1.139  -4.755  1.00  0.00     0.000 A 
ATOM     94  C   UNL     1      -9.438  -1.266  -6.128  1.00  0.00     0.000 A 
ENDBRANCH  88  89
ENDBRANCH  87  88
ENDBRANCH  84  87
ENDBRANCH  82  83
ENDBRANCH  79  82
ENDBRANCH  76  78
ENDBRANCH  73  76
ENDBRANCH   1  72
TORSDOF 19
