REMARK SMILES [NH3+][C@@H](CC(=O)NCCCNC(=O)c1ccc(-c2c3nc(c(-c4c(F)cccc4F)c4ccc([nH]4)c(-c4c(F)cccc4F)c4nc(c(-c5c(F)cccc5F)c5ccc2[nH]5)C=C4)C=C3)cc1)[NH+]1CCOCC1
REMARK SMILES IDX 8 1 7 2 6 3 4 4 5 5 3 7 2 8 1 9 67 13 68 14 72 15 69 17
REMARK SMILES IDX 71 18 70 19 9 20 10 21 11 22 12 24 13 25 14 26 66 27 15 28
REMARK SMILES IDX 65 29 16 30 17 31 18 32 59 33 19 34 64 35 58 36 60 37 20 38
REMARK SMILES IDX 63 39 57 40 56 41 21 43 47 44 30 45 46 46 31 47 34 48 45 49
REMARK SMILES IDX 61 50 32 51 33 52 44 54 62 55 35 56 22 57 23 58 28 59 24 60
REMARK SMILES IDX 25 61 27 62 29 63 26 64 48 65 49 66 54 67 50 68 51 69 53 70
REMARK SMILES IDX 55 71 52 72 36 73 37 74 42 75 38 76 39 77 41 78 43 79 40 80
REMARK H PARENT 6 6 1 10 1 11 1 12 67 16 10 23 60 42 34 53
REMARK Flexibility Score: inf
ROOT
ATOM      1  C   UNL     1       1.553  -2.165   1.187  1.00  0.00     0.042 C 
ENDROOT
BRANCH   1   2
ATOM      2  C   UNL     1       2.447  -1.954  -0.030  1.00  0.00     0.117 C 
BRANCH   2   3
ATOM      3  N   UNL     1       1.760  -2.223  -1.277  1.00  0.00    -0.356 N 
ATOM      4  C   UNL     1       1.372  -1.397  -2.280  1.00  0.00     0.232 C 
ATOM      5  O   UNL     1       0.942  -1.933  -3.305  1.00  0.00    -0.275 OA
ATOM      6  H   UNL     1       1.536  -3.171  -1.422  1.00  0.00     0.163 HD
BRANCH   4   7
ATOM      7  C   UNL     1       1.534   0.099  -2.203  1.00  0.00     0.232 C 
BRANCH   7   8
ATOM      8  C   UNL     1       0.523   0.958  -1.424  1.00  0.00     0.389 C 
BRANCH   8   9
ATOM      9  N   UNL     1       0.872   1.204  -0.036  1.00  0.00    -0.308 N 
ATOM     10  H   UNL     1       1.878   1.352   0.041  1.00  0.00     0.349 HD
ATOM     11  H   UNL     1       0.602   0.400   0.530  1.00  0.00     0.349 HD
ATOM     12  H   UNL     1       0.380   2.034   0.296  1.00  0.00     0.349 HD
ENDBRANCH   8   9
BRANCH   8  13
ATOM     13  N   UNL     1      -0.906   0.753  -1.500  1.00  0.00    -0.282 N 
ATOM     14  C   UNL     1      -1.579  -0.356  -0.826  1.00  0.00     0.296 C 
ATOM     15  C   UNL     1      -1.537   1.070  -2.788  1.00  0.00     0.296 C 
ATOM     16  H   UNL     1      -1.087   1.497  -0.826  1.00  0.00     0.353 HD
ATOM     17  C   UNL     1      -2.027  -1.521  -1.721  1.00  0.00     0.222 C 
ATOM     18  C   UNL     1      -1.919  -0.157  -3.628  1.00  0.00     0.222 C 
ATOM     19  O   UNL     1      -2.732  -1.064  -2.877  1.00  0.00    -0.370 OA
ENDBRANCH   8  13
ENDBRANCH   7   8
ENDBRANCH   4   7
ENDBRANCH   2   3
ENDBRANCH   1   2
BRANCH   1  20
ATOM     20  C   UNL     1       0.901  -3.543   1.272  1.00  0.00     0.118 C 
BRANCH  20  21
ATOM     21  N   UNL     1       1.857  -4.595   1.564  1.00  0.00    -0.352 N 
ATOM     22  C   UNL     1       2.098  -5.288   2.726  1.00  0.00     0.251 C 
ATOM     23  H   UNL     1       2.428  -4.856   0.805  1.00  0.00     0.163 HD
ATOM     24  O   UNL     1       3.103  -5.987   2.805  1.00  0.00    -0.269 OA
BRANCH  22  25
ATOM     25  C   UNL     1       1.182  -5.194   3.888  1.00  0.00     0.039 A 
ATOM     26  C   UNL     1       1.739  -5.159   5.171  1.00  0.00     0.014 A 
ATOM     27  C   UNL     1      -0.207  -5.220   3.741  1.00  0.00     0.014 A 
ATOM     28  C   UNL     1       0.910  -5.098   6.296  1.00  0.00     0.010 A 
ATOM     29  C   UNL     1      -1.033  -5.084   4.859  1.00  0.00     0.010 A 
ATOM     30  C   UNL     1      -0.484  -5.033   6.149  1.00  0.00    -0.014 A 
BRANCH  30  31
ATOM     31  C   UNL     1      -1.378  -4.934   7.332  1.00  0.00     0.031 A 
ATOM     32  C   UNL     1      -2.339  -6.046   7.657  1.00  0.00     0.074 A 
ATOM     33  C   UNL     1      -1.370  -3.817   8.086  1.00  0.00     0.049 A 
ATOM     34  N   UNL     1      -3.246  -6.108   8.599  1.00  0.00    -0.248 NA
ATOM     35  C   UNL     1      -2.291  -7.237   6.793  1.00  0.00     0.031 C 
ATOM     36  C   UNL     1      -0.522  -2.647   7.857  1.00  0.00     0.029 A 
ATOM     37  N   UNL     1      -2.110  -3.480   9.193  1.00  0.00    -0.354 N 
ATOM     38  C   UNL     1      -3.892  -7.326   8.426  1.00  0.00     0.074 A 
ATOM     39  C   UNL     1      -3.297  -7.957   7.267  1.00  0.00     0.031 C 
ATOM     40  C   UNL     1      -0.779  -1.726   8.801  1.00  0.00     0.029 A 
ATOM     41  C   UNL     1      -1.831  -2.227   9.681  1.00  0.00     0.049 A 
ATOM     42  H   UNL     1      -2.778  -4.080   9.597  1.00  0.00     0.167 HD
ATOM     43  C   UNL     1      -4.877  -7.878   9.174  1.00  0.00     0.037 A 
ATOM     44  C   UNL     1      -2.367  -1.552  10.715  1.00  0.00     0.037 A 
ATOM     45  C   UNL     1      -5.440  -7.274  10.353  1.00  0.00     0.049 A 
ATOM     46  C   UNL     1      -3.443  -2.196  11.544  1.00  0.00     0.074 A 
ATOM     47  C   UNL     1      -6.386  -7.795  11.219  1.00  0.00     0.029 A 
ATOM     48  N   UNL     1      -5.106  -6.018  10.833  1.00  0.00    -0.354 N 
ATOM     49  N   UNL     1      -3.995  -3.376  11.405  1.00  0.00    -0.248 NA
ATOM     50  C   UNL     1      -3.964  -1.417  12.676  1.00  0.00     0.031 C 
ATOM     51  C   UNL     1      -6.649  -6.838  12.206  1.00  0.00     0.029 A 
ATOM     52  C   UNL     1      -5.840  -5.738  11.973  1.00  0.00     0.049 A 
ATOM     53  H   UNL     1      -4.445  -5.414  10.424  1.00  0.00     0.167 HD
ATOM     54  C   UNL     1      -4.912  -3.490  12.443  1.00  0.00     0.074 A 
ATOM     55  C   UNL     1      -4.832  -2.265  13.210  1.00  0.00     0.031 C 
ATOM     56  C   UNL     1      -5.745  -4.518  12.732  1.00  0.00     0.037 A 
BRANCH  43  57
ATOM     57  C   UNL     1      -5.411  -9.211   8.740  1.00  0.00     0.057 A 
ATOM     58  C   UNL     1      -4.672 -10.390   8.901  1.00  0.00     0.134 A 
ATOM     59  C   UNL     1      -6.696  -9.322   8.195  1.00  0.00     0.134 A 
ATOM     60  F   UNL     1      -3.430 -10.349   9.407  1.00  0.00    -0.206 F 
ATOM     61  C   UNL     1      -5.183 -11.630   8.514  1.00  0.00     0.040 A 
ATOM     62  C   UNL     1      -7.228 -10.559   7.827  1.00  0.00     0.040 A 
ATOM     63  F   UNL     1      -7.459  -8.233   8.021  1.00  0.00    -0.206 F 
ATOM     64  C   UNL     1      -6.468 -11.717   7.981  1.00  0.00     0.006 A 
ENDBRANCH  43  57
BRANCH  44  65
ATOM     65  C   UNL     1      -1.881  -0.188  11.040  1.00  0.00     0.057 A 
ATOM     66  C   UNL     1      -1.096   0.046  12.174  1.00  0.00     0.134 A 
ATOM     67  C   UNL     1      -2.195   0.910  10.231  1.00  0.00     0.134 A 
ATOM     68  F   UNL     1      -0.780  -0.965  12.996  1.00  0.00    -0.206 F 
ATOM     69  C   UNL     1      -0.651   1.327  12.502  1.00  0.00     0.040 A 
ATOM     70  C   UNL     1      -1.739   2.193  10.535  1.00  0.00     0.040 A 
ATOM     71  F   UNL     1      -2.939   0.747   9.127  1.00  0.00    -0.206 F 
ATOM     72  C   UNL     1      -0.970   2.405  11.678  1.00  0.00     0.006 A 
ENDBRANCH  44  65
BRANCH  56  73
ATOM     73  C   UNL     1      -6.615  -4.375  13.944  1.00  0.00     0.057 A 
ATOM     74  C   UNL     1      -7.741  -3.543  13.948  1.00  0.00     0.134 A 
ATOM     75  C   UNL     1      -6.344  -5.106  15.107  1.00  0.00     0.134 A 
ATOM     76  F   UNL     1      -8.045  -2.806  12.868  1.00  0.00    -0.206 F 
ATOM     77  C   UNL     1      -8.558  -3.429  15.074  1.00  0.00     0.040 A 
ATOM     78  C   UNL     1      -7.165  -5.017  16.232  1.00  0.00     0.040 A 
ATOM     79  F   UNL     1      -5.284  -5.926  15.165  1.00  0.00    -0.206 F 
ATOM     80  C   UNL     1      -8.274  -4.172  16.218  1.00  0.00     0.006 A 
ENDBRANCH  56  73
ENDBRANCH  30  31
ENDBRANCH  22  25
ENDBRANCH  20  21
ENDBRANCH   1  20
TORSDOF 13
