REMARK SMILES Cc1cc2c(=O)c3ccccc3oc2c(C(=O)NCCCNC(=O)c2ccc(-c3c4nc(c(-c5c(F)cccc5F)c5ccc([nH]5)c(-c5c(F)cccc5F)c5nc(c(-c6c(F)cccc6F)c6ccc3[nH]6)C=C5)C=C4)cc2)c1C
REMARK SMILES IDX 21 1 20 2 19 3 18 4 16 5 17 6 15 8 1 9 2 10 3 11 79 12 4 13
REMARK SMILES IDX 80 14 5 15 14 16 6 17 7 18 13 19 8 20 12 21 9 22 11 23 10 24
REMARK SMILES IDX 22 25 23 26 24 28 25 29 26 30 78 31 27 32 77 33 28 34 29 35
REMARK SMILES IDX 30 36 71 37 31 38 76 39 70 40 72 41 32 42 75 43 69 44 68 45
REMARK SMILES IDX 33 47 59 48 42 49 58 50 43 51 46 52 57 53 73 54 44 55 45 56
REMARK SMILES IDX 56 58 74 59 47 60 34 61 35 62 40 63 36 64 37 65 39 66 41 67
REMARK SMILES IDX 38 68 60 69 61 70 66 71 62 72 63 73 65 74 67 75 64 76 48 77
REMARK SMILES IDX 49 78 54 79 50 80 51 81 53 82 55 83 52 84
REMARK H PARENT 18 7 22 27 72 46 46 57
REMARK Flexibility Score: inf
ROOT
ATOM      1  C   UNL     1       5.069  -4.165   3.071  1.00  0.00     0.118 C 
ENDROOT
BRANCH   1   2
ATOM      2  C   UNL     1       4.126  -3.350   2.203  1.00  0.00     0.042 C 
BRANCH   2   3
ATOM      3  C   UNL     1       3.882  -3.903   0.793  1.00  0.00     0.118 C 
BRANCH   3   4
ATOM      4  N   UNL     1       2.675  -4.710   0.785  1.00  0.00    -0.352 N 
ATOM      5  C   UNL     1       1.339  -4.507   0.545  1.00  0.00     0.255 C 
ATOM      6  O   UNL     1       0.627  -5.442   0.929  1.00  0.00    -0.269 OA
ATOM      7  H   UNL     1       2.865  -5.649   1.010  1.00  0.00     0.163 HD
BRANCH   5   8
ATOM      8  C   UNL     1       0.673  -3.335  -0.145  1.00  0.00     0.086 A 
ATOM      9  C   UNL     1       0.450   0.519  -0.488  1.00  0.00     0.044 C 
ATOM     10  C   UNL     1       0.160  -0.959  -0.601  1.00  0.00    -0.046 A 
ATOM     11  C   UNL     1      -0.965  -1.337  -1.330  1.00  0.00     0.019 A 
ATOM     12  C   UNL     1       0.936  -1.949   0.069  1.00  0.00    -0.032 A 
ATOM     13  C   UNL     1      -1.281  -2.680  -1.477  1.00  0.00     0.066 A 
ATOM     14  C   UNL     1       1.952  -1.438   1.045  1.00  0.00     0.045 C 
ATOM     15  C   UNL     1      -2.534  -3.040  -2.158  1.00  0.00     0.200 A 
ATOM     16  C   UNL     1      -0.457  -3.678  -0.948  1.00  0.00     0.151 A 
ATOM     17  O   UNL     1      -3.297  -2.187  -2.594  1.00  0.00    -0.288 OA
ATOM     18  C   UNL     1      -2.842  -4.465  -2.266  1.00  0.00     0.065 A 
ATOM     19  O   UNL     1      -0.721  -5.014  -1.196  1.00  0.00    -0.455 OA
ATOM     20  C   UNL     1      -4.041  -4.896  -2.844  1.00  0.00     0.016 A 
ATOM     21  C   UNL     1      -1.910  -5.374  -1.782  1.00  0.00     0.138 A 
ATOM     22  C   UNL     1      -4.300  -6.261  -2.949  1.00  0.00     0.001 A 
ATOM     23  C   UNL     1      -2.174  -6.740  -1.890  1.00  0.00     0.048 A 
ATOM     24  C   UNL     1      -3.365  -7.182  -2.474  1.00  0.00     0.004 A 
ENDBRANCH   5   8
ENDBRANCH   3   4
ENDBRANCH   2   3
ENDBRANCH   1   2
BRANCH   1  25
ATOM     25  N   UNL     1       6.468  -3.909   2.772  1.00  0.00    -0.352 N 
ATOM     26  C   UNL     1       7.471  -3.394   3.567  1.00  0.00     0.251 C 
ATOM     27  H   UNL     1       6.744  -4.139   1.856  1.00  0.00     0.163 HD
ATOM     28  O   UNL     1       8.538  -3.082   3.058  1.00  0.00    -0.269 OA
BRANCH  26  29
ATOM     29  C   UNL     1       7.261  -3.185   5.024  1.00  0.00     0.039 A 
ATOM     30  C   UNL     1       6.515  -4.081   5.788  1.00  0.00     0.014 A 
ATOM     31  C   UNL     1       7.842  -2.072   5.645  1.00  0.00     0.014 A 
ATOM     32  C   UNL     1       6.183  -3.767   7.102  1.00  0.00     0.010 A 
ATOM     33  C   UNL     1       7.605  -1.820   7.003  1.00  0.00     0.010 A 
ATOM     34  C   UNL     1       6.729  -2.638   7.733  1.00  0.00    -0.014 A 
BRANCH  34  35
ATOM     35  C   UNL     1       6.368  -2.353   9.149  1.00  0.00     0.031 A 
ATOM     36  C   UNL     1       5.647  -1.085   9.528  1.00  0.00     0.074 A 
ATOM     37  C   UNL     1       6.625  -3.283  10.091  1.00  0.00     0.049 A 
ATOM     38  N   UNL     1       5.218  -0.698  10.705  1.00  0.00    -0.248 NA
ATOM     39  C   UNL     1       5.377  -0.122   8.450  1.00  0.00     0.031 C 
ATOM     40  C   UNL     1       7.313  -4.555   9.854  1.00  0.00     0.029 A 
ATOM     41  N   UNL     1       6.308  -3.325  11.425  1.00  0.00    -0.354 N 
ATOM     42  C   UNL     1       4.642   0.553  10.510  1.00  0.00     0.074 A 
ATOM     43  C   UNL     1       4.813   0.879   9.111  1.00  0.00     0.031 C 
ATOM     44  C   UNL     1       7.301  -5.280  10.982  1.00  0.00     0.029 A 
ATOM     45  C   UNL     1       6.675  -4.498  12.040  1.00  0.00     0.049 A 
ATOM     46  H   UNL     1       5.860  -2.586  11.896  1.00  0.00     0.167 HD
ATOM     47  C   UNL     1       4.014   1.350  11.410  1.00  0.00     0.037 A 
ATOM     48  C   UNL     1       6.538  -4.896  13.318  1.00  0.00     0.037 A 
ATOM     49  C   UNL     1       3.836   1.022  12.802  1.00  0.00     0.049 A 
ATOM     50  C   UNL     1       5.891  -3.966  14.303  1.00  0.00     0.074 A 
ATOM     51  C   UNL     1       3.215   1.761  13.793  1.00  0.00     0.029 A 
ATOM     52  N   UNL     1       4.282  -0.148  13.399  1.00  0.00    -0.354 N 
ATOM     53  N   UNL     1       5.349  -2.790  14.100  1.00  0.00    -0.248 NA
ATOM     54  C   UNL     1       5.847  -4.418  15.700  1.00  0.00     0.031 C 
ATOM     55  C   UNL     1       3.322   1.058  14.999  1.00  0.00     0.029 A 
ATOM     56  C   UNL     1       3.966  -0.142  14.749  1.00  0.00     0.049 A 
ATOM     57  H   UNL     1       4.754  -0.876  12.933  1.00  0.00     0.167 HD
ATOM     58  C   UNL     1       4.885  -2.369  15.339  1.00  0.00     0.074 A 
ATOM     59  C   UNL     1       5.183  -3.430  16.279  1.00  0.00     0.031 C 
ATOM     60  C   UNL     1       4.273  -1.206  15.671  1.00  0.00     0.037 A 
BRANCH  47  61
ATOM     61  C   UNL     1       3.486   2.668  10.914  1.00  0.00     0.057 A 
ATOM     62  C   UNL     1       4.080   3.873  11.311  1.00  0.00     0.134 A 
ATOM     63  C   UNL     1       2.380   2.748  10.056  1.00  0.00     0.134 A 
ATOM     64  F   UNL     1       5.138   3.872  12.136  1.00  0.00    -0.206 F 
ATOM     65  C   UNL     1       3.596   5.107  10.872  1.00  0.00     0.040 A 
ATOM     66  C   UNL     1       1.904   3.975   9.589  1.00  0.00     0.040 A 
ATOM     67  F   UNL     1       1.772   1.633   9.626  1.00  0.00    -0.206 F 
ATOM     68  C   UNL     1       2.510   5.160  10.001  1.00  0.00     0.006 A 
ENDBRANCH  47  61
BRANCH  48  69
ATOM     69  C   UNL     1       7.040  -6.226  13.749  1.00  0.00     0.057 A 
ATOM     70  C   UNL     1       8.409  -6.517  13.772  1.00  0.00     0.134 A 
ATOM     71  C   UNL     1       6.161  -7.227  14.178  1.00  0.00     0.134 A 
ATOM     72  F   UNL     1       9.303  -5.603  13.369  1.00  0.00    -0.206 F 
ATOM     73  C   UNL     1       8.887  -7.756  14.201  1.00  0.00     0.040 A 
ATOM     74  C   UNL     1       6.627  -8.460  14.639  1.00  0.00     0.040 A 
ATOM     75  F   UNL     1       4.839  -7.003  14.199  1.00  0.00    -0.206 F 
ATOM     76  C   UNL     1       7.994  -8.728  14.647  1.00  0.00     0.006 A 
ENDBRANCH  48  69
BRANCH  60  77
ATOM     77  C   UNL     1       3.864  -1.048  17.107  1.00  0.00     0.057 A 
ATOM     78  C   UNL     1       2.514  -1.095  17.473  1.00  0.00     0.134 A 
ATOM     79  C   UNL     1       4.806  -0.863  18.128  1.00  0.00     0.134 A 
ATOM     80  F   UNL     1       1.561  -1.262  16.543  1.00  0.00    -0.206 F 
ATOM     81  C   UNL     1       2.114  -0.973  18.804  1.00  0.00     0.040 A 
ATOM     82  C   UNL     1       4.421  -0.770  19.466  1.00  0.00     0.040 A 
ATOM     83  F   UNL     1       6.117  -0.828  17.846  1.00  0.00    -0.206 F 
ATOM     84  C   UNL     1       3.070  -0.822  19.806  1.00  0.00     0.006 A 
ENDBRANCH  60  77
ENDBRANCH  34  35
ENDBRANCH  26  29
ENDBRANCH   1  25
TORSDOF 10
