REMARK SMILES Cc1ccc(C)c([C@H]2[NH2+][C@@H](C(=O)NCCCNC(=O)c3ccc(-c4c5nc(c(-c6c(F)cccc6F)c6ccc([nH]6)c(-c6c(F)cccc6F)c6nc(c(-c7c(F)cccc7F)c7ccc4[nH]7)C=C6)C=C5)cc3)Cc3c2[nH]c2ccccc32)c1
REMARK SMILES IDX 15 1 14 2 13 3 11 4 12 5 10 7 8 8 9 9 76 10 75 13 77 14
REMARK SMILES IDX 74 15 83 16 78 17 82 19 79 20 81 21 80 22 7 23 1 24 2 25
REMARK SMILES IDX 3 26 84 27 4 28 5 29 6 30 16 31 17 32 18 33 19 35 20 36
REMARK SMILES IDX 21 37 73 38 22 39 72 40 23 41 24 42 25 43 66 44 26 45 71 46
REMARK SMILES IDX 65 47 67 48 27 49 70 50 64 51 63 52 28 54 54 55 37 56 53 57
REMARK SMILES IDX 38 58 41 59 52 60 68 61 39 62 40 63 51 65 69 66 42 67 29 68
REMARK SMILES IDX 30 69 35 70 31 71 32 72 34 73 36 74 33 75 55 76 56 77 61 78
REMARK SMILES IDX 57 79 58 80 60 81 62 82 59 83 43 84 44 85 49 86 45 87 46 88
REMARK SMILES IDX 48 89 50 90 47 91
REMARK H PARENT 13 6 9 11 9 12 77 18 17 34 67 53 41 64
REMARK Flexibility Score: inf
ROOT
ATOM      1  C   UNL     1      -3.105   8.309   1.051  1.00  0.00     0.042 C 
ENDROOT
BRANCH   1   2
ATOM      2  C   UNL     1      -3.478   7.422  -0.155  1.00  0.00     0.118 C 
BRANCH   2   3
ATOM      3  N   UNL     1      -2.373   7.226  -1.093  1.00  0.00    -0.351 N 
ATOM      4  C   UNL     1      -1.335   6.353  -1.164  1.00  0.00     0.278 C 
ATOM      5  O   UNL     1      -0.613   6.466  -2.167  1.00  0.00    -0.268 OA
ATOM      6  H   UNL     1      -2.384   7.869  -1.839  1.00  0.00     0.163 HD
BRANCH   4   7
ATOM      7  C   UNL     1      -1.075   5.186  -0.192  1.00  0.00     0.277 C 
ATOM      8  C   UNL     1      -1.414   2.696  -0.125  1.00  0.00     0.262 C 
ATOM      9  N   UNL     1      -1.661   3.983  -0.814  1.00  0.00    -0.325 N 
ATOM     10  C   UNL     1      -1.478   2.906   1.376  1.00  0.00     0.083 A 
ATOM     11  H   UNL     1      -2.670   4.120  -0.863  1.00  0.00     0.347 HD
ATOM     12  H   UNL     1      -1.201   3.897  -1.721  1.00  0.00     0.347 HD
ATOM     13  C   UNL     1      -1.477   4.137   2.001  1.00  0.00    -0.006 A 
ATOM     14  N   UNL     1      -1.430   1.963   2.379  1.00  0.00    -0.353 N 
ATOM     15  C   UNL     1      -1.527   5.402   1.246  1.00  0.00     0.114 C 
ATOM     16  C   UNL     1      -1.499   3.961   3.396  1.00  0.00     0.003 A 
ATOM     17  C   UNL     1      -1.467   2.587   3.621  1.00  0.00     0.046 A 
ATOM     18  H   UNL     1      -1.377   0.990   2.237  1.00  0.00     0.166 HD
ATOM     19  C   UNL     1      -1.551   4.859   4.479  1.00  0.00     0.010 A 
ATOM     20  C   UNL     1      -1.477   2.069   4.924  1.00  0.00     0.026 A 
ATOM     21  C   UNL     1      -1.570   4.357   5.777  1.00  0.00     0.001 A 
ATOM     22  C   UNL     1      -1.531   2.981   5.993  1.00  0.00     0.002 A 
BRANCH   8  23
ATOM     23  C   UNL     1      -2.401   1.717  -0.780  1.00  0.00     0.019 A 
ATOM     24  C   UNL     1      -6.006   0.525  -0.229  1.00  0.00     0.044 C 
ATOM     25  C   UNL     1      -4.670   0.771  -0.865  1.00  0.00    -0.051 A 
ATOM     26  C   UNL     1      -4.471   0.400  -2.195  1.00  0.00     0.004 A 
ATOM     27  C   UNL     1      -3.644   1.435  -0.173  1.00  0.00     0.014 A 
ATOM     28  C   UNL     1      -3.249   0.644  -2.812  1.00  0.00     0.004 A 
ATOM     29  C   UNL     1      -2.199   1.275  -2.120  1.00  0.00    -0.042 A 
ATOM     30  C   UNL     1      -0.957   1.570  -2.925  1.00  0.00     0.045 C 
ENDBRANCH   8  23
ENDBRANCH   4   7
ENDBRANCH   2   3
ENDBRANCH   1   2
BRANCH   1  31
ATOM     31  C   UNL     1      -3.269   9.832   0.901  1.00  0.00     0.118 C 
BRANCH  31  32
ATOM     32  N   UNL     1      -4.651  10.249   0.647  1.00  0.00    -0.352 N 
ATOM     33  C   UNL     1      -5.216  11.018  -0.358  1.00  0.00     0.251 C 
ATOM     34  H   UNL     1      -5.297   9.923   1.315  1.00  0.00     0.163 HD
ATOM     35  O   UNL     1      -6.343  11.463  -0.218  1.00  0.00    -0.269 OA
BRANCH  33  36
ATOM     36  C   UNL     1      -4.467  11.294  -1.605  1.00  0.00     0.039 A 
ATOM     37  C   UNL     1      -4.710  12.419  -2.392  1.00  0.00     0.014 A 
ATOM     38  C   UNL     1      -3.493  10.395  -2.001  1.00  0.00     0.014 A 
ATOM     39  C   UNL     1      -3.918  12.633  -3.523  1.00  0.00     0.010 A 
ATOM     40  C   UNL     1      -2.606  10.674  -2.997  1.00  0.00     0.010 A 
ATOM     41  C   UNL     1      -2.858  11.756  -3.809  1.00  0.00    -0.014 A 
BRANCH  41  42
ATOM     42  C   UNL     1      -1.905  12.011  -4.874  1.00  0.00     0.031 A 
ATOM     43  C   UNL     1      -1.233  13.325  -4.769  1.00  0.00     0.074 A 
ATOM     44  C   UNL     1      -1.452  11.070  -5.730  1.00  0.00     0.049 A 
ATOM     45  N   UNL     1      -1.442  14.362  -5.505  1.00  0.00    -0.248 NA
ATOM     46  C   UNL     1      -0.347  13.572  -3.620  1.00  0.00     0.031 C 
ATOM     47  C   UNL     1      -1.703   9.624  -5.730  1.00  0.00     0.029 A 
ATOM     48  N   UNL     1      -0.557  11.215  -6.742  1.00  0.00    -0.354 N 
ATOM     49  C   UNL     1      -0.546  15.326  -5.062  1.00  0.00     0.074 A 
ATOM     50  C   UNL     1      -0.069  14.868  -3.783  1.00  0.00     0.031 C 
ATOM     51  C   UNL     1      -0.810   9.012  -6.539  1.00  0.00     0.029 A 
ATOM     52  C   UNL     1      -0.041  10.025  -7.237  1.00  0.00     0.049 A 
ATOM     53  H   UNL     1      -0.294  12.096  -7.096  1.00  0.00     0.167 HD
ATOM     54  C   UNL     1      -0.080  16.279  -5.916  1.00  0.00     0.037 A 
ATOM     55  C   UNL     1       0.969   9.894  -8.133  1.00  0.00     0.037 A 
ATOM     56  C   UNL     1      -0.876  16.320  -7.124  1.00  0.00     0.049 A 
ATOM     57  C   UNL     1       1.122  11.202  -8.823  1.00  0.00     0.074 A 
ATOM     58  C   UNL     1      -2.227  16.462  -7.389  1.00  0.00     0.029 A 
ATOM     59  N   UNL     1      -0.333  15.787  -8.270  1.00  0.00    -0.354 N 
ATOM     60  N   UNL     1       0.256  11.688  -9.668  1.00  0.00    -0.248 NA
ATOM     61  C   UNL     1       2.019  12.180  -8.223  1.00  0.00     0.031 C 
ATOM     62  C   UNL     1      -2.491  15.542  -8.448  1.00  0.00     0.029 A 
ATOM     63  C   UNL     1      -1.279  14.963  -8.823  1.00  0.00     0.049 A 
ATOM     64  H   UNL     1       0.568  15.965  -8.626  1.00  0.00     0.167 HD
ATOM     65  C   UNL     1       0.188  13.039  -9.362  1.00  0.00     0.074 A 
ATOM     66  C   UNL     1       1.369  13.302  -8.541  1.00  0.00     0.031 C 
ATOM     67  C   UNL     1      -0.963  13.752  -9.545  1.00  0.00     0.037 A 
BRANCH  54  68
ATOM     68  C   UNL     1       1.301  16.888  -5.851  1.00  0.00     0.057 A 
ATOM     69  C   UNL     1       1.619  17.933  -6.739  1.00  0.00     0.134 A 
ATOM     70  C   UNL     1       2.405  16.320  -5.183  1.00  0.00     0.134 A 
ATOM     71  F   UNL     1       0.660  18.558  -7.439  1.00  0.00    -0.206 F 
ATOM     72  C   UNL     1       2.938  18.312  -7.014  1.00  0.00     0.040 A 
ATOM     73  C   UNL     1       3.722  16.730  -5.409  1.00  0.00     0.040 A 
ATOM     74  F   UNL     1       2.294  15.277  -4.355  1.00  0.00    -0.206 F 
ATOM     75  C   UNL     1       3.996  17.702  -6.355  1.00  0.00     0.006 A 
ENDBRANCH  54  68
BRANCH  55  76
ATOM     76  C   UNL     1       1.954   8.800  -8.288  1.00  0.00     0.057 A 
ATOM     77  C   UNL     1       2.737   8.692  -9.447  1.00  0.00     0.134 A 
ATOM     78  C   UNL     1       2.345   7.994  -7.205  1.00  0.00     0.134 A 
ATOM     79  F   UNL     1       2.468   9.444 -10.524  1.00  0.00    -0.206 F 
ATOM     80  C   UNL     1       3.861   7.858  -9.514  1.00  0.00     0.040 A 
ATOM     81  C   UNL     1       3.458   7.148  -7.262  1.00  0.00     0.040 A 
ATOM     82  F   UNL     1       1.717   8.066  -6.024  1.00  0.00    -0.206 F 
ATOM     83  C   UNL     1       4.232   7.091  -8.415  1.00  0.00     0.006 A 
ENDBRANCH  55  76
BRANCH  67  84
ATOM     84  C   UNL     1      -2.073  13.133 -10.352  1.00  0.00     0.057 A 
ATOM     85  C   UNL     1      -2.707  11.921 -10.040  1.00  0.00     0.134 A 
ATOM     86  C   UNL     1      -2.617  13.872 -11.410  1.00  0.00     0.134 A 
ATOM     87  F   UNL     1      -2.337  11.190  -8.980  1.00  0.00    -0.206 F 
ATOM     88  C   UNL     1      -3.795  11.444 -10.780  1.00  0.00     0.040 A 
ATOM     89  C   UNL     1      -3.727  13.427 -12.132  1.00  0.00     0.040 A 
ATOM     90  F   UNL     1      -2.102  15.068 -11.736  1.00  0.00    -0.206 F 
ATOM     91  C   UNL     1      -4.312  12.202 -11.826  1.00  0.00     0.006 A 
ENDBRANCH  67  84
ENDBRANCH  41  42
ENDBRANCH  33  36
ENDBRANCH  31  32
ENDBRANCH   1  31
TORSDOF 11
