REMARK SMILES CN1C(=O)Cc2cc([C@@H](O)CCCCC(=O)NCCCNC(=O)c3ccc(-c4c5nc(c(-c6c(F)cccc6F)c6ccc([nH]6)c(-c6c(F)cccc6F)c6nc(c(-c7c(F)cccc7F)c7ccc4[nH]7)C=C6)C=C5)cc3)ccc21
REMARK SMILES IDX 15 1 16 2 17 3 14 5 13 6 12 7 11 8 9 9 8 10 1 11 2 12 3 13
REMARK SMILES IDX 80 14 4 15 5 16 6 17 79 18 7 19 78 20 10 21 18 23 19 24
REMARK SMILES IDX 20 25 21 26 22 27 23 29 24 30 25 31 77 32 26 33 76 34 27 35
REMARK SMILES IDX 28 36 29 37 70 38 30 39 75 40 69 41 71 42 31 43 74 44 68 45
REMARK SMILES IDX 67 46 32 48 58 49 41 50 57 51 42 52 45 53 56 54 72 55 43 56
REMARK SMILES IDX 44 57 55 59 73 60 46 61 33 62 34 63 39 64 35 65 36 66 38 67
REMARK SMILES IDX 40 68 37 69 59 70 60 71 65 72 61 73 62 74 64 75 66 76 63 77
REMARK SMILES IDX 47 78 48 79 53 80 49 81 50 82 52 83 54 84 51 85
REMARK H PARENT 17 4 10 22 21 28 71 47 45 58
REMARK Flexibility Score: inf
ROOT
ATOM      1  C   UNL     1       6.970   0.988   4.088  1.00  0.00     0.219 C 
ATOM      2  O   UNL     1       7.454   0.339   5.017  1.00  0.00    -0.275 OA
ATOM      3  N   UNL     1       6.492   2.233   4.361  1.00  0.00    -0.356 N 
ATOM      4  H   UNL     1       6.645   2.540   5.284  1.00  0.00     0.163 HD
ENDROOT
BRANCH   1   5
ATOM      5  C   UNL     1       6.936   0.422   2.680  1.00  0.00     0.100 C 
BRANCH   5   6
ATOM      6  C   UNL     1       5.712  -0.442   2.370  1.00  0.00     0.010 C 
BRANCH   6   7
ATOM      7  C   UNL     1       4.430   0.307   2.014  1.00  0.00     0.004 C 
BRANCH   7   8
ATOM      8  C   UNL     1       4.523   1.256   0.810  1.00  0.00     0.037 C 
BRANCH   8   9
ATOM      9  C   UNL     1       4.134   0.626  -0.529  1.00  0.00     0.144 C 
BRANCH   9  10
ATOM     10  C   UNL     1       2.680   0.206  -0.535  1.00  0.00    -0.019 A 
ATOM     11  C   UNL     1      -1.956  -2.079   0.062  1.00  0.00     0.153 C 
ATOM     12  N   UNL     1      -1.313  -0.798  -0.043  1.00  0.00    -0.315 N 
ATOM     13  C   UNL     1      -1.968   0.434   0.038  1.00  0.00     0.231 C 
ATOM     14  C   UNL     1       0.060  -0.631  -0.230  1.00  0.00     0.047 A 
ATOM     15  O   UNL     1      -3.161   0.626   0.204  1.00  0.00    -0.274 OA
ATOM     16  C   UNL     1      -0.901   1.525  -0.113  1.00  0.00     0.138 C 
ATOM     17  C   UNL     1       0.355   0.729  -0.291  1.00  0.00    -0.014 A 
ATOM     18  C   UNL     1       1.041  -1.597  -0.333  1.00  0.00     0.027 A 
ATOM     19  C   UNL     1       1.655   1.167  -0.454  1.00  0.00     0.012 A 
ATOM     20  C   UNL     1       2.360  -1.170  -0.489  1.00  0.00     0.008 A 
ENDBRANCH   9  10
BRANCH   9  21
ATOM     21  O   UNL     1       4.363   1.589  -1.557  1.00  0.00    -0.388 OA
ATOM     22  H   UNL     1       3.818   2.375  -1.390  1.00  0.00     0.211 HD
ENDBRANCH   9  21
ENDBRANCH   8   9
ENDBRANCH   7   8
ENDBRANCH   6   7
ENDBRANCH   5   6
ENDBRANCH   1   5
BRANCH   3  23
ATOM     23  C   UNL     1       5.795   3.182   3.513  1.00  0.00     0.117 C 
BRANCH  23  24
ATOM     24  C   UNL     1       4.317   3.270   3.884  1.00  0.00     0.042 C 
BRANCH  24  25
ATOM     25  C   UNL     1       4.026   4.220   5.030  1.00  0.00     0.118 C 
BRANCH  25  26
ATOM     26  N   UNL     1       4.102   5.613   4.625  1.00  0.00    -0.352 N 
ATOM     27  C   UNL     1       3.146   6.598   4.673  1.00  0.00     0.251 C 
ATOM     28  H   UNL     1       4.972   5.894   4.260  1.00  0.00     0.163 HD
ATOM     29  O   UNL     1       3.353   7.665   4.101  1.00  0.00    -0.269 OA
BRANCH  27  30
ATOM     30  C   UNL     1       1.863   6.381   5.383  1.00  0.00     0.039 A 
ATOM     31  C   UNL     1       0.699   6.948   4.853  1.00  0.00     0.014 A 
ATOM     32  C   UNL     1       1.796   5.656   6.575  1.00  0.00     0.014 A 
ATOM     33  C   UNL     1      -0.527   6.747   5.491  1.00  0.00     0.010 A 
ATOM     34  C   UNL     1       0.563   5.362   7.146  1.00  0.00     0.010 A 
ATOM     35  C   UNL     1      -0.611   5.926   6.627  1.00  0.00    -0.014 A 
BRANCH  35  36
ATOM     36  C   UNL     1      -1.908   5.674   7.304  1.00  0.00     0.031 A 
ATOM     37  C   UNL     1      -2.108   6.095   8.736  1.00  0.00     0.074 A 
ATOM     38  C   UNL     1      -2.884   5.013   6.654  1.00  0.00     0.049 A 
ATOM     39  N   UNL     1      -3.147   5.920   9.514  1.00  0.00    -0.248 NA
ATOM     40  C   UNL     1      -0.977   6.770   9.391  1.00  0.00     0.031 C 
ATOM     41  C   UNL     1      -2.791   4.500   5.286  1.00  0.00     0.029 A 
ATOM     42  N   UNL     1      -4.144   4.652   7.060  1.00  0.00    -0.354 N 
ATOM     43  C   UNL     1      -2.784   6.442  10.749  1.00  0.00     0.074 A 
ATOM     44  C   UNL     1      -1.411   6.878  10.637  1.00  0.00     0.031 C 
ATOM     45  C   UNL     1      -3.953   3.914   4.957  1.00  0.00     0.029 A 
ATOM     46  C   UNL     1      -4.856   3.973   6.102  1.00  0.00     0.049 A 
ATOM     47  H   UNL     1      -4.502   4.859   7.953  1.00  0.00     0.167 HD
ATOM     48  C   UNL     1      -3.535   6.571  11.869  1.00  0.00     0.037 A 
ATOM     49  C   UNL     1      -6.097   3.451   6.143  1.00  0.00     0.037 A 
ATOM     50  C   UNL     1      -4.910   6.154  11.967  1.00  0.00     0.049 A 
ATOM     51  C   UNL     1      -6.918   3.610   7.390  1.00  0.00     0.074 A 
ATOM     52  C   UNL     1      -5.785   6.306  13.027  1.00  0.00     0.029 A 
ATOM     53  N   UNL     1      -5.605   5.489  10.966  1.00  0.00    -0.354 N 
ATOM     54  N   UNL     1      -6.595   4.183   8.525  1.00  0.00    -0.248 NA
ATOM     55  C   UNL     1      -8.280   3.059   7.362  1.00  0.00     0.031 C 
ATOM     56  C   UNL     1      -6.990   5.680  12.692  1.00  0.00     0.029 A 
ATOM     57  C   UNL     1      -6.888   5.194  11.397  1.00  0.00     0.049 A 
ATOM     58  H   UNL     1      -5.240   5.261  10.081  1.00  0.00     0.167 HD
ATOM     59  C   UNL     1      -7.717   4.083   9.338  1.00  0.00     0.074 A 
ATOM     60  C   UNL     1      -8.734   3.407   8.558  1.00  0.00     0.031 C 
ATOM     61  C   UNL     1      -7.889   4.513  10.612  1.00  0.00     0.037 A 
BRANCH  48  62
ATOM     62  C   UNL     1      -2.873   7.176  13.077  1.00  0.00     0.057 A 
ATOM     63  C   UNL     1      -2.461   8.517  13.110  1.00  0.00     0.134 A 
ATOM     64  C   UNL     1      -2.639   6.406  14.223  1.00  0.00     0.134 A 
ATOM     65  F   UNL     1      -2.644   9.311  12.043  1.00  0.00    -0.206 F 
ATOM     66  C   UNL     1      -1.799   9.053  14.216  1.00  0.00     0.040 A 
ATOM     67  C   UNL     1      -2.009   6.941  15.349  1.00  0.00     0.040 A 
ATOM     68  F   UNL     1      -3.014   5.119  14.268  1.00  0.00    -0.206 F 
ATOM     69  C   UNL     1      -1.575   8.264  15.342  1.00  0.00     0.006 A 
ENDBRANCH  48  62
BRANCH  49  70
ATOM     70  C   UNL     1      -6.635   2.755   4.946  1.00  0.00     0.057 A 
ATOM     71  C   UNL     1      -7.647   3.329   4.169  1.00  0.00     0.134 A 
ATOM     72  C   UNL     1      -6.118   1.523   4.526  1.00  0.00     0.134 A 
ATOM     73  F   UNL     1      -8.192   4.500   4.529  1.00  0.00    -0.206 F 
ATOM     74  C   UNL     1      -8.133   2.700   3.021  1.00  0.00     0.040 A 
ATOM     75  C   UNL     1      -6.573   0.898   3.364  1.00  0.00     0.040 A 
ATOM     76  F   UNL     1      -5.141   0.926   5.223  1.00  0.00    -0.206 F 
ATOM     77  C   UNL     1      -7.587   1.486   2.610  1.00  0.00     0.006 A 
ENDBRANCH  49  70
BRANCH  61  78
ATOM     78  C   UNL     1      -9.236   4.288  11.238  1.00  0.00     0.057 A 
ATOM     79  C   UNL     1      -9.679   3.012  11.606  1.00  0.00     0.134 A 
ATOM     80  C   UNL     1     -10.082   5.371  11.513  1.00  0.00     0.134 A 
ATOM     81  F   UNL     1      -8.923   1.931  11.361  1.00  0.00    -0.206 F 
ATOM     82  C   UNL     1     -10.927   2.818  12.203  1.00  0.00     0.040 A 
ATOM     83  C   UNL     1     -11.317   5.192  12.137  1.00  0.00     0.040 A 
ATOM     84  F   UNL     1      -9.715   6.621  11.196  1.00  0.00    -0.206 F 
ATOM     85  C   UNL     1     -11.746   3.911  12.477  1.00  0.00     0.006 A 
ENDBRANCH  61  78
ENDBRANCH  35  36
ENDBRANCH  27  30
ENDBRANCH  25  26
ENDBRANCH  24  25
ENDBRANCH  23  24
ENDBRANCH   3  23
TORSDOF 16
