REMARK SMILES CC1(C)S[C@H]2[C@H](NC(=O)[C@@H]([NH3+])c3ccccc3)C(=O)N2[C@H]1C(=O)NCCCNC(=O)c1ccc(-c2c3nc(c(-c4c(F)cccc4F)c4ccc([nH]4)c(-c4c(F)cccc4F)c4nc(c(-c5c(F)cccc5F)c5ccc2[nH]5)C=C4)C=C3)cc1
REMARK SMILES IDX 25 1 24 2 22 3 23 4 21 6 1 7 2 8 3 9 4 10 5 11 20 12 6 13
REMARK SMILES IDX 18 14 19 15 7 16 8 17 9 19 10 20 11 21 12 25 13 26 17 27
REMARK SMILES IDX 14 28 16 29 15 30 26 31 27 32 28 33 29 34 30 36 31 37 32 38
REMARK SMILES IDX 84 39 33 40 83 41 34 42 35 43 36 44 77 45 37 46 82 47 76 48
REMARK SMILES IDX 78 49 38 50 81 51 75 52 74 53 39 55 65 56 48 57 64 58 49 59
REMARK SMILES IDX 52 60 63 61 79 62 50 63 51 64 62 66 80 67 53 68 40 69 41 70
REMARK SMILES IDX 46 71 42 72 43 73 45 74 47 75 44 76 66 77 67 78 72 79 68 80
REMARK SMILES IDX 69 81 71 82 73 83 70 84 54 85 55 86 60 87 56 88 57 89 59 90
REMARK SMILES IDX 61 91 58 92
REMARK H PARENT 24 5 7 18 11 22 11 23 11 24 28 35 78 54 52 65
REMARK Flexibility Score: inf
ROOT
ATOM      1  C   UNL     1      -0.156  -4.064  -1.609  1.00  0.00     0.117 C 
ENDROOT
BRANCH   1   2
ATOM      2  N   UNL     1       1.210  -3.570  -1.682  1.00  0.00    -0.354 N 
ATOM      3  C   UNL     1       2.045  -3.000  -0.780  1.00  0.00     0.244 C 
ATOM      4  O   UNL     1       3.151  -2.667  -1.235  1.00  0.00    -0.273 OA
ATOM      5  H   UNL     1       1.613  -3.671  -2.574  1.00  0.00     0.163 HD
BRANCH   3   6
ATOM      6  C   UNL     1       1.690  -2.606   0.670  1.00  0.00     0.191 C 
ATOM      7  C   UNL     1       1.768  -0.066   0.483  1.00  0.00     0.026 C 
ATOM      8  C   UNL     1       0.913  -1.284   0.860  1.00  0.00     0.042 C 
ATOM      9  C   UNL     1      -0.441  -1.185   0.157  1.00  0.00     0.026 C 
ATOM     10  S   UNL     1       0.579  -1.203   2.692  1.00  0.00    -0.125 SA
ATOM     11  C   UNL     1       0.821  -3.003   2.966  1.00  0.00     0.176 C 
ATOM     12  N   UNL     1       1.227  -3.562   1.666  1.00  0.00    -0.313 N 
ATOM     13  C   UNL     1      -0.472  -3.844   2.868  1.00  0.00     0.205 C 
ATOM     14  C   UNL     1       0.220  -4.470   1.623  1.00  0.00     0.249 C 
ATOM     15  O   UNL     1       0.010  -5.387   0.877  1.00  0.00    -0.272 OA
BRANCH  13  16
ATOM     16  N   UNL     1      -0.733  -4.797   3.968  1.00  0.00    -0.336 N 
ATOM     17  C   UNL     1      -1.953  -5.217   4.428  1.00  0.00     0.283 C 
ATOM     18  H   UNL     1       0.057  -5.171   4.420  1.00  0.00     0.164 HD
ATOM     19  O   UNL     1      -1.969  -6.083   5.309  1.00  0.00    -0.268 OA
BRANCH  17  20
ATOM     20  C   UNL     1      -3.272  -4.569   3.922  1.00  0.00     0.302 C 
BRANCH  20  21
ATOM     21  N   UNL     1      -3.314  -3.167   4.401  1.00  0.00    -0.343 N 
ATOM     22  H   UNL     1      -2.528  -2.650   4.008  1.00  0.00     0.345 HD
ATOM     23  H   UNL     1      -3.255  -3.154   5.419  1.00  0.00     0.345 HD
ATOM     24  H   UNL     1      -4.189  -2.733   4.105  1.00  0.00     0.345 HD
ENDBRANCH  20  21
BRANCH  20  25
ATOM     25  C   UNL     1      -3.520  -4.732   2.426  1.00  0.00     0.019 A 
ATOM     26  C   UNL     1      -3.400  -6.004   1.839  1.00  0.00     0.010 A 
ATOM     27  C   UNL     1      -3.904  -3.661   1.597  1.00  0.00     0.010 A 
ATOM     28  C   UNL     1      -3.624  -6.190   0.473  1.00  0.00     0.001 A 
ATOM     29  C   UNL     1      -4.131  -3.849   0.232  1.00  0.00     0.001 A 
ATOM     30  C   UNL     1      -3.989  -5.114  -0.330  1.00  0.00     0.000 A 
ENDBRANCH  20  25
ENDBRANCH  17  20
ENDBRANCH  13  16
ENDBRANCH   3   6
ENDBRANCH   1   2
BRANCH   1  31
ATOM     31  C   UNL     1      -0.999  -3.602  -2.798  1.00  0.00     0.042 C 
BRANCH  31  32
ATOM     32  C   UNL     1      -0.649  -4.324  -4.097  1.00  0.00     0.118 C 
BRANCH  32  33
ATOM     33  N   UNL     1      -1.180  -5.676  -4.160  1.00  0.00    -0.352 N 
ATOM     34  C   UNL     1      -2.435  -6.162  -4.425  1.00  0.00     0.251 C 
ATOM     35  H   UNL     1      -0.512  -6.375  -3.977  1.00  0.00     0.163 HD
ATOM     36  O   UNL     1      -2.645  -7.364  -4.261  1.00  0.00    -0.269 OA
BRANCH  34  37
ATOM     37  C   UNL     1      -3.560  -5.299  -4.865  1.00  0.00     0.039 A 
ATOM     38  C   UNL     1      -4.846  -5.618  -4.405  1.00  0.00     0.014 A 
ATOM     39  C   UNL     1      -3.411  -4.268  -5.794  1.00  0.00     0.014 A 
ATOM     40  C   UNL     1      -5.961  -4.890  -4.835  1.00  0.00     0.010 A 
ATOM     41  C   UNL     1      -4.516  -3.506  -6.186  1.00  0.00     0.010 A 
ATOM     42  C   UNL     1      -5.803  -3.816  -5.719  1.00  0.00    -0.014 A 
BRANCH  42  43
ATOM     43  C   UNL     1      -6.965  -3.046  -6.229  1.00  0.00     0.031 A 
ATOM     44  C   UNL     1      -7.319  -3.109  -7.689  1.00  0.00     0.074 A 
ATOM     45  C   UNL     1      -7.684  -2.255  -5.412  1.00  0.00     0.049 A 
ATOM     46  N   UNL     1      -8.104  -2.326  -8.383  1.00  0.00    -0.248 NA
ATOM     47  C   UNL     1      -6.688  -4.182  -8.474  1.00  0.00     0.031 C 
ATOM     48  C   UNL     1      -7.481  -2.103  -3.972  1.00  0.00     0.029 A 
ATOM     49  N   UNL     1      -8.736  -1.418  -5.693  1.00  0.00    -0.354 N 
ATOM     50  C   UNL     1      -8.002  -2.760  -9.697  1.00  0.00     0.074 A 
ATOM     51  C   UNL     1      -7.115  -3.906  -9.698  1.00  0.00     0.031 C 
ATOM     52  C   UNL     1      -8.393  -1.241  -3.491  1.00  0.00     0.029 A 
ATOM     53  C   UNL     1      -9.213  -0.749  -4.594  1.00  0.00     0.049 A 
ATOM     54  H   UNL     1      -9.112  -1.308  -6.596  1.00  0.00     0.167 HD
ATOM     55  C   UNL     1      -8.574  -2.235 -10.806  1.00  0.00     0.037 A 
ATOM     56  C   UNL     1     -10.187   0.174  -4.492  1.00  0.00     0.037 A 
ATOM     57  C   UNL     1      -9.501  -1.137 -10.806  1.00  0.00     0.049 A 
ATOM     58  C   UNL     1     -10.901   0.654  -5.721  1.00  0.00     0.074 A 
ATOM     59  C   UNL     1     -10.073  -0.482 -11.884  1.00  0.00     0.029 A 
ATOM     60  N   UNL     1     -10.029  -0.563  -9.662  1.00  0.00    -0.354 N 
ATOM     61  N   UNL     1     -10.688   0.336  -6.973  1.00  0.00    -0.248 NA
ATOM     62  C   UNL     1     -11.977   1.637  -5.521  1.00  0.00     0.031 C 
ATOM     63  C   UNL     1     -10.969   0.475 -11.389  1.00  0.00     0.029 A 
ATOM     64  C   UNL     1     -10.951   0.411 -10.005  1.00  0.00     0.049 A 
ATOM     65  H   UNL     1      -9.785  -0.810  -8.741  1.00  0.00     0.167 HD
ATOM     66  C   UNL     1     -11.583   1.096  -7.713  1.00  0.00     0.074 A 
ATOM     67  C   UNL     1     -12.363   1.870  -6.769  1.00  0.00     0.031 C 
ATOM     68  C   UNL     1     -11.726   1.163  -9.057  1.00  0.00     0.037 A 
BRANCH  55  69
ATOM     69  C   UNL     1      -8.173  -2.825 -12.118  1.00  0.00     0.057 A 
ATOM     70  C   UNL     1      -8.828  -3.937 -12.655  1.00  0.00     0.134 A 
ATOM     71  C   UNL     1      -7.126  -2.261 -12.857  1.00  0.00     0.134 A 
ATOM     72  F   UNL     1      -9.826  -4.528 -11.982  1.00  0.00    -0.206 F 
ATOM     73  C   UNL     1      -8.449  -4.475 -13.886  1.00  0.00     0.040 A 
ATOM     74  C   UNL     1      -6.742  -2.786 -14.091  1.00  0.00     0.040 A 
ATOM     75  F   UNL     1      -6.458  -1.197 -12.386  1.00  0.00    -0.206 F 
ATOM     76  C   UNL     1      -7.405  -3.897 -14.608  1.00  0.00     0.006 A 
ENDBRANCH  55  69
BRANCH  56  77
ATOM     77  C   UNL     1     -10.532   0.729  -3.166  1.00  0.00     0.057 A 
ATOM     78  C   UNL     1     -11.589   0.197  -2.422  1.00  0.00     0.134 A 
ATOM     79  C   UNL     1      -9.816   1.796  -2.618  1.00  0.00     0.134 A 
ATOM     80  F   UNL     1     -12.317  -0.817  -2.913  1.00  0.00    -0.206 F 
ATOM     81  C   UNL     1     -11.928   0.713  -1.172  1.00  0.00     0.040 A 
ATOM     82  C   UNL     1     -10.140   2.319  -1.366  1.00  0.00     0.040 A 
ATOM     83  F   UNL     1      -8.794   2.343  -3.293  1.00  0.00    -0.206 F 
ATOM     84  C   UNL     1     -11.200   1.778  -0.640  1.00  0.00     0.006 A 
ENDBRANCH  56  77
BRANCH  68  85
ATOM     85  C   UNL     1     -12.757   2.107  -9.583  1.00  0.00     0.057 A 
ATOM     86  C   UNL     1     -12.437   3.442  -9.857  1.00  0.00     0.134 A 
ATOM     87  C   UNL     1     -14.064   1.680  -9.838  1.00  0.00     0.134 A 
ATOM     88  F   UNL     1     -11.201   3.907  -9.623  1.00  0.00    -0.206 F 
ATOM     89  C   UNL     1     -13.389   4.325 -10.369  1.00  0.00     0.040 A 
ATOM     90  C   UNL     1     -15.024   2.554 -10.349  1.00  0.00     0.040 A 
ATOM     91  F   UNL     1     -14.428   0.414  -9.585  1.00  0.00    -0.206 F 
ATOM     92  C   UNL     1     -14.687   3.881 -10.617  1.00  0.00     0.006 A 
ENDBRANCH  68  85
ENDBRANCH  42  43
ENDBRANCH  34  37
ENDBRANCH  32  33
ENDBRANCH  31  32
ENDBRANCH   1  31
TORSDOF 14
