REMARK SMILES CCc1cccc(C)c1Nc1ccccc1CC(=O)NCCCNC(=O)c1ccc(-c2c3nc(c(-c4c(F)cccc4F)c4ccc([nH]4)c(-c4c(F)cccc4F)c4nc(c(-c5c(F)cccc5F)c5ccc2[nH]5)C=C4)C=C3)cc1
REMARK SMILES IDX 21 1 20 2 18 3 19 4 17 6 16 7 11 8 12 9 13 10 15 11 14 12
REMARK SMILES IDX 10 13 9 15 3 16 4 17 5 18 7 19 6 20 8 21 2 22 1 23 22 24
REMARK SMILES IDX 23 25 24 26 25 27 26 29 27 30 28 31 80 32 29 33 79 34 30 35
REMARK SMILES IDX 31 36 32 37 73 38 33 39 78 40 72 41 74 42 34 43 77 44 71 45
REMARK SMILES IDX 70 46 35 48 61 49 44 50 60 51 45 52 48 53 59 54 75 55 46 56
REMARK SMILES IDX 47 57 58 59 76 60 49 61 36 62 37 63 42 64 38 65 39 66 41 67
REMARK SMILES IDX 43 68 40 69 62 70 63 71 68 72 64 73 65 74 67 75 69 76 66 77
REMARK SMILES IDX 50 78 51 79 56 80 52 81 53 82 55 83 57 84 54 85
REMARK H PARENT 20 5 10 14 24 28 74 47 48 58
REMARK Flexibility Score: inf
ROOT
ATOM      1  C   UNL     1       1.514   7.383   1.701  1.00  0.00     0.117 C 
ENDROOT
BRANCH   1   2
ATOM      2  N   UNL     1       1.381   6.110   2.386  1.00  0.00    -0.356 N 
ATOM      3  C   UNL     1       2.000   4.912   2.158  1.00  0.00     0.224 C 
ATOM      4  O   UNL     1       2.000   4.097   3.084  1.00  0.00    -0.275 OA
ATOM      5  H   UNL     1       0.743   6.108   3.135  1.00  0.00     0.163 HD
BRANCH   3   6
ATOM      6  C   UNL     1       2.763   4.631   0.876  1.00  0.00     0.137 C 
BRANCH   6   7
ATOM      7  C   UNL     1       1.953   4.573  -0.403  1.00  0.00    -0.015 A 
ATOM      8  C   UNL     1       1.033   3.543  -0.697  1.00  0.00     0.042 A 
ATOM      9  C   UNL     1       0.371   3.552  -1.938  1.00  0.00     0.026 A 
ATOM     10  C   UNL     1       0.569   4.579  -2.859  1.00  0.00     0.002 A 
ATOM     11  C   UNL     1       2.171   5.580  -1.366  1.00  0.00     0.006 A 
ATOM     12  C   UNL     1       1.472   5.594  -2.573  1.00  0.00     0.000 A 
BRANCH   8  13
ATOM     13  N   UNL     1       0.868   2.402   0.113  1.00  0.00    -0.355 N 
ATOM     14  H   UNL     1       1.390   1.623  -0.184  1.00  0.00     0.167 HD
BRANCH  13  15
ATOM     15  C   UNL     1       0.094   2.166   1.274  1.00  0.00     0.045 A 
ATOM     16  C   UNL     1       0.264   0.949   1.984  1.00  0.00    -0.024 A 
ATOM     17  C   UNL     1      -0.236   0.856   3.302  1.00  0.00     0.006 A 
ATOM     18  C   UNL     1      -0.997   1.871   3.862  1.00  0.00     0.001 A 
ATOM     19  C   UNL     1      -0.870   3.081   1.761  1.00  0.00    -0.027 A 
ATOM     20  C   UNL     1      -1.359   2.952   3.074  1.00  0.00     0.005 A 
ATOM     21  C   UNL     1      -1.432   4.200   0.933  1.00  0.00     0.046 C 
BRANCH  16  22
ATOM     22  C   UNL     1       0.932  -0.317   1.469  1.00  0.00     0.034 C 
ATOM     23  C   UNL     1       1.013  -0.570  -0.034  1.00  0.00     0.009 C 
ENDBRANCH  16  22
ENDBRANCH  13  15
ENDBRANCH   8  13
ENDBRANCH   6   7
ENDBRANCH   3   6
ENDBRANCH   1   2
BRANCH   1  24
ATOM     24  C   UNL     1       0.393   7.700   0.717  1.00  0.00     0.042 C 
BRANCH  24  25
ATOM     25  C   UNL     1      -0.993   7.846   1.337  1.00  0.00     0.118 C 
BRANCH  25  26
ATOM     26  N   UNL     1      -1.462   9.223   1.442  1.00  0.00    -0.352 N 
ATOM     27  C   UNL     1      -2.676   9.706   1.901  1.00  0.00     0.251 C 
ATOM     28  H   UNL     1      -0.823   9.909   1.142  1.00  0.00     0.163 HD
ATOM     29  O   UNL     1      -2.874  10.911   1.946  1.00  0.00    -0.269 OA
BRANCH  27  30
ATOM     30  C   UNL     1      -3.681   8.768   2.463  1.00  0.00     0.039 A 
ATOM     31  C   UNL     1      -4.273   9.107   3.686  1.00  0.00     0.014 A 
ATOM     32  C   UNL     1      -3.924   7.520   1.896  1.00  0.00     0.014 A 
ATOM     33  C   UNL     1      -4.885   8.117   4.450  1.00  0.00     0.010 A 
ATOM     34  C   UNL     1      -4.466   6.518   2.679  1.00  0.00     0.010 A 
ATOM     35  C   UNL     1      -4.867   6.803   3.986  1.00  0.00    -0.014 A 
BRANCH  35  36
ATOM     36  C   UNL     1      -5.111   5.659   4.854  1.00  0.00     0.031 A 
ATOM     37  C   UNL     1      -6.429   4.996   4.886  1.00  0.00     0.074 A 
ATOM     38  C   UNL     1      -4.097   5.203   5.623  1.00  0.00     0.049 A 
ATOM     39  N   UNL     1      -6.837   4.256   5.862  1.00  0.00    -0.248 NA
ATOM     40  C   UNL     1      -7.443   5.194   3.855  1.00  0.00     0.031 C 
ATOM     41  C   UNL     1      -4.034   3.950   6.369  1.00  0.00     0.029 A 
ATOM     42  N   UNL     1      -2.988   5.936   6.076  1.00  0.00    -0.354 N 
ATOM     43  C   UNL     1      -8.008   3.655   5.468  1.00  0.00     0.074 A 
ATOM     44  C   UNL     1      -8.415   4.386   4.295  1.00  0.00     0.031 C 
ATOM     45  C   UNL     1      -3.157   4.091   7.374  1.00  0.00     0.029 A 
ATOM     46  C   UNL     1      -2.746   5.485   7.392  1.00  0.00     0.049 A 
ATOM     47  H   UNL     1      -2.485   6.622   5.580  1.00  0.00     0.167 HD
ATOM     48  C   UNL     1      -8.405   2.517   6.102  1.00  0.00     0.037 A 
ATOM     49  C   UNL     1      -2.854   6.317   8.468  1.00  0.00     0.037 A 
ATOM     50  C   UNL     1      -7.653   2.325   7.344  1.00  0.00     0.049 A 
ATOM     51  C   UNL     1      -3.843   5.854   9.510  1.00  0.00     0.074 A 
ATOM     52  C   UNL     1      -6.623   1.476   7.709  1.00  0.00     0.029 A 
ATOM     53  N   UNL     1      -7.769   3.268   8.362  1.00  0.00    -0.354 N 
ATOM     54  N   UNL     1      -4.785   4.982   9.279  1.00  0.00    -0.248 NA
ATOM     55  C   UNL     1      -3.876   6.362  10.880  1.00  0.00     0.031 C 
ATOM     56  C   UNL     1      -6.050   1.981   8.907  1.00  0.00     0.029 A 
ATOM     57  C   UNL     1      -6.765   3.103   9.294  1.00  0.00     0.049 A 
ATOM     58  H   UNL     1      -8.471   3.957   8.410  1.00  0.00     0.167 HD
ATOM     59  C   UNL     1      -5.550   4.829  10.405  1.00  0.00     0.074 A 
ATOM     60  C   UNL     1      -4.929   5.696  11.387  1.00  0.00     0.031 C 
ATOM     61  C   UNL     1      -6.644   4.012  10.425  1.00  0.00     0.037 A 
BRANCH  48  62
ATOM     62  C   UNL     1      -9.310   1.445   5.516  1.00  0.00     0.057 A 
ATOM     63  C   UNL     1      -9.593   0.277   6.257  1.00  0.00     0.134 A 
ATOM     64  C   UNL     1      -9.816   1.417   4.200  1.00  0.00     0.134 A 
ATOM     65  F   UNL     1      -9.191   0.140   7.528  1.00  0.00    -0.206 F 
ATOM     66  C   UNL     1     -10.282  -0.826   5.724  1.00  0.00     0.040 A 
ATOM     67  C   UNL     1     -10.545   0.340   3.671  1.00  0.00     0.040 A 
ATOM     68  F   UNL     1      -9.598   2.395   3.318  1.00  0.00    -0.206 F 
ATOM     69  C   UNL     1     -10.765  -0.796   4.426  1.00  0.00     0.006 A 
ENDBRANCH  48  62
BRANCH  49  70
ATOM     70  C   UNL     1      -2.553   7.738   8.159  1.00  0.00     0.057 A 
ATOM     71  C   UNL     1      -1.247   8.084   7.772  1.00  0.00     0.134 A 
ATOM     72  C   UNL     1      -3.564   8.664   7.889  1.00  0.00     0.134 A 
ATOM     73  F   UNL     1      -0.229   7.239   8.005  1.00  0.00    -0.206 F 
ATOM     74  C   UNL     1      -0.975   9.248   7.049  1.00  0.00     0.040 A 
ATOM     75  C   UNL     1      -3.301   9.839   7.176  1.00  0.00     0.040 A 
ATOM     76  F   UNL     1      -4.838   8.397   8.210  1.00  0.00    -0.206 F 
ATOM     77  C   UNL     1      -2.012  10.115   6.721  1.00  0.00     0.006 A 
ENDBRANCH  49  70
BRANCH  61  78
ATOM     78  C   UNL     1      -7.659   3.943  11.536  1.00  0.00     0.057 A 
ATOM     79  C   UNL     1      -8.030   5.037  12.333  1.00  0.00     0.134 A 
ATOM     80  C   UNL     1      -8.418   2.770  11.736  1.00  0.00     0.134 A 
ATOM     81  F   UNL     1      -7.464   6.242  12.175  1.00  0.00    -0.206 F 
ATOM     82  C   UNL     1      -9.044   4.955  13.297  1.00  0.00     0.040 A 
ATOM     83  C   UNL     1      -9.464   2.691  12.660  1.00  0.00     0.040 A 
ATOM     84  F   UNL     1      -8.186   1.655  11.027  1.00  0.00    -0.206 F 
ATOM     85  C   UNL     1      -9.773   3.783  13.456  1.00  0.00     0.006 A 
ENDBRANCH  61  78
ENDBRANCH  35  36
ENDBRANCH  27  30
ENDBRANCH  25  26
ENDBRANCH  24  25
ENDBRANCH   1  24
TORSDOF 14
