REMARK SMILES O=C(NCCCNC(=O)c1ccccc1OCC[S@@](=O)c1cccc(F)c1)c1ccc(-c2c3nc(c(-c4c(F)cccc4F)c4ccc([nH]4)c(-c4c(F)cccc4F)c4nc(c(-c5c(F)cccc5F)c5ccc2[nH]5)C=C4)C=C3)cc1
REMARK SMILES IDX 7 1 8 2 9 3 6 5 5 6 4 7 3 8 1 9 2 10 28 12 29 13 81 14 30 15
REMARK SMILES IDX 80 16 31 17 32 18 33 19 74 20 34 21 79 22 73 23 75 24 35 25
REMARK SMILES IDX 78 26 72 27 71 28 36 30 62 31 45 32 61 33 46 34 49 35 60 36
REMARK SMILES IDX 76 37 47 38 48 39 59 41 77 42 50 43 37 44 38 45 43 46 39 47
REMARK SMILES IDX 40 48 42 49 44 50 41 51 63 52 64 53 69 54 65 55 66 56 68 57
REMARK SMILES IDX 70 58 67 59 51 60 52 61 57 62 53 63 54 64 56 65 58 66 55 67
REMARK SMILES IDX 10 68 11 69 15 70 12 71 14 72 13 73 16 74 17 75 18 76 19 77
REMARK SMILES IDX 20 78 21 79 22 80 27 81 23 82 25 83 24 84 26 85
REMARK H PARENT 7 4 3 11 75 29 49 40
REMARK Flexibility Score: inf
ROOT
ATOM      1  N   UNL     1       5.224   1.638  -4.104  1.00  0.00    -0.352 N 
ATOM      2  C   UNL     1       5.449   1.686  -5.469  1.00  0.00     0.255 C 
ATOM      3  O   UNL     1       5.548   2.821  -5.949  1.00  0.00    -0.269 OA
ATOM      4  H   UNL     1       5.595   2.422  -3.637  1.00  0.00     0.163 HD
ENDROOT
BRANCH   1   5
ATOM      5  C   UNL     1       4.573   0.710  -3.192  1.00  0.00     0.118 C 
BRANCH   5   6
ATOM      6  C   UNL     1       5.168   0.570  -1.805  1.00  0.00     0.042 C 
BRANCH   6   7
ATOM      7  C   UNL     1       4.502   1.488  -0.800  1.00  0.00     0.118 C 
BRANCH   7   8
ATOM      8  N   UNL     1       3.067   1.199  -0.621  1.00  0.00    -0.352 N 
ATOM      9  O   UNL     1       1.193   0.191   0.128  1.00  0.00    -0.269 OA
ATOM     10  C   UNL     1       2.370   0.500   0.338  1.00  0.00     0.251 C 
ATOM     11  H   UNL     1       2.495   1.580  -1.326  1.00  0.00     0.163 HD
BRANCH  10  12
ATOM     12  C   UNL     1       3.009   0.120   1.611  1.00  0.00     0.039 A 
ATOM     13  C   UNL     1       4.008   0.931   2.125  1.00  0.00     0.014 A 
ATOM     14  C   UNL     1       2.618  -1.021   2.322  1.00  0.00     0.014 A 
ATOM     15  C   UNL     1       4.812   0.470   3.143  1.00  0.00     0.010 A 
ATOM     16  C   UNL     1       3.289  -1.366   3.504  1.00  0.00     0.010 A 
ATOM     17  C   UNL     1       4.418  -0.637   3.903  1.00  0.00    -0.014 A 
BRANCH  17  18
ATOM     18  C   UNL     1       5.173  -0.892   5.156  1.00  0.00     0.031 A 
ATOM     19  C   UNL     1       5.868  -2.196   5.402  1.00  0.00     0.074 A 
ATOM     20  C   UNL     1       5.304   0.135   6.024  1.00  0.00     0.049 A 
ATOM     21  N   UNL     1       6.591  -2.554   6.432  1.00  0.00    -0.248 NA
ATOM     22  C   UNL     1       5.729  -3.241   4.376  1.00  0.00     0.031 C 
ATOM     23  C   UNL     1       4.670   1.453   5.872  1.00  0.00     0.029 A 
ATOM     24  N   UNL     1       6.052   0.269   7.163  1.00  0.00    -0.354 N 
ATOM     25  C   UNL     1       6.970  -3.868   6.194  1.00  0.00     0.074 A 
ATOM     26  C   UNL     1       6.376  -4.256   4.933  1.00  0.00     0.031 C 
ATOM     27  C   UNL     1       5.141   2.285   6.807  1.00  0.00     0.029 A 
ATOM     28  C   UNL     1       5.992   1.529   7.709  1.00  0.00     0.049 A 
ATOM     29  H   UNL     1       6.580  -0.465   7.552  1.00  0.00     0.167 HD
ATOM     30  C   UNL     1       7.746  -4.669   6.963  1.00  0.00     0.037 A 
ATOM     31  C   UNL     1       6.524   2.018   8.842  1.00  0.00     0.037 A 
ATOM     32  C   UNL     1       8.338  -4.253   8.210  1.00  0.00     0.049 A 
ATOM     33  C   UNL     1       7.331   1.090   9.695  1.00  0.00     0.074 A 
ATOM     34  C   UNL     1       9.134  -4.983   9.074  1.00  0.00     0.029 A 
ATOM     35  N   UNL     1       8.198  -2.989   8.770  1.00  0.00    -0.354 N 
ATOM     36  N   UNL     1       7.663  -0.158   9.467  1.00  0.00    -0.248 NA
ATOM     37  C   UNL     1       7.821   1.627  10.968  1.00  0.00     0.031 C 
ATOM     38  C   UNL     1       9.434  -4.179  10.179  1.00  0.00     0.029 A 
ATOM     39  C   UNL     1       8.878  -2.926   9.976  1.00  0.00     0.049 A 
ATOM     40  H   UNL     1       7.691  -2.247   8.368  1.00  0.00     0.167 HD
ATOM     41  C   UNL     1       8.414  -0.554  10.562  1.00  0.00     0.074 A 
ATOM     42  C   UNL     1       8.512   0.598  11.436  1.00  0.00     0.031 C 
ATOM     43  C   UNL     1       8.964  -1.764  10.825  1.00  0.00     0.037 A 
BRANCH  30  44
ATOM     44  C   UNL     1       7.973  -6.079   6.496  1.00  0.00     0.057 A 
ATOM     45  C   UNL     1       8.764  -6.378   5.379  1.00  0.00     0.134 A 
ATOM     46  C   UNL     1       7.419  -7.160   7.197  1.00  0.00     0.134 A 
ATOM     47  F   UNL     1       9.314  -5.393   4.653  1.00  0.00    -0.206 F 
ATOM     48  C   UNL     1       8.977  -7.694   4.964  1.00  0.00     0.040 A 
ATOM     49  C   UNL     1       7.649  -8.481   6.809  1.00  0.00     0.040 A 
ATOM     50  F   UNL     1       6.655  -6.950   8.280  1.00  0.00    -0.206 F 
ATOM     51  C   UNL     1       8.425  -8.751   5.685  1.00  0.00     0.006 A 
ENDBRANCH  30  44
BRANCH  31  52
ATOM     52  C   UNL     1       6.251   3.420   9.253  1.00  0.00     0.057 A 
ATOM     53  C   UNL     1       7.276   4.366   9.348  1.00  0.00     0.134 A 
ATOM     54  C   UNL     1       4.952   3.847   9.560  1.00  0.00     0.134 A 
ATOM     55  F   UNL     1       8.544   4.019   9.080  1.00  0.00    -0.206 F 
ATOM     56  C   UNL     1       7.024   5.678   9.753  1.00  0.00     0.040 A 
ATOM     57  C   UNL     1       4.679   5.164   9.929  1.00  0.00     0.040 A 
ATOM     58  F   UNL     1       3.919   2.994   9.478  1.00  0.00    -0.206 F 
ATOM     59  C   UNL     1       5.720   6.082  10.038  1.00  0.00     0.006 A 
ENDBRANCH  31  52
BRANCH  43  60
ATOM     60  C   UNL     1       9.758  -1.874  12.092  1.00  0.00     0.057 A 
ATOM     61  C   UNL     1       9.149  -1.856  13.353  1.00  0.00     0.134 A 
ATOM     62  C   UNL     1      11.152  -2.004  12.045  1.00  0.00     0.134 A 
ATOM     63  F   UNL     1       7.820  -1.713  13.466  1.00  0.00    -0.206 F 
ATOM     64  C   UNL     1       9.903  -1.930  14.525  1.00  0.00     0.040 A 
ATOM     65  C   UNL     1      11.912  -2.113  13.208  1.00  0.00     0.040 A 
ATOM     66  F   UNL     1      11.795  -2.033  10.868  1.00  0.00    -0.206 F 
ATOM     67  C   UNL     1      11.288  -2.066  14.453  1.00  0.00     0.006 A 
ENDBRANCH  43  60
ENDBRANCH  17  18
ENDBRANCH  10  12
ENDBRANCH   7   8
ENDBRANCH   6   7
ENDBRANCH   5   6
ENDBRANCH   1   5
BRANCH   2  68
ATOM     68  C   UNL     1       5.851   0.565  -6.376  1.00  0.00     0.081 A 
ATOM     69  C   UNL     1       7.208   0.625  -6.767  1.00  0.00     0.018 A 
ATOM     70  C   UNL     1       5.045  -0.371  -7.051  1.00  0.00     0.132 A 
ATOM     71  C   UNL     1       7.747  -0.232  -7.740  1.00  0.00     0.001 A 
ATOM     72  C   UNL     1       5.590  -1.215  -8.045  1.00  0.00     0.047 A 
ATOM     73  C   UNL     1       6.937  -1.162  -8.375  1.00  0.00     0.004 A 
BRANCH  70  74
ATOM     74  O   UNL     1       3.716  -0.611  -6.873  1.00  0.00    -0.492 OA
BRANCH  74  75
ATOM     75  C   UNL     1       3.377  -1.073  -5.571  1.00  0.00     0.243 C 
BRANCH  75  76
ATOM     76  C   UNL     1       4.159  -2.280  -4.993  1.00  0.00     0.152 C 
BRANCH  76  77
ATOM     77  S   UNL     1       5.930  -2.010  -4.552  1.00  0.00     0.056 S 
ATOM     78  O   UNL     1       6.082  -2.133  -3.066  1.00  0.00    -0.254 OA
BRANCH  77  79
ATOM     79  C   UNL     1       6.736  -3.450  -5.206  1.00  0.00     0.042 A 
ATOM     80  C   UNL     1       6.144  -4.710  -5.145  1.00  0.00     0.018 A 
ATOM     81  C   UNL     1       8.021  -3.304  -5.737  1.00  0.00     0.057 A 
ATOM     82  C   UNL     1       6.796  -5.812  -5.689  1.00  0.00     0.004 A 
ATOM     83  C   UNL     1       8.667  -4.410  -6.266  1.00  0.00     0.124 A 
ATOM     84  C   UNL     1       8.058  -5.659  -6.260  1.00  0.00     0.039 A 
ATOM     85  F   UNL     1       9.891  -4.270  -6.790  1.00  0.00    -0.207 F 
ENDBRANCH  77  79
ENDBRANCH  76  77
ENDBRANCH  75  76
ENDBRANCH  74  75
ENDBRANCH  70  74
ENDBRANCH   2  68
TORSDOF 15
