REMARK SMILES C=Cc1cccc(-c2ccc([C@@H](C)C(=O)NCCCNC(=O)c3ccc(-c4c5nc(c(-c6c(F)cccc6F)c6ccc([nH]6)c(-c6c(F)cccc6F)c6nc(c(-c7c(F)cccc7F)c7ccc4[nH]7)C=C6)C=C5)cc3)cc2)c1
REMARK SMILES IDX 17 1 16 2 14 3 15 4 12 6 13 7 11 8 8 9 9 10 78 11 10 12
REMARK SMILES IDX 77 13 7 14 3 15 4 16 79 17 5 18 6 19 2 20 1 21 18 22 19 23
REMARK SMILES IDX 20 24 21 25 22 27 23 28 24 29 76 30 25 31 75 32 26 33 27 34
REMARK SMILES IDX 28 35 69 36 29 37 74 38 68 39 70 40 30 41 73 42 67 43 66 44
REMARK SMILES IDX 31 46 57 47 40 48 56 49 41 50 44 51 55 52 71 53 42 54 43 55
REMARK SMILES IDX 54 57 72 58 45 59 32 60 33 61 38 62 34 63 35 64 37 65 39 66
REMARK SMILES IDX 36 67 58 68 59 69 64 70 60 71 61 72 63 73 65 74 62 75 46 76
REMARK SMILES IDX 47 77 52 78 48 79 49 80 51 81 53 82 50 83
REMARK H PARENT 16 5 20 26 70 45 44 56
REMARK Flexibility Score: inf
ROOT
ATOM      1  C   UNL     1      -7.212  -0.119  -5.179  1.00  0.00     0.117 C 
ENDROOT
BRANCH   1   2
ATOM      2  N   UNL     1      -6.258  -0.869  -5.972  1.00  0.00    -0.356 N 
ATOM      3  C   UNL     1      -5.684  -2.089  -5.787  1.00  0.00     0.227 C 
ATOM      4  O   UNL     1      -4.839  -2.426  -6.626  1.00  0.00    -0.274 OA
ATOM      5  H   UNL     1      -5.973  -0.412  -6.796  1.00  0.00     0.163 HD
BRANCH   3   6
ATOM      6  C   UNL     1      -6.026  -3.033  -4.623  1.00  0.00     0.105 C 
ATOM      7  C   UNL     1      -7.499  -3.432  -4.536  1.00  0.00     0.023 C 
BRANCH   6   8
ATOM      8  C   UNL     1      -5.361  -2.631  -3.317  1.00  0.00    -0.036 A 
ATOM      9  C   UNL     1      -3.946  -1.766  -0.986  1.00  0.00    -0.018 A 
ATOM     10  C   UNL     1      -5.258  -1.342  -1.253  1.00  0.00     0.009 A 
ATOM     11  C   UNL     1      -3.378  -2.674  -1.893  1.00  0.00     0.009 A 
ATOM     12  C   UNL     1      -5.963  -1.788  -2.380  1.00  0.00     0.005 A 
ATOM     13  C   UNL     1      -4.062  -3.083  -3.045  1.00  0.00     0.005 A 
BRANCH   9  14
ATOM     14  C   UNL     1      -3.192  -1.260   0.186  1.00  0.00    -0.018 A 
ATOM     15  C   UNL     1      -1.073  -0.547   1.220  1.00  0.00    -0.026 A 
ATOM     16  C   UNL     1      -1.748  -0.282   2.414  1.00  0.00     0.008 A 
ATOM     17  C   UNL     1      -1.801  -1.034   0.122  1.00  0.00     0.016 A 
ATOM     18  C   UNL     1      -3.123  -0.486   2.504  1.00  0.00     0.001 A 
ATOM     19  C   UNL     1      -3.832  -0.975   1.405  1.00  0.00     0.009 A 
BRANCH  15  20
ATOM     20  C   UNL     1       0.384  -0.367   1.173  1.00  0.00     0.000 C 
ATOM     21  C   UNL     1       1.050   0.129   0.123  1.00  0.00     0.009 C 
ENDBRANCH  15  20
ENDBRANCH   9  14
ENDBRANCH   6   8
ENDBRANCH   3   6
ENDBRANCH   1   2
BRANCH   1  22
ATOM     22  C   UNL     1      -6.539   0.923  -4.291  1.00  0.00     0.042 C 
BRANCH  22  23
ATOM     23  C   UNL     1      -6.167   2.211  -5.014  1.00  0.00     0.118 C 
BRANCH  23  24
ATOM     24  N   UNL     1      -7.337   3.001  -5.371  1.00  0.00    -0.352 N 
ATOM     25  C   UNL     1      -7.709   4.270  -5.006  1.00  0.00     0.251 C 
ATOM     26  H   UNL     1      -7.967   2.548  -5.977  1.00  0.00     0.163 HD
ATOM     27  O   UNL     1      -8.847   4.652  -5.271  1.00  0.00    -0.269 OA
BRANCH  25  28
ATOM     28  C   UNL     1      -6.780   5.186  -4.300  1.00  0.00     0.039 A 
ATOM     29  C   UNL     1      -7.312   6.088  -3.369  1.00  0.00     0.014 A 
ATOM     30  C   UNL     1      -5.417   5.234  -4.599  1.00  0.00     0.014 A 
ATOM     31  C   UNL     1      -6.479   7.007  -2.723  1.00  0.00     0.010 A 
ATOM     32  C   UNL     1      -4.574   6.096  -3.898  1.00  0.00     0.010 A 
ATOM     33  C   UNL     1      -5.098   7.008  -2.971  1.00  0.00    -0.014 A 
BRANCH  33  34
ATOM     34  C   UNL     1      -4.197   7.995  -2.321  1.00  0.00     0.031 A 
ATOM     35  C   UNL     1      -3.474   9.016  -3.161  1.00  0.00     0.074 A 
ATOM     36  C   UNL     1      -3.983   7.943  -0.992  1.00  0.00     0.049 A 
ATOM     37  N   UNL     1      -2.575   9.898  -2.802  1.00  0.00    -0.248 NA
ATOM     38  C   UNL     1      -3.780   9.027  -4.601  1.00  0.00     0.031 C 
ATOM     39  C   UNL     1      -4.589   6.980  -0.072  1.00  0.00     0.029 A 
ATOM     40  N   UNL     1      -3.184   8.715  -0.186  1.00  0.00    -0.354 N 
ATOM     41  C   UNL     1      -2.187  10.541  -3.972  1.00  0.00     0.074 A 
ATOM     42  C   UNL     1      -2.919   9.926  -5.056  1.00  0.00     0.031 C 
ATOM     43  C   UNL     1      -4.152   7.228   1.174  1.00  0.00     0.029 A 
ATOM     44  C   UNL     1      -3.213   8.345   1.137  1.00  0.00     0.049 A 
ATOM     45  H   UNL     1      -2.641   9.464  -0.524  1.00  0.00     0.167 HD
ATOM     46  C   UNL     1      -1.315  11.565  -4.127  1.00  0.00     0.037 A 
ATOM     47  C   UNL     1      -2.552   8.846   2.197  1.00  0.00     0.037 A 
ATOM     48  C   UNL     1      -0.629  12.216  -3.042  1.00  0.00     0.049 A 
ATOM     49  C   UNL     1      -1.621  10.011   2.002  1.00  0.00     0.074 A 
ATOM     50  C   UNL     1       0.224  13.305  -3.091  1.00  0.00     0.029 A 
ATOM     51  N   UNL     1      -0.731  11.846  -1.711  1.00  0.00    -0.354 N 
ATOM     52  N   UNL     1      -1.307  10.643   0.897  1.00  0.00    -0.248 NA
ATOM     53  C   UNL     1      -0.959  10.540   3.204  1.00  0.00     0.031 C 
ATOM     54  C   UNL     1       0.659  13.579  -1.791  1.00  0.00     0.029 A 
ATOM     55  C   UNL     1       0.048  12.682  -0.929  1.00  0.00     0.049 A 
ATOM     56  H   UNL     1      -1.275  11.099  -1.372  1.00  0.00     0.167 HD
ATOM     57  C   UNL     1      -0.444  11.664   1.275  1.00  0.00     0.074 A 
ATOM     58  C   UNL     1      -0.289  11.572   2.712  1.00  0.00     0.031 C 
ATOM     59  C   UNL     1       0.166  12.594   0.502  1.00  0.00     0.037 A 
BRANCH  46  60
ATOM     60  C   UNL     1      -1.058  12.057  -5.520  1.00  0.00     0.057 A 
ATOM     61  C   UNL     1      -2.010  12.802  -6.227  1.00  0.00     0.134 A 
ATOM     62  C   UNL     1       0.176  11.826  -6.143  1.00  0.00     0.134 A 
ATOM     63  F   UNL     1      -3.215  13.047  -5.692  1.00  0.00    -0.206 F 
ATOM     64  C   UNL     1      -1.751  13.286  -7.511  1.00  0.00     0.040 A 
ATOM     65  C   UNL     1       0.455  12.325  -7.416  1.00  0.00     0.040 A 
ATOM     66  F   UNL     1       1.134  11.125  -5.518  1.00  0.00    -0.206 F 
ATOM     67  C   UNL     1      -0.512  13.054  -8.106  1.00  0.00     0.006 A 
ENDBRANCH  46  60
BRANCH  47  68
ATOM     68  C   UNL     1      -2.761   8.272   3.550  1.00  0.00     0.057 A 
ATOM     69  C   UNL     1      -3.450   8.987   4.537  1.00  0.00     0.134 A 
ATOM     70  C   UNL     1      -2.256   7.014   3.898  1.00  0.00     0.134 A 
ATOM     71  F   UNL     1      -3.940  10.206   4.268  1.00  0.00    -0.206 F 
ATOM     72  C   UNL     1      -3.606   8.485   5.830  1.00  0.00     0.040 A 
ATOM     73  C   UNL     1      -2.425   6.489   5.180  1.00  0.00     0.040 A 
ATOM     74  F   UNL     1      -1.592   6.278   2.995  1.00  0.00    -0.206 F 
ATOM     75  C   UNL     1      -3.094   7.230   6.153  1.00  0.00     0.006 A 
ENDBRANCH  47  68
BRANCH  59  76
ATOM     76  C   UNL     1       1.007  13.621   1.198  1.00  0.00     0.057 A 
ATOM     77  C   UNL     1       2.268  13.313   1.721  1.00  0.00     0.134 A 
ATOM     78  C   UNL     1       0.562  14.944   1.309  1.00  0.00     0.134 A 
ATOM     79  F   UNL     1       2.745  12.060   1.656  1.00  0.00    -0.206 F 
ATOM     80  C   UNL     1       3.050  14.282   2.352  1.00  0.00     0.040 A 
ATOM     81  C   UNL     1       1.344  15.927   1.917  1.00  0.00     0.040 A 
ATOM     82  F   UNL     1      -0.634  15.304   0.820  1.00  0.00    -0.206 F 
ATOM     83  C   UNL     1       2.590  15.595   2.445  1.00  0.00     0.006 A 
ENDBRANCH  59  76
ENDBRANCH  33  34
ENDBRANCH  25  28
ENDBRANCH  23  24
ENDBRANCH  22  23
ENDBRANCH   1  22
TORSDOF 13
