REMARK SMILES Cc1ccc([C@@H](C)[NH2+][C@@H](C)CCC(=O)NCCCNC(=O)c2ccc(-c3c4nc(c(-c5c(F)cccc5F)c5ccc([nH]5)c(-c5c(F)cccc5F)c5nc(c(-c6c(F)cccc6F)c6ccc3[nH]6)C=C5)C=C4)cc2)cc1F
REMARK SMILES IDX 13 1 14 2 15 3 12 5 11 6 9 7 10 8 8 9 6 12 7 13 5 14 1 15
REMARK SMILES IDX 2 16 3 17 77 18 4 19 76 20 78 21 16 22 17 23 18 24 19 25
REMARK SMILES IDX 20 26 21 28 22 29 23 30 75 31 24 32 74 33 25 34 26 35 27 36
REMARK SMILES IDX 68 37 28 38 73 39 67 40 69 41 29 42 72 43 66 44 65 45 30 47
REMARK SMILES IDX 56 48 39 49 55 50 40 51 43 52 54 53 70 54 41 55 42 56 53 58
REMARK SMILES IDX 71 59 44 60 31 61 32 62 37 63 33 64 34 65 36 66 38 67 35 68
REMARK SMILES IDX 57 69 58 70 63 71 59 72 60 73 62 74 64 75 61 76 45 77 46 78
REMARK SMILES IDX 51 79 47 80 48 81 50 82 52 83 49 84
REMARK H PARENT 15 4 8 10 8 11 19 27 69 46 43 57
REMARK Flexibility Score: inf
ROOT
ATOM      1  C   UNL     1      -5.014  -3.121   4.144  1.00  0.00     0.220 C 
ATOM      2  O   UNL     1      -5.777  -3.743   4.884  1.00  0.00    -0.275 OA
ATOM      3  N   UNL     1      -5.446  -1.939   3.624  1.00  0.00    -0.356 N 
ATOM      4  H   UNL     1      -6.184  -1.492   4.098  1.00  0.00     0.163 HD
ENDROOT
BRANCH   1   5
ATOM      5  C   UNL     1      -3.605  -3.610   3.844  1.00  0.00     0.106 C 
BRANCH   5   6
ATOM      6  C   UNL     1      -3.489  -4.692   2.760  1.00  0.00     0.074 C 
BRANCH   6   7
ATOM      7  C   UNL     1      -3.436  -4.202   1.292  1.00  0.00     0.180 C 
ATOM      8  C   UNL     1      -3.506  -5.389   0.328  1.00  0.00     0.075 C 
BRANCH   7   9
ATOM      9  N   UNL     1      -2.290  -3.307   1.045  1.00  0.00    -0.338 N 
ATOM     10  H   UNL     1      -2.106  -2.808   1.915  1.00  0.00     0.347 HD
ATOM     11  H   UNL     1      -1.553  -3.932   0.718  1.00  0.00     0.347 HD
BRANCH   9  12
ATOM     12  C   UNL     1      -2.401  -2.291  -0.025  1.00  0.00     0.210 C 
ATOM     13  C   UNL     1      -2.480  -2.822  -1.457  1.00  0.00     0.081 C 
BRANCH  12  14
ATOM     14  C   UNL     1      -1.307  -1.227   0.061  1.00  0.00     0.012 A 
ATOM     15  C   UNL     1       1.716   1.876   0.036  1.00  0.00     0.047 C 
ATOM     16  C   UNL     1       0.659   0.815   0.058  1.00  0.00    -0.015 A 
ATOM     17  C   UNL     1      -0.694   1.149   0.035  1.00  0.00     0.007 A 
ATOM     18  C   UNL     1       1.011  -0.537   0.078  1.00  0.00     0.126 A 
ATOM     19  C   UNL     1      -1.658   0.138   0.028  1.00  0.00     0.010 A 
ATOM     20  C   UNL     1       0.051  -1.551   0.079  1.00  0.00     0.049 A 
ATOM     21  F   UNL     1       2.307  -0.882   0.077  1.00  0.00    -0.207 F 
ENDBRANCH  12  14
ENDBRANCH   9  12
ENDBRANCH   7   9
ENDBRANCH   6   7
ENDBRANCH   5   6
ENDBRANCH   1   5
BRANCH   3  22
ATOM     22  C   UNL     1      -4.933  -1.274   2.452  1.00  0.00     0.117 C 
BRANCH  22  23
ATOM     23  C   UNL     1      -5.693  -1.796   1.244  1.00  0.00     0.042 C 
BRANCH  23  24
ATOM     24  C   UNL     1      -6.407  -0.711   0.532  1.00  0.00     0.118 C 
BRANCH  24  25
ATOM     25  N   UNL     1      -5.505   0.213  -0.179  1.00  0.00    -0.352 N 
ATOM     26  C   UNL     1      -5.669   0.774  -1.444  1.00  0.00     0.251 C 
ATOM     27  H   UNL     1      -4.684   0.466   0.300  1.00  0.00     0.163 HD
ATOM     28  O   UNL     1      -4.779   1.382  -2.005  1.00  0.00    -0.269 OA
BRANCH  26  29
ATOM     29  C   UNL     1      -7.003   0.642  -2.051  1.00  0.00     0.039 A 
ATOM     30  C   UNL     1      -7.288   0.516  -3.411  1.00  0.00     0.014 A 
ATOM     31  C   UNL     1      -8.025   0.602  -1.129  1.00  0.00     0.014 A 
ATOM     32  C   UNL     1      -8.624   0.322  -3.771  1.00  0.00     0.010 A 
ATOM     33  C   UNL     1      -9.097  -0.140  -1.442  1.00  0.00     0.010 A 
ATOM     34  C   UNL     1      -9.518   0.013  -2.746  1.00  0.00    -0.014 A 
BRANCH  34  35
ATOM     35  C   UNL     1     -10.961  -0.061  -2.781  1.00  0.00     0.031 A 
ATOM     36  C   UNL     1     -11.581  -1.196  -3.437  1.00  0.00     0.074 A 
ATOM     37  C   UNL     1     -11.573   0.752  -1.881  1.00  0.00     0.049 A 
ATOM     38  N   UNL     1     -12.797  -1.211  -3.830  1.00  0.00    -0.248 NA
ATOM     39  C   UNL     1     -10.857  -2.433  -3.707  1.00  0.00     0.031 C 
ATOM     40  C   UNL     1     -12.876   0.708  -1.248  1.00  0.00     0.029 A 
ATOM     41  N   UNL     1     -11.001   1.910  -1.324  1.00  0.00    -0.354 N 
ATOM     42  C   UNL     1     -13.121  -2.534  -4.013  1.00  0.00     0.074 A 
ATOM     43  C   UNL     1     -11.854  -3.221  -4.119  1.00  0.00     0.031 C 
ATOM     44  C   UNL     1     -13.129   1.923  -0.710  1.00  0.00     0.029 A 
ATOM     45  C   UNL     1     -12.038   2.815  -1.083  1.00  0.00     0.049 A 
ATOM     46  H   UNL     1     -10.046   2.056  -1.138  1.00  0.00     0.167 HD
ATOM     47  C   UNL     1     -14.420  -2.904  -3.828  1.00  0.00     0.037 A 
ATOM     48  C   UNL     1     -12.080   3.883  -1.939  1.00  0.00     0.037 A 
ATOM     49  C   UNL     1     -15.219  -1.735  -3.413  1.00  0.00     0.049 A 
ATOM     50  C   UNL     1     -13.162   3.694  -2.985  1.00  0.00     0.074 A 
ATOM     51  C   UNL     1     -15.696  -1.258  -2.202  1.00  0.00     0.029 A 
ATOM     52  N   UNL     1     -15.282  -0.658  -4.275  1.00  0.00    -0.354 N 
ATOM     53  N   UNL     1     -13.927   2.636  -3.056  1.00  0.00    -0.248 NA
ATOM     54  C   UNL     1     -13.459   4.654  -4.042  1.00  0.00     0.031 C 
ATOM     55  C   UNL     1     -15.977   0.143  -2.354  1.00  0.00     0.029 A 
ATOM     56  C   UNL     1     -15.678   0.510  -3.656  1.00  0.00     0.049 A 
ATOM     57  H   UNL     1     -15.066  -0.717  -5.233  1.00  0.00     0.167 HD
ATOM     58  C   UNL     1     -14.765   2.724  -4.123  1.00  0.00     0.074 A 
ATOM     59  C   UNL     1     -14.431   4.012  -4.717  1.00  0.00     0.031 C 
ATOM     60  C   UNL     1     -15.656   1.738  -4.450  1.00  0.00     0.037 A 
BRANCH  47  61
ATOM     61  C   UNL     1     -14.918  -4.328  -3.774  1.00  0.00     0.057 A 
ATOM     62  C   UNL     1     -16.153  -4.625  -3.168  1.00  0.00     0.134 A 
ATOM     63  C   UNL     1     -14.260  -5.448  -4.319  1.00  0.00     0.134 A 
ATOM     64  F   UNL     1     -16.943  -3.664  -2.673  1.00  0.00    -0.206 F 
ATOM     65  C   UNL     1     -16.656  -5.928  -3.054  1.00  0.00     0.040 A 
ATOM     66  C   UNL     1     -14.727  -6.763  -4.169  1.00  0.00     0.040 A 
ATOM     67  F   UNL     1     -13.172  -5.331  -5.087  1.00  0.00    -0.206 F 
ATOM     68  C   UNL     1     -15.932  -7.007  -3.534  1.00  0.00     0.006 A 
ENDBRANCH  47  61
BRANCH  48  69
ATOM     69  C   UNL     1     -10.680   4.421  -2.147  1.00  0.00     0.057 A 
ATOM     70  C   UNL     1     -10.003   4.877  -0.991  1.00  0.00     0.134 A 
ATOM     71  C   UNL     1      -9.870   3.982  -3.205  1.00  0.00     0.134 A 
ATOM     72  F   UNL     1     -10.705   5.336   0.058  1.00  0.00    -0.206 F 
ATOM     73  C   UNL     1      -8.626   4.697  -0.812  1.00  0.00     0.040 A 
ATOM     74  C   UNL     1      -8.482   3.836  -3.046  1.00  0.00     0.040 A 
ATOM     75  F   UNL     1     -10.417   3.543  -4.347  1.00  0.00    -0.206 F 
ATOM     76  C   UNL     1      -7.867   4.132  -1.828  1.00  0.00     0.006 A 
ENDBRANCH  48  69
BRANCH  60  77
ATOM     77  C   UNL     1     -16.586   1.869  -5.621  1.00  0.00     0.057 A 
ATOM     78  C   UNL     1     -17.321   3.037  -5.849  1.00  0.00     0.134 A 
ATOM     79  C   UNL     1     -16.859   0.796  -6.495  1.00  0.00     0.134 A 
ATOM     80  F   UNL     1     -17.215   4.093  -5.029  1.00  0.00    -0.206 F 
ATOM     81  C   UNL     1     -18.205   3.158  -6.925  1.00  0.00     0.040 A 
ATOM     82  C   UNL     1     -17.794   0.879  -7.524  1.00  0.00     0.040 A 
ATOM     83  F   UNL     1     -16.210  -0.374  -6.423  1.00  0.00    -0.206 F 
ATOM     84  C   UNL     1     -18.452   2.073  -7.760  1.00  0.00     0.006 A 
ENDBRANCH  60  77
ENDBRANCH  34  35
ENDBRANCH  26  29
ENDBRANCH  24  25
ENDBRANCH  23  24
ENDBRANCH  22  23
ENDBRANCH   3  22
TORSDOF 15
