REMARK SMILES Cc1cc(C(=O)N2C[C@@H](C(=O)NCCCNC(=O)c3ccc(-c4c5nc(c(-c6c(F)cccc6F)c6ccc([nH]6)c(-c6c(F)cccc6F)c6nc(c(-c7c(F)cccc7F)c7ccc4[nH]7)C=C6)C=C5)cc3)[C@H](C3CC3)C2)sc1C
REMARK SMILES IDX 14 1 13 2 12 3 10 4 11 5 9 7 7 8 8 9 77 10 73 11 5 12 6 13
REMARK SMILES IDX 4 14 1 15 2 16 3 17 79 18 78 19 80 20 74 21 75 22 76 23
REMARK SMILES IDX 15 24 16 25 17 26 18 28 19 29 20 30 72 31 21 32 71 33 22 34
REMARK SMILES IDX 23 35 24 36 65 37 25 38 70 39 64 40 66 41 26 42 69 43 63 44
REMARK SMILES IDX 62 45 27 47 53 48 36 49 52 50 37 51 40 52 51 53 67 54 38 55
REMARK SMILES IDX 39 56 50 58 68 59 41 60 28 61 29 62 34 63 30 64 31 65 33 66
REMARK SMILES IDX 35 67 32 68 54 69 55 70 60 71 56 72 57 73 59 74 61 75 58 76
REMARK SMILES IDX 42 77 43 78 48 79 44 80 45 81 47 82 49 83 46 84
REMARK H PARENT 12 6 16 27 66 46 40 57
REMARK Flexibility Score: inf
ROOT
ATOM      1  C   UNL     1       6.421   3.514  -0.163  1.00  0.00     0.042 C 
ENDROOT
BRANCH   1   2
ATOM      2  C   UNL     1       6.705   2.072  -0.525  1.00  0.00     0.117 C 
BRANCH   2   3
ATOM      3  N   UNL     1       6.870   1.199   0.621  1.00  0.00    -0.356 N 
ATOM      4  C   UNL     1       6.322  -0.027   0.860  1.00  0.00     0.225 C 
ATOM      5  O   UNL     1       6.725  -0.648   1.845  1.00  0.00    -0.275 OA
ATOM      6  H   UNL     1       7.464   1.541   1.328  1.00  0.00     0.163 HD
BRANCH   4   7
ATOM      7  C   UNL     1       5.245  -0.579  -0.054  1.00  0.00     0.103 C 
ATOM      8  N   UNL     1       3.478  -2.077  -0.133  1.00  0.00    -0.337 N 
ATOM      9  C   UNL     1       4.141  -1.198   0.804  1.00  0.00     0.133 C 
ATOM     10  C   UNL     1       4.464  -2.699  -0.985  1.00  0.00     0.124 C 
ATOM     11  C   UNL     1       5.709  -1.778  -0.925  1.00  0.00     0.026 C 
BRANCH   8  12
ATOM     12  C   UNL     1       2.137  -2.367  -0.308  1.00  0.00     0.263 C 
ATOM     13  O   UNL     1       1.825  -3.467  -0.773  1.00  0.00    -0.268 OA
BRANCH  12  14
ATOM     14  C   UNL     1       1.115  -1.355  -0.052  1.00  0.00     0.093 A 
ATOM     15  C   UNL     1      -2.538  -0.442   0.137  1.00  0.00     0.045 C 
ATOM     16  C   UNL     1      -1.046  -0.415   0.093  1.00  0.00    -0.037 A 
ATOM     17  C   UNL     1      -0.239  -1.601   0.092  1.00  0.00     0.029 A 
ATOM     18  C   UNL     1      -0.253   0.716   0.008  1.00  0.00     0.005 A 
ATOM     19  S   UNL     1       1.399   0.325  -0.173  1.00  0.00    -0.135 S 
ATOM     20  C   UNL     1      -0.673   2.150  -0.006  1.00  0.00     0.056 C 
ENDBRANCH  12  14
ENDBRANCH   8  12
BRANCH  11  21
ATOM     21  C   UNL     1       6.199  -1.519  -2.336  1.00  0.00    -0.005 C 
ATOM     22  C   UNL     1       5.924  -0.269  -3.133  1.00  0.00     0.004 C 
ATOM     23  C   UNL     1       7.316  -0.556  -2.630  1.00  0.00     0.004 C 
ENDBRANCH  11  21
ENDBRANCH   4   7
ENDBRANCH   2   3
ENDBRANCH   1   2
BRANCH   1  24
ATOM     24  C   UNL     1       7.600   4.222   0.482  1.00  0.00     0.118 C 
BRANCH  24  25
ATOM     25  N   UNL     1       8.779   4.284  -0.376  1.00  0.00    -0.352 N 
ATOM     26  C   UNL     1       9.399   5.351  -0.987  1.00  0.00     0.251 C 
ATOM     27  H   UNL     1       9.205   3.413  -0.547  1.00  0.00     0.163 HD
ATOM     28  O   UNL     1      10.289   5.154  -1.800  1.00  0.00    -0.269 OA
BRANCH  26  29
ATOM     29  C   UNL     1       8.967   6.733  -0.683  1.00  0.00     0.039 A 
ATOM     30  C   UNL     1       8.884   7.665  -1.721  1.00  0.00     0.014 A 
ATOM     31  C   UNL     1       8.633   7.108   0.617  1.00  0.00     0.014 A 
ATOM     32  C   UNL     1       8.372   8.939  -1.466  1.00  0.00     0.010 A 
ATOM     33  C   UNL     1       8.008   8.325   0.845  1.00  0.00     0.010 A 
ATOM     34  C   UNL     1       7.877   9.260  -0.192  1.00  0.00    -0.014 A 
BRANCH  34  35
ATOM     35  C   UNL     1       7.238  10.568   0.097  1.00  0.00     0.031 A 
ATOM     36  C   UNL     1       7.816  11.463   1.161  1.00  0.00     0.074 A 
ATOM     37  C   UNL     1       6.096  10.911  -0.531  1.00  0.00     0.049 A 
ATOM     38  N   UNL     1       7.342  12.578   1.653  1.00  0.00    -0.248 NA
ATOM     39  C   UNL     1       9.078  11.024   1.782  1.00  0.00     0.031 C 
ATOM     40  C   UNL     1       5.405  10.106  -1.542  1.00  0.00     0.029 A 
ATOM     41  N   UNL     1       5.306  12.026  -0.402  1.00  0.00    -0.354 N 
ATOM     42  C   UNL     1       8.236  12.963   2.644  1.00  0.00     0.074 A 
ATOM     43  C   UNL     1       9.239  11.926   2.737  1.00  0.00     0.031 C 
ATOM     44  C   UNL     1       4.313  10.765  -1.960  1.00  0.00     0.029 A 
ATOM     45  C   UNL     1       4.200  12.016  -1.217  1.00  0.00     0.049 A 
ATOM     46  H   UNL     1       5.513  12.763   0.216  1.00  0.00     0.167 HD
ATOM     47  C   UNL     1       8.244  14.095   3.386  1.00  0.00     0.037 A 
ATOM     48  C   UNL     1       3.203  12.912  -1.343  1.00  0.00     0.037 A 
ATOM     49  C   UNL     1       7.262  15.139   3.271  1.00  0.00     0.049 A 
ATOM     50  C   UNL     1       3.230  14.157  -0.500  1.00  0.00     0.074 A 
ATOM     51  C   UNL     1       7.198  16.342   3.950  1.00  0.00     0.029 A 
ATOM     52  N   UNL     1       6.177  15.106   2.409  1.00  0.00    -0.354 N 
ATOM     53  N   UNL     1       4.111  14.530   0.397  1.00  0.00    -0.248 NA
ATOM     54  C   UNL     1       2.127  15.110  -0.690  1.00  0.00     0.031 C 
ATOM     55  C   UNL     1       6.055  17.024   3.522  1.00  0.00     0.029 A 
ATOM     56  C   UNL     1       5.432  16.265   2.544  1.00  0.00     0.049 A 
ATOM     57  H   UNL     1       5.967  14.368   1.792  1.00  0.00     0.167 HD
ATOM     58  C   UNL     1       3.688  15.773   0.851  1.00  0.00     0.074 A 
ATOM     59  C   UNL     1       2.480  16.096   0.120  1.00  0.00     0.031 C 
ATOM     60  C   UNL     1       4.245  16.575   1.791  1.00  0.00     0.037 A 
BRANCH  47  61
ATOM     61  C   UNL     1       9.366  14.269   4.368  1.00  0.00     0.057 A 
ATOM     62  C   UNL     1      10.682  14.498   3.944  1.00  0.00     0.134 A 
ATOM     63  C   UNL     1       9.129  14.238   5.747  1.00  0.00     0.134 A 
ATOM     64  F   UNL     1      10.980  14.524   2.635  1.00  0.00    -0.206 F 
ATOM     65  C   UNL     1      11.726  14.664   4.855  1.00  0.00     0.040 A 
ATOM     66  C   UNL     1      10.160  14.431   6.669  1.00  0.00     0.040 A 
ATOM     67  F   UNL     1       7.892  14.027   6.223  1.00  0.00    -0.206 F 
ATOM     68  C   UNL     1      11.464  14.639   6.223  1.00  0.00     0.006 A 
ENDBRANCH  47  61
BRANCH  48  69
ATOM     69  C   UNL     1       2.102  12.682  -2.314  1.00  0.00     0.057 A 
ATOM     70  C   UNL     1       1.962  13.491  -3.449  1.00  0.00     0.134 A 
ATOM     71  C   UNL     1       1.146  11.678  -2.118  1.00  0.00     0.134 A 
ATOM     72  F   UNL     1       2.835  14.481  -3.684  1.00  0.00    -0.206 F 
ATOM     73  C   UNL     1       0.895  13.332  -4.335  1.00  0.00     0.040 A 
ATOM     74  C   UNL     1       0.090  11.489  -3.011  1.00  0.00     0.040 A 
ATOM     75  F   UNL     1       1.228  10.863  -1.057  1.00  0.00    -0.206 F 
ATOM     76  C   UNL     1      -0.044  12.326  -4.118  1.00  0.00     0.006 A 
ENDBRANCH  48  69
BRANCH  60  77
ATOM     77  C   UNL     1       3.583  17.897   2.043  1.00  0.00     0.057 A 
ATOM     78  C   UNL     1       2.361  17.996   2.720  1.00  0.00     0.134 A 
ATOM     79  C   UNL     1       4.199  19.088   1.637  1.00  0.00     0.134 A 
ATOM     80  F   UNL     1       1.716  16.891   3.123  1.00  0.00    -0.206 F 
ATOM     81  C   UNL     1       1.762  19.233   2.962  1.00  0.00     0.040 A 
ATOM     82  C   UNL     1       3.623  20.331   1.898  1.00  0.00     0.040 A 
ATOM     83  F   UNL     1       5.375  19.062   0.993  1.00  0.00    -0.206 F 
ATOM     84  C   UNL     1       2.398  20.405   2.557  1.00  0.00     0.006 A 
ENDBRANCH  60  77
ENDBRANCH  34  35
ENDBRANCH  26  29
ENDBRANCH  24  25
ENDBRANCH   1  24
TORSDOF 13
