REMARK SMILES CCC(CC)Oc1ccc(OC)cc1/C=C/C(=O)NCCCNC(=O)c1ccc(-c2c3nc(c(-c4c(F)cccc4F)c4ccc([nH]4)c(-c4c(F)cccc4F)c4nc(c(-c5c(F)cccc5F)c5ccc2[nH]5)C=C4)C=C3)cc1
REMARK SMILES IDX 20 1 19 2 17 3 18 4 16 6 15 7 14 8 7 9 8 10 9 11 13 12 10 13
REMARK SMILES IDX 6 14 3 15 2 16 1 17 4 18 5 19 11 20 12 21 21 22 22 23 23 24
REMARK SMILES IDX 24 25 25 27 26 28 27 29 79 30 28 31 78 32 29 33 30 34 31 35
REMARK SMILES IDX 72 36 32 37 77 38 71 39 73 40 33 41 76 42 70 43 69 44 34 46
REMARK SMILES IDX 60 47 43 48 59 49 44 50 47 51 58 52 74 53 45 54 46 55 57 57
REMARK SMILES IDX 75 58 48 59 35 60 36 61 41 62 37 63 38 64 40 65 42 66 39 67
REMARK SMILES IDX 61 68 62 69 67 70 63 71 64 72 66 73 68 74 65 75 49 76 50 77
REMARK SMILES IDX 55 78 51 79 52 80 54 81 56 82 53 83
REMARK H PARENT 19 5 23 26 73 45 47 56
REMARK Flexibility Score: inf
ROOT
ATOM      1  C   UNL     1       0.480   2.145   0.766  1.00  0.00     0.118 C 
ENDROOT
BRANCH   1   2
ATOM      2  N   UNL     1      -0.664   3.026   0.719  1.00  0.00    -0.352 N 
ATOM      3  C   UNL     1      -1.849   2.885   0.079  1.00  0.00     0.244 C 
ATOM      4  O   UNL     1      -2.763   3.671   0.321  1.00  0.00    -0.270 OA
ATOM      5  H   UNL     1      -0.566   3.860   1.233  1.00  0.00     0.163 HD
BRANCH   3   6
ATOM      6  C   UNL     1      -2.100   1.764  -0.850  1.00  0.00     0.072 C 
ATOM      7  C   UNL     1      -1.384   1.510  -1.959  1.00  0.00     0.018 C 
BRANCH   7   8
ATOM      8  C   UNL     1      -1.869   0.582  -3.006  1.00  0.00     0.020 A 
ATOM      9  C   UNL     1      -1.037  -0.308  -3.704  1.00  0.00     0.127 A 
ATOM     10  C   UNL     1      -1.523  -0.998  -4.821  1.00  0.00     0.051 A 
ATOM     11  C   UNL     1      -2.864  -0.893  -5.190  1.00  0.00     0.050 A 
ATOM     12  C   UNL     1      -3.218   0.687  -3.412  1.00  0.00     0.058 A 
ATOM     13  C   UNL     1      -3.725  -0.070  -4.470  1.00  0.00     0.119 A 
BRANCH   9  14
ATOM     14  O   UNL     1       0.293  -0.444  -3.431  1.00  0.00    -0.490 OA
BRANCH  14  15
ATOM     15  C   UNL     1       0.694  -1.498  -2.522  1.00  0.00     0.172 C 
BRANCH  15  16
ATOM     16  C   UNL     1       0.762  -0.928  -1.105  1.00  0.00     0.042 C 
ATOM     17  C   UNL     1       1.493  -1.776  -0.082  1.00  0.00     0.008 C 
ENDBRANCH  15  16
BRANCH  15  18
ATOM     18  C   UNL     1       0.009  -2.877  -2.635  1.00  0.00     0.042 C 
ATOM     19  C   UNL     1      -1.367  -3.022  -1.993  1.00  0.00     0.008 C 
ENDBRANCH  15  18
ENDBRANCH  14  15
ENDBRANCH   9  14
BRANCH  13  20
ATOM     20  O   UNL     1      -5.019  -0.053  -4.911  1.00  0.00    -0.497 OA
ATOM     21  C   UNL     1      -5.980   0.515  -4.026  1.00  0.00     0.278 C 
ENDBRANCH  13  20
ENDBRANCH   7   8
ENDBRANCH   3   6
ENDBRANCH   1   2
BRANCH   1  22
ATOM     22  C   UNL     1       1.617   2.660  -0.109  1.00  0.00     0.042 C 
BRANCH  22  23
ATOM     23  C   UNL     1       2.919   2.821   0.658  1.00  0.00     0.118 C 
BRANCH  23  24
ATOM     24  N   UNL     1       3.475   1.584   1.187  1.00  0.00    -0.352 N 
ATOM     25  C   UNL     1       4.800   1.267   1.413  1.00  0.00     0.251 C 
ATOM     26  H   UNL     1       2.822   0.882   1.412  1.00  0.00     0.163 HD
ATOM     27  O   UNL     1       5.105   0.157   1.829  1.00  0.00    -0.269 OA
BRANCH  25  28
ATOM     28  C   UNL     1       5.855   2.259   1.093  1.00  0.00     0.039 A 
ATOM     29  C   UNL     1       6.997   1.836   0.404  1.00  0.00     0.014 A 
ATOM     30  C   UNL     1       5.695   3.607   1.411  1.00  0.00     0.014 A 
ATOM     31  C   UNL     1       7.921   2.781  -0.052  1.00  0.00     0.010 A 
ATOM     32  C   UNL     1       6.555   4.551   0.867  1.00  0.00     0.010 A 
ATOM     33  C   UNL     1       7.678   4.151   0.127  1.00  0.00    -0.014 A 
BRANCH  33  34
ATOM     34  C   UNL     1       8.570   5.201  -0.428  1.00  0.00     0.031 A 
ATOM     35  C   UNL     1       9.202   6.202   0.499  1.00  0.00     0.074 A 
ATOM     36  C   UNL     1       8.706   5.340  -1.762  1.00  0.00     0.049 A 
ATOM     37  N   UNL     1       9.831   7.315   0.219  1.00  0.00    -0.248 NA
ATOM     38  C   UNL     1       9.058   5.941   1.941  1.00  0.00     0.031 C 
ATOM     39  C   UNL     1       8.098   4.474  -2.774  1.00  0.00     0.029 A 
ATOM     40  N   UNL     1       9.382   6.283  -2.495  1.00  0.00    -0.354 N 
ATOM     41  C   UNL     1      10.107   7.908   1.444  1.00  0.00     0.074 A 
ATOM     42  C   UNL     1       9.537   7.058   2.465  1.00  0.00     0.031 C 
ATOM     43  C   UNL     1       8.443   4.916  -3.995  1.00  0.00     0.029 A 
ATOM     44  C   UNL     1       9.257   6.118  -3.853  1.00  0.00     0.049 A 
ATOM     45  H   UNL     1       9.907   7.009  -2.086  1.00  0.00     0.167 HD
ATOM     46  C   UNL     1      10.793   9.049   1.698  1.00  0.00     0.037 A 
ATOM     47  C   UNL     1       9.735   6.861  -4.870  1.00  0.00     0.037 A 
ATOM     48  C   UNL     1      11.413   9.857   0.683  1.00  0.00     0.049 A 
ATOM     49  C   UNL     1      10.547   8.088  -4.566  1.00  0.00     0.074 A 
ATOM     50  C   UNL     1      12.199  10.985   0.837  1.00  0.00     0.029 A 
ATOM     51  N   UNL     1      11.329   9.609  -0.679  1.00  0.00    -0.354 N 
ATOM     52  N   UNL     1      10.843   8.614  -3.402  1.00  0.00    -0.248 NA
ATOM     53  C   UNL     1      11.095   8.822  -5.715  1.00  0.00     0.031 C 
ATOM     54  C   UNL     1      12.571  11.434  -0.434  1.00  0.00     0.029 A 
ATOM     55  C   UNL     1      12.046  10.565  -1.378  1.00  0.00     0.049 A 
ATOM     56  H   UNL     1      10.832   8.864  -1.089  1.00  0.00     0.167 HD
ATOM     57  C   UNL     1      11.633   9.723  -3.675  1.00  0.00     0.074 A 
ATOM     58  C   UNL     1      11.775   9.790  -5.115  1.00  0.00     0.031 C 
ATOM     59  C   UNL     1      12.190  10.604  -2.811  1.00  0.00     0.037 A 
BRANCH  46  60
ATOM     60  C   UNL     1      10.906   9.475   3.132  1.00  0.00     0.057 A 
ATOM     61  C   UNL     1      11.679   8.761   4.058  1.00  0.00     0.134 A 
ATOM     62  C   UNL     1      10.229  10.609   3.596  1.00  0.00     0.134 A 
ATOM     63  F   UNL     1      12.341   7.656   3.682  1.00  0.00    -0.206 F 
ATOM     64  C   UNL     1      11.739   9.134   5.402  1.00  0.00     0.040 A 
ATOM     65  C   UNL     1      10.306  11.010   4.932  1.00  0.00     0.040 A 
ATOM     66  F   UNL     1       9.477  11.343   2.763  1.00  0.00    -0.206 F 
ATOM     67  C   UNL     1      11.053  10.264   5.841  1.00  0.00     0.006 A 
ENDBRANCH  46  60
BRANCH  47  68
ATOM     68  C   UNL     1       9.486   6.439  -6.270  1.00  0.00     0.057 A 
ATOM     69  C   UNL     1      10.510   5.880  -7.043  1.00  0.00     0.134 A 
ATOM     70  C   UNL     1       8.224   6.563  -6.862  1.00  0.00     0.134 A 
ATOM     71  F   UNL     1      11.744   5.751  -6.534  1.00  0.00    -0.206 F 
ATOM     72  C   UNL     1      10.293   5.468  -8.358  1.00  0.00     0.040 A 
ATOM     73  C   UNL     1       7.987   6.137  -8.171  1.00  0.00     0.040 A 
ATOM     74  F   UNL     1       7.199   7.083  -6.171  1.00  0.00    -0.206 F 
ATOM     75  C   UNL     1       9.025   5.591  -8.924  1.00  0.00     0.006 A 
ENDBRANCH  47  68
BRANCH  59  76
ATOM     76  C   UNL     1      13.043  11.692  -3.392  1.00  0.00     0.057 A 
ATOM     77  C   UNL     1      12.485  12.801  -4.038  1.00  0.00     0.134 A 
ATOM     78  C   UNL     1      14.435  11.653  -3.249  1.00  0.00     0.134 A 
ATOM     79  F   UNL     1      11.159  12.889  -4.215  1.00  0.00    -0.206 F 
ATOM     80  C   UNL     1      13.286  13.830  -4.534  1.00  0.00     0.040 A 
ATOM     81  C   UNL     1      15.245  12.686  -3.723  1.00  0.00     0.040 A 
ATOM     82  F   UNL     1      15.029  10.619  -2.633  1.00  0.00    -0.206 F 
ATOM     83  C   UNL     1      14.670  13.778  -4.370  1.00  0.00     0.006 A 
ENDBRANCH  59  76
ENDBRANCH  33  34
ENDBRANCH  25  28
ENDBRANCH  23  24
ENDBRANCH  22  23
ENDBRANCH   1  22
TORSDOF 16
