REMARK SMILES O=C(NCCCNC(=O)c1ccc(-c2c3nc(c(-c4c(F)cccc4F)c4ccc([nH]4)c(-c4c(F)cccc4F)c4nc(c(-c5c(F)cccc5F)c5ccc2[nH]5)C=C4)C=C3)cc1)C1=Cc2cc(Cl)cc(C#Cc3ccccc3)c2O[C@@H]1C(F)(F)F
REMARK SMILES IDX 5 1 4 2 3 3 1 4 2 5 64 7 65 8 82 9 66 10 81 11 67 12 80 13
REMARK SMILES IDX 68 14 71 15 69 16 70 17 83 18 84 19 85 20 86 21 72 22 73 23
REMARK SMILES IDX 74 24 75 25 79 26 76 27 78 28 77 29 6 30 7 31 8 32 9 34
REMARK SMILES IDX 10 35 11 36 63 37 12 38 62 39 13 40 14 41 15 42 56 43 16 44
REMARK SMILES IDX 61 45 55 46 57 47 17 48 60 49 54 50 53 51 18 53 44 54 27 55
REMARK SMILES IDX 43 56 28 57 31 58 42 59 58 60 29 61 30 62 41 64 59 65 32 66
REMARK SMILES IDX 19 67 20 68 25 69 21 70 22 71 24 72 26 73 23 74 45 75 46 76
REMARK SMILES IDX 51 77 47 78 48 79 50 80 52 81 49 82 33 83 34 84 39 85 35 86
REMARK SMILES IDX 36 87 38 88 40 89 37 90
REMARK H PARENT 3 6 7 33 57 52 31 63
REMARK Flexibility Score: inf
ROOT
ATOM      1  C   UNL     1       4.208   2.577  -1.673  1.00  0.00     0.042 C 
ENDROOT
BRANCH   1   2
ATOM      2  C   UNL     1       3.675   1.641  -0.616  1.00  0.00     0.118 C 
BRANCH   2   3
ATOM      3  N   UNL     1       2.541   0.831  -1.002  1.00  0.00    -0.352 N 
ATOM      4  O   UNL     1       1.147  -0.925  -0.865  1.00  0.00    -0.270 OA
ATOM      5  C   UNL     1       2.273  -0.472  -0.674  1.00  0.00     0.251 C 
ATOM      6  H   UNL     1       1.875   1.274  -1.575  1.00  0.00     0.163 HD
BRANCH   5   7
ATOM      7  C   UNL     1       3.284  -1.321   0.025  1.00  0.00     0.067 C 
ATOM      8  C   UNL     1       4.539  -1.451  -0.439  1.00  0.00     0.025 C 
ATOM      9  C   UNL     1       3.060  -1.378   1.512  1.00  0.00     0.314 C 
ATOM     10  C   UNL     1       5.569  -0.828   0.432  1.00  0.00     0.020 A 
ATOM     11  O   UNL     1       3.950  -0.478   2.226  1.00  0.00    -0.474 OA
ATOM     12  C   UNL     1       6.775  -0.472  -0.190  1.00  0.00     0.032 A 
ATOM     13  C   UNL     1       5.153  -0.181   1.622  1.00  0.00     0.143 A 
ATOM     14  C   UNL     1       7.503   0.608   0.302  1.00  0.00     0.043 A 
ATOM     15  C   UNL     1       5.866   0.948   2.066  1.00  0.00     0.069 A 
ATOM     16  Cl  UNL     1       8.871   1.178  -0.574  1.00  0.00    -0.084 Cl
ATOM     17  C   UNL     1       7.043   1.330   1.403  1.00  0.00     0.041 A 
BRANCH   9  18
ATOM     18  C   UNL     1       3.146  -2.841   1.987  1.00  0.00     0.429 C 
ATOM     19  F   UNL     1       2.791  -2.970   3.285  1.00  0.00    -0.167 F 
ATOM     20  F   UNL     1       2.315  -3.639   1.271  1.00  0.00    -0.167 F 
ATOM     21  F   UNL     1       4.392  -3.357   1.855  1.00  0.00    -0.167 F 
ENDBRANCH   9  18
BRANCH  15  22
ATOM     22  C   UNL     1       5.321   1.902   2.997  1.00  0.00    -0.058 C 
ATOM     23  C   UNL     1       4.961   2.830   3.672  1.00  0.00    -0.062 C 
BRANCH  23  24
ATOM     24  C   UNL     1       4.657   3.982   4.477  1.00  0.00     0.025 A 
ATOM     25  C   UNL     1       4.655   5.269   3.929  1.00  0.00     0.017 A 
ATOM     26  C   UNL     1       4.434   3.825   5.845  1.00  0.00     0.017 A 
ATOM     27  C   UNL     1       4.463   6.389   4.746  1.00  0.00     0.001 A 
ATOM     28  C   UNL     1       4.239   4.943   6.661  1.00  0.00     0.001 A 
ATOM     29  C   UNL     1       4.262   6.225   6.114  1.00  0.00     0.000 A 
ENDBRANCH  23  24
ENDBRANCH  15  22
ENDBRANCH   5   7
ENDBRANCH   2   3
ENDBRANCH   1   2
BRANCH   1  30
ATOM     30  C   UNL     1       3.993   4.025  -1.292  1.00  0.00     0.118 C 
BRANCH  30  31
ATOM     31  N   UNL     1       4.756   4.440  -0.108  1.00  0.00    -0.352 N 
ATOM     32  C   UNL     1       5.778   5.355   0.026  1.00  0.00     0.251 C 
ATOM     33  H   UNL     1       4.494   3.990   0.728  1.00  0.00     0.163 HD
ATOM     34  O   UNL     1       6.405   5.443   1.076  1.00  0.00    -0.269 OA
BRANCH  32  35
ATOM     35  C   UNL     1       6.162   6.194  -1.123  1.00  0.00     0.039 A 
ATOM     36  C   UNL     1       7.516   6.412  -1.390  1.00  0.00     0.014 A 
ATOM     37  C   UNL     1       5.188   6.660  -1.997  1.00  0.00     0.014 A 
ATOM     38  C   UNL     1       7.888   6.951  -2.620  1.00  0.00     0.010 A 
ATOM     39  C   UNL     1       5.561   7.012  -3.279  1.00  0.00     0.010 A 
ATOM     40  C   UNL     1       6.915   7.167  -3.607  1.00  0.00    -0.014 A 
BRANCH  40  41
ATOM     41  C   UNL     1       7.255   7.564  -4.994  1.00  0.00     0.031 A 
ATOM     42  C   UNL     1       6.607   8.789  -5.580  1.00  0.00     0.074 A 
ATOM     43  C   UNL     1       8.026   6.764  -5.757  1.00  0.00     0.049 A 
ATOM     44  N   UNL     1       6.589   9.205  -6.819  1.00  0.00    -0.248 NA
ATOM     45  C   UNL     1       5.819   9.626  -4.656  1.00  0.00     0.031 C 
ATOM     46  C   UNL     1       8.662   5.518  -5.320  1.00  0.00     0.029 A 
ATOM     47  N   UNL     1       8.391   6.872  -7.075  1.00  0.00    -0.354 N 
ATOM     48  C   UNL     1       5.761  10.320  -6.824  1.00  0.00     0.074 A 
ATOM     49  C   UNL     1       5.229  10.467  -5.489  1.00  0.00     0.031 C 
ATOM     50  C   UNL     1       9.365   4.999  -6.339  1.00  0.00     0.029 A 
ATOM     51  C   UNL     1       9.181   5.837  -7.517  1.00  0.00     0.049 A 
ATOM     52  H   UNL     1       8.113   7.621  -7.651  1.00  0.00     0.167 HD
ATOM     53  C   UNL     1       5.497  11.170  -7.842  1.00  0.00     0.037 A 
ATOM     54  C   UNL     1       9.683   5.587  -8.741  1.00  0.00     0.037 A 
ATOM     55  C   UNL     1       6.072  11.042  -9.151  1.00  0.00     0.049 A 
ATOM     56  C   UNL     1       9.375   6.546  -9.860  1.00  0.00     0.074 A 
ATOM     57  C   UNL     1       5.934  11.884 -10.239  1.00  0.00     0.029 A 
ATOM     58  N   UNL     1       6.902  10.002  -9.547  1.00  0.00    -0.354 N 
ATOM     59  N   UNL     1       8.645   7.635  -9.837  1.00  0.00    -0.248 NA
ATOM     60  C   UNL     1       9.960   6.243 -11.173  1.00  0.00     0.031 C 
ATOM     61  C   UNL     1       6.636  11.325 -11.310  1.00  0.00     0.029 A 
ATOM     62  C   UNL     1       7.264  10.169 -10.871  1.00  0.00     0.049 A 
ATOM     63  H   UNL     1       7.189   9.257  -8.971  1.00  0.00     0.167 HD
ATOM     64  C   UNL     1       8.713   8.167 -11.118  1.00  0.00     0.074 A 
ATOM     65  C   UNL     1       9.561   7.283 -11.891  1.00  0.00     0.031 C 
ATOM     66  C   UNL     1       8.129   9.286 -11.611  1.00  0.00     0.037 A 
BRANCH  53  67
ATOM     67  C   UNL     1       4.559  12.311  -7.569  1.00  0.00     0.057 A 
ATOM     68  C   UNL     1       4.892  13.353  -6.692  1.00  0.00     0.134 A 
ATOM     69  C   UNL     1       3.312  12.376  -8.201  1.00  0.00     0.134 A 
ATOM     70  F   UNL     1       6.065  13.345  -6.038  1.00  0.00    -0.206 F 
ATOM     71  C   UNL     1       4.006  14.398  -6.427  1.00  0.00     0.040 A 
ATOM     72  C   UNL     1       2.432  13.434  -7.972  1.00  0.00     0.040 A 
ATOM     73  F   UNL     1       2.928  11.414  -9.054  1.00  0.00    -0.206 F 
ATOM     74  C   UNL     1       2.774  14.444  -7.075  1.00  0.00     0.006 A 
ENDBRANCH  53  67
BRANCH  54  75
ATOM     75  C   UNL     1      10.543   4.396  -8.971  1.00  0.00     0.057 A 
ATOM     76  C   UNL     1      11.906   4.537  -9.259  1.00  0.00     0.134 A 
ATOM     77  C   UNL     1      10.029   3.095  -8.919  1.00  0.00     0.134 A 
ATOM     78  F   UNL     1      12.456   5.758  -9.338  1.00  0.00    -0.206 F 
ATOM     79  C   UNL     1      12.720   3.432  -9.512  1.00  0.00     0.040 A 
ATOM     80  C   UNL     1      10.838   1.978  -9.142  1.00  0.00     0.040 A 
ATOM     81  F   UNL     1       8.734   2.888  -8.637  1.00  0.00    -0.206 F 
ATOM     82  C   UNL     1      12.187   2.146  -9.449  1.00  0.00     0.006 A 
ENDBRANCH  54  75
BRANCH  66  83
ATOM     83  C   UNL     1       8.427   9.654 -13.034  1.00  0.00     0.057 A 
ATOM     84  C   UNL     1       7.891   8.942 -14.114  1.00  0.00     0.134 A 
ATOM     85  C   UNL     1       9.198  10.789 -13.323  1.00  0.00     0.134 A 
ATOM     86  F   UNL     1       7.154   7.841 -13.904  1.00  0.00    -0.206 F 
ATOM     87  C   UNL     1       8.122   9.338 -15.431  1.00  0.00     0.040 A 
ATOM     88  C   UNL     1       9.409  11.212 -14.634  1.00  0.00     0.040 A 
ATOM     89  F   UNL     1       9.730  11.521 -12.332  1.00  0.00    -0.206 F 
ATOM     90  C   UNL     1       8.873  10.483 -15.694  1.00  0.00     0.006 A 
ENDBRANCH  66  83
ENDBRANCH  40  41
ENDBRANCH  32  35
ENDBRANCH  30  31
ENDBRANCH   1  30
TORSDOF 13
