REMARK SMILES CCC[NH2+][C@]1(C(=O)NCCCNC(=O)c2ccc(-c3c4nc(c(-c5c(F)cccc5F)c5ccc([nH]5)c(-c5c(F)cccc5F)c5nc(c(-c6c(F)cccc6F)c6ccc3[nH]6)C=C5)C=C4)cc2)CC[C@H](n2nc(C)c(CC)c2C)C1
REMARK SMILES IDX 9 1 8 2 6 3 7 4 5 6 69 7 81 8 70 9 71 10 4 11 3 14 2 15 1 16
REMARK SMILES IDX 72 17 73 18 79 19 74 20 76 21 80 22 75 23 77 24 78 25 10 26
REMARK SMILES IDX 11 27 12 28 13 29 14 31 15 32 16 33 68 34 17 35 67 36 18 37
REMARK SMILES IDX 19 38 20 39 61 40 21 41 66 42 60 43 62 44 22 45 65 46 59 47
REMARK SMILES IDX 58 48 23 50 49 51 32 52 48 53 33 54 36 55 47 56 63 57 34 58
REMARK SMILES IDX 35 59 46 61 64 62 37 63 24 64 25 65 30 66 26 67 27 68 29 69
REMARK SMILES IDX 31 70 28 71 50 72 51 73 56 74 52 75 53 76 55 77 57 78 54 79
REMARK SMILES IDX 38 80 39 81 44 82 40 83 41 84 43 85 45 86 42 87
REMARK H PARENT 8 5 4 12 4 13 12 30 62 49 36 60
REMARK Flexibility Score: inf
ROOT
ATOM      1  C   UNL     1       1.700   1.762  -3.026  1.00  0.00     0.118 C 
ENDROOT
BRANCH   1   2
ATOM      2  N   UNL     1       0.791   1.842  -1.898  1.00  0.00    -0.351 N 
ATOM      3  C   UNL     1       0.585   2.840  -0.992  1.00  0.00     0.281 C 
ATOM      4  O   UNL     1      -0.195   2.585  -0.067  1.00  0.00    -0.268 OA
ATOM      5  H   UNL     1       0.230   1.044  -1.765  1.00  0.00     0.163 HD
BRANCH   3   6
ATOM      6  C   UNL     1       1.260   4.237  -1.122  1.00  0.00     0.177 C 
ATOM      7  C   UNL     1       0.685   5.034  -2.305  1.00  0.00     0.081 C 
ATOM      8  C   UNL     1       0.795   5.155   0.030  1.00  0.00     0.106 C 
ATOM      9  C   UNL     1       0.971   6.503  -1.968  1.00  0.00     0.034 C 
ATOM     10  C   UNL     1       1.047   6.603  -0.418  1.00  0.00     0.114 C 
BRANCH   6  11
ATOM     11  N   UNL     1       2.733   4.121  -1.264  1.00  0.00    -0.334 N 
ATOM     12  H   UNL     1       2.926   3.410  -1.970  1.00  0.00     0.347 HD
ATOM     13  H   UNL     1       3.067   5.050  -1.520  1.00  0.00     0.347 HD
BRANCH  11  14
ATOM     14  C   UNL     1       3.449   3.752  -0.043  1.00  0.00     0.261 C 
BRANCH  14  15
ATOM     15  C   UNL     1       4.951   3.520  -0.266  1.00  0.00     0.058 C 
ATOM     16  C   UNL     1       5.619   4.518  -1.202  1.00  0.00     0.010 C 
ENDBRANCH  14  15
ENDBRANCH  11  14
ENDBRANCH   6  11
BRANCH  10  17
ATOM     17  N   UNL     1       2.269   7.233   0.081  1.00  0.00    -0.266 N 
ATOM     18  N   UNL     1       2.869   8.156  -0.700  1.00  0.00    -0.178 NA
ATOM     19  C   UNL     1       2.875   7.151   1.319  1.00  0.00     0.039 A 
ATOM     20  C   UNL     1       3.981   8.494  -0.043  1.00  0.00     0.063 A 
ATOM     21  C   UNL     1       4.104   7.781   1.175  1.00  0.00    -0.004 A 
ATOM     22  C   UNL     1       2.294   6.507   2.526  1.00  0.00     0.066 C 
ATOM     23  C   UNL     1       4.873   9.535  -0.611  1.00  0.00     0.069 C 
BRANCH  21  24
ATOM     24  C   UNL     1       5.245   7.798   2.141  1.00  0.00     0.036 C 
ATOM     25  C   UNL     1       6.530   7.235   1.542  1.00  0.00     0.009 C 
ENDBRANCH  21  24
ENDBRANCH  10  17
ENDBRANCH   3   6
ENDBRANCH   1   2
BRANCH   1  26
ATOM     26  C   UNL     1       3.025   1.090  -2.675  1.00  0.00     0.042 C 
BRANCH  26  27
ATOM     27  C   UNL     1       2.913  -0.352  -2.194  1.00  0.00     0.118 C 
BRANCH  27  28
ATOM     28  N   UNL     1       2.465  -1.251  -3.242  1.00  0.00    -0.352 N 
ATOM     29  C   UNL     1       3.101  -2.289  -3.868  1.00  0.00     0.251 C 
ATOM     30  H   UNL     1       1.546  -1.086  -3.556  1.00  0.00     0.163 HD
ATOM     31  O   UNL     1       2.590  -2.763  -4.887  1.00  0.00    -0.269 OA
BRANCH  29  32
ATOM     32  C   UNL     1       4.372  -2.863  -3.366  1.00  0.00     0.039 A 
ATOM     33  C   UNL     1       5.283  -3.368  -4.303  1.00  0.00     0.014 A 
ATOM     34  C   UNL     1       4.637  -3.020  -2.002  1.00  0.00     0.014 A 
ATOM     35  C   UNL     1       6.448  -4.013  -3.879  1.00  0.00     0.010 A 
ATOM     36  C   UNL     1       5.837  -3.599  -1.579  1.00  0.00     0.010 A 
ATOM     37  C   UNL     1       6.739  -4.130  -2.512  1.00  0.00    -0.014 A 
BRANCH  37  38
ATOM     38  C   UNL     1       7.947  -4.867  -2.054  1.00  0.00     0.031 A 
ATOM     39  C   UNL     1       7.801  -6.161  -1.297  1.00  0.00     0.074 A 
ATOM     40  C   UNL     1       9.174  -4.372  -2.301  1.00  0.00     0.049 A 
ATOM     41  N   UNL     1       8.730  -6.942  -0.804  1.00  0.00    -0.248 NA
ATOM     42  C   UNL     1       6.430  -6.628  -1.039  1.00  0.00     0.031 C 
ATOM     43  C   UNL     1       9.455  -3.110  -2.988  1.00  0.00     0.029 A 
ATOM     44  N   UNL     1      10.416  -4.873  -2.002  1.00  0.00    -0.354 N 
ATOM     45  C   UNL     1       8.057  -7.975  -0.163  1.00  0.00     0.074 A 
ATOM     46  C   UNL     1       6.642  -7.699  -0.289  1.00  0.00     0.031 C 
ATOM     47  C   UNL     1      10.786  -2.948  -3.080  1.00  0.00     0.029 A 
ATOM     48  C   UNL     1      11.450  -4.082  -2.442  1.00  0.00     0.049 A 
ATOM     49  H   UNL     1      10.554  -5.719  -1.519  1.00  0.00     0.167 HD
ATOM     50  C   UNL     1       8.566  -9.068   0.456  1.00  0.00     0.037 A 
ATOM     51  C   UNL     1      12.781  -4.255  -2.349  1.00  0.00     0.037 A 
ATOM     52  C   UNL     1       9.970  -9.367   0.550  1.00  0.00     0.049 A 
ATOM     53  C   UNL     1      13.322  -5.497  -1.698  1.00  0.00     0.074 A 
ATOM     54  C   UNL     1      10.582 -10.472   1.117  1.00  0.00     0.029 A 
ATOM     55  N   UNL     1      10.982  -8.562   0.051  1.00  0.00    -0.354 N 
ATOM     56  N   UNL     1      12.671  -6.489  -1.141  1.00  0.00    -0.248 NA
ATOM     57  C   UNL     1      14.784  -5.651  -1.677  1.00  0.00     0.031 C 
ATOM     58  C   UNL     1      11.967 -10.322   0.982  1.00  0.00     0.029 A 
ATOM     59  C   UNL     1      12.214  -9.143   0.299  1.00  0.00     0.049 A 
ATOM     60  H   UNL     1      10.844  -7.703  -0.411  1.00  0.00     0.167 HD
ATOM     61  C   UNL     1      13.639  -7.399  -0.735  1.00  0.00     0.074 A 
ATOM     62  C   UNL     1      14.921  -6.844  -1.116  1.00  0.00     0.031 C 
ATOM     63  C   UNL     1      13.480  -8.587  -0.103  1.00  0.00     0.037 A 
BRANCH  50  64
ATOM     64  C   UNL     1       7.590 -10.025   1.076  1.00  0.00     0.057 A 
ATOM     65  C   UNL     1       6.779 -10.859   0.295  1.00  0.00     0.134 A 
ATOM     66  C   UNL     1       7.476 -10.132   2.467  1.00  0.00     0.134 A 
ATOM     67  F   UNL     1       6.830 -10.796  -1.044  1.00  0.00    -0.206 F 
ATOM     68  C   UNL     1       5.869 -11.745   0.875  1.00  0.00     0.040 A 
ATOM     69  C   UNL     1       6.588 -11.031   3.060  1.00  0.00     0.040 A 
ATOM     70  F   UNL     1       8.228  -9.367   3.273  1.00  0.00    -0.206 F 
ATOM     71  C   UNL     1       5.776 -11.836   2.262  1.00  0.00     0.006 A 
ENDBRANCH  50  64
BRANCH  51  72
ATOM     72  C   UNL     1      13.701  -3.248  -2.933  1.00  0.00     0.057 A 
ATOM     73  C   UNL     1      14.416  -3.520  -4.104  1.00  0.00     0.134 A 
ATOM     74  C   UNL     1      13.889  -1.997  -2.335  1.00  0.00     0.134 A 
ATOM     75  F   UNL     1      14.290  -4.710  -4.710  1.00  0.00    -0.206 F 
ATOM     76  C   UNL     1      15.302  -2.591  -4.652  1.00  0.00     0.040 A 
ATOM     77  C   UNL     1      14.755  -1.050  -2.884  1.00  0.00     0.040 A 
ATOM     78  F   UNL     1      13.226  -1.675  -1.214  1.00  0.00    -0.206 F 
ATOM     79  C   UNL     1      15.469  -1.349  -4.043  1.00  0.00     0.006 A 
ENDBRANCH  51  72
BRANCH  63  80
ATOM     80  C   UNL     1      14.717  -9.387   0.171  1.00  0.00     0.057 A 
ATOM     81  C   UNL     1      15.621  -9.030   1.179  1.00  0.00     0.134 A 
ATOM     82  C   UNL     1      14.993 -10.544  -0.569  1.00  0.00     0.134 A 
ATOM     83  F   UNL     1      15.420  -7.926   1.913  1.00  0.00    -0.206 F 
ATOM     84  C   UNL     1      16.770  -9.784   1.425  1.00  0.00     0.040 A 
ATOM     85  C   UNL     1      16.126 -11.318  -0.317  1.00  0.00     0.040 A 
ATOM     86  F   UNL     1      14.162 -10.944  -1.544  1.00  0.00    -0.206 F 
ATOM     87  C   UNL     1      17.022 -10.934   0.679  1.00  0.00     0.006 A 
ENDBRANCH  63  80
ENDBRANCH  37  38
ENDBRANCH  29  32
ENDBRANCH  27  28
ENDBRANCH  26  27
ENDBRANCH   1  26
TORSDOF 15
