REMARK SMILES NC(=O)c1c(-c2ccc(Cl)cc2)csc1NC(=O)[C@H]1[C@@H](C(=O)NCCCNC(=O)c2ccc(-c3c4nc(c(-c5c(F)cccc5F)c5ccc([nH]5)c(-c5c(F)cccc5F)c5nc(c(-c6c(F)cccc6F)c6ccc3[nH]6)C=C5)C=C4)cc2)[C@@H]2CC[C@H]1O2
REMARK SMILES IDX 24 1 23 2 21 3 22 4 20 6 19 7 87 8 84 9 86 10 88 11 85 12
REMARK SMILES IDX 17 13 16 14 18 16 15 17 4 18 5 19 13 20 14 21 2 22 1 23 3 26
REMARK SMILES IDX 6 27 7 28 12 29 8 30 11 31 9 32 10 33 25 34 26 35 27 36
REMARK SMILES IDX 28 37 29 39 30 40 31 41 83 42 32 43 82 44 33 45 34 46 35 47
REMARK SMILES IDX 76 48 36 49 81 50 75 51 77 52 37 53 80 54 74 55 73 56 38 58
REMARK SMILES IDX 64 59 47 60 63 61 48 62 51 63 62 64 78 65 49 66 50 67 61 69
REMARK SMILES IDX 79 70 52 71 39 72 40 73 45 74 41 75 42 76 44 77 46 78 43 79
REMARK SMILES IDX 65 80 66 81 71 82 67 83 68 84 70 85 72 86 69 87 53 88 54 89
REMARK SMILES IDX 59 90 55 91 56 92 58 93 60 94 57 95
REMARK H PARENT 23 5 16 15 1 24 1 25 27 38 77 57 51 68
REMARK Flexibility Score: inf
ROOT
ATOM      1  C   UNL     1       2.516   6.003  -7.096  1.00  0.00     0.117 C 
ENDROOT
BRANCH   1   2
ATOM      2  N   UNL     1       2.881   5.126  -6.003  1.00  0.00    -0.356 N 
ATOM      3  C   UNL     1       2.371   4.940  -4.765  1.00  0.00     0.226 C 
ATOM      4  O   UNL     1       3.080   4.284  -3.991  1.00  0.00    -0.275 OA
ATOM      5  H   UNL     1       3.655   4.550  -6.201  1.00  0.00     0.163 HD
BRANCH   3   6
ATOM      6  C   UNL     1       1.028   5.457  -4.267  1.00  0.00     0.122 C 
ATOM      7  C   UNL     1      -0.246   4.593  -4.488  1.00  0.00     0.123 C 
ATOM      8  C   UNL     1      -1.255   5.690  -4.769  1.00  0.00     0.132 C 
ATOM      9  C   UNL     1       0.566   6.845  -4.721  1.00  0.00     0.132 C 
ATOM     10  C   UNL     1      -1.475   6.633  -3.574  1.00  0.00     0.035 C 
ATOM     11  O   UNL     1      -0.503   6.543  -5.653  1.00  0.00    -0.373 OA
ATOM     12  C   UNL     1      -0.239   7.520  -3.617  1.00  0.00     0.035 C 
BRANCH   7  13
ATOM     13  C   UNL     1      -0.001   3.354  -5.365  1.00  0.00     0.231 C 
ATOM     14  N   UNL     1      -0.359   3.026  -6.626  1.00  0.00    -0.317 N 
ATOM     15  H   UNL     1       0.211   2.298  -6.963  1.00  0.00     0.170 HD
ATOM     16  O   UNL     1       0.725   2.484  -4.840  1.00  0.00    -0.274 OA
BRANCH  14  17
ATOM     17  C   UNL     1      -1.280   3.396  -7.590  1.00  0.00     0.108 A 
ATOM     18  C   UNL     1      -1.349   2.912  -8.906  1.00  0.00     0.082 A 
ATOM     19  C   UNL     1      -2.423   3.570  -9.630  1.00  0.00     0.007 A 
ATOM     20  C   UNL     1      -3.151   4.410  -8.815  1.00  0.00     0.076 A 
ATOM     21  S   UNL     1      -2.603   4.362  -7.227  1.00  0.00    -0.125 S 
BRANCH  18  22
ATOM     22  C   UNL     1      -0.424   1.878  -9.382  1.00  0.00     0.252 C 
ATOM     23  N   UNL     1      -0.317   1.690 -10.729  1.00  0.00    -0.365 N 
ATOM     24  H   UNL     1       0.295   1.004 -11.083  1.00  0.00     0.159 HD
ATOM     25  H   UNL     1      -0.850   2.240 -11.347  1.00  0.00     0.159 HD
ATOM     26  O   UNL     1       0.253   1.196  -8.622  1.00  0.00    -0.269 OA
ENDBRANCH  18  22
BRANCH  19  27
ATOM     27  C   UNL     1      -2.901   3.425 -10.995  1.00  0.00    -0.017 A 
ATOM     28  C   UNL     1      -2.699   4.463 -11.915  1.00  0.00     0.010 A 
ATOM     29  C   UNL     1      -3.683   2.320 -11.348  1.00  0.00     0.010 A 
ATOM     30  C   UNL     1      -3.298   4.406 -13.174  1.00  0.00     0.021 A 
ATOM     31  C   UNL     1      -4.281   2.266 -12.608  1.00  0.00     0.021 A 
ATOM     32  C   UNL     1      -4.095   3.313 -13.511  1.00  0.00     0.041 A 
ATOM     33  Cl  UNL     1      -4.876   3.268 -15.043  1.00  0.00    -0.084 Cl
ENDBRANCH  19  27
ENDBRANCH  14  17
ENDBRANCH   7  13
ENDBRANCH   3   6
ENDBRANCH   1   2
BRANCH   1  34
ATOM     34  C   UNL     1       3.225   7.358  -6.997  1.00  0.00     0.042 C 
BRANCH  34  35
ATOM     35  C   UNL     1       4.725   7.315  -7.272  1.00  0.00     0.118 C 
BRANCH  35  36
ATOM     36  N   UNL     1       5.025   7.082  -8.674  1.00  0.00    -0.352 N 
ATOM     37  C   UNL     1       5.661   7.879  -9.593  1.00  0.00     0.251 C 
ATOM     38  H   UNL     1       4.723   6.212  -9.022  1.00  0.00     0.163 HD
ATOM     39  O   UNL     1       5.611   7.574 -10.783  1.00  0.00    -0.269 OA
BRANCH  37  40
ATOM     40  C   UNL     1       6.401   9.098  -9.185  1.00  0.00     0.039 A 
ATOM     41  C   UNL     1       6.375  10.210 -10.034  1.00  0.00     0.014 A 
ATOM     42  C   UNL     1       7.182   9.134  -8.027  1.00  0.00     0.014 A 
ATOM     43  C   UNL     1       7.101  11.361  -9.709  1.00  0.00     0.010 A 
ATOM     44  C   UNL     1       7.842  10.308  -7.663  1.00  0.00     0.010 A 
ATOM     45  C   UNL     1       7.828  11.426  -8.511  1.00  0.00    -0.014 A 
BRANCH  45  46
ATOM     46  C   UNL     1       8.619  12.633  -8.153  1.00  0.00     0.031 A 
ATOM     47  C   UNL     1      10.119  12.546  -8.044  1.00  0.00     0.074 A 
ATOM     48  C   UNL     1       7.992  13.793  -7.878  1.00  0.00     0.049 A 
ATOM     49  N   UNL     1      10.979  13.462  -7.676  1.00  0.00    -0.248 NA
ATOM     50  C   UNL     1      10.729  11.245  -8.362  1.00  0.00     0.031 C 
ATOM     51  C   UNL     1       6.544  14.000  -7.907  1.00  0.00     0.029 A 
ATOM     52  N   UNL     1       8.496  15.014  -7.507  1.00  0.00    -0.354 N 
ATOM     53  C   UNL     1      12.223  12.843  -7.694  1.00  0.00     0.074 A 
ATOM     54  C   UNL     1      12.001  11.461  -8.061  1.00  0.00     0.031 C 
ATOM     55  C   UNL     1       6.277  15.277  -7.589  1.00  0.00     0.029 A 
ATOM     56  C   UNL     1       7.530  15.969  -7.301  1.00  0.00     0.049 A 
ATOM     57  H   UNL     1       9.459  15.190  -7.399  1.00  0.00     0.167 HD
ATOM     58  C   UNL     1      13.443  13.380  -7.450  1.00  0.00     0.037 A 
ATOM     59  C   UNL     1       7.641  17.256  -6.921  1.00  0.00     0.037 A 
ATOM     60  C   UNL     1      13.666  14.762  -7.120  1.00  0.00     0.049 A 
ATOM     61  C   UNL     1       9.007  17.836  -6.676  1.00  0.00     0.074 A 
ATOM     62  C   UNL     1      14.867  15.417  -6.908  1.00  0.00     0.029 A 
ATOM     63  N   UNL     1      12.663  15.706  -6.958  1.00  0.00    -0.354 N 
ATOM     64  N   UNL     1      10.178  17.253  -6.752  1.00  0.00    -0.248 NA
ATOM     65  C   UNL     1       9.066  19.256  -6.304  1.00  0.00     0.031 C 
ATOM     66  C   UNL     1      14.588  16.749  -6.584  1.00  0.00     0.029 A 
ATOM     67  C   UNL     1      13.216  16.935  -6.639  1.00  0.00     0.049 A 
ATOM     68  H   UNL     1      11.699  15.528  -7.055  1.00  0.00     0.167 HD
ATOM     69  C   UNL     1      11.114  18.240  -6.471  1.00  0.00     0.074 A 
ATOM     70  C   UNL     1      10.373  19.462  -6.232  1.00  0.00     0.031 C 
ATOM     71  C   UNL     1      12.465  18.144  -6.419  1.00  0.00     0.037 A 
BRANCH  58  72
ATOM     72  C   UNL     1      14.630  12.463  -7.535  1.00  0.00     0.057 A 
ATOM     73  C   UNL     1      15.077  11.943  -8.758  1.00  0.00     0.134 A 
ATOM     74  C   UNL     1      15.344  12.108  -6.384  1.00  0.00     0.134 A 
ATOM     75  F   UNL     1      14.431  12.233  -9.897  1.00  0.00    -0.206 F 
ATOM     76  C   UNL     1      16.170  11.077  -8.828  1.00  0.00     0.040 A 
ATOM     77  C   UNL     1      16.457  11.266  -6.445  1.00  0.00     0.040 A 
ATOM     78  F   UNL     1      14.976  12.575  -5.182  1.00  0.00    -0.206 F 
ATOM     79  C   UNL     1      16.867  10.741  -7.669  1.00  0.00     0.006 A 
ENDBRANCH  58  72
BRANCH  59  80
ATOM     80  C   UNL     1       6.425  18.096  -6.784  1.00  0.00     0.057 A 
ATOM     81  C   UNL     1       6.144  19.111  -7.706  1.00  0.00     0.134 A 
ATOM     82  C   UNL     1       5.517  17.906  -5.736  1.00  0.00     0.134 A 
ATOM     83  F   UNL     1       6.987  19.352  -8.721  1.00  0.00    -0.206 F 
ATOM     84  C   UNL     1       5.014  19.921  -7.581  1.00  0.00     0.040 A 
ATOM     85  C   UNL     1       4.370  18.692  -5.612  1.00  0.00     0.040 A 
ATOM     86  F   UNL     1       5.725  16.944  -4.825  1.00  0.00    -0.206 F 
ATOM     87  C   UNL     1       4.120  19.708  -6.534  1.00  0.00     0.006 A 
ENDBRANCH  59  80
BRANCH  71  88
ATOM     88  C   UNL     1      13.232  19.404  -6.142  1.00  0.00     0.057 A 
ATOM     89  C   UNL     1      13.258  19.992  -4.872  1.00  0.00     0.134 A 
ATOM     90  C   UNL     1      13.983  20.014  -7.155  1.00  0.00     0.134 A 
ATOM     91  F   UNL     1      12.551  19.464  -3.862  1.00  0.00    -0.206 F 
ATOM     92  C   UNL     1      13.985  21.158  -4.625  1.00  0.00     0.040 A 
ATOM     93  C   UNL     1      14.734  21.165  -6.914  1.00  0.00     0.040 A 
ATOM     94  F   UNL     1      14.007  19.495  -8.392  1.00  0.00    -0.206 F 
ATOM     95  C   UNL     1      14.731  21.744  -5.647  1.00  0.00     0.006 A 
ENDBRANCH  71  88
ENDBRANCH  45  46
ENDBRANCH  37  40
ENDBRANCH  35  36
ENDBRANCH  34  35
ENDBRANCH   1  34
TORSDOF 14
