REMARK SMILES Cc1cccc(S(=O)(=O)Nc2cnc(N(C)Cc3ccccc3)c(C(=O)NCCCNC(=O)c3ccc(-c4c5nc(c(-c6c(F)cccc6F)c6ccc([nH]6)c(-c6c(F)cccc6F)c6nc(c(-c7c(F)cccc7F)c7ccc4[nH]7)C=C6)C=C5)cc3)c2)c1
REMARK SMILES IDX 28 1 27 2 25 3 26 4 24 6 11 7 12 8 88 9 13 10 14 11 10 12
REMARK SMILES IDX 7 14 8 15 9 16 6 17 1 18 2 19 3 20 89 21 4 22 5 23 15 24
REMARK SMILES IDX 16 25 17 26 18 27 19 28 23 29 20 30 22 31 21 32 29 33 30 34
REMARK SMILES IDX 31 35 32 36 33 38 34 39 35 40 87 41 36 42 86 43 37 44 38 45
REMARK SMILES IDX 39 46 80 47 40 48 85 49 79 50 81 51 41 52 84 53 78 54 77 55
REMARK SMILES IDX 42 57 68 58 51 59 67 60 52 61 55 62 66 63 82 64 53 65 54 66
REMARK SMILES IDX 65 68 83 69 56 70 43 71 44 72 49 73 45 74 46 75 48 76 50 77
REMARK SMILES IDX 47 78 69 79 70 80 75 81 71 82 72 83 74 84 76 85 73 86 57 87
REMARK SMILES IDX 58 88 63 89 59 90 60 91 62 92 64 93 61 94
REMARK H PARENT 27 5 10 13 31 37 81 56 55 67
REMARK Flexibility Score: inf
ROOT
ATOM      1  C   UNL     1       0.911   0.914  -2.765  1.00  0.00     0.118 C 
ENDROOT
BRANCH   1   2
ATOM      2  N   UNL     1       2.201   1.527  -3.051  1.00  0.00    -0.352 N 
ATOM      3  C   UNL     1       2.900   2.550  -2.433  1.00  0.00     0.255 C 
ATOM      4  O   UNL     1       3.871   2.997  -3.040  1.00  0.00    -0.269 OA
ATOM      5  H   UNL     1       2.663   1.142  -3.830  1.00  0.00     0.163 HD
BRANCH   3   6
ATOM      6  C   UNL     1       2.492   3.142  -1.125  1.00  0.00     0.084 A 
ATOM      7  C   UNL     1       0.633   3.999   0.210  1.00  0.00     0.068 A 
ATOM      8  C   UNL     1       1.569   4.361   1.149  1.00  0.00     0.140 A 
ATOM      9  C   UNL     1       1.124   3.480  -0.975  1.00  0.00     0.046 A 
ATOM     10  N   UNL     1       2.888   4.123   1.016  1.00  0.00    -0.236 NA
ATOM     11  C   UNL     1       3.389   3.495  -0.090  1.00  0.00     0.141 A 
BRANCH   7  12
ATOM     12  N   UNL     1      -0.744   4.097   0.547  1.00  0.00    -0.278 N 
ATOM     13  H   UNL     1      -1.005   4.843   1.134  1.00  0.00     0.180 HD
BRANCH  12  14
ATOM     14  S   UNL     1      -1.964   3.068   0.042  1.00  0.00     0.261 S 
ATOM     15  O   UNL     1      -2.078   3.208  -1.409  1.00  0.00    -0.201 OA
ATOM     16  O   UNL     1      -3.074   3.346   0.900  1.00  0.00    -0.201 OA
BRANCH  14  17
ATOM     17  C   UNL     1      -1.498   1.367   0.334  1.00  0.00     0.088 A 
ATOM     18  C   UNL     1       1.636  -0.714   0.712  1.00  0.00     0.044 C 
ATOM     19  C   UNL     1       0.186  -0.354   0.582  1.00  0.00    -0.050 A 
ATOM     20  C   UNL     1      -0.740  -1.323   0.186  1.00  0.00     0.003 A 
ATOM     21  C   UNL     1      -0.224   0.978   0.742  1.00  0.00     0.025 A 
ATOM     22  C   UNL     1      -2.053  -0.956  -0.098  1.00  0.00     0.002 A 
ATOM     23  C   UNL     1      -2.426   0.389  -0.053  1.00  0.00     0.022 A 
ENDBRANCH  14  17
ENDBRANCH  12  14
ENDBRANCH   7  12
BRANCH  11  24
ATOM     24  N   UNL     1       4.750   3.294  -0.019  1.00  0.00    -0.355 N 
ATOM     25  C   UNL     1       5.530   4.175   0.856  1.00  0.00     0.145 C 
BRANCH  24  26
ATOM     26  C   UNL     1       5.525   2.225  -0.644  1.00  0.00     0.153 C 
BRANCH  26  27
ATOM     27  C   UNL     1       5.236   0.834  -0.118  1.00  0.00    -0.029 A 
ATOM     28  C   UNL     1       5.298  -0.256  -1.002  1.00  0.00     0.005 A 
ATOM     29  C   UNL     1       5.050   0.576   1.248  1.00  0.00     0.005 A 
ATOM     30  C   UNL     1       5.163  -1.565  -0.536  1.00  0.00     0.000 A 
ATOM     31  C   UNL     1       4.918  -0.736   1.715  1.00  0.00     0.000 A 
ATOM     32  C   UNL     1       4.974  -1.805   0.823  1.00  0.00     0.000 A 
ENDBRANCH  26  27
ENDBRANCH  24  26
ENDBRANCH  11  24
ENDBRANCH   3   6
ENDBRANCH   1   2
BRANCH   1  33
ATOM     33  C   UNL     1      -0.223   1.568  -3.561  1.00  0.00     0.042 C 
BRANCH  33  34
ATOM     34  C   UNL     1      -0.409   0.986  -4.952  1.00  0.00     0.118 C 
BRANCH  34  35
ATOM     35  N   UNL     1      -1.730   0.396  -5.178  1.00  0.00    -0.352 N 
ATOM     36  C   UNL     1      -2.156  -0.344  -6.268  1.00  0.00     0.251 C 
ATOM     37  H   UNL     1      -2.397   0.543  -4.468  1.00  0.00     0.163 HD
ATOM     38  O   UNL     1      -3.273  -0.844  -6.305  1.00  0.00    -0.269 OA
BRANCH  36  39
ATOM     39  C   UNL     1      -1.168  -0.625  -7.332  1.00  0.00     0.039 A 
ATOM     40  C   UNL     1      -0.848  -1.962  -7.578  1.00  0.00     0.014 A 
ATOM     41  C   UNL     1      -0.358   0.407  -7.800  1.00  0.00     0.014 A 
ATOM     42  C   UNL     1       0.425  -2.270  -8.045  1.00  0.00     0.010 A 
ATOM     43  C   UNL     1       0.938   0.101  -8.164  1.00  0.00     0.010 A 
ATOM     44  C   UNL     1       1.348  -1.236  -8.215  1.00  0.00    -0.014 A 
BRANCH  44  45
ATOM     45  C   UNL     1       2.778  -1.480  -8.358  1.00  0.00     0.031 A 
ATOM     46  C   UNL     1       3.409  -1.366  -9.686  1.00  0.00     0.074 A 
ATOM     47  C   UNL     1       3.531  -1.806  -7.284  1.00  0.00     0.049 A 
ATOM     48  N   UNL     1       4.441  -2.042 -10.061  1.00  0.00    -0.248 NA
ATOM     49  C   UNL     1       2.879  -0.492 -10.724  1.00  0.00     0.031 C 
ATOM     50  C   UNL     1       4.987  -1.899  -7.219  1.00  0.00     0.029 A 
ATOM     51  N   UNL     1       3.095  -2.335  -6.064  1.00  0.00    -0.354 N 
ATOM     52  C   UNL     1       4.874  -1.510 -11.254  1.00  0.00     0.074 A 
ATOM     53  C   UNL     1       3.833  -0.590 -11.653  1.00  0.00     0.031 C 
ATOM     54  C   UNL     1       5.326  -2.691  -6.190  1.00  0.00     0.029 A 
ATOM     55  C   UNL     1       4.099  -3.228  -5.630  1.00  0.00     0.049 A 
ATOM     56  H   UNL     1       2.253  -2.126  -5.599  1.00  0.00     0.167 HD
ATOM     57  C   UNL     1       6.130  -1.798 -11.705  1.00  0.00     0.037 A 
ATOM     58  C   UNL     1       3.832  -4.552  -5.434  1.00  0.00     0.037 A 
ATOM     59  C   UNL     1       6.807  -2.749 -10.825  1.00  0.00     0.049 A 
ATOM     60  C   UNL     1       4.619  -5.473  -6.340  1.00  0.00     0.074 A 
ATOM     61  C   UNL     1       7.710  -2.580  -9.788  1.00  0.00     0.029 A 
ATOM     62  N   UNL     1       6.337  -4.055 -10.725  1.00  0.00    -0.354 N 
ATOM     63  N   UNL     1       5.292  -5.066  -7.380  1.00  0.00    -0.248 NA
ATOM     64  C   UNL     1       4.668  -6.925  -6.178  1.00  0.00     0.031 C 
ATOM     65  C   UNL     1       7.728  -3.769  -9.019  1.00  0.00     0.029 A 
ATOM     66  C   UNL     1       6.850  -4.669  -9.597  1.00  0.00     0.049 A 
ATOM     67  H   UNL     1       5.725  -4.482 -11.367  1.00  0.00     0.167 HD
ATOM     68  C   UNL     1       5.793  -6.150  -8.052  1.00  0.00     0.074 A 
ATOM     69  C   UNL     1       5.408  -7.289  -7.240  1.00  0.00     0.031 C 
ATOM     70  C   UNL     1       6.459  -6.024  -9.237  1.00  0.00     0.037 A 
BRANCH  57  71
ATOM     71  C   UNL     1       6.827  -0.949 -12.743  1.00  0.00     0.057 A 
ATOM     72  C   UNL     1       8.209  -0.687 -12.664  1.00  0.00     0.134 A 
ATOM     73  C   UNL     1       6.176  -0.297 -13.804  1.00  0.00     0.134 A 
ATOM     74  F   UNL     1       8.999  -1.325 -11.792  1.00  0.00    -0.206 F 
ATOM     75  C   UNL     1       8.854   0.255 -13.476  1.00  0.00     0.040 A 
ATOM     76  C   UNL     1       6.793   0.691 -14.586  1.00  0.00     0.040 A 
ATOM     77  F   UNL     1       4.925  -0.622 -14.157  1.00  0.00    -0.206 F 
ATOM     78  C   UNL     1       8.136   0.984 -14.410  1.00  0.00     0.006 A 
ENDBRANCH  57  71
BRANCH  58  79
ATOM     79  C   UNL     1       2.440  -4.786  -4.966  1.00  0.00     0.057 A 
ATOM     80  C   UNL     1       2.058  -4.233  -3.729  1.00  0.00     0.134 A 
ATOM     81  C   UNL     1       1.419  -5.134  -5.853  1.00  0.00     0.134 A 
ATOM     82  F   UNL     1       2.992  -3.889  -2.827  1.00  0.00    -0.206 F 
ATOM     83  C   UNL     1       0.732  -3.893  -3.453  1.00  0.00     0.040 A 
ATOM     84  C   UNL     1       0.084  -4.820  -5.575  1.00  0.00     0.040 A 
ATOM     85  F   UNL     1       1.704  -5.661  -7.052  1.00  0.00    -0.206 F 
ATOM     86  C   UNL     1      -0.255  -4.151  -4.398  1.00  0.00     0.006 A 
ENDBRANCH  58  79
BRANCH  70  87
ATOM     87  C   UNL     1       6.877  -7.170 -10.116  1.00  0.00     0.057 A 
ATOM     88  C   UNL     1       6.133  -8.347 -10.274  1.00  0.00     0.134 A 
ATOM     89  C   UNL     1       8.011  -7.053 -10.948  1.00  0.00     0.134 A 
ATOM     90  F   UNL     1       4.974  -8.533  -9.625  1.00  0.00    -0.206 F 
ATOM     91  C   UNL     1       6.525  -9.369 -11.148  1.00  0.00     0.040 A 
ATOM     92  C   UNL     1       8.385  -8.045 -11.858  1.00  0.00     0.040 A 
ATOM     93  F   UNL     1       8.791  -5.963 -10.920  1.00  0.00    -0.206 F 
ATOM     94  C   UNL     1       7.650  -9.218 -11.949  1.00  0.00     0.006 A 
ENDBRANCH  70  87
ENDBRANCH  44  45
ENDBRANCH  36  39
ENDBRANCH  34  35
ENDBRANCH  33  34
ENDBRANCH   1  33
TORSDOF 16
