REMARK SMILES Cc1[nH]cnc1C[NH+]1CCC(Oc2cccc(F)c2)(C(=O)NCCCNC(=O)c2ccc(-c3c4nc(c(-c5c(F)cccc5F)c5ccc([nH]5)c(-c5c(F)cccc5F)c5nc(c(-c6c(F)cccc6F)c6ccc3[nH]6)C=C5)C=C4)cc2)CC1
REMARK SMILES IDX 24 1 23 2 22 3 20 4 21 5 11 7 8 8 9 9 84 10 10 12 83 13 7 14
REMARK SMILES IDX 6 15 1 16 2 17 3 18 4 19 5 21 12 22 13 23 14 24 19 25 15 26
REMARK SMILES IDX 17 27 16 28 18 29 25 30 26 31 27 32 28 34 29 35 30 36 82 37
REMARK SMILES IDX 31 38 81 39 32 40 33 41 34 42 75 43 35 44 80 45 74 46 76 47
REMARK SMILES IDX 36 48 79 49 73 50 72 51 37 53 63 54 46 55 62 56 47 57 50 58
REMARK SMILES IDX 61 59 77 60 48 61 49 62 60 64 78 65 51 66 38 67 39 68 44 69
REMARK SMILES IDX 40 70 41 71 43 72 45 73 42 74 64 75 65 76 70 77 66 78 67 79
REMARK SMILES IDX 69 80 71 81 68 82 52 83 53 84 58 85 54 86 55 87 57 88 59 89
REMARK SMILES IDX 56 90
REMARK H PARENT 22 6 8 11 3 20 26 33 76 52 50 63
REMARK Flexibility Score: inf
ROOT
ATOM      1  C   UNL     1       0.039  -1.462   6.618  1.00  0.00     0.042 C 
ENDROOT
BRANCH   1   2
ATOM      2  C   UNL     1      -1.264  -2.220   6.395  1.00  0.00     0.118 C 
BRANCH   2   3
ATOM      3  N   UNL     1      -2.029  -1.685   5.282  1.00  0.00    -0.353 N 
ATOM      4  C   UNL     1      -2.386  -2.241   4.085  1.00  0.00     0.264 C 
ATOM      5  O   UNL     1      -3.193  -1.582   3.421  1.00  0.00    -0.270 OA
ATOM      6  H   UNL     1      -2.345  -0.762   5.413  1.00  0.00     0.163 HD
BRANCH   4   7
ATOM      7  C   UNL     1      -1.814  -3.607   3.602  1.00  0.00     0.197 C 
ATOM      8  N   UNL     1      -0.492  -3.127   1.032  1.00  0.00    -0.330 N 
ATOM      9  C   UNL     1       0.102  -2.614   2.264  1.00  0.00     0.267 C 
ATOM     10  C   UNL     1      -1.959  -3.124   1.091  1.00  0.00     0.267 C 
ATOM     11  H   UNL     1      -0.196  -4.100   0.957  1.00  0.00     0.348 HD
ATOM     12  C   UNL     1      -0.288  -3.526   3.426  1.00  0.00     0.120 C 
ATOM     13  C   UNL     1      -2.460  -3.993   2.253  1.00  0.00     0.120 C 
BRANCH   8  14
ATOM     14  C   UNL     1       0.023  -2.462  -0.184  1.00  0.00     0.321 C 
BRANCH  14  15
ATOM     15  C   UNL     1      -0.132  -0.967  -0.195  1.00  0.00     0.115 A 
ATOM     16  C   UNL     1       2.304  -0.018   0.083  1.00  0.00     0.066 C 
ATOM     17  C   UNL     1       0.834   0.021  -0.076  1.00  0.00     0.040 A 
ATOM     18  N   UNL     1       0.138   1.204  -0.141  1.00  0.00    -0.348 N 
ATOM     19  C   UNL     1      -1.181   0.905  -0.314  1.00  0.00     0.197 A 
ATOM     20  H   UNL     1       0.523   2.107  -0.074  1.00  0.00     0.167 HD
ATOM     21  N   UNL     1      -1.373  -0.390  -0.374  1.00  0.00    -0.236 NA
ENDBRANCH  14  15
ENDBRANCH   8  14
BRANCH   7  22
ATOM     22  O   UNL     1      -2.245  -4.478   4.683  1.00  0.00    -0.477 OA
BRANCH  22  23
ATOM     23  C   UNL     1      -2.028  -5.816   4.567  1.00  0.00     0.123 A 
ATOM     24  C   UNL     1      -0.785  -6.376   4.863  1.00  0.00     0.046 A 
ATOM     25  C   UNL     1      -3.123  -6.637   4.313  1.00  0.00     0.085 A 
ATOM     26  C   UNL     1      -0.612  -7.761   4.814  1.00  0.00     0.007 A 
ATOM     27  C   UNL     1      -2.945  -8.015   4.281  1.00  0.00     0.126 A 
ATOM     28  C   UNL     1      -1.697  -8.583   4.516  1.00  0.00     0.039 A 
ATOM     29  F   UNL     1      -3.994  -8.810   4.033  1.00  0.00    -0.207 F 
ENDBRANCH  22  23
ENDBRANCH   7  22
ENDBRANCH   4   7
ENDBRANCH   2   3
ENDBRANCH   1   2
BRANCH   1  30
ATOM     30  C   UNL     1      -0.141   0.007   6.980  1.00  0.00     0.118 C 
BRANCH  30  31
ATOM     31  N   UNL     1      -0.772   0.196   8.278  1.00  0.00    -0.352 N 
ATOM     32  C   UNL     1      -0.294   0.790   9.419  1.00  0.00     0.251 C 
ATOM     33  H   UNL     1      -1.687  -0.160   8.348  1.00  0.00     0.163 HD
ATOM     34  O   UNL     1      -0.930   0.688  10.467  1.00  0.00    -0.269 OA
BRANCH  32  35
ATOM     35  C   UNL     1       0.985   1.534   9.412  1.00  0.00     0.039 A 
ATOM     36  C   UNL     1       1.855   1.379  10.496  1.00  0.00     0.014 A 
ATOM     37  C   UNL     1       1.318   2.406   8.373  1.00  0.00     0.014 A 
ATOM     38  C   UNL     1       3.083   2.045  10.505  1.00  0.00     0.010 A 
ATOM     39  C   UNL     1       2.573   3.011   8.347  1.00  0.00     0.010 A 
ATOM     40  C   UNL     1       3.468   2.838   9.413  1.00  0.00    -0.014 A 
BRANCH  40  41
ATOM     41  C   UNL     1       4.800   3.492   9.367  1.00  0.00     0.031 A 
ATOM     42  C   UNL     1       4.911   4.991   9.366  1.00  0.00     0.074 A 
ATOM     43  C   UNL     1       5.911   2.735   9.266  1.00  0.00     0.049 A 
ATOM     44  N   UNL     1       5.977   5.740   9.243  1.00  0.00    -0.248 NA
ATOM     45  C   UNL     1       3.657   5.749   9.497  1.00  0.00     0.031 C 
ATOM     46  C   UNL     1       5.936   1.272   9.224  1.00  0.00     0.029 A 
ATOM     47  N   UNL     1       7.233   3.094   9.175  1.00  0.00    -0.354 N 
ATOM     48  C   UNL     1       5.523   7.052   9.267  1.00  0.00     0.074 A 
ATOM     49  C   UNL     1       4.081   6.998   9.371  1.00  0.00     0.031 C 
ATOM     50  C   UNL     1       7.211   0.858   9.143  1.00  0.00     0.029 A 
ATOM     51  C   UNL     1       8.089   2.023   9.087  1.00  0.00     0.049 A 
ATOM     52  H   UNL     1       7.538   4.029   9.172  1.00  0.00     0.167 HD
ATOM     53  C   UNL     1       6.244   8.197   9.227  1.00  0.00     0.037 A 
ATOM     54  C   UNL     1       9.430   1.982   8.970  1.00  0.00     0.037 A 
ATOM     55  C   UNL     1       7.680   8.251   9.160  1.00  0.00     0.049 A 
ATOM     56  C   UNL     1      10.207   3.267   8.925  1.00  0.00     0.074 A 
ATOM     57  C   UNL     1       8.500   9.365   9.170  1.00  0.00     0.029 A 
ATOM     58  N   UNL     1       8.509   7.143   9.079  1.00  0.00    -0.354 N 
ATOM     59  N   UNL     1       9.765   4.499   8.982  1.00  0.00    -0.248 NA
ATOM     60  C   UNL     1      11.668   3.157   8.798  1.00  0.00     0.031 C 
ATOM     61  C   UNL     1       9.825   8.934   9.059  1.00  0.00     0.029 A 
ATOM     62  C   UNL     1       9.832   7.549   9.021  1.00  0.00     0.049 A 
ATOM     63  H   UNL     1       8.204   6.207   9.064  1.00  0.00     0.167 HD
ATOM     64  C   UNL     1      10.890   5.310   8.920  1.00  0.00     0.074 A 
ATOM     65  C   UNL     1      12.037   4.430   8.829  1.00  0.00     0.031 C 
ATOM     66  C   UNL     1      10.964   6.662   8.936  1.00  0.00     0.037 A 
BRANCH  53  67
ATOM     67  C   UNL     1       5.493   9.494   9.271  1.00  0.00     0.057 A 
ATOM     68  C   UNL     1       5.428  10.323   8.145  1.00  0.00     0.134 A 
ATOM     69  C   UNL     1       4.886   9.952  10.448  1.00  0.00     0.134 A 
ATOM     70  F   UNL     1       5.994   9.946   6.988  1.00  0.00    -0.206 F 
ATOM     71  C   UNL     1       4.794  11.566   8.189  1.00  0.00     0.040 A 
ATOM     72  C   UNL     1       4.229  11.182  10.499  1.00  0.00     0.040 A 
ATOM     73  F   UNL     1       4.904   9.199  11.558  1.00  0.00    -0.206 F 
ATOM     74  C   UNL     1       4.190  11.997   9.369  1.00  0.00     0.006 A 
ENDBRANCH  53  67
BRANCH  54  75
ATOM     75  C   UNL     1      10.122   0.671   8.920  1.00  0.00     0.057 A 
ATOM     76  C   UNL     1      10.041  -0.159   7.796  1.00  0.00     0.134 A 
ATOM     77  C   UNL     1      10.860   0.208  10.015  1.00  0.00     0.134 A 
ATOM     78  F   UNL     1       9.342   0.227   6.718  1.00  0.00    -0.206 F 
ATOM     79  C   UNL     1      10.659  -1.410   7.767  1.00  0.00     0.040 A 
ATOM     80  C   UNL     1      11.500  -1.032   9.992  1.00  0.00     0.040 A 
ATOM     81  F   UNL     1      10.987   0.968  11.113  1.00  0.00    -0.206 F 
ATOM     82  C   UNL     1      11.394  -1.848   8.868  1.00  0.00     0.006 A 
ENDBRANCH  54  75
BRANCH  66  83
ATOM     83  C   UNL     1      12.326   7.284   8.873  1.00  0.00     0.057 A 
ATOM     84  C   UNL     1      12.881   7.900  10.002  1.00  0.00     0.134 A 
ATOM     85  C   UNL     1      13.053   7.340   7.679  1.00  0.00     0.134 A 
ATOM     86  F   UNL     1      12.229   7.889  11.175  1.00  0.00    -0.206 F 
ATOM     87  C   UNL     1      14.107   8.564   9.941  1.00  0.00     0.040 A 
ATOM     88  C   UNL     1      14.290   7.983   7.610  1.00  0.00     0.040 A 
ATOM     89  F   UNL     1      12.579   6.759   6.566  1.00  0.00    -0.206 F 
ATOM     90  C   UNL     1      14.815   8.606   8.741  1.00  0.00     0.006 A 
ENDBRANCH  66  83
ENDBRANCH  40  41
ENDBRANCH  32  35
ENDBRANCH  30  31
ENDBRANCH   1  30
TORSDOF 14
