REMARK SMILES N#C[C@H]1CN(C(=O)[C@H]([NH3+])CC(=O)NCCCNC(=O)c2ccc(-c3c4nc(c(-c5c(F)cccc5F)c5ccc([nH]5)c(-c5c(F)cccc5F)c5nc(c(-c6c(F)cccc6F)c6ccc3[nH]6)C=C5)C=C4)cc2)CCO1
REMARK SMILES IDX 14 1 13 2 11 3 12 4 10 6 8 7 6 8 7 9 5 10 3 11 4 12 76 13
REMARK SMILES IDX 75 14 74 15 2 16 1 17 9 18 15 22 16 23 17 24 18 25 19 27
REMARK SMILES IDX 20 28 21 29 73 30 22 31 72 32 23 33 24 34 25 35 66 36 26 37
REMARK SMILES IDX 71 38 65 39 67 40 27 41 70 42 64 43 63 44 28 46 54 47 37 48
REMARK SMILES IDX 53 49 38 50 41 51 52 52 68 53 39 54 40 55 51 57 69 58 42 59
REMARK SMILES IDX 29 60 30 61 35 62 31 63 32 64 34 65 36 66 33 67 55 68 56 69
REMARK SMILES IDX 61 70 57 71 58 72 60 73 62 74 59 75 43 76 44 77 49 78 45 79
REMARK SMILES IDX 46 80 48 81 50 82 47 83
REMARK H PARENT 13 5 9 19 9 20 9 21 17 26 67 45 41 56
REMARK Flexibility Score: inf
ROOT
ATOM      1  C   UNL     1       5.428   1.453  -3.897  1.00  0.00     0.117 C 
ENDROOT
BRANCH   1   2
ATOM      2  N   UNL     1       5.257   2.817  -4.365  1.00  0.00    -0.356 N 
ATOM      3  C   UNL     1       4.410   3.790  -3.921  1.00  0.00     0.226 C 
ATOM      4  O   UNL     1       4.315   4.827  -4.577  1.00  0.00    -0.275 OA
ATOM      5  H   UNL     1       5.839   3.079  -5.114  1.00  0.00     0.163 HD
BRANCH   3   6
ATOM      6  C   UNL     1       3.701   3.636  -2.593  1.00  0.00     0.175 C 
BRANCH   6   7
ATOM      7  C   UNL     1       2.355   2.908  -2.618  1.00  0.00     0.280 C 
BRANCH   7   8
ATOM      8  C   UNL     1       1.665   2.939  -1.230  1.00  0.00     0.281 C 
ATOM      9  O   UNL     1       0.662   3.640  -1.070  1.00  0.00    -0.268 OA
BRANCH   8  10
ATOM     10  N   UNL     1       2.136   2.124  -0.204  1.00  0.00    -0.332 N 
ATOM     11  C   UNL     1       4.237   2.317   1.047  1.00  0.00     0.240 C 
ATOM     12  C   UNL     1       3.478   1.546  -0.053  1.00  0.00     0.167 C 
ATOM     13  O   UNL     1       3.500   2.224   2.289  1.00  0.00    -0.360 OA
ATOM     14  C   UNL     1       2.172   2.771   2.155  1.00  0.00     0.183 C 
ATOM     15  C   UNL     1       1.381   2.059   1.050  1.00  0.00     0.148 C 
BRANCH  11  16
ATOM     16  C   UNL     1       5.593   1.766   1.190  1.00  0.00     0.096 C 
ATOM     17  N   UNL     1       6.671   1.332   1.235  1.00  0.00    -0.195 NA
ENDBRANCH  11  16
ENDBRANCH   8  10
ENDBRANCH   7   8
BRANCH   7  18
ATOM     18  N   UNL     1       2.317   1.518  -3.107  1.00  0.00    -0.347 N 
ATOM     19  H   UNL     1       2.800   0.912  -2.444  1.00  0.00     0.345 HD
ATOM     20  H   UNL     1       2.778   1.465  -4.015  1.00  0.00     0.345 HD
ATOM     21  H   UNL     1       1.347   1.216  -3.199  1.00  0.00     0.345 HD
ENDBRANCH   7  18
ENDBRANCH   6   7
ENDBRANCH   3   6
ENDBRANCH   1   2
BRANCH   1  22
ATOM     22  C   UNL     1       4.675   0.466  -4.782  1.00  0.00     0.042 C 
BRANCH  22  23
ATOM     23  C   UNL     1       5.334   0.236  -6.130  1.00  0.00     0.118 C 
BRANCH  23  24
ATOM     24  N   UNL     1       6.556  -0.543  -6.015  1.00  0.00    -0.352 N 
ATOM     25  C   UNL     1       6.848  -1.784  -6.526  1.00  0.00     0.251 C 
ATOM     26  H   UNL     1       7.279  -0.121  -5.496  1.00  0.00     0.163 HD
ATOM     27  O   UNL     1       7.840  -2.389  -6.133  1.00  0.00    -0.269 OA
BRANCH  25  28
ATOM     28  C   UNL     1       5.957  -2.397  -7.535  1.00  0.00     0.039 A 
ATOM     29  C   UNL     1       5.679  -3.764  -7.454  1.00  0.00     0.014 A 
ATOM     30  C   UNL     1       5.404  -1.631  -8.564  1.00  0.00     0.014 A 
ATOM     31  C   UNL     1       4.799  -4.346  -8.369  1.00  0.00     0.010 A 
ATOM     32  C   UNL     1       4.452  -2.188  -9.409  1.00  0.00     0.010 A 
ATOM     33  C   UNL     1       4.149  -3.555  -9.330  1.00  0.00    -0.014 A 
BRANCH  33  34
ATOM     34  C   UNL     1       3.164  -4.132 -10.279  1.00  0.00     0.031 A 
ATOM     35  C   UNL     1       3.425  -4.067 -11.760  1.00  0.00     0.074 A 
ATOM     36  C   UNL     1       2.008  -4.646  -9.817  1.00  0.00     0.049 A 
ATOM     37  N   UNL     1       2.648  -4.417 -12.753  1.00  0.00    -0.248 NA
ATOM     38  C   UNL     1       4.721  -3.510 -12.181  1.00  0.00     0.031 C 
ATOM     39  C   UNL     1       1.624  -4.734  -8.406  1.00  0.00     0.029 A 
ATOM     40  N   UNL     1       0.934  -5.178 -10.486  1.00  0.00    -0.354 N 
ATOM     41  C   UNL     1       3.352  -4.107 -13.910  1.00  0.00     0.074 A 
ATOM     42  C   UNL     1       4.593  -3.488 -13.499  1.00  0.00     0.031 C 
ATOM     43  C   UNL     1       0.412  -5.304  -8.315  1.00  0.00     0.029 A 
ATOM     44  C   UNL     1      -0.091  -5.571  -9.659  1.00  0.00     0.049 A 
ATOM     45  H   UNL     1       0.901  -5.270 -11.465  1.00  0.00     0.167 HD
ATOM     46  C   UNL     1       3.006  -4.338 -15.198  1.00  0.00     0.037 A 
ATOM     47  C   UNL     1      -1.308  -6.070  -9.952  1.00  0.00     0.037 A 
ATOM     48  C   UNL     1       1.775  -4.967 -15.599  1.00  0.00     0.049 A 
ATOM     49  C   UNL     1      -1.685  -6.278 -11.395  1.00  0.00     0.074 A 
ATOM     50  C   UNL     1       1.353  -5.293 -16.876  1.00  0.00     0.029 A 
ATOM     51  N   UNL     1       0.767  -5.357 -14.731  1.00  0.00    -0.354 N 
ATOM     52  N   UNL     1      -0.982  -6.042 -12.476  1.00  0.00    -0.248 NA
ATOM     53  C   UNL     1      -3.023  -6.826 -11.659  1.00  0.00     0.031 C 
ATOM     54  C   UNL     1       0.060  -5.815 -16.786  1.00  0.00     0.029 A 
ATOM     55  C   UNL     1      -0.291  -5.889 -15.448  1.00  0.00     0.049 A 
ATOM     56  H   UNL     1       0.798  -5.268 -13.751  1.00  0.00     0.167 HD
ATOM     57  C   UNL     1      -1.775  -6.448 -13.543  1.00  0.00     0.074 A 
ATOM     58  C   UNL     1      -3.007  -6.955 -12.977  1.00  0.00     0.031 C 
ATOM     59  C   UNL     1      -1.505  -6.408 -14.870  1.00  0.00     0.037 A 
BRANCH  46  60
ATOM     60  C   UNL     1       3.964  -3.902 -16.270  1.00  0.00     0.057 A 
ATOM     61  C   UNL     1       5.207  -4.523 -16.452  1.00  0.00     0.134 A 
ATOM     62  C   UNL     1       3.618  -2.880 -17.163  1.00  0.00     0.134 A 
ATOM     63  F   UNL     1       5.607  -5.502 -15.626  1.00  0.00    -0.206 F 
ATOM     64  C   UNL     1       6.081  -4.125 -17.466  1.00  0.00     0.040 A 
ATOM     65  C   UNL     1       4.468  -2.497 -18.201  1.00  0.00     0.040 A 
ATOM     66  F   UNL     1       2.440  -2.247 -17.052  1.00  0.00    -0.206 F 
ATOM     67  C   UNL     1       5.707  -3.116 -18.350  1.00  0.00     0.006 A 
ENDBRANCH  46  60
BRANCH  47  68
ATOM     68  C   UNL     1      -2.264  -6.405  -8.864  1.00  0.00     0.057 A 
ATOM     69  C   UNL     1      -2.654  -7.728  -8.623  1.00  0.00     0.134 A 
ATOM     70  C   UNL     1      -2.835  -5.411  -8.058  1.00  0.00     0.134 A 
ATOM     71  F   UNL     1      -2.156  -8.725  -9.369  1.00  0.00    -0.206 F 
ATOM     72  C   UNL     1      -3.600  -8.047  -7.646  1.00  0.00     0.040 A 
ATOM     73  C   UNL     1      -3.756  -5.720  -7.056  1.00  0.00     0.040 A 
ATOM     74  F   UNL     1      -2.497  -4.124  -8.227  1.00  0.00    -0.206 F 
ATOM     75  C   UNL     1      -4.151  -7.041  -6.857  1.00  0.00     0.006 A 
ENDBRANCH  47  68
BRANCH  59  76
ATOM     76  C   UNL     1      -2.532  -6.978 -15.807  1.00  0.00     0.057 A 
ATOM     77  C   UNL     1      -3.761  -6.351 -16.041  1.00  0.00     0.134 A 
ATOM     78  C   UNL     1      -2.254  -8.145 -16.533  1.00  0.00     0.134 A 
ATOM     79  F   UNL     1      -4.096  -5.237 -15.372  1.00  0.00    -0.206 F 
ATOM     80  C   UNL     1      -4.686  -6.874 -16.947  1.00  0.00     0.040 A 
ATOM     81  C   UNL     1      -3.154  -8.658 -17.466  1.00  0.00     0.040 A 
ATOM     82  F   UNL     1      -1.090  -8.791 -16.365  1.00  0.00    -0.206 F 
ATOM     83  C   UNL     1      -4.378  -8.025 -17.671  1.00  0.00     0.006 A 
ENDBRANCH  59  76
ENDBRANCH  33  34
ENDBRANCH  25  28
ENDBRANCH  23  24
ENDBRANCH  22  23
ENDBRANCH   1  22
TORSDOF 15
