REMARK SMILES Cc1ccc(/C=C2/SC(=O)N(CC(=O)NCCCNC(=O)c3ccc(-c4c5nc(c(-c6c(F)cccc6F)c6ccc([nH]6)c(-c6c(F)cccc6F)c6nc(c(-c7c(F)cccc7F)c7ccc4[nH]7)C=C6)C=C5)cc3)C2=O)cc1
REMARK SMILES IDX 17 1 16 2 15 3 13 4 14 5 12 7 11 8 6 9 7 10 8 11 76 12 9 13
REMARK SMILES IDX 77 14 10 15 5 16 1 17 2 18 3 19 79 20 4 21 78 22 18 23 19 24
REMARK SMILES IDX 20 25 21 27 22 28 23 29 75 30 24 31 74 32 25 33 26 34 27 35
REMARK SMILES IDX 68 36 28 37 73 38 67 39 69 40 29 41 72 42 66 43 65 44 30 46
REMARK SMILES IDX 56 47 39 48 55 49 40 50 43 51 54 52 70 53 41 54 42 55 53 57
REMARK SMILES IDX 71 58 44 59 31 60 32 61 37 62 33 63 34 64 36 65 38 66 35 67
REMARK SMILES IDX 57 68 58 69 63 70 59 71 60 72 62 73 64 74 61 75 45 76 46 77
REMARK SMILES IDX 51 78 47 79 48 80 50 81 52 82 49 83
REMARK H PARENT 15 6 19 26 69 45 43 56
REMARK Flexibility Score: inf
ROOT
ATOM      1  C   UNL     1      -5.344   4.482  -2.123  1.00  0.00     0.042 C 
ENDROOT
BRANCH   1   2
ATOM      2  C   UNL     1      -4.985   4.644  -3.590  1.00  0.00     0.117 C 
BRANCH   2   3
ATOM      3  N   UNL     1      -3.563   4.485  -3.824  1.00  0.00    -0.354 N 
ATOM      4  C   UNL     1      -2.889   3.415  -4.340  1.00  0.00     0.240 C 
ATOM      5  O   UNL     1      -1.715   3.592  -4.671  1.00  0.00    -0.273 OA
ATOM      6  H   UNL     1      -3.005   5.257  -3.577  1.00  0.00     0.163 HD
BRANCH   4   7
ATOM      7  C   UNL     1      -3.591   2.072  -4.571  1.00  0.00     0.229 C 
BRANCH   7   8
ATOM      8  N   UNL     1      -4.031   1.469  -3.325  1.00  0.00    -0.259 N 
ATOM      9  C   UNL     1      -3.215   0.028  -0.084  1.00  0.00     0.029 C 
ATOM     10  C   UNL     1      -3.791   0.448  -1.220  1.00  0.00     0.083 C 
ATOM     11  S   UNL     1      -5.500   0.496  -1.456  1.00  0.00    -0.022 SA
ATOM     12  C   UNL     1      -3.108   0.959  -2.446  1.00  0.00     0.268 C 
ATOM     13  C   UNL     1      -5.349   1.254  -3.034  1.00  0.00     0.294 C 
ATOM     14  O   UNL     1      -1.905   0.922  -2.653  1.00  0.00    -0.268 OA
ATOM     15  O   UNL     1      -6.310   1.539  -3.720  1.00  0.00    -0.261 OA
BRANCH   9  16
ATOM     16  C   UNL     1      -1.765   0.007   0.120  1.00  0.00    -0.024 A 
ATOM     17  C   UNL     1       2.538  -0.056   0.081  1.00  0.00     0.044 C 
ATOM     18  C   UNL     1       1.040  -0.030   0.165  1.00  0.00    -0.051 A 
ATOM     19  C   UNL     1       0.316  -1.227   0.100  1.00  0.00     0.004 A 
ATOM     20  C   UNL     1       0.349   1.181   0.267  1.00  0.00     0.004 A 
ATOM     21  C   UNL     1      -1.080  -1.210   0.078  1.00  0.00     0.008 A 
ATOM     22  C   UNL     1      -1.046   1.200   0.256  1.00  0.00     0.008 A 
ENDBRANCH   9  16
ENDBRANCH   7   8
ENDBRANCH   4   7
ENDBRANCH   2   3
ENDBRANCH   1   2
BRANCH   1  23
ATOM     23  C   UNL     1      -5.083   5.730  -1.296  1.00  0.00     0.118 C 
BRANCH  23  24
ATOM     24  N   UNL     1      -6.116   6.758  -1.437  1.00  0.00    -0.352 N 
ATOM     25  C   UNL     1      -6.363   7.916  -0.717  1.00  0.00     0.251 C 
ATOM     26  H   UNL     1      -6.748   6.598  -2.175  1.00  0.00     0.163 HD
ATOM     27  O   UNL     1      -7.302   8.635  -1.048  1.00  0.00    -0.269 OA
BRANCH  25  28
ATOM     28  C   UNL     1      -5.398   8.402   0.306  1.00  0.00     0.039 A 
ATOM     29  C   UNL     1      -5.048   9.757   0.205  1.00  0.00     0.014 A 
ATOM     30  C   UNL     1      -4.526   7.504   0.890  1.00  0.00     0.014 A 
ATOM     31  C   UNL     1      -3.710  10.105   0.278  1.00  0.00     0.010 A 
ATOM     32  C   UNL     1      -3.194   7.780   0.750  1.00  0.00     0.010 A 
ATOM     33  C   UNL     1      -2.796   9.068   0.376  1.00  0.00    -0.014 A 
BRANCH  33  34
ATOM     34  C   UNL     1      -1.371   9.201   0.190  1.00  0.00     0.031 A 
ATOM     35  C   UNL     1      -0.559   9.209   1.416  1.00  0.00     0.074 A 
ATOM     36  C   UNL     1      -0.873   9.052  -1.057  1.00  0.00     0.049 A 
ATOM     37  N   UNL     1       0.690   9.485   1.459  1.00  0.00    -0.248 NA
ATOM     38  C   UNL     1      -1.125   8.928   2.734  1.00  0.00     0.031 C 
ATOM     39  C   UNL     1       0.494   8.732  -1.452  1.00  0.00     0.029 A 
ATOM     40  N   UNL     1      -1.515   9.350  -2.267  1.00  0.00    -0.354 N 
ATOM     41  C   UNL     1       1.154   9.132   2.709  1.00  0.00     0.074 A 
ATOM     42  C   UNL     1      -0.026   8.874   3.489  1.00  0.00     0.031 C 
ATOM     43  C   UNL     1       0.685   9.127  -2.723  1.00  0.00     0.029 A 
ATOM     44  C   UNL     1      -0.509   9.851  -3.125  1.00  0.00     0.049 A 
ATOM     45  H   UNL     1      -2.470   9.234  -2.477  1.00  0.00     0.167 HD
ATOM     46  C   UNL     1       2.499   8.974   2.854  1.00  0.00     0.037 A 
ATOM     47  C   UNL     1      -0.521  11.165  -3.502  1.00  0.00     0.037 A 
ATOM     48  C   UNL     1       3.168   9.432   1.635  1.00  0.00     0.049 A 
ATOM     49  C   UNL     1       0.669  11.919  -2.954  1.00  0.00     0.074 A 
ATOM     50  C   UNL     1       3.615   8.761   0.508  1.00  0.00     0.029 A 
ATOM     51  N   UNL     1       3.067  10.775   1.283  1.00  0.00    -0.354 N 
ATOM     52  N   UNL     1       1.293  11.600  -1.850  1.00  0.00    -0.248 NA
ATOM     53  C   UNL     1       1.297  13.037  -3.651  1.00  0.00     0.031 C 
ATOM     54  C   UNL     1       3.697   9.704  -0.551  1.00  0.00     0.029 A 
ATOM     55  C   UNL     1       3.329  10.947  -0.061  1.00  0.00     0.049 A 
ATOM     56  H   UNL     1       2.840  11.502   1.907  1.00  0.00     0.167 HD
ATOM     57  C   UNL     1       2.392  12.406  -1.700  1.00  0.00     0.074 A 
ATOM     58  C   UNL     1       2.345  13.293  -2.848  1.00  0.00     0.031 C 
ATOM     59  C   UNL     1       3.280  12.270  -0.668  1.00  0.00     0.037 A 
BRANCH  46  60
ATOM     60  C   UNL     1       3.196   8.187   3.943  1.00  0.00     0.057 A 
ATOM     61  C   UNL     1       4.518   7.736   3.740  1.00  0.00     0.134 A 
ATOM     62  C   UNL     1       2.637   7.774   5.166  1.00  0.00     0.134 A 
ATOM     63  F   UNL     1       5.221   8.081   2.654  1.00  0.00    -0.206 F 
ATOM     64  C   UNL     1       5.192   6.897   4.638  1.00  0.00     0.040 A 
ATOM     65  C   UNL     1       3.293   6.918   6.065  1.00  0.00     0.040 A 
ATOM     66  F   UNL     1       1.445   8.196   5.590  1.00  0.00    -0.206 F 
ATOM     67  C   UNL     1       4.574   6.468   5.799  1.00  0.00     0.006 A 
ENDBRANCH  46  60
BRANCH  47  68
ATOM     68  C   UNL     1      -1.911  11.681  -3.672  1.00  0.00     0.057 A 
ATOM     69  C   UNL     1      -2.679  11.113  -4.708  1.00  0.00     0.134 A 
ATOM     70  C   UNL     1      -2.613  12.257  -2.608  1.00  0.00     0.134 A 
ATOM     71  F   UNL     1      -2.070  10.574  -5.776  1.00  0.00    -0.206 F 
ATOM     72  C   UNL     1      -4.062  10.944  -4.595  1.00  0.00     0.040 A 
ATOM     73  C   UNL     1      -4.004  12.116  -2.501  1.00  0.00     0.040 A 
ATOM     74  F   UNL     1      -1.960  12.826  -1.586  1.00  0.00    -0.206 F 
ATOM     75  C   UNL     1      -4.721  11.400  -3.460  1.00  0.00     0.006 A 
ENDBRANCH  47  68
BRANCH  59  76
ATOM     76  C   UNL     1       4.266  13.323  -0.206  1.00  0.00     0.057 A 
ATOM     77  C   UNL     1       4.149  14.691  -0.493  1.00  0.00     0.134 A 
ATOM     78  C   UNL     1       5.303  13.001   0.703  1.00  0.00     0.134 A 
ATOM     79  F   UNL     1       3.136  15.178  -1.222  1.00  0.00    -0.206 F 
ATOM     80  C   UNL     1       5.039  15.649   0.010  1.00  0.00     0.040 A 
ATOM     81  C   UNL     1       6.150  13.957   1.270  1.00  0.00     0.040 A 
ATOM     82  F   UNL     1       5.528  11.746   1.117  1.00  0.00    -0.206 F 
ATOM     83  C   UNL     1       6.037  15.286   0.904  1.00  0.00     0.006 A 
ENDBRANCH  59  76
ENDBRANCH  33  34
ENDBRANCH  25  28
ENDBRANCH  23  24
ENDBRANCH   1  23
TORSDOF 12
