REMARK SMILES C[C@H]1[C@@H](C(=O)NCCCNC(=O)c2ccc(-c3c4nc(c(-c5c(F)cccc5F)c5ccc([nH]5)c(-c5c(F)cccc5F)c5nc(c(-c6c(F)cccc6F)c6ccc3[nH]6)C=C5)C=C4)cc2)CCN1C(=O)N[C@@H]1CC[N@H+]2CCCC[C@H]12
REMARK SMILES IDX 8 1 7 2 6 3 4 4 5 5 3 7 1 8 2 9 69 10 67 11 68 12 70 13
REMARK SMILES IDX 71 14 72 15 73 17 74 18 81 19 75 20 76 21 80 22 77 23 79 25
REMARK SMILES IDX 78 26 9 27 10 28 11 29 12 31 13 32 14 33 66 34 15 35 65 36
REMARK SMILES IDX 16 37 17 38 18 39 59 40 19 41 64 42 58 43 60 44 20 45 63 46
REMARK SMILES IDX 57 47 56 48 21 50 47 51 30 52 46 53 31 54 34 55 45 56 61 57
REMARK SMILES IDX 32 58 33 59 44 61 62 62 35 63 22 64 23 65 28 66 24 67 25 68
REMARK SMILES IDX 27 69 29 70 26 71 48 72 49 73 54 74 50 75 51 76 53 77 55 78
REMARK SMILES IDX 52 79 36 80 37 81 42 82 38 83 39 84 41 85 43 86 40 87
REMARK H PARENT 6 6 72 16 76 24 10 30 60 49 34 60
REMARK Flexibility Score: inf
ROOT
ATOM      1  C   UNL     1      -3.697  -5.470  -0.701  1.00  0.00     0.042 C 
ENDROOT
BRANCH   1   2
ATOM      2  C   UNL     1      -2.438  -6.267  -1.021  1.00  0.00     0.117 C 
BRANCH   2   3
ATOM      3  N   UNL     1      -1.600  -5.607  -2.003  1.00  0.00    -0.356 N 
ATOM      4  C   UNL     1      -0.372  -5.034  -1.873  1.00  0.00     0.225 C 
ATOM      5  O   UNL     1       0.190  -4.692  -2.910  1.00  0.00    -0.275 OA
ATOM      6  H   UNL     1      -1.980  -5.567  -2.911  1.00  0.00     0.163 HD
BRANCH   4   7
ATOM      7  C   UNL     1       0.253  -4.933  -0.489  1.00  0.00     0.102 C 
ATOM      8  C   UNL     1       1.252  -2.648  -1.247  1.00  0.00     0.032 C 
ATOM      9  C   UNL     1       1.169  -3.724  -0.172  1.00  0.00     0.096 C 
ATOM     10  N   UNL     1       2.483  -4.283   0.140  1.00  0.00    -0.321 N 
ATOM     11  C   UNL     1       1.129  -6.165  -0.237  1.00  0.00     0.037 C 
ATOM     12  C   UNL     1       2.550  -5.644  -0.362  1.00  0.00     0.122 C 
BRANCH  10  13
ATOM     13  C   UNL     1       3.597  -3.727   0.692  1.00  0.00     0.318 C 
ATOM     14  O   UNL     1       4.673  -4.335   0.701  1.00  0.00    -0.249 OA
ATOM     15  N   UNL     1       3.618  -2.509   1.267  1.00  0.00    -0.329 N 
ATOM     16  H   UNL     1       4.535  -2.239   1.502  1.00  0.00     0.165 HD
BRANCH  15  17
ATOM     17  C   UNL     1       2.649  -1.480   1.636  1.00  0.00     0.147 C 
ATOM     18  C   UNL     1       2.733  -0.256   0.703  1.00  0.00     0.092 C 
ATOM     19  C   UNL     1       2.857  -0.863   3.038  1.00  0.00     0.207 C 
ATOM     20  C   UNL     1       2.837   0.962   1.609  1.00  0.00     0.264 C 
ATOM     21  N   UNL     1       3.525   0.420   2.771  1.00  0.00    -0.331 N 
ATOM     22  C   UNL     1       3.652  -1.637   4.082  1.00  0.00     0.067 C 
ATOM     23  C   UNL     1       3.482   1.291   3.941  1.00  0.00     0.262 C 
ATOM     24  H   UNL     1       4.521   0.320   2.578  1.00  0.00     0.348 HD
ATOM     25  C   UNL     1       3.713  -0.811   5.372  1.00  0.00     0.012 C 
ATOM     26  C   UNL     1       4.212   0.616   5.109  1.00  0.00     0.062 C 
ENDBRANCH  15  17
ENDBRANCH  10  13
ENDBRANCH   4   7
ENDBRANCH   2   3
ENDBRANCH   1   2
BRANCH   1  27
ATOM     27  C   UNL     1      -4.538  -5.099  -1.922  1.00  0.00     0.118 C 
BRANCH  27  28
ATOM     28  N   UNL     1      -4.874  -6.247  -2.753  1.00  0.00    -0.352 N 
ATOM     29  C   UNL     1      -6.090  -6.745  -3.141  1.00  0.00     0.251 C 
ATOM     30  H   UNL     1      -4.098  -6.750  -3.092  1.00  0.00     0.163 HD
ATOM     31  O   UNL     1      -6.144  -7.836  -3.707  1.00  0.00    -0.269 OA
BRANCH  29  32
ATOM     32  C   UNL     1      -7.334  -5.999  -2.868  1.00  0.00     0.039 A 
ATOM     33  C   UNL     1      -8.460  -6.710  -2.443  1.00  0.00     0.014 A 
ATOM     34  C   UNL     1      -7.408  -4.616  -3.050  1.00  0.00     0.014 A 
ATOM     35  C   UNL     1      -9.636  -6.025  -2.138  1.00  0.00     0.010 A 
ATOM     36  C   UNL     1      -8.554  -3.925  -2.666  1.00  0.00     0.010 A 
ATOM     37  C   UNL     1      -9.681  -4.623  -2.208  1.00  0.00    -0.014 A 
BRANCH  37  38
ATOM     38  C   UNL     1     -10.897  -3.880  -1.791  1.00  0.00     0.031 A 
ATOM     39  C   UNL     1     -11.664  -3.048  -2.781  1.00  0.00     0.074 A 
ATOM     40  C   UNL     1     -11.283  -3.918  -0.501  1.00  0.00     0.049 A 
ATOM     41  N   UNL     1     -12.730  -2.312  -2.591  1.00  0.00    -0.248 NA
ATOM     42  C   UNL     1     -11.152  -3.018  -4.160  1.00  0.00     0.031 C 
ATOM     43  C   UNL     1     -10.591  -4.642   0.568  1.00  0.00     0.029 A 
ATOM     44  N   UNL     1     -12.349  -3.332   0.133  1.00  0.00    -0.354 N 
ATOM     45  C   UNL     1     -13.013  -1.732  -3.821  1.00  0.00     0.074 A 
ATOM     46  C   UNL     1     -11.970  -2.148  -4.734  1.00  0.00     0.031 C 
ATOM     47  C   UNL     1     -11.265  -4.480   1.717  1.00  0.00     0.029 A 
ATOM     48  C   UNL     1     -12.412  -3.611   1.477  1.00  0.00     0.049 A 
ATOM     49  H   UNL     1     -13.007  -2.764  -0.331  1.00  0.00     0.167 HD
ATOM     50  C   UNL     1     -14.061  -0.947  -4.167  1.00  0.00     0.037 A 
ATOM     51  C   UNL     1     -13.291  -3.208   2.413  1.00  0.00     0.037 A 
ATOM     52  C   UNL     1     -15.102  -0.540  -3.258  1.00  0.00     0.049 A 
ATOM     53  C   UNL     1     -14.440  -2.327   2.007  1.00  0.00     0.074 A 
ATOM     54  C   UNL     1     -16.230   0.216  -3.521  1.00  0.00     0.029 A 
ATOM     55  N   UNL     1     -15.137  -0.852  -1.906  1.00  0.00    -0.354 N 
ATOM     56  N   UNL     1     -14.734  -1.844   0.825  1.00  0.00    -0.248 NA
ATOM     57  C   UNL     1     -15.384  -1.944   3.065  1.00  0.00     0.031 C 
ATOM     58  C   UNL     1     -16.921   0.406  -2.319  1.00  0.00     0.029 A 
ATOM     59  C   UNL     1     -16.255  -0.282  -1.317  1.00  0.00     0.049 A 
ATOM     60  H   UNL     1     -14.466  -1.397  -1.435  1.00  0.00     0.167 HD
ATOM     61  C   UNL     1     -15.909  -1.121   0.991  1.00  0.00     0.074 A 
ATOM     62  C   UNL     1     -16.283  -1.249   2.384  1.00  0.00     0.031 C 
ATOM     63  C   UNL     1     -16.613  -0.413   0.073  1.00  0.00     0.037 A 
BRANCH  50  64
ATOM     64  C   UNL     1     -14.133  -0.478  -5.593  1.00  0.00     0.057 A 
ATOM     65  C   UNL     1     -14.389  -1.364  -6.650  1.00  0.00     0.134 A 
ATOM     66  C   UNL     1     -13.972   0.875  -5.914  1.00  0.00     0.134 A 
ATOM     67  F   UNL     1     -14.541  -2.676  -6.416  1.00  0.00    -0.206 F 
ATOM     68  C   UNL     1     -14.450  -0.925  -7.974  1.00  0.00     0.040 A 
ATOM     69  C   UNL     1     -14.063   1.331  -7.231  1.00  0.00     0.040 A 
ATOM     70  F   UNL     1     -13.732   1.780  -4.953  1.00  0.00    -0.206 F 
ATOM     71  C   UNL     1     -14.294   0.428  -8.266  1.00  0.00     0.006 A 
ENDBRANCH  50  64
BRANCH  51  72
ATOM     72  C   UNL     1     -13.129  -3.649   3.822  1.00  0.00     0.057 A 
ATOM     73  C   UNL     1     -14.033  -4.541   4.411  1.00  0.00     0.134 A 
ATOM     74  C   UNL     1     -12.070  -3.188   4.613  1.00  0.00     0.134 A 
ATOM     75  F   UNL     1     -15.078  -5.005   3.710  1.00  0.00    -0.206 F 
ATOM     76  C   UNL     1     -13.902  -4.941   5.742  1.00  0.00     0.040 A 
ATOM     77  C   UNL     1     -11.911  -3.603   5.936  1.00  0.00     0.040 A 
ATOM     78  F   UNL     1     -11.163  -2.341   4.104  1.00  0.00    -0.206 F 
ATOM     79  C   UNL     1     -12.835  -4.476   6.507  1.00  0.00     0.006 A 
ENDBRANCH  51  72
BRANCH  63  80
ATOM     80  C   UNL     1     -17.874   0.253   0.545  1.00  0.00     0.057 A 
ATOM     81  C   UNL     1     -17.853   1.355   1.410  1.00  0.00     0.134 A 
ATOM     82  C   UNL     1     -19.126  -0.204   0.113  1.00  0.00     0.134 A 
ATOM     83  F   UNL     1     -16.688   1.835   1.871  1.00  0.00    -0.206 F 
ATOM     84  C   UNL     1     -19.032   1.956   1.855  1.00  0.00     0.040 A 
ATOM     85  C   UNL     1     -20.310   0.409   0.525  1.00  0.00     0.040 A 
ATOM     86  F   UNL     1     -19.219  -1.248  -0.724  1.00  0.00    -0.206 F 
ATOM     87  C   UNL     1     -20.265   1.486   1.407  1.00  0.00     0.006 A 
ENDBRANCH  63  80
ENDBRANCH  37  38
ENDBRANCH  29  32
ENDBRANCH  27  28
ENDBRANCH   1  27
TORSDOF 12
