REMARK SMILES CC[C@@](CC(F)(F)F)(C(=O)NCCCNC(=O)c1ccc(-c2c3nc(c(-c4c(F)cccc4F)c4ccc([nH]4)c(-c4c(F)cccc4F)c4nc(c(-c5c(F)cccc5F)c5ccc2[nH]5)C=C4)C=C3)cc1)c1ccccc1
REMARK SMILES IDX 13 1 12 2 11 3 9 4 10 5 3 7 2 8 1 9 4 10 5 11 6 12 7 13 8 14
REMARK SMILES IDX 72 15 73 16 77 17 74 18 76 19 75 20 14 21 15 22 16 23 17 25
REMARK SMILES IDX 18 26 19 27 71 28 20 29 70 30 21 31 22 32 23 33 64 34 24 35
REMARK SMILES IDX 69 36 63 37 65 38 25 39 68 40 62 41 61 42 26 44 52 45 35 46
REMARK SMILES IDX 51 47 36 48 39 49 50 50 66 51 37 52 38 53 49 55 67 56 40 57
REMARK SMILES IDX 27 58 28 59 33 60 29 61 30 62 32 63 34 64 31 65 53 66 54 67
REMARK SMILES IDX 59 68 55 69 56 70 58 71 60 72 57 73 41 74 42 75 47 76 43 77
REMARK SMILES IDX 44 78 46 79 48 80 45 81
REMARK H PARENT 11 6 15 24 65 43 39 54
REMARK Flexibility Score: inf
ROOT
ATOM      1  C   UNL     1      -3.014  -2.687  -1.285  1.00  0.00     0.042 C 
ENDROOT
BRANCH   1   2
ATOM      2  C   UNL     1      -2.192  -2.898  -0.021  1.00  0.00     0.117 C 
BRANCH   2   3
ATOM      3  N   UNL     1      -1.030  -3.745  -0.241  1.00  0.00    -0.355 N 
ATOM      4  C   UNL     1       0.317  -3.594  -0.139  1.00  0.00     0.230 C 
ATOM      5  O   UNL     1       0.924  -4.571  -0.593  1.00  0.00    -0.274 OA
ATOM      6  H   UNL     1      -1.281  -4.651  -0.535  1.00  0.00     0.163 HD
BRANCH   4   7
ATOM      7  C   UNL     1       1.043  -2.317   0.445  1.00  0.00     0.082 C 
BRANCH   7   8
ATOM      8  C   UNL     1       0.594  -1.127  -0.480  1.00  0.00     0.019 C 
ATOM      9  C   UNL     1       0.507   0.288   0.083  1.00  0.00     0.005 C 
ENDBRANCH   7   8
BRANCH   7  10
ATOM     10  C   UNL     1       0.837  -2.188   1.986  1.00  0.00     0.137 C 
BRANCH  10  11
ATOM     11  C   UNL     1      -0.524  -2.079   2.617  1.00  0.00     0.390 C 
ATOM     12  F   UNL     1      -1.243  -3.208   2.487  1.00  0.00    -0.171 F 
ATOM     13  F   UNL     1      -0.386  -1.863   3.949  1.00  0.00    -0.171 F 
ATOM     14  F   UNL     1      -1.241  -1.046   2.136  1.00  0.00    -0.171 F 
ENDBRANCH  10  11
ENDBRANCH   7  10
BRANCH   7  15
ATOM     15  C   UNL     1       2.630  -2.433   0.385  1.00  0.00    -0.032 A 
ATOM     16  C   UNL     1       3.308  -3.663   0.496  1.00  0.00     0.005 A 
ATOM     17  C   UNL     1       3.443  -1.279   0.407  1.00  0.00     0.005 A 
ATOM     18  C   UNL     1       4.706  -3.740   0.542  1.00  0.00     0.000 A 
ATOM     19  C   UNL     1       4.839  -1.351   0.474  1.00  0.00     0.000 A 
ATOM     20  C   UNL     1       5.473  -2.584   0.529  1.00  0.00     0.000 A 
ENDBRANCH   7  15
ENDBRANCH   4   7
ENDBRANCH   2   3
ENDBRANCH   1   2
BRANCH   1  21
ATOM     21  C   UNL     1      -3.643  -3.961  -1.836  1.00  0.00     0.118 C 
BRANCH  21  22
ATOM     22  N   UNL     1      -4.608  -4.564  -0.924  1.00  0.00    -0.352 N 
ATOM     23  C   UNL     1      -5.983  -4.599  -0.964  1.00  0.00     0.251 C 
ATOM     24  H   UNL     1      -4.209  -5.022  -0.150  1.00  0.00     0.163 HD
ATOM     25  O   UNL     1      -6.612  -5.005   0.005  1.00  0.00    -0.269 OA
BRANCH  23  26
ATOM     26  C   UNL     1      -6.708  -4.118  -2.160  1.00  0.00     0.039 A 
ATOM     27  C   UNL     1      -7.839  -3.314  -1.990  1.00  0.00     0.014 A 
ATOM     28  C   UNL     1      -6.279  -4.456  -3.443  1.00  0.00     0.014 A 
ATOM     29  C   UNL     1      -8.473  -2.764  -3.108  1.00  0.00     0.010 A 
ATOM     30  C   UNL     1      -6.850  -3.834  -4.548  1.00  0.00     0.010 A 
ATOM     31  C   UNL     1      -7.946  -2.972  -4.392  1.00  0.00    -0.014 A 
BRANCH  31  32
ATOM     32  C   UNL     1      -8.495  -2.284  -5.589  1.00  0.00     0.031 A 
ATOM     33  C   UNL     1      -9.034  -3.090  -6.739  1.00  0.00     0.074 A 
ATOM     34  C   UNL     1      -8.394  -0.944  -5.691  1.00  0.00     0.049 A 
ATOM     35  N   UNL     1      -9.399  -2.689  -7.930  1.00  0.00    -0.248 NA
ATOM     36  C   UNL     1      -9.144  -4.544  -6.536  1.00  0.00     0.031 C 
ATOM     37  C   UNL     1      -7.837  -0.053  -4.669  1.00  0.00     0.029 A 
ATOM     38  N   UNL     1      -8.729  -0.096  -6.718  1.00  0.00    -0.354 N 
ATOM     39  C   UNL     1      -9.742  -3.841  -8.627  1.00  0.00     0.074 A 
ATOM     40  C   UNL     1      -9.511  -4.959  -7.740  1.00  0.00     0.031 C 
ATOM     41  C   UNL     1      -7.878   1.212  -5.116  1.00  0.00     0.029 A 
ATOM     42  C   UNL     1      -8.418   1.221  -6.471  1.00  0.00     0.049 A 
ATOM     43  H   UNL     1      -9.152  -0.401  -7.553  1.00  0.00     0.167 HD
ATOM     44  C   UNL     1     -10.221  -3.952  -9.889  1.00  0.00     0.037 A 
ATOM     45  C   UNL     1      -8.531   2.308  -7.256  1.00  0.00     0.037 A 
ATOM     46  C   UNL     1     -10.506  -2.832 -10.745  1.00  0.00     0.049 A 
ATOM     47  C   UNL     1      -9.079   2.155  -8.648  1.00  0.00     0.074 A 
ATOM     48  C   UNL     1     -11.105  -2.835 -11.993  1.00  0.00     0.029 A 
ATOM     49  N   UNL     1     -10.210  -1.512 -10.444  1.00  0.00    -0.354 N 
ATOM     50  N   UNL     1      -9.485   1.070  -9.260  1.00  0.00    -0.248 NA
ATOM     51  C   UNL     1      -9.179   3.376  -9.461  1.00  0.00     0.031 C 
ATOM     52  C   UNL     1     -11.131  -1.520 -12.467  1.00  0.00     0.029 A 
ATOM     53  C   UNL     1     -10.584  -0.695 -11.497  1.00  0.00     0.049 A 
ATOM     54  H   UNL     1      -9.796  -1.202  -9.606  1.00  0.00     0.167 HD
ATOM     55  C   UNL     1      -9.908   1.479 -10.518  1.00  0.00     0.074 A 
ATOM     56  C   UNL     1      -9.724   2.914 -10.577  1.00  0.00     0.031 C 
ATOM     57  C   UNL     1     -10.401   0.732 -11.535  1.00  0.00     0.037 A 
BRANCH  44  58
ATOM     58  C   UNL     1     -10.478  -5.329 -10.423  1.00  0.00     0.057 A 
ATOM     59  C   UNL     1     -11.553  -6.108  -9.976  1.00  0.00     0.134 A 
ATOM     60  C   UNL     1      -9.677  -5.856 -11.444  1.00  0.00     0.134 A 
ATOM     61  F   UNL     1     -12.352  -5.664  -8.995  1.00  0.00    -0.206 F 
ATOM     62  C   UNL     1     -11.812  -7.370 -10.514  1.00  0.00     0.040 A 
ATOM     63  C   UNL     1      -9.940  -7.106 -12.006  1.00  0.00     0.040 A 
ATOM     64  F   UNL     1      -8.635  -5.159 -11.921  1.00  0.00    -0.206 F 
ATOM     65  C   UNL     1     -11.009  -7.868 -11.539  1.00  0.00     0.006 A 
ENDBRANCH  44  58
BRANCH  45  66
ATOM     66  C   UNL     1      -8.113   3.642  -6.755  1.00  0.00     0.057 A 
ATOM     67  C   UNL     1      -9.057   4.641  -6.490  1.00  0.00     0.134 A 
ATOM     68  C   UNL     1      -6.764   3.961  -6.553  1.00  0.00     0.134 A 
ATOM     69  F   UNL     1     -10.363   4.402  -6.683  1.00  0.00    -0.206 F 
ATOM     70  C   UNL     1      -8.676   5.915  -6.066  1.00  0.00     0.040 A 
ATOM     71  C   UNL     1      -6.370   5.223  -6.106  1.00  0.00     0.040 A 
ATOM     72  F   UNL     1      -5.810   3.046  -6.783  1.00  0.00    -0.206 F 
ATOM     73  C   UNL     1      -7.328   6.207  -5.870  1.00  0.00     0.006 A 
ENDBRANCH  45  66
BRANCH  57  74
ATOM     74  C   UNL     1     -10.797   1.452 -12.788  1.00  0.00     0.057 A 
ATOM     75  C   UNL     1      -9.841   1.939 -13.688  1.00  0.00     0.134 A 
ATOM     76  C   UNL     1     -12.147   1.608 -13.126  1.00  0.00     0.134 A 
ATOM     77  F   UNL     1      -8.532   1.832 -13.413  1.00  0.00    -0.206 F 
ATOM     78  C   UNL     1     -10.215   2.566 -14.877  1.00  0.00     0.040 A 
ATOM     79  C   UNL     1     -12.533   2.212 -14.322  1.00  0.00     0.040 A 
ATOM     80  F   UNL     1     -13.111   1.156 -12.309  1.00  0.00    -0.206 F 
ATOM     81  C   UNL     1     -11.565   2.696 -15.200  1.00  0.00     0.006 A 
ENDBRANCH  57  74
ENDBRANCH  31  32
ENDBRANCH  23  26
ENDBRANCH  21  22
ENDBRANCH   1  21
TORSDOF 14
