REMARK SMILES CS(=O)(=O)N1C[C@@H]2C[N@H+](Cc3cccnc3N)C[C@]2(C(=O)NCCCNC(=O)c2ccc(-c3c4nc(c(-c5c(F)cccc5F)c5ccc([nH]5)c(-c5c(F)cccc5F)c5nc(c(-c6c(F)cccc6F)c6ccc3[nH]6)C=C5)C=C4)cc2)C1
REMARK SMILES IDX 23 1 22 2 20 3 21 4 19 6 5 7 6 8 83 9 7 10 8 11 18 12 9 13
REMARK SMILES IDX 2 15 1 16 3 17 4 18 10 19 11 20 12 21 16 22 13 23 15 24
REMARK SMILES IDX 14 25 17 26 24 29 25 30 26 31 27 32 28 34 29 35 30 36 82 37
REMARK SMILES IDX 31 38 81 39 32 40 33 41 34 42 75 43 35 44 80 45 74 46 76 47
REMARK SMILES IDX 36 48 79 49 73 50 72 51 37 53 63 54 46 55 62 56 47 57 50 58
REMARK SMILES IDX 61 59 77 60 48 61 49 62 60 64 78 65 51 66 38 67 39 68 44 69
REMARK SMILES IDX 40 70 41 71 43 72 45 73 42 74 64 75 65 76 70 77 66 78 67 79
REMARK SMILES IDX 69 80 71 81 68 82 52 83 53 84 58 85 54 86 55 87 57 88 59 89
REMARK SMILES IDX 56 90
REMARK H PARENT 22 5 9 14 17 27 17 28 26 33 76 52 50 63
REMARK Flexibility Score: inf
ROOT
ATOM      1  C   UNL     1       1.901  -0.003  -6.666  1.00  0.00     0.117 C 
ENDROOT
BRANCH   1   2
ATOM      2  N   UNL     1       0.690   0.486  -6.040  1.00  0.00    -0.355 N 
ATOM      3  C   UNL     1      -0.215  -0.247  -5.293  1.00  0.00     0.233 C 
ATOM      4  O   UNL     1      -1.323   0.256  -5.103  1.00  0.00    -0.274 OA
ATOM      5  H   UNL     1       0.488   1.443  -6.159  1.00  0.00     0.163 HD
BRANCH   3   6
ATOM      6  C   UNL     1       0.250  -1.665  -4.728  1.00  0.00     0.121 C 
ATOM      7  N   UNL     1       0.659  -1.877  -2.248  1.00  0.00    -0.200 NA
ATOM      8  C   UNL     1       0.300  -3.203  -2.742  1.00  0.00     0.113 C 
ATOM      9  C   UNL     1       0.193  -0.928  -3.302  1.00  0.00     0.125 C 
ATOM     10  C   UNL     1      -0.477  -2.903  -4.008  1.00  0.00     0.082 C 
ATOM     11  C   UNL     1      -0.499  -4.149  -4.895  1.00  0.00     0.268 C 
ATOM     12  C   UNL     1      -0.352  -2.235  -6.064  1.00  0.00     0.281 C 
ATOM     13  N   UNL     1      -0.045  -3.660  -6.170  1.00  0.00    -0.330 N 
ATOM     14  H   UNL     1      -0.517  -4.104  -6.958  1.00  0.00     0.348 HD
BRANCH   7  15
ATOM     15  S   UNL     1       0.196  -1.612  -0.637  1.00  0.00     0.211 S 
ATOM     16  C   UNL     1       1.012  -0.084  -0.242  1.00  0.00     0.176 C 
ATOM     17  O   UNL     1       0.796  -2.654   0.164  1.00  0.00    -0.213 OA
ATOM     18  O   UNL     1      -1.238  -1.395  -0.619  1.00  0.00    -0.213 OA
ENDBRANCH   7  15
BRANCH  13  19
ATOM     19  C   UNL     1       1.290  -4.074  -6.656  1.00  0.00     0.302 C 
BRANCH  19  20
ATOM     20  C   UNL     1       2.553  -3.839  -5.845  1.00  0.00     0.048 A 
ATOM     21  C   UNL     1       3.515  -2.910  -6.271  1.00  0.00     0.015 A 
ATOM     22  C   UNL     1       2.905  -4.573  -4.717  1.00  0.00     0.132 A 
ATOM     23  C   UNL     1       4.587  -2.553  -5.458  1.00  0.00     0.021 A 
ATOM     24  N   UNL     1       3.918  -4.230  -3.895  1.00  0.00    -0.239 NA
ATOM     25  C   UNL     1       4.710  -3.203  -4.253  1.00  0.00     0.113 A 
BRANCH  22  26
ATOM     26  N   UNL     1       2.251  -5.726  -4.341  1.00  0.00    -0.383 N 
ATOM     27  H   UNL     1       1.496  -6.061  -4.876  1.00  0.00     0.158 HD
ATOM     28  H   UNL     1       2.539  -6.215  -3.536  1.00  0.00     0.158 HD
ENDBRANCH  22  26
ENDBRANCH  19  20
ENDBRANCH  13  19
ENDBRANCH   3   6
ENDBRANCH   1   2
BRANCH   1  29
ATOM     29  C   UNL     1       1.684  -0.333  -8.147  1.00  0.00     0.042 C 
BRANCH  29  30
ATOM     30  C   UNL     1       1.979   0.825  -9.074  1.00  0.00     0.118 C 
BRANCH  30  31
ATOM     31  N   UNL     1       3.408   1.034  -9.236  1.00  0.00    -0.352 N 
ATOM     32  C   UNL     1       4.180   0.962 -10.371  1.00  0.00     0.251 C 
ATOM     33  H   UNL     1       3.895   1.261  -8.411  1.00  0.00     0.163 HD
ATOM     34  O   UNL     1       5.402   0.927 -10.263  1.00  0.00    -0.269 OA
BRANCH  32  35
ATOM     35  C   UNL     1       3.550   0.906 -11.711  1.00  0.00     0.039 A 
ATOM     36  C   UNL     1       4.160   0.152 -12.718  1.00  0.00     0.014 A 
ATOM     37  C   UNL     1       2.376   1.609 -11.991  1.00  0.00     0.014 A 
ATOM     38  C   UNL     1       3.566   0.068 -13.980  1.00  0.00     0.010 A 
ATOM     39  C   UNL     1       1.724   1.427 -13.204  1.00  0.00     0.010 A 
ATOM     40  C   UNL     1       2.325   0.678 -14.223  1.00  0.00    -0.014 A 
BRANCH  40  41
ATOM     41  C   UNL     1       1.656   0.583 -15.544  1.00  0.00     0.031 A 
ATOM     42  C   UNL     1       1.371   1.834 -16.333  1.00  0.00     0.074 A 
ATOM     43  C   UNL     1       1.251  -0.616 -16.005  1.00  0.00     0.049 A 
ATOM     44  N   UNL     1       0.735   1.971 -17.468  1.00  0.00    -0.248 NA
ATOM     45  C   UNL     1       1.833   3.106 -15.752  1.00  0.00     0.031 C 
ATOM     46  C   UNL     1       1.422  -1.893 -15.308  1.00  0.00     0.029 A 
ATOM     47  N   UNL     1       0.605  -0.957 -17.165  1.00  0.00    -0.354 N 
ATOM     48  C   UNL     1       0.709   3.336 -17.724  1.00  0.00     0.074 A 
ATOM     49  C   UNL     1       1.328   3.992 -16.596  1.00  0.00     0.031 C 
ATOM     50  C   UNL     1       0.923  -2.879 -16.069  1.00  0.00     0.029 A 
ATOM     51  C   UNL     1       0.357  -2.303 -17.283  1.00  0.00     0.049 A 
ATOM     52  H   UNL     1       0.343  -0.298 -17.849  1.00  0.00     0.167 HD
ATOM     53  C   UNL     1       0.239   3.985 -18.816  1.00  0.00     0.037 A 
ATOM     54  C   UNL     1      -0.265  -2.992 -18.258  1.00  0.00     0.037 A 
ATOM     55  C   UNL     1      -0.355   3.324 -19.948  1.00  0.00     0.049 A 
ATOM     56  C   UNL     1      -0.789  -2.249 -19.456  1.00  0.00     0.074 A 
ATOM     57  C   UNL     1      -0.814   3.880 -21.128  1.00  0.00     0.029 A 
ATOM     58  N   UNL     1      -0.575   1.956 -20.035  1.00  0.00    -0.354 N 
ATOM     59  N   UNL     1      -0.746  -0.964 -19.716  1.00  0.00    -0.248 NA
ATOM     60  C   UNL     1      -1.442  -3.052 -20.499  1.00  0.00     0.031 C 
ATOM     61  C   UNL     1      -1.361   2.856 -21.908  1.00  0.00     0.029 A 
ATOM     62  C   UNL     1      -1.186   1.653 -21.241  1.00  0.00     0.049 A 
ATOM     63  H   UNL     1      -0.333   1.299 -19.344  1.00  0.00     0.167 HD
ATOM     64  C   UNL     1      -1.338  -0.808 -20.963  1.00  0.00     0.074 A 
ATOM     65  C   UNL     1      -1.716  -2.132 -21.413  1.00  0.00     0.031 C 
ATOM     66  C   UNL     1      -1.549   0.328 -21.673  1.00  0.00     0.037 A 
BRANCH  53  67
ATOM     67  C   UNL     1       0.354   5.483 -18.838  1.00  0.00     0.057 A 
ATOM     68  C   UNL     1       1.595   6.130 -18.925  1.00  0.00     0.134 A 
ATOM     69  C   UNL     1      -0.789   6.291 -18.796  1.00  0.00     0.134 A 
ATOM     70  F   UNL     1       2.733   5.418 -18.954  1.00  0.00    -0.206 F 
ATOM     71  C   UNL     1       1.696   7.522 -18.939  1.00  0.00     0.040 A 
ATOM     72  C   UNL     1      -0.703   7.684 -18.842  1.00  0.00     0.040 A 
ATOM     73  F   UNL     1      -2.010   5.740 -18.718  1.00  0.00    -0.206 F 
ATOM     74  C   UNL     1       0.543   8.303 -18.905  1.00  0.00     0.006 A 
ENDBRANCH  53  67
BRANCH  54  75
ATOM     75  C   UNL     1      -0.405  -4.467 -18.153  1.00  0.00     0.057 A 
ATOM     76  C   UNL     1       0.294  -5.324 -19.012  1.00  0.00     0.134 A 
ATOM     77  C   UNL     1      -1.240  -5.057 -17.197  1.00  0.00     0.134 A 
ATOM     78  F   UNL     1       1.099  -4.819 -19.959  1.00  0.00    -0.206 F 
ATOM     79  C   UNL     1       0.152  -6.710 -18.939  1.00  0.00     0.040 A 
ATOM     80  C   UNL     1      -1.370  -6.443 -17.093  1.00  0.00     0.040 A 
ATOM     81  F   UNL     1      -1.930  -4.294 -16.336  1.00  0.00    -0.206 F 
ATOM     82  C   UNL     1      -0.679  -7.274 -17.973  1.00  0.00     0.006 A 
ENDBRANCH  54  75
BRANCH  66  83
ATOM     83  C   UNL     1      -2.183   0.184 -23.026  1.00  0.00     0.057 A 
ATOM     84  C   UNL     1      -3.531  -0.164 -23.182  1.00  0.00     0.134 A 
ATOM     85  C   UNL     1      -1.443   0.441 -24.188  1.00  0.00     0.134 A 
ATOM     86  F   UNL     1      -4.292  -0.434 -22.111  1.00  0.00    -0.206 F 
ATOM     87  C   UNL     1      -4.112  -0.279 -24.446  1.00  0.00     0.040 A 
ATOM     88  C   UNL     1      -2.022   0.361 -25.455  1.00  0.00     0.040 A 
ATOM     89  F   UNL     1      -0.150   0.790 -24.109  1.00  0.00    -0.206 F 
ATOM     90  C   UNL     1      -3.359  -0.007 -25.586  1.00  0.00     0.006 A 
ENDBRANCH  66  83
ENDBRANCH  40  41
ENDBRANCH  32  35
ENDBRANCH  30  31
ENDBRANCH  29  30
ENDBRANCH   1  29
TORSDOF 14
