REMARK SMILES CCC[N@H+](CC(=O)NCCCNC(=O)c1ccc(-c2c3nc(c(-c4c(F)cccc4F)c4ccc([nH]4)c(-c4c(F)cccc4F)c4nc(c(-c5c(F)cccc5F)c5ccc2[nH]5)C=C4)C=C3)cc1)[C@H]1CCOC2(CCCCC2)C1
REMARK SMILES IDX 9 1 8 2 6 3 7 4 5 6 4 7 3 9 2 10 1 11 69 12 70 13 79 14
REMARK SMILES IDX 71 15 73 16 72 17 74 18 78 19 75 20 77 21 76 22 10 23 11 24
REMARK SMILES IDX 12 25 13 26 14 28 15 29 16 30 68 31 17 32 67 33 18 34 19 35
REMARK SMILES IDX 20 36 61 37 21 38 66 39 60 40 62 41 22 42 65 43 59 44 58 45
REMARK SMILES IDX 23 47 49 48 32 49 48 50 33 51 36 52 47 53 63 54 34 55 35 56
REMARK SMILES IDX 46 58 64 59 37 60 24 61 25 62 30 63 26 64 27 65 29 66 31 67
REMARK SMILES IDX 28 68 50 69 51 70 56 71 52 72 53 73 55 74 57 75 54 76 38 77
REMARK SMILES IDX 39 78 44 79 40 80 41 81 43 82 45 83 42 84
REMARK H PARENT 8 5 4 8 12 27 62 46 36 57
REMARK Flexibility Score: inf
ROOT
ATOM      1  C   UNL     1       3.567  -0.948  -2.214  1.00  0.00     0.118 C 
ENDROOT
BRANCH   1   2
ATOM      2  N   UNL     1       4.350  -0.571  -1.044  1.00  0.00    -0.351 N 
ATOM      3  C   UNL     1       4.184  -0.816   0.294  1.00  0.00     0.275 C 
ATOM      4  O   UNL     1       5.037  -0.347   1.054  1.00  0.00    -0.269 OA
ATOM      5  H   UNL     1       5.151  -0.038  -1.255  1.00  0.00     0.163 HD
BRANCH   3   6
ATOM      6  C   UNL     1       3.006  -1.654   0.831  1.00  0.00     0.363 C 
BRANCH   6   7
ATOM      7  N   UNL     1       1.839  -0.828   1.325  1.00  0.00    -0.325 N 
ATOM      8  H   UNL     1       2.104  -0.174   2.061  1.00  0.00     0.348 HD
BRANCH   7   9
ATOM      9  C   UNL     1       1.348  -0.059   0.159  1.00  0.00     0.262 C 
BRANCH   9  10
ATOM     10  C   UNL     1       0.233   0.993   0.162  1.00  0.00     0.058 C 
ATOM     11  C   UNL     1       0.468   2.124   1.147  1.00  0.00     0.010 C 
ENDBRANCH   9  10
ENDBRANCH   7   9
BRANCH   7  12
ATOM     12  C   UNL     1       0.807  -1.712   1.956  1.00  0.00     0.189 C 
ATOM     13  C   UNL     1       1.350  -2.651   3.066  1.00  0.00     0.093 C 
ATOM     14  C   UNL     1      -0.315  -0.920   2.643  1.00  0.00     0.100 C 
ATOM     15  C   UNL     1       0.242  -3.462   3.748  1.00  0.00     0.167 C 
ATOM     16  C   UNL     1      -1.431  -1.826   3.184  1.00  0.00     0.074 C 
ATOM     17  O   UNL     1      -0.870  -2.683   4.183  1.00  0.00    -0.375 OA
ATOM     18  C   UNL     1      -2.117  -2.634   2.053  1.00  0.00     0.036 C 
ATOM     19  C   UNL     1      -2.477  -0.912   3.868  1.00  0.00     0.036 C 
ATOM     20  C   UNL     1      -3.361  -3.378   2.529  1.00  0.00     0.003 C 
ATOM     21  C   UNL     1      -3.747  -1.642   4.297  1.00  0.00     0.003 C 
ATOM     22  C   UNL     1      -4.369  -2.417   3.142  1.00  0.00     0.000 C 
ENDBRANCH   7  12
ENDBRANCH   6   7
ENDBRANCH   3   6
ENDBRANCH   1   2
BRANCH   1  23
ATOM     23  C   UNL     1       2.826   0.228  -2.866  1.00  0.00     0.042 C 
BRANCH  23  24
ATOM     24  C   UNL     1       3.726   1.340  -3.398  1.00  0.00     0.118 C 
BRANCH  24  25
ATOM     25  N   UNL     1       3.915   1.225  -4.832  1.00  0.00    -0.352 N 
ATOM     26  C   UNL     1       3.343   1.924  -5.867  1.00  0.00     0.251 C 
ATOM     27  H   UNL     1       4.558   0.532  -5.109  1.00  0.00     0.163 HD
ATOM     28  O   UNL     1       3.427   1.464  -7.004  1.00  0.00    -0.269 OA
BRANCH  26  29
ATOM     29  C   UNL     1       2.631   3.212  -5.659  1.00  0.00     0.039 A 
ATOM     30  C   UNL     1       1.542   3.511  -6.490  1.00  0.00     0.014 A 
ATOM     31  C   UNL     1       3.078   4.177  -4.753  1.00  0.00     0.014 A 
ATOM     32  C   UNL     1       0.900   4.752  -6.402  1.00  0.00     0.010 A 
ATOM     33  C   UNL     1       2.392   5.388  -4.614  1.00  0.00     0.010 A 
ATOM     34  C   UNL     1       1.313   5.702  -5.455  1.00  0.00    -0.014 A 
BRANCH  34  35
ATOM     35  C   UNL     1       0.672   7.044  -5.377  1.00  0.00     0.031 A 
ATOM     36  C   UNL     1       1.468   8.283  -5.698  1.00  0.00     0.074 A 
ATOM     37  C   UNL     1      -0.611   7.164  -4.984  1.00  0.00     0.049 A 
ATOM     38  N   UNL     1       1.115   9.542  -5.614  1.00  0.00    -0.248 NA
ATOM     39  C   UNL     1       2.853   8.080  -6.152  1.00  0.00     0.031 C 
ATOM     40  C   UNL     1      -1.493   6.056  -4.616  1.00  0.00     0.029 A 
ATOM     41  N   UNL     1      -1.395   8.280  -4.818  1.00  0.00    -0.354 N 
ATOM     42  C   UNL     1       2.238  10.277  -5.975  1.00  0.00     0.074 A 
ATOM     43  C   UNL     1       3.295   9.325  -6.242  1.00  0.00     0.031 C 
ATOM     44  C   UNL     1      -2.699   6.545  -4.286  1.00  0.00     0.029 A 
ATOM     45  C   UNL     1      -2.668   8.002  -4.384  1.00  0.00     0.049 A 
ATOM     46  H   UNL     1      -1.073   9.194  -4.994  1.00  0.00     0.167 HD
ATOM     47  C   UNL     1       2.376  11.620  -6.094  1.00  0.00     0.037 A 
ATOM     48  C   UNL     1      -3.693   8.825  -4.092  1.00  0.00     0.037 A 
ATOM     49  C   UNL     1       1.318  12.570  -5.875  1.00  0.00     0.049 A 
ATOM     50  C   UNL     1      -3.520  10.311  -4.242  1.00  0.00     0.074 A 
ATOM     51  C   UNL     1       1.346  13.945  -6.033  1.00  0.00     0.029 A 
ATOM     52  N   UNL     1       0.038  12.242  -5.457  1.00  0.00    -0.354 N 
ATOM     53  N   UNL     1      -2.466  10.986  -4.629  1.00  0.00    -0.248 NA
ATOM     54  C   UNL     1      -4.684  11.150  -3.918  1.00  0.00     0.031 C 
ATOM     55  C   UNL     1       0.091  14.453  -5.681  1.00  0.00     0.029 A 
ATOM     56  C   UNL     1      -0.728  13.390  -5.338  1.00  0.00     0.049 A 
ATOM     57  H   UNL     1      -0.280  11.329  -5.271  1.00  0.00     0.167 HD
ATOM     58  C   UNL     1      -2.844  12.322  -4.618  1.00  0.00     0.074 A 
ATOM     59  C   UNL     1      -4.229  12.363  -4.198  1.00  0.00     0.031 C 
ATOM     60  C   UNL     1      -2.108  13.417  -4.928  1.00  0.00     0.037 A 
BRANCH  47  61
ATOM     61  C   UNL     1       3.726  12.143  -6.487  1.00  0.00     0.057 A 
ATOM     62  C   UNL     1       4.225  11.996  -7.787  1.00  0.00     0.134 A 
ATOM     63  C   UNL     1       4.523  12.830  -5.562  1.00  0.00     0.134 A 
ATOM     64  F   UNL     1       3.516  11.339  -8.717  1.00  0.00    -0.206 F 
ATOM     65  C   UNL     1       5.480  12.490  -8.148  1.00  0.00     0.040 A 
ATOM     66  C   UNL     1       5.769  13.350  -5.917  1.00  0.00     0.040 A 
ATOM     67  F   UNL     1       4.102  13.013  -4.302  1.00  0.00    -0.206 F 
ATOM     68  C   UNL     1       6.254  13.174  -7.212  1.00  0.00     0.006 A 
ENDBRANCH  47  61
BRANCH  48  69
ATOM     69  C   UNL     1      -4.990   8.261  -3.643  1.00  0.00     0.057 A 
ATOM     70  C   UNL     1      -6.110   8.276  -4.482  1.00  0.00     0.134 A 
ATOM     71  C   UNL     1      -5.144   7.705  -2.368  1.00  0.00     0.134 A 
ATOM     72  F   UNL     1      -6.028   8.816  -5.707  1.00  0.00    -0.206 F 
ATOM     73  C   UNL     1      -7.342   7.770  -4.065  1.00  0.00     0.040 A 
ATOM     74  C   UNL     1      -6.365   7.177  -1.945  1.00  0.00     0.040 A 
ATOM     75  F   UNL     1      -4.107   7.659  -1.519  1.00  0.00    -0.206 F 
ATOM     76  C   UNL     1      -7.470   7.214  -2.794  1.00  0.00     0.006 A 
ENDBRANCH  48  69
BRANCH  60  77
ATOM     77  C   UNL     1      -2.793  14.748  -4.855  1.00  0.00     0.057 A 
ATOM     78  C   UNL     1      -3.079  15.364  -3.631  1.00  0.00     0.134 A 
ATOM     79  C   UNL     1      -3.136  15.439  -6.025  1.00  0.00     0.134 A 
ATOM     80  F   UNL     1      -2.787  14.748  -2.475  1.00  0.00    -0.206 F 
ATOM     81  C   UNL     1      -3.698  16.614  -3.572  1.00  0.00     0.040 A 
ATOM     82  C   UNL     1      -3.736  16.698  -5.979  1.00  0.00     0.040 A 
ATOM     83  F   UNL     1      -2.883  14.905  -7.229  1.00  0.00    -0.206 F 
ATOM     84  C   UNL     1      -4.023  17.287  -4.749  1.00  0.00     0.006 A 
ENDBRANCH  60  77
ENDBRANCH  34  35
ENDBRANCH  26  29
ENDBRANCH  24  25
ENDBRANCH  23  24
ENDBRANCH   1  23
TORSDOF 14
