REMARK SMILES COc1ccc(S(=O)(=O)N2CCC[C@H](C(=O)N3CCC[C@H](C(=O)NCCCNC(=O)c4ccc(-c5c6nc(c(-c7c(F)cccc7F)c7ccc([nH]7)c(-c7c(F)cccc7F)c7nc(c(-c8c(F)cccc8F)c8ccc5[nH]8)C=C7)C=C6)cc4)C3)C2)cc1
REMARK SMILES IDX 22 1 23 2 24 3 21 5 17 6 18 7 85 8 19 9 20 10 15 11 16 12
REMARK SMILES IDX 14 13 10 14 11 15 86 16 12 17 13 18 7 19 8 20 9 21 6 22 3 23
REMARK SMILES IDX 4 24 88 25 5 26 87 27 2 28 1 29 25 30 26 31 27 32 28 33
REMARK SMILES IDX 29 34 30 36 31 37 32 38 84 39 33 40 83 41 34 42 35 43 36 44
REMARK SMILES IDX 77 45 37 46 82 47 76 48 78 49 38 50 81 51 75 52 74 53 39 55
REMARK SMILES IDX 65 56 48 57 64 58 49 59 52 60 63 61 79 62 50 63 51 64 62 66
REMARK SMILES IDX 80 67 53 68 40 69 41 70 46 71 42 72 43 73 45 74 47 75 44 76
REMARK SMILES IDX 66 77 67 78 72 79 68 80 69 81 71 82 73 83 70 84 54 85 55 86
REMARK SMILES IDX 60 87 56 88 57 89 59 90 61 91 58 92
REMARK H PARENT 24 4 28 35 78 54 52 65
REMARK Flexibility Score: inf
ROOT
ATOM      1  C   UNL     1       8.161   8.009   6.784  1.00  0.00     0.224 C 
ATOM      2  O   UNL     1       8.842   7.611   7.736  1.00  0.00    -0.275 OA
ATOM      3  N   UNL     1       8.824   8.664   5.796  1.00  0.00    -0.356 N 
ATOM      4  H   UNL     1       9.761   8.893   5.996  1.00  0.00     0.163 HD
ENDROOT
BRANCH   1   5
ATOM      5  C   UNL     1       6.645   7.756   6.779  1.00  0.00     0.098 C 
ATOM      6  N   UNL     1       5.506   7.394   4.552  1.00  0.00    -0.342 N 
ATOM      7  C   UNL     1       4.542   8.454   4.828  1.00  0.00     0.119 C 
ATOM      8  C   UNL     1       6.143   6.776   5.710  1.00  0.00     0.133 C 
ATOM      9  C   UNL     1       5.111   9.551   5.717  1.00  0.00     0.022 C 
ATOM     10  C   UNL     1       5.782   9.008   6.974  1.00  0.00     0.017 C 
BRANCH   6  11
ATOM     11  C   UNL     1       5.917   7.209   3.245  1.00  0.00     0.227 C 
ATOM     12  O   UNL     1       6.103   8.181   2.502  1.00  0.00    -0.275 OA
BRANCH  11  13
ATOM     13  C   UNL     1       5.925   5.819   2.615  1.00  0.00     0.094 C 
ATOM     14  N   UNL     1       3.514   5.463   2.926  1.00  0.00    -0.197 NA
ATOM     15  C   UNL     1       3.705   4.517   4.039  1.00  0.00     0.102 C 
ATOM     16  C   UNL     1       4.578   5.656   1.926  1.00  0.00     0.116 C 
ATOM     17  C   UNL     1       5.125   3.999   4.254  1.00  0.00     0.018 C 
ATOM     18  C   UNL     1       6.248   4.557   3.390  1.00  0.00     0.016 C 
BRANCH  14  19
ATOM     19  S   UNL     1       1.916   5.800   2.463  1.00  0.00     0.243 S 
ATOM     20  O   UNL     1       1.928   6.910   1.546  1.00  0.00    -0.207 OA
ATOM     21  O   UNL     1       1.118   5.826   3.678  1.00  0.00    -0.207 OA
BRANCH  19  22
ATOM     22  C   UNL     1       1.373   4.377   1.542  1.00  0.00     0.082 A 
ATOM     23  C   UNL     1       0.387   2.139   0.187  1.00  0.00     0.118 A 
ATOM     24  C   UNL     1      -0.441   3.238   0.429  1.00  0.00     0.048 A 
ATOM     25  C   UNL     1       1.720   2.181   0.589  1.00  0.00     0.048 A 
ATOM     26  C   UNL     1       0.044   4.356   1.111  1.00  0.00     0.025 A 
ATOM     27  C   UNL     1       2.211   3.293   1.272  1.00  0.00     0.025 A 
BRANCH  23  28
ATOM     28  O   UNL     1      -0.202   1.086  -0.457  1.00  0.00    -0.497 OA
ATOM     29  C   UNL     1       0.457  -0.169  -0.311  1.00  0.00     0.278 C 
ENDBRANCH  23  28
ENDBRANCH  19  22
ENDBRANCH  14  19
ENDBRANCH  11  13
ENDBRANCH   6  11
ENDBRANCH   1   5
BRANCH   3  30
ATOM     30  C   UNL     1       8.350   9.071   4.499  1.00  0.00     0.117 C 
BRANCH  30  31
ATOM     31  C   UNL     1       8.362  10.566   4.265  1.00  0.00     0.042 C 
BRANCH  31  32
ATOM     32  C   UNL     1       9.546  11.019   3.440  1.00  0.00     0.118 C 
BRANCH  32  33
ATOM     33  N   UNL     1       9.498  10.553   2.055  1.00  0.00    -0.352 N 
ATOM     34  C   UNL     1       9.593  11.252   0.875  1.00  0.00     0.251 C 
ATOM     35  H   UNL     1       9.379   9.582   1.951  1.00  0.00     0.163 HD
ATOM     36  O   UNL     1       9.459  10.672  -0.198  1.00  0.00    -0.269 OA
BRANCH  34  37
ATOM     37  C   UNL     1       9.812  12.714   0.896  1.00  0.00     0.039 A 
ATOM     38  C   UNL     1       9.101  13.521   0.003  1.00  0.00     0.014 A 
ATOM     39  C   UNL     1      10.682  13.293   1.818  1.00  0.00     0.014 A 
ATOM     40  C   UNL     1       9.202  14.911   0.097  1.00  0.00     0.010 A 
ATOM     41  C   UNL     1      10.674  14.667   2.001  1.00  0.00     0.010 A 
ATOM     42  C   UNL     1       9.953  15.495   1.129  1.00  0.00    -0.014 A 
BRANCH  42  43
ATOM     43  C   UNL     1      10.055  16.966   1.296  1.00  0.00     0.031 A 
ATOM     44  C   UNL     1      11.410  17.620   1.255  1.00  0.00     0.074 A 
ATOM     45  C   UNL     1       8.957  17.695   1.573  1.00  0.00     0.049 A 
ATOM     46  N   UNL     1      11.743  18.858   1.520  1.00  0.00    -0.248 NA
ATOM     47  C   UNL     1      12.554  16.753   0.925  1.00  0.00     0.031 C 
ATOM     48  C   UNL     1       7.596  17.170   1.708  1.00  0.00     0.029 A 
ATOM     49  N   UNL     1       8.816  19.040   1.802  1.00  0.00    -0.354 N 
ATOM     50  C   UNL     1      13.129  18.899   1.435  1.00  0.00     0.074 A 
ATOM     51  C   UNL     1      13.580  17.554   1.159  1.00  0.00     0.031 C 
ATOM     52  C   UNL     1       6.755  18.187   1.959  1.00  0.00     0.029 A 
ATOM     53  C   UNL     1       7.519  19.427   2.039  1.00  0.00     0.049 A 
ATOM     54  H   UNL     1       9.573  19.670   1.796  1.00  0.00     0.167 HD
ATOM     55  C   UNL     1      13.953  19.967   1.543  1.00  0.00     0.037 A 
ATOM     56  C   UNL     1       7.009  20.647   2.291  1.00  0.00     0.037 A 
ATOM     57  C   UNL     1      13.493  21.315   1.736  1.00  0.00     0.049 A 
ATOM     58  C   UNL     1       7.935  21.830   2.337  1.00  0.00     0.074 A 
ATOM     59  C   UNL     1      14.233  22.483   1.769  1.00  0.00     0.029 A 
ATOM     60  N   UNL     1      12.165  21.672   1.908  1.00  0.00    -0.354 N 
ATOM     61  N   UNL     1       9.239  21.865   2.197  1.00  0.00    -0.248 NA
ATOM     62  C   UNL     1       7.320  23.145   2.569  1.00  0.00     0.031 C 
ATOM     63  C   UNL     1      13.352  23.548   1.982  1.00  0.00     0.029 A 
ATOM     64  C   UNL     1      12.062  23.045   2.051  1.00  0.00     0.049 A 
ATOM     65  H   UNL     1      11.407  21.044   1.925  1.00  0.00     0.167 HD
ATOM     66  C   UNL     1       9.597  23.202   2.299  1.00  0.00     0.074 A 
ATOM     67  C   UNL     1       8.372  23.949   2.499  1.00  0.00     0.031 C 
ATOM     68  C   UNL     1      10.829  23.764   2.235  1.00  0.00     0.037 A 
BRANCH  55  69
ATOM     69  C   UNL     1      15.427  19.715   1.427  1.00  0.00     0.057 A 
ATOM     70  C   UNL     1      16.020  19.344   0.212  1.00  0.00     0.134 A 
ATOM     71  C   UNL     1      16.265  19.846   2.541  1.00  0.00     0.134 A 
ATOM     72  F   UNL     1      15.271  19.184  -0.889  1.00  0.00    -0.206 F 
ATOM     73  C   UNL     1      17.387  19.078   0.117  1.00  0.00     0.040 A 
ATOM     74  C   UNL     1      17.639  19.611   2.452  1.00  0.00     0.040 A 
ATOM     75  F   UNL     1      15.764  20.201   3.733  1.00  0.00    -0.206 F 
ATOM     76  C   UNL     1      18.201  19.217   1.239  1.00  0.00     0.006 A 
ENDBRANCH  55  69
BRANCH  56  77
ATOM     77  C   UNL     1       5.546  20.820   2.471  1.00  0.00     0.057 A 
ATOM     78  C   UNL     1       4.771  21.434   1.480  1.00  0.00     0.134 A 
ATOM     79  C   UNL     1       4.889  20.379   3.624  1.00  0.00     0.134 A 
ATOM     80  F   UNL     1       5.348  21.893   0.360  1.00  0.00    -0.206 F 
ATOM     81  C   UNL     1       3.397  21.622   1.638  1.00  0.00     0.040 A 
ATOM     82  C   UNL     1       3.511  20.541   3.787  1.00  0.00     0.040 A 
ATOM     83  F   UNL     1       5.574  19.775   4.606  1.00  0.00    -0.206 F 
ATOM     84  C   UNL     1       2.763  21.170   2.793  1.00  0.00     0.006 A 
ENDBRANCH  56  77
BRANCH  68  85
ATOM     85  C   UNL     1      10.907  25.255   2.349  1.00  0.00     0.057 A 
ATOM     86  C   UNL     1      10.747  25.907   3.577  1.00  0.00     0.134 A 
ATOM     87  C   UNL     1      11.197  26.040   1.227  1.00  0.00     0.134 A 
ATOM     88  F   UNL     1      10.457  25.209   4.685  1.00  0.00    -0.206 F 
ATOM     89  C   UNL     1      10.858  27.294   3.683  1.00  0.00     0.040 A 
ATOM     90  C   UNL     1      11.331  27.425   1.324  1.00  0.00     0.040 A 
ATOM     91  F   UNL     1      11.369  25.472   0.024  1.00  0.00    -0.206 F 
ATOM     92  C   UNL     1      11.158  28.055   2.554  1.00  0.00     0.006 A 
ENDBRANCH  68  85
ENDBRANCH  42  43
ENDBRANCH  34  37
ENDBRANCH  32  33
ENDBRANCH  31  32
ENDBRANCH  30  31
ENDBRANCH   3  30
TORSDOF 15
