REMARK SMILES O=C(NCCCNC(=O)[C@H]1CC[C@@H]2CCCC[C@@H]2N1C(=O)Cc1ccn[nH]1)c1ccc(-c2c3nc(c(-c4c(F)cccc4F)c4ccc([nH]4)c(-c4c(F)cccc4F)c4nc(c(-c5c(F)cccc5F)c5ccc2[nH]5)C=C4)C=C3)cc1
REMARK SMILES IDX 5 1 4 2 3 3 1 4 2 5 28 7 29 8 81 9 30 10 80 11 31 12 32 13
REMARK SMILES IDX 33 14 74 15 34 16 79 17 73 18 75 19 35 20 78 21 72 22 71 23
REMARK SMILES IDX 36 25 62 26 45 27 61 28 46 29 49 30 60 31 76 32 47 33 48 34
REMARK SMILES IDX 59 36 77 37 50 38 37 39 38 40 43 41 39 42 40 43 42 44 44 45
REMARK SMILES IDX 41 46 63 47 64 48 69 49 65 50 66 51 68 52 70 53 67 54 51 55
REMARK SMILES IDX 52 56 57 57 53 58 54 59 56 60 58 61 55 62 6 63 7 64 8 65
REMARK SMILES IDX 9 67 10 68 11 69 19 70 12 71 18 72 13 73 17 74 14 75 16 76
REMARK SMILES IDX 15 77 20 78 21 79 22 80 23 81 24 82 27 83 25 84 26 85
REMARK H PARENT 3 6 75 24 49 35 7 66 27 86
REMARK Flexibility Score: inf
ROOT
ATOM      1  C   UNL     1       7.820   8.909  -0.009  1.00  0.00     0.042 C 
ENDROOT
BRANCH   1   2
ATOM      2  C   UNL     1       8.641   9.921   0.763  1.00  0.00     0.118 C 
BRANCH   2   3
ATOM      3  N   UNL     1       9.958   9.468   1.199  1.00  0.00    -0.352 N 
ATOM      4  O   UNL     1      12.081   9.839   1.944  1.00  0.00    -0.269 OA
ATOM      5  C   UNL     1      11.023  10.281   1.511  1.00  0.00     0.251 C 
ATOM      6  H   UNL     1      10.096   8.496   1.276  1.00  0.00     0.163 HD
BRANCH   5   7
ATOM      7  C   UNL     1      10.860  11.725   1.250  1.00  0.00     0.039 A 
ATOM      8  C   UNL     1       9.815  12.421   1.863  1.00  0.00     0.014 A 
ATOM      9  C   UNL     1      11.617  12.310   0.233  1.00  0.00     0.014 A 
ATOM     10  C   UNL     1       9.420  13.645   1.340  1.00  0.00     0.010 A 
ATOM     11  C   UNL     1      11.270  13.579  -0.230  1.00  0.00     0.010 A 
ATOM     12  C   UNL     1      10.142  14.236   0.289  1.00  0.00    -0.014 A 
BRANCH  12  13
ATOM     13  C   UNL     1       9.740  15.571  -0.216  1.00  0.00     0.031 A 
ATOM     14  C   UNL     1       9.246  15.762  -1.623  1.00  0.00     0.074 A 
ATOM     15  C   UNL     1       9.833  16.620   0.622  1.00  0.00     0.049 A 
ATOM     16  N   UNL     1       8.923  16.874  -2.236  1.00  0.00    -0.248 NA
ATOM     17  C   UNL     1       9.099  14.557  -2.456  1.00  0.00     0.031 C 
ATOM     18  C   UNL     1      10.300  16.551   2.009  1.00  0.00     0.029 A 
ATOM     19  N   UNL     1       9.550  17.947   0.432  1.00  0.00    -0.354 N 
ATOM     20  C   UNL     1       8.561  16.510  -3.527  1.00  0.00     0.074 A 
ATOM     21  C   UNL     1       8.710  15.073  -3.616  1.00  0.00     0.031 C 
ATOM     22  C   UNL     1      10.260  17.777   2.548  1.00  0.00     0.029 A 
ATOM     23  C   UNL     1       9.832  18.725   1.528  1.00  0.00     0.049 A 
ATOM     24  H   UNL     1       9.180  18.307  -0.406  1.00  0.00     0.167 HD
ATOM     25  C   UNL     1       8.144  17.308  -4.539  1.00  0.00     0.037 A 
ATOM     26  C   UNL     1       9.797  20.060   1.683  1.00  0.00     0.037 A 
ATOM     27  C   UNL     1       7.970  18.735  -4.429  1.00  0.00     0.049 A 
ATOM     28  C   UNL     1       9.371  20.917   0.530  1.00  0.00     0.074 A 
ATOM     29  C   UNL     1       7.477  19.617  -5.376  1.00  0.00     0.029 A 
ATOM     30  N   UNL     1       8.293  19.489  -3.312  1.00  0.00    -0.354 N 
ATOM     31  N   UNL     1       8.983  20.554  -0.668  1.00  0.00    -0.248 NA
ATOM     32  C   UNL     1       9.388  22.370   0.745  1.00  0.00     0.031 C 
ATOM     33  C   UNL     1       7.553  20.911  -4.852  1.00  0.00     0.029 A 
ATOM     34  C   UNL     1       8.050  20.830  -3.561  1.00  0.00     0.049 A 
ATOM     35  H   UNL     1       8.643  19.126  -2.466  1.00  0.00     0.167 HD
ATOM     36  C   UNL     1       8.705  21.731  -1.348  1.00  0.00     0.074 A 
ATOM     37  C   UNL     1       8.939  22.817  -0.419  1.00  0.00     0.031 C 
ATOM     38  C   UNL     1       8.300  21.898  -2.630  1.00  0.00     0.037 A 
BRANCH  25  39
ATOM     39  C   UNL     1       7.858  16.681  -5.872  1.00  0.00     0.057 A 
ATOM     40  C   UNL     1       6.693  15.943  -6.110  1.00  0.00     0.134 A 
ATOM     41  C   UNL     1       8.708  16.917  -6.961  1.00  0.00     0.134 A 
ATOM     42  F   UNL     1       5.839  15.677  -5.110  1.00  0.00    -0.206 F 
ATOM     43  C   UNL     1       6.383  15.461  -7.384  1.00  0.00     0.040 A 
ATOM     44  C   UNL     1       8.400  16.457  -8.242  1.00  0.00     0.040 A 
ATOM     45  F   UNL     1       9.836  17.626  -6.803  1.00  0.00    -0.206 F 
ATOM     46  C   UNL     1       7.233  15.727  -8.457  1.00  0.00     0.006 A 
ENDBRANCH  25  39
BRANCH  26  47
ATOM     47  C   UNL     1      10.232  20.665   2.966  1.00  0.00     0.057 A 
ATOM     48  C   UNL     1       9.325  21.311   3.809  1.00  0.00     0.134 A 
ATOM     49  C   UNL     1      11.572  20.614   3.372  1.00  0.00     0.134 A 
ATOM     50  F   UNL     1       8.032  21.407   3.464  1.00  0.00    -0.206 F 
ATOM     51  C   UNL     1       9.736  21.905   5.003  1.00  0.00     0.040 A 
ATOM     52  C   UNL     1      11.992  21.176   4.577  1.00  0.00     0.040 A 
ATOM     53  F   UNL     1      12.489  20.000   2.610  1.00  0.00    -0.206 F 
ATOM     54  C   UNL     1      11.073  21.833   5.392  1.00  0.00     0.006 A 
ENDBRANCH  26  47
BRANCH  38  55
ATOM     55  C   UNL     1       8.085  23.307  -3.093  1.00  0.00     0.057 A 
ATOM     56  C   UNL     1       9.162  24.165  -3.348  1.00  0.00     0.134 A 
ATOM     57  C   UNL     1       6.794  23.804  -3.308  1.00  0.00     0.134 A 
ATOM     58  F   UNL     1      10.423  23.753  -3.145  1.00  0.00    -0.206 F 
ATOM     59  C   UNL     1       8.961  25.477  -3.780  1.00  0.00     0.040 A 
ATOM     60  C   UNL     1       6.581  25.105  -3.764  1.00  0.00     0.040 A 
ATOM     61  F   UNL     1       5.720  23.030  -3.087  1.00  0.00    -0.206 F 
ATOM     62  C   UNL     1       7.667  25.948  -3.995  1.00  0.00     0.006 A 
ENDBRANCH  38  55
ENDBRANCH  12  13
ENDBRANCH   5   7
ENDBRANCH   2   3
ENDBRANCH   1   2
BRANCH   1  63
ATOM     63  C   UNL     1       7.378   7.725   0.824  1.00  0.00     0.117 C 
BRANCH  63  64
ATOM     64  N   UNL     1       6.517   8.064   1.946  1.00  0.00    -0.354 N 
ATOM     65  C   UNL     1       5.834   7.220   2.778  1.00  0.00     0.242 C 
ATOM     66  H   UNL     1       6.412   9.025   2.131  1.00  0.00     0.163 HD
ATOM     67  O   UNL     1       5.220   7.704   3.736  1.00  0.00    -0.273 OA
BRANCH  65  68
ATOM     68  C   UNL     1       5.675   5.727   2.464  1.00  0.00     0.174 C 
ATOM     69  C   UNL     1       4.443   5.784   1.536  1.00  0.00     0.036 C 
ATOM     70  N   UNL     1       6.896   5.092   1.941  1.00  0.00    -0.327 N 
ATOM     71  C   UNL     1       4.307   4.681   0.528  1.00  0.00     0.008 C 
ATOM     72  C   UNL     1       6.773   4.121   0.807  1.00  0.00     0.089 C 
ATOM     73  C   UNL     1       5.635   4.436  -0.180  1.00  0.00     0.012 C 
ATOM     74  C   UNL     1       6.756   2.634   1.266  1.00  0.00     0.025 C 
ATOM     75  C   UNL     1       5.502   3.314  -1.212  1.00  0.00     0.006 C 
ATOM     76  C   UNL     1       5.550   1.781   0.839  1.00  0.00     0.002 C 
ATOM     77  C   UNL     1       5.031   2.010  -0.584  1.00  0.00     0.000 C 
BRANCH  70  78
ATOM     78  C   UNL     1       8.157   5.197   2.587  1.00  0.00     0.229 C 
ATOM     79  O   UNL     1       9.174   4.795   2.005  1.00  0.00    -0.274 OA
BRANCH  78  80
ATOM     80  C   UNL     1       8.303   5.737   4.034  1.00  0.00     0.155 C 
BRANCH  80  81
ATOM     81  C   UNL     1       8.575   7.209   4.257  1.00  0.00     0.044 A 
ATOM     82  C   UNL     1       9.716   7.992   4.187  1.00  0.00     0.045 A 
ATOM     83  N   UNL     1       7.639   8.046   4.830  1.00  0.00    -0.282 N 
ATOM     84  C   UNL     1       9.328   9.277   4.627  1.00  0.00     0.135 A 
ATOM     85  N   UNL     1       8.039   9.323   4.951  1.00  0.00    -0.184 NA
ATOM     86  H   UNL     1       6.753   7.734   5.124  1.00  0.00     0.190 HD
ENDBRANCH  80  81
ENDBRANCH  78  80
ENDBRANCH  70  78
ENDBRANCH  65  68
ENDBRANCH  63  64
ENDBRANCH   1  63
TORSDOF 13
