REMARK SMILES C[C@@H](CNc1cccc(F)c1C(=O)NCCCNC(=O)c1ccc(-c2c3nc(c(-c4c(F)cccc4F)c4ccc([nH]4)c(-c4c(F)cccc4F)c4nc(c(-c5c(F)cccc5F)c5ccc2[nH]5)C=C4)C=C3)cc1)[NH+]1CCCCC1
REMARK SMILES IDX 15 1 14 2 12 3 13 4 11 6 5 7 6 8 7 9 9 10 8 11 10 12 4 13
REMARK SMILES IDX 3 15 2 16 1 17 75 18 76 19 80 20 77 22 79 23 78 24 16 25
REMARK SMILES IDX 17 26 18 27 19 28 20 30 21 31 22 32 74 33 23 34 73 35 24 36
REMARK SMILES IDX 25 37 26 38 67 39 27 40 72 41 66 42 68 43 28 44 71 45 65 46
REMARK SMILES IDX 64 47 29 49 55 50 38 51 54 52 39 53 42 54 53 55 69 56 40 57
REMARK SMILES IDX 41 58 52 60 70 61 43 62 30 63 31 64 36 65 32 66 33 67 35 68
REMARK SMILES IDX 37 69 34 70 56 71 57 72 62 73 58 74 59 75 61 76 63 77 60 78
REMARK SMILES IDX 44 79 45 80 50 81 46 82 47 83 49 84 51 85 48 86
REMARK H PARENT 14 5 4 14 75 21 18 29 68 48 42 59
REMARK Flexibility Score: inf
ROOT
ATOM      1  C   UNL     1      -3.931  -4.009  -2.088  1.00  0.00     0.118 C 
ENDROOT
BRANCH   1   2
ATOM      2  N   UNL     1      -2.628  -3.970  -1.446  1.00  0.00    -0.352 N 
ATOM      3  C   UNL     1      -1.349  -3.801  -1.919  1.00  0.00     0.256 C 
ATOM      4  O   UNL     1      -0.443  -3.899  -1.087  1.00  0.00    -0.269 OA
ATOM      5  H   UNL     1      -2.670  -4.091  -0.469  1.00  0.00     0.163 HD
BRANCH   3   6
ATOM      6  C   UNL     1      -1.009  -3.398  -3.314  1.00  0.00     0.098 A 
ATOM      7  C   UNL     1       0.028  -2.439  -3.516  1.00  0.00     0.050 A 
ATOM      8  C   UNL     1       0.340  -2.059  -4.833  1.00  0.00     0.027 A 
ATOM      9  C   UNL     1      -0.361  -2.566  -5.926  1.00  0.00     0.005 A 
ATOM     10  C   UNL     1      -1.663  -3.928  -4.428  1.00  0.00     0.138 A 
ATOM     11  C   UNL     1      -1.370  -3.495  -5.721  1.00  0.00     0.040 A 
ATOM     12  F   UNL     1      -2.587  -4.889  -4.313  1.00  0.00    -0.206 F 
BRANCH   7  13
ATOM     13  N   UNL     1       0.647  -1.798  -2.443  1.00  0.00    -0.378 N 
ATOM     14  H   UNL     1       0.833  -2.328  -1.634  1.00  0.00     0.160 HD
BRANCH  13  15
ATOM     15  C   UNL     1       1.037  -0.388  -2.441  1.00  0.00     0.177 C 
BRANCH  15  16
ATOM     16  C   UNL     1       0.431   0.457  -1.265  1.00  0.00     0.200 C 
ATOM     17  C   UNL     1       0.871  -0.091   0.099  1.00  0.00     0.077 C 
BRANCH  16  18
ATOM     18  N   UNL     1      -1.038   0.726  -1.231  1.00  0.00    -0.331 N 
ATOM     19  C   UNL     1      -1.399   1.915  -2.016  1.00  0.00     0.262 C 
ATOM     20  C   UNL     1      -1.847  -0.429  -1.628  1.00  0.00     0.262 C 
ATOM     21  H   UNL     1      -1.258   0.913  -0.252  1.00  0.00     0.348 HD
ATOM     22  C   UNL     1      -2.900   2.218  -1.934  1.00  0.00     0.062 C 
ATOM     23  C   UNL     1      -3.352  -0.193  -1.554  1.00  0.00     0.062 C 
ATOM     24  C   UNL     1      -3.735   1.025  -2.378  1.00  0.00     0.012 C 
ENDBRANCH  16  18
ENDBRANCH  15  16
ENDBRANCH  13  15
ENDBRANCH   7  13
ENDBRANCH   3   6
ENDBRANCH   1   2
BRANCH   1  25
ATOM     25  C   UNL     1      -4.402  -5.455  -2.245  1.00  0.00     0.042 C 
BRANCH  25  26
ATOM     26  C   UNL     1      -4.903  -6.070  -0.941  1.00  0.00     0.118 C 
BRANCH  26  27
ATOM     27  N   UNL     1      -6.239  -5.607  -0.592  1.00  0.00    -0.352 N 
ATOM     28  C   UNL     1      -7.391  -6.328  -0.386  1.00  0.00     0.251 C 
ATOM     29  H   UNL     1      -6.331  -4.632  -0.490  1.00  0.00     0.163 HD
ATOM     30  O   UNL     1      -8.469  -5.748  -0.311  1.00  0.00    -0.269 OA
BRANCH  28  31
ATOM     31  C   UNL     1      -7.341  -7.804  -0.271  1.00  0.00     0.039 A 
ATOM     32  C   UNL     1      -8.325  -8.563  -0.909  1.00  0.00     0.014 A 
ATOM     33  C   UNL     1      -6.348  -8.438   0.480  1.00  0.00     0.014 A 
ATOM     34  C   UNL     1      -8.276  -9.959  -0.848  1.00  0.00     0.010 A 
ATOM     35  C   UNL     1      -6.256  -9.829   0.478  1.00  0.00     0.010 A 
ATOM     36  C   UNL     1      -7.218 -10.604  -0.186  1.00  0.00    -0.014 A 
BRANCH  36  37
ATOM     37  C   UNL     1      -7.096 -12.085  -0.190  1.00  0.00     0.031 A 
ATOM     38  C   UNL     1      -7.173 -12.860   1.096  1.00  0.00     0.074 A 
ATOM     39  C   UNL     1      -6.859 -12.728  -1.351  1.00  0.00     0.049 A 
ATOM     40  N   UNL     1      -7.026 -14.146   1.295  1.00  0.00    -0.248 NA
ATOM     41  C   UNL     1      -7.425 -12.089   2.324  1.00  0.00     0.031 C 
ATOM     42  C   UNL     1      -6.724 -12.085  -2.659  1.00  0.00     0.029 A 
ATOM     43  N   UNL     1      -6.684 -14.063  -1.619  1.00  0.00    -0.354 N 
ATOM     44  C   UNL     1      -7.159 -14.335   2.664  1.00  0.00     0.074 A 
ATOM     45  C   UNL     1      -7.343 -13.028   3.256  1.00  0.00     0.031 C 
ATOM     46  C   UNL     1      -6.519 -13.027  -3.593  1.00  0.00     0.029 A 
ATOM     47  C   UNL     1      -6.462 -14.335  -2.947  1.00  0.00     0.049 A 
ATOM     48  H   UNL     1      -6.714 -14.760  -0.924  1.00  0.00     0.167 HD
ATOM     49  C   UNL     1      -7.154 -15.495   3.361  1.00  0.00     0.037 A 
ATOM     50  C   UNL     1      -6.231 -15.503  -3.577  1.00  0.00     0.037 A 
ATOM     51  C   UNL     1      -6.992 -16.796   2.765  1.00  0.00     0.049 A 
ATOM     52  C   UNL     1      -6.207 -16.776  -2.777  1.00  0.00     0.074 A 
ATOM     53  C   UNL     1      -7.025 -18.033   3.383  1.00  0.00     0.029 A 
ATOM     54  N   UNL     1      -6.766 -17.027   1.417  1.00  0.00    -0.354 N 
ATOM     55  N   UNL     1      -6.389 -16.944  -1.490  1.00  0.00    -0.248 NA
ATOM     56  C   UNL     1      -5.947 -18.021  -3.514  1.00  0.00     0.031 C 
ATOM     57  C   UNL     1      -6.766 -19.010   2.419  1.00  0.00     0.029 A 
ATOM     58  C   UNL     1      -6.632 -18.386   1.188  1.00  0.00     0.049 A 
ATOM     59  H   UNL     1      -6.709 -16.329   0.725  1.00  0.00     0.167 HD
ATOM     60  C   UNL     1      -6.291 -18.311  -1.266  1.00  0.00     0.074 A 
ATOM     61  C   UNL     1      -6.046 -18.929  -2.553  1.00  0.00     0.031 C 
ATOM     62  C   UNL     1      -6.395 -18.991  -0.098  1.00  0.00     0.037 A 
BRANCH  49  63
ATOM     63  C   UNL     1      -7.342 -15.422   4.850  1.00  0.00     0.057 A 
ATOM     64  C   UNL     1      -6.304 -15.774   5.722  1.00  0.00     0.134 A 
ATOM     65  C   UNL     1      -8.575 -15.078   5.419  1.00  0.00     0.134 A 
ATOM     66  F   UNL     1      -5.100 -16.123   5.245  1.00  0.00    -0.206 F 
ATOM     67  C   UNL     1      -6.491 -15.801   7.106  1.00  0.00     0.040 A 
ATOM     68  C   UNL     1      -8.765 -15.072   6.802  1.00  0.00     0.040 A 
ATOM     69  F   UNL     1      -9.608 -14.721   4.641  1.00  0.00    -0.206 F 
ATOM     70  C   UNL     1      -7.723 -15.446   7.649  1.00  0.00     0.006 A 
ENDBRANCH  49  63
BRANCH  50  71
ATOM     71  C   UNL     1      -6.037 -15.519  -5.049  1.00  0.00     0.057 A 
ATOM     72  C   UNL     1      -4.898 -14.965  -5.646  1.00  0.00     0.134 A 
ATOM     73  C   UNL     1      -7.008 -16.064  -5.897  1.00  0.00     0.134 A 
ATOM     74  F   UNL     1      -3.933 -14.421  -4.890  1.00  0.00    -0.206 F 
ATOM     75  C   UNL     1      -4.740 -14.934  -7.033  1.00  0.00     0.040 A 
ATOM     76  C   UNL     1      -6.852 -16.063  -7.285  1.00  0.00     0.040 A 
ATOM     77  F   UNL     1      -8.113 -16.625  -5.386  1.00  0.00    -0.206 F 
ATOM     78  C   UNL     1      -5.718 -15.487  -7.856  1.00  0.00     0.006 A 
ENDBRANCH  50  71
BRANCH  62  79
ATOM     79  C   UNL     1      -6.270 -20.486  -0.146  1.00  0.00     0.057 A 
ATOM     80  C   UNL     1      -7.378 -21.302   0.117  1.00  0.00     0.134 A 
ATOM     81  C   UNL     1      -5.039 -21.117  -0.360  1.00  0.00     0.134 A 
ATOM     82  F   UNL     1      -8.585 -20.760   0.343  1.00  0.00    -0.206 F 
ATOM     83  C   UNL     1      -7.263 -22.690   0.188  1.00  0.00     0.040 A 
ATOM     84  C   UNL     1      -4.916 -22.507  -0.320  1.00  0.00     0.040 A 
ATOM     85  F   UNL     1      -3.941 -20.393  -0.627  1.00  0.00    -0.206 F 
ATOM     86  C   UNL     1      -6.028 -23.297  -0.033  1.00  0.00     0.006 A 
ENDBRANCH  62  79
ENDBRANCH  36  37
ENDBRANCH  28  31
ENDBRANCH  26  27
ENDBRANCH  25  26
ENDBRANCH   1  25
TORSDOF 14
