REMARK SMILES C[C@](NC(=O)Nc1ccccc1Cl)(C(=O)NCCCNC(=O)c1ccc(-c2c3nc(c(-c4c(F)cccc4F)c4ccc([nH]4)c(-c4c(F)cccc4F)c4nc(c(-c5c(F)cccc5F)c5ccc2[nH]5)C=C4)C=C3)cc1)C(F)(F)F
REMARK SMILES IDX 18 1 17 2 16 3 14 4 15 5 2 7 1 8 77 9 78 10 79 11 80 12 3 13
REMARK SMILES IDX 4 14 5 16 6 17 7 19 8 20 12 21 9 22 11 23 13 24 10 25 19 26
REMARK SMILES IDX 20 27 21 28 22 30 23 31 24 32 76 33 25 34 75 35 26 36 27 37
REMARK SMILES IDX 28 38 69 39 29 40 74 41 68 42 70 43 30 44 73 45 67 46 66 47
REMARK SMILES IDX 31 49 57 50 40 51 56 52 41 53 44 54 55 55 71 56 42 57 43 58
REMARK SMILES IDX 54 60 72 61 45 62 32 63 33 64 38 65 34 66 35 67 37 68 39 69
REMARK SMILES IDX 36 70 58 71 59 72 64 73 60 74 61 75 63 76 65 77 62 78 46 79
REMARK SMILES IDX 47 80 52 81 48 82 49 83 51 84 53 85 50 86
REMARK H PARENT 16 6 3 15 6 18 20 29 70 48 44 59
REMARK Flexibility Score: inf
ROOT
ATOM      1  C   UNL     1      -1.353   2.825  -0.467  1.00  0.00     0.042 C 
ENDROOT
BRANCH   1   2
ATOM      2  C   UNL     1      -1.130   1.882   0.702  1.00  0.00     0.117 C 
BRANCH   2   3
ATOM      3  N   UNL     1      -1.733   0.584   0.457  1.00  0.00    -0.354 N 
ATOM      4  C   UNL     1      -1.265  -0.682   0.654  1.00  0.00     0.255 C 
ATOM      5  O   UNL     1      -2.029  -1.581   0.297  1.00  0.00    -0.272 OA
ATOM      6  H   UNL     1      -2.642   0.626   0.082  1.00  0.00     0.163 HD
BRANCH   4   7
ATOM      7  C   UNL     1       0.101  -0.942   1.328  1.00  0.00     0.213 C 
ATOM      8  C   UNL     1      -0.001  -0.325   2.728  1.00  0.00     0.056 C 
BRANCH   7   9
ATOM      9  C   UNL     1       0.191  -2.481   1.467  1.00  0.00     0.420 C 
ATOM     10  F   UNL     1       0.245  -3.098   0.264  1.00  0.00    -0.168 F 
ATOM     11  F   UNL     1       1.311  -2.847   2.138  1.00  0.00    -0.168 F 
ATOM     12  F   UNL     1      -0.839  -3.004   2.172  1.00  0.00    -0.168 F 
ENDBRANCH   7   9
BRANCH   7  13
ATOM     13  N   UNL     1       1.149  -0.415   0.376  1.00  0.00    -0.316 N 
ATOM     14  C   UNL     1       2.149   0.479   0.344  1.00  0.00     0.320 C 
ATOM     15  H   UNL     1       1.075  -0.870  -0.494  1.00  0.00     0.166 HD
ATOM     16  O   UNL     1       2.470   0.920  -0.762  1.00  0.00    -0.248 OA
ATOM     17  N   UNL     1       2.712   1.017   1.439  1.00  0.00    -0.307 N 
ATOM     18  H   UNL     1       2.994   1.955   1.337  1.00  0.00     0.171 HD
BRANCH  17  19
ATOM     19  C   UNL     1       2.963   0.465   2.702  1.00  0.00     0.061 A 
ATOM     20  C   UNL     1       2.748   1.315   3.795  1.00  0.00     0.028 A 
ATOM     21  C   UNL     1       3.365  -0.859   2.924  1.00  0.00     0.064 A 
ATOM     22  C   UNL     1       2.741   0.797   5.090  1.00  0.00     0.002 A 
ATOM     23  C   UNL     1       3.366  -1.372   4.225  1.00  0.00     0.023 A 
ATOM     24  Cl  UNL     1       3.990  -1.854   1.656  1.00  0.00    -0.082 Cl
ATOM     25  C   UNL     1       3.014  -0.554   5.301  1.00  0.00     0.002 A 
ENDBRANCH  17  19
ENDBRANCH   7  13
ENDBRANCH   4   7
ENDBRANCH   2   3
ENDBRANCH   1   2
BRANCH   1  26
ATOM     26  C   UNL     1      -2.817   3.166  -0.702  1.00  0.00     0.118 C 
BRANCH  26  27
ATOM     27  N   UNL     1      -3.403   3.951   0.376  1.00  0.00    -0.352 N 
ATOM     28  C   UNL     1      -4.133   5.117   0.281  1.00  0.00     0.251 C 
ATOM     29  H   UNL     1      -3.260   3.607   1.287  1.00  0.00     0.163 HD
ATOM     30  O   UNL     1      -4.449   5.746   1.274  1.00  0.00    -0.269 OA
BRANCH  28  31
ATOM     31  C   UNL     1      -4.487   5.604  -1.068  1.00  0.00     0.039 A 
ATOM     32  C   UNL     1      -4.127   6.901  -1.437  1.00  0.00     0.014 A 
ATOM     33  C   UNL     1      -5.074   4.733  -1.989  1.00  0.00     0.014 A 
ATOM     34  C   UNL     1      -4.278   7.297  -2.767  1.00  0.00     0.010 A 
ATOM     35  C   UNL     1      -5.140   5.100  -3.326  1.00  0.00     0.010 A 
ATOM     36  C   UNL     1      -4.738   6.383  -3.729  1.00  0.00    -0.014 A 
BRANCH  36  37
ATOM     37  C   UNL     1      -4.806   6.737  -5.168  1.00  0.00     0.031 A 
ATOM     38  C   UNL     1      -6.133   6.727  -5.874  1.00  0.00     0.074 A 
ATOM     39  C   UNL     1      -3.672   6.973  -5.856  1.00  0.00     0.049 A 
ATOM     40  N   UNL     1      -6.394   6.885  -7.146  1.00  0.00    -0.248 NA
ATOM     41  C   UNL     1      -7.320   6.469  -5.044  1.00  0.00     0.031 C 
ATOM     42  C   UNL     1      -2.319   6.957  -5.296  1.00  0.00     0.029 A 
ATOM     43  N   UNL     1      -3.476   7.257  -7.184  1.00  0.00    -0.354 N 
ATOM     44  C   UNL     1      -7.767   6.720  -7.270  1.00  0.00     0.074 A 
ATOM     45  C   UNL     1      -8.277   6.397  -5.956  1.00  0.00     0.031 C 
ATOM     46  C   UNL     1      -1.437   7.240  -6.268  1.00  0.00     0.029 A 
ATOM     47  C   UNL     1      -2.155   7.417  -7.526  1.00  0.00     0.049 A 
ATOM     48  H   UNL     1      -4.213   7.338  -7.832  1.00  0.00     0.167 HD
ATOM     49  C   UNL     1      -8.537   6.850  -8.375  1.00  0.00     0.037 A 
ATOM     50  C   UNL     1      -1.588   7.667  -8.721  1.00  0.00     0.037 A 
ATOM     51  C   UNL     1      -8.031   7.210  -9.672  1.00  0.00     0.049 A 
ATOM     52  C   UNL     1      -2.465   7.814  -9.933  1.00  0.00     0.074 A 
ATOM     53  C   UNL     1      -8.737   7.442 -10.839  1.00  0.00     0.029 A 
ATOM     54  N   UNL     1      -6.689   7.391  -9.971  1.00  0.00    -0.354 N 
ATOM     55  N   UNL     1      -3.770   7.724 -10.023  1.00  0.00    -0.248 NA
ATOM     56  C   UNL     1      -1.792   8.097 -11.209  1.00  0.00     0.031 C 
ATOM     57  C   UNL     1      -7.819   7.728 -11.854  1.00  0.00     0.029 A 
ATOM     58  C   UNL     1      -6.544   7.714 -11.310  1.00  0.00     0.049 A 
ATOM     59  H   UNL     1      -5.949   7.304  -9.327  1.00  0.00     0.167 HD
ATOM     60  C   UNL     1      -4.076   7.961 -11.356  1.00  0.00     0.074 A 
ATOM     61  C   UNL     1      -2.822   8.213 -12.036  1.00  0.00     0.031 C 
ATOM     62  C   UNL     1      -5.287   7.969 -11.965  1.00  0.00     0.037 A 
BRANCH  49  63
ATOM     63  C   UNL     1     -10.010   6.611  -8.221  1.00  0.00     0.057 A 
ATOM     64  C   UNL     1     -10.833   7.505  -7.524  1.00  0.00     0.134 A 
ATOM     65  C   UNL     1     -10.616   5.487  -8.795  1.00  0.00     0.134 A 
ATOM     66  F   UNL     1     -10.312   8.594  -6.938  1.00  0.00    -0.206 F 
ATOM     67  C   UNL     1     -12.202   7.276  -7.379  1.00  0.00     0.040 A 
ATOM     68  C   UNL     1     -11.989   5.261  -8.679  1.00  0.00     0.040 A 
ATOM     69  F   UNL     1      -9.887   4.593  -9.478  1.00  0.00    -0.206 F 
ATOM     70  C   UNL     1     -12.784   6.153  -7.963  1.00  0.00     0.006 A 
ENDBRANCH  49  63
BRANCH  50  71
ATOM     71  C   UNL     1      -0.115   7.815  -8.830  1.00  0.00     0.057 A 
ATOM     72  C   UNL     1       0.466   9.064  -9.079  1.00  0.00     0.134 A 
ATOM     73  C   UNL     1       0.745   6.719  -8.695  1.00  0.00     0.134 A 
ATOM     74  F   UNL     1      -0.307  10.148  -9.237  1.00  0.00    -0.206 F 
ATOM     75  C   UNL     1       1.848   9.216  -9.209  1.00  0.00     0.040 A 
ATOM     76  C   UNL     1       2.130   6.860  -8.799  1.00  0.00     0.040 A 
ATOM     77  F   UNL     1       0.251   5.497  -8.449  1.00  0.00    -0.206 F 
ATOM     78  C   UNL     1       2.684   8.111  -9.063  1.00  0.00     0.006 A 
ENDBRANCH  50  71
BRANCH  62  79
ATOM     79  C   UNL     1      -5.318   8.287 -13.429  1.00  0.00     0.057 A 
ATOM     80  C   UNL     1      -4.900   7.361 -14.393  1.00  0.00     0.134 A 
ATOM     81  C   UNL     1      -5.821   9.513 -13.881  1.00  0.00     0.134 A 
ATOM     82  F   UNL     1      -4.396   6.174 -14.022  1.00  0.00    -0.206 F 
ATOM     83  C   UNL     1      -4.967   7.650 -15.756  1.00  0.00     0.040 A 
ATOM     84  C   UNL     1      -5.915   9.804 -15.242  1.00  0.00     0.040 A 
ATOM     85  F   UNL     1      -6.245  10.440 -13.008  1.00  0.00    -0.206 F 
ATOM     86  C   UNL     1      -5.484   8.872 -16.184  1.00  0.00     0.006 A 
ENDBRANCH  62  79
ENDBRANCH  36  37
ENDBRANCH  28  31
ENDBRANCH  26  27
ENDBRANCH   1  26
TORSDOF 13
