REMARK SMILES C=CCN(CC(=O)NCCCNC(=O)c1ccc(-c2c3nc(c(-c4c(F)cccc4F)c4ccc([nH]4)c(-c4c(F)cccc4F)c4nc(c(-c5c(F)cccc5F)c5ccc2[nH]5)C=C4)C=C3)cc1)C(=O)CC1([NH2+]C)CCCCC1
REMARK SMILES IDX 6 1 7 2 8 3 5 5 4 6 3 7 2 8 1 9 69 10 70 11 71 12 72 13
REMARK SMILES IDX 75 14 79 15 76 16 78 17 77 18 73 19 74 20 9 23 10 24 11 25
REMARK SMILES IDX 12 26 13 27 14 29 15 30 16 31 68 32 17 33 67 34 18 35 19 36
REMARK SMILES IDX 20 37 61 38 21 39 66 40 60 41 62 42 22 43 65 44 59 45 58 46
REMARK SMILES IDX 23 48 49 49 32 50 48 51 33 52 36 53 47 54 63 55 34 56 35 57
REMARK SMILES IDX 46 59 64 60 37 61 24 62 25 63 30 64 26 65 27 66 29 67 31 68
REMARK SMILES IDX 28 69 50 70 51 71 56 72 52 73 53 74 55 75 57 76 54 77 38 78
REMARK SMILES IDX 39 79 44 80 40 81 41 82 43 83 45 84 42 85
REMARK H PARENT 8 4 73 21 73 22 12 28 62 47 36 58
REMARK Flexibility Score: inf
ROOT
ATOM      1  C   UNL     1      -4.128   1.887   2.336  1.00  0.00     0.239 C 
ATOM      2  O   UNL     1      -4.542   2.192   3.455  1.00  0.00    -0.273 OA
ATOM      3  N   UNL     1      -4.982   1.264   1.479  1.00  0.00    -0.354 N 
ATOM      4  H   UNL     1      -5.883   1.079   1.832  1.00  0.00     0.163 HD
ENDROOT
BRANCH   1   5
ATOM      5  C   UNL     1      -2.696   2.195   1.892  1.00  0.00     0.219 C 
BRANCH   5   6
ATOM      6  N   UNL     1      -1.796   1.038   1.792  1.00  0.00    -0.329 N 
BRANCH   6   7
ATOM      7  C   UNL     1      -1.172   0.811   0.487  1.00  0.00     0.147 C 
BRANCH   7   8
ATOM      8  C   UNL     1       0.308   1.044   0.565  1.00  0.00    -0.014 C 
ATOM      9  C   UNL     1       1.212   0.141   0.157  1.00  0.00     0.006 C 
ENDBRANCH   7   8
ENDBRANCH   6   7
BRANCH   6  10
ATOM     10  C   UNL     1      -1.484   0.129   2.801  1.00  0.00     0.229 C 
ATOM     11  O   UNL     1      -0.904  -0.927   2.508  1.00  0.00    -0.275 OA
BRANCH  10  12
ATOM     12  C   UNL     1      -1.921   0.316   4.255  1.00  0.00     0.168 C 
BRANCH  12  13
ATOM     13  C   UNL     1      -1.195   1.300   5.230  1.00  0.00     0.105 C 
ATOM     14  C   UNL     1      -1.251   2.758   4.734  1.00  0.00     0.069 C 
ATOM     15  C   UNL     1      -2.003   1.233   6.574  1.00  0.00     0.069 C 
ATOM     16  C   UNL     1      -0.880   3.831   5.752  1.00  0.00     0.006 C 
ATOM     17  C   UNL     1      -1.667   2.328   7.593  1.00  0.00     0.006 C 
ATOM     18  C   UNL     1      -1.770   3.718   6.981  1.00  0.00     0.000 C 
BRANCH  13  19
ATOM     19  N   UNL     1       0.185   0.909   5.594  1.00  0.00    -0.343 N 
ATOM     20  C   UNL     1       1.120   0.696   4.502  1.00  0.00     0.331 C 
ATOM     21  H   UNL     1       0.128   0.040   6.124  1.00  0.00     0.346 HD
ATOM     22  H   UNL     1       0.558   1.706   6.111  1.00  0.00     0.346 HD
ENDBRANCH  13  19
ENDBRANCH  12  13
ENDBRANCH  10  12
ENDBRANCH   6  10
ENDBRANCH   5   6
ENDBRANCH   1   5
BRANCH   3  23
ATOM     23  C   UNL     1      -4.741   0.839   0.117  1.00  0.00     0.117 C 
BRANCH  23  24
ATOM     24  C   UNL     1      -4.534  -0.665   0.020  1.00  0.00     0.042 C 
BRANCH  24  25
ATOM     25  C   UNL     1      -5.758  -1.470   0.441  1.00  0.00     0.118 C 
BRANCH  25  26
ATOM     26  N   UNL     1      -6.944  -1.107  -0.325  1.00  0.00    -0.352 N 
ATOM     27  C   UNL     1      -7.612  -1.798  -1.303  1.00  0.00     0.251 C 
ATOM     28  H   UNL     1      -7.325  -0.226  -0.106  1.00  0.00     0.163 HD
ATOM     29  O   UNL     1      -8.408  -1.213  -2.029  1.00  0.00    -0.269 OA
BRANCH  27  30
ATOM     30  C   UNL     1      -7.374  -3.244  -1.478  1.00  0.00     0.039 A 
ATOM     31  C   UNL     1      -7.311  -3.774  -2.769  1.00  0.00     0.014 A 
ATOM     32  C   UNL     1      -7.250  -4.080  -0.366  1.00  0.00     0.014 A 
ATOM     33  C   UNL     1      -7.064  -5.136  -2.943  1.00  0.00     0.010 A 
ATOM     34  C   UNL     1      -6.916  -5.416  -0.540  1.00  0.00     0.010 A 
ATOM     35  C   UNL     1      -6.832  -5.960  -1.829  1.00  0.00    -0.014 A 
BRANCH  35  36
ATOM     36  C   UNL     1      -6.513  -7.399  -1.984  1.00  0.00     0.031 A 
ATOM     37  C   UNL     1      -7.444  -8.438  -1.424  1.00  0.00     0.074 A 
ATOM     38  C   UNL     1      -5.347  -7.762  -2.552  1.00  0.00     0.049 A 
ATOM     39  N   UNL     1      -7.298  -9.737  -1.374  1.00  0.00    -0.248 NA
ATOM     40  C   UNL     1      -8.689  -7.949  -0.809  1.00  0.00     0.031 C 
ATOM     41  C   UNL     1      -4.338  -6.840  -3.079  1.00  0.00     0.029 A 
ATOM     42  N   UNL     1      -4.808  -9.004  -2.767  1.00  0.00    -0.354 N 
ATOM     43  C   UNL     1      -8.417 -10.215  -0.704  1.00  0.00     0.074 A 
ATOM     44  C   UNL     1      -9.207  -9.066  -0.321  1.00  0.00     0.031 C 
ATOM     45  C   UNL     1      -3.313  -7.550  -3.575  1.00  0.00     0.029 A 
ATOM     46  C   UNL     1      -3.574  -8.970  -3.368  1.00  0.00     0.049 A 
ATOM     47  H   UNL     1      -5.262  -9.840  -2.514  1.00  0.00     0.167 HD
ATOM     48  C   UNL     1      -8.767 -11.499  -0.453  1.00  0.00     0.037 A 
ATOM     49  C   UNL     1      -2.744  -9.974  -3.707  1.00  0.00     0.037 A 
ATOM     50  C   UNL     1      -7.992 -12.639  -0.866  1.00  0.00     0.049 A 
ATOM     51  C   UNL     1      -3.160 -11.391  -3.430  1.00  0.00     0.074 A 
ATOM     52  C   UNL     1      -8.289 -13.982  -0.722  1.00  0.00     0.029 A 
ATOM     53  N   UNL     1      -6.762 -12.566  -1.504  1.00  0.00    -0.354 N 
ATOM     54  N   UNL     1      -4.256 -11.834  -2.861  1.00  0.00    -0.248 NA
ATOM     55  C   UNL     1      -2.230 -12.448  -3.848  1.00  0.00     0.031 C 
ATOM     56  C   UNL     1      -7.221 -14.723  -1.239  1.00  0.00     0.029 A 
ATOM     57  C   UNL     1      -6.280 -13.841  -1.746  1.00  0.00     0.049 A 
ATOM     58  H   UNL     1      -6.301 -11.731  -1.749  1.00  0.00     0.167 HD
ATOM     59  C   UNL     1      -4.160 -13.219  -2.877  1.00  0.00     0.074 A 
ATOM     60  C   UNL     1      -2.905 -13.543  -3.524  1.00  0.00     0.031 C 
ATOM     61  C   UNL     1      -5.032 -14.140  -2.400  1.00  0.00     0.037 A 
BRANCH  48  62
ATOM     62  C   UNL     1     -10.046 -11.734   0.296  1.00  0.00     0.057 A 
ATOM     63  C   UNL     1     -11.298 -11.482  -0.282  1.00  0.00     0.134 A 
ATOM     64  C   UNL     1     -10.029 -12.241   1.601  1.00  0.00     0.134 A 
ATOM     65  F   UNL     1     -11.386 -10.983  -1.524  1.00  0.00    -0.206 F 
ATOM     66  C   UNL     1     -12.485 -11.699   0.421  1.00  0.00     0.040 A 
ATOM     67  C   UNL     1     -11.210 -12.488   2.304  1.00  0.00     0.040 A 
ATOM     68  F   UNL     1      -8.866 -12.509   2.213  1.00  0.00    -0.206 F 
ATOM     69  C   UNL     1     -12.442 -12.210   1.716  1.00  0.00     0.006 A 
ENDBRANCH  48  62
BRANCH  49  70
ATOM     70  C   UNL     1      -1.452  -9.675  -4.372  1.00  0.00     0.057 A 
ATOM     71  C   UNL     1      -1.251  -9.980  -5.723  1.00  0.00     0.134 A 
ATOM     72  C   UNL     1      -0.393  -9.074  -3.682  1.00  0.00     0.134 A 
ATOM     73  F   UNL     1      -2.224 -10.570  -6.433  1.00  0.00    -0.206 F 
ATOM     74  C   UNL     1      -0.038  -9.715  -6.360  1.00  0.00     0.040 A 
ATOM     75  C   UNL     1       0.817  -8.781  -4.312  1.00  0.00     0.040 A 
ATOM     76  F   UNL     1      -0.527  -8.747  -2.388  1.00  0.00    -0.206 F 
ATOM     77  C   UNL     1       0.999  -9.108  -5.654  1.00  0.00     0.006 A 
ENDBRANCH  49  70
BRANCH  61  78
ATOM     78  C   UNL     1      -4.676 -15.584  -2.595  1.00  0.00     0.057 A 
ATOM     79  C   UNL     1      -3.667 -16.204  -1.849  1.00  0.00     0.134 A 
ATOM     80  C   UNL     1      -5.383 -16.372  -3.512  1.00  0.00     0.134 A 
ATOM     81  F   UNL     1      -2.945 -15.500  -0.964  1.00  0.00    -0.206 F 
ATOM     82  C   UNL     1      -3.358 -17.554  -2.023  1.00  0.00     0.040 A 
ATOM     83  C   UNL     1      -5.101 -17.728  -3.677  1.00  0.00     0.040 A 
ATOM     84  F   UNL     1      -6.367 -15.840  -4.252  1.00  0.00    -0.206 F 
ATOM     85  C   UNL     1      -4.082 -18.322  -2.935  1.00  0.00     0.006 A 
ENDBRANCH  61  78
ENDBRANCH  35  36
ENDBRANCH  27  30
ENDBRANCH  25  26
ENDBRANCH  24  25
ENDBRANCH  23  24
ENDBRANCH   3  23
TORSDOF 17
