REMARK SMILES O=C(NCCCNC(=O)c1ccc(-c2c3nc(c(-c4c(F)cccc4F)c4ccc([nH]4)c(-c4c(F)cccc4F)c4nc(c(-c5c(F)cccc5F)c5ccc2[nH]5)C=C4)C=C3)cc1)C1=Cc2cc(Cl)cc(-c3ccc(CO)cc3)c2O[C@@H]1C(F)(F)F
REMARK SMILES IDX 4 1 3 2 1 3 2 4 64 6 65 7 82 8 66 9 81 10 67 11 80 12 68 13
REMARK SMILES IDX 71 14 69 15 70 16 83 17 84 18 85 19 86 20 72 21 73 22 79 23
REMARK SMILES IDX 74 24 78 25 75 26 76 27 77 28 5 30 6 31 7 32 8 33 9 35 10 36
REMARK SMILES IDX 11 37 63 38 12 39 62 40 13 41 14 42 15 43 56 44 16 45 61 46
REMARK SMILES IDX 55 47 57 48 17 49 60 50 54 51 53 52 18 54 44 55 27 56 43 57
REMARK SMILES IDX 28 58 31 59 42 60 58 61 29 62 30 63 41 65 59 66 32 67 19 68
REMARK SMILES IDX 20 69 25 70 21 71 22 72 24 73 26 74 23 75 45 76 46 77 51 78
REMARK SMILES IDX 47 79 48 80 50 81 52 82 49 83 33 84 34 85 39 86 35 87 36 88
REMARK SMILES IDX 38 89 40 90 37 91
REMARK H PARENT 3 5 77 29 7 34 57 53 31 64
REMARK Flexibility Score: inf
ROOT
ATOM      1  C   UNL     1       2.969   0.114  -2.130  1.00  0.00     0.118 C 
ENDROOT
BRANCH   1   2
ATOM      2  N   UNL     1       2.210  -0.916  -1.412  1.00  0.00    -0.352 N 
ATOM      3  O   UNL     1       1.357  -1.979   0.405  1.00  0.00    -0.270 OA
ATOM      4  C   UNL     1       2.212  -1.252  -0.080  1.00  0.00     0.251 C 
ATOM      5  H   UNL     1       1.603  -1.451  -1.973  1.00  0.00     0.163 HD
BRANCH   4   6
ATOM      6  C   UNL     1       3.264  -0.652   0.751  1.00  0.00     0.067 C 
ATOM      7  C   UNL     1       4.528  -0.995   0.476  1.00  0.00     0.025 C 
ATOM      8  C   UNL     1       2.908   0.549   1.567  1.00  0.00     0.314 C 
ATOM      9  C   UNL     1       5.484   0.113   0.559  1.00  0.00     0.019 A 
ATOM     10  O   UNL     1       3.714   1.688   1.179  1.00  0.00    -0.475 OA
ATOM     11  C   UNL     1       6.773  -0.099   0.066  1.00  0.00     0.032 A 
ATOM     12  C   UNL     1       4.985   1.425   0.717  1.00  0.00     0.135 A 
ATOM     13  C   UNL     1       7.521   0.988  -0.371  1.00  0.00     0.042 A 
ATOM     14  C   UNL     1       5.715   2.517   0.221  1.00  0.00     0.026 A 
ATOM     15  Cl  UNL     1       9.037   0.713  -1.137  1.00  0.00    -0.084 Cl
ATOM     16  C   UNL     1       6.993   2.278  -0.319  1.00  0.00     0.033 A 
BRANCH   8  17
ATOM     17  C   UNL     1       2.980   0.275   3.079  1.00  0.00     0.429 C 
ATOM     18  F   UNL     1       2.572   1.353   3.792  1.00  0.00    -0.167 F 
ATOM     19  F   UNL     1       2.177  -0.754   3.440  1.00  0.00    -0.167 F 
ATOM     20  F   UNL     1       4.232  -0.029   3.496  1.00  0.00    -0.167 F 
ENDBRANCH   8  17
BRANCH  14  21
ATOM     21  C   UNL     1       5.110   3.846   0.038  1.00  0.00    -0.015 A 
ATOM     22  C   UNL     1       4.290   4.089  -1.078  1.00  0.00     0.009 A 
ATOM     23  C   UNL     1       5.401   4.914   0.889  1.00  0.00     0.009 A 
ATOM     24  C   UNL     1       3.852   5.373  -1.391  1.00  0.00     0.007 A 
ATOM     25  C   UNL     1       4.944   6.203   0.591  1.00  0.00     0.007 A 
ATOM     26  C   UNL     1       4.190   6.446  -0.566  1.00  0.00    -0.023 A 
BRANCH  26  27
ATOM     27  C   UNL     1       3.828   7.846  -0.980  1.00  0.00     0.191 C 
BRANCH  27  28
ATOM     28  O   UNL     1       4.771   8.339  -1.924  1.00  0.00    -0.392 OA
ATOM     29  H   UNL     1       5.654   8.351  -1.524  1.00  0.00     0.211 HD
ENDBRANCH  27  28
ENDBRANCH  26  27
ENDBRANCH  14  21
ENDBRANCH   4   6
ENDBRANCH   1   2
BRANCH   1  30
ATOM     30  C   UNL     1       3.975  -0.473  -3.119  1.00  0.00     0.042 C 
BRANCH  30  31
ATOM     31  C   UNL     1       4.439   0.525  -4.181  1.00  0.00     0.118 C 
BRANCH  31  32
ATOM     32  N   UNL     1       5.162   1.687  -3.686  1.00  0.00    -0.352 N 
ATOM     33  C   UNL     1       5.904   2.620  -4.386  1.00  0.00     0.251 C 
ATOM     34  H   UNL     1       5.115   1.830  -2.713  1.00  0.00     0.163 HD
ATOM     35  O   UNL     1       6.388   3.583  -3.798  1.00  0.00    -0.269 OA
BRANCH  33  36
ATOM     36  C   UNL     1       6.244   2.379  -5.810  1.00  0.00     0.039 A 
ATOM     37  C   UNL     1       7.588   2.500  -6.183  1.00  0.00     0.014 A 
ATOM     38  C   UNL     1       5.314   1.879  -6.718  1.00  0.00     0.014 A 
ATOM     39  C   UNL     1       8.027   1.936  -7.381  1.00  0.00     0.010 A 
ATOM     40  C   UNL     1       5.764   1.234  -7.865  1.00  0.00     0.010 A 
ATOM     41  C   UNL     1       7.134   1.197  -8.169  1.00  0.00    -0.014 A 
BRANCH  41  42
ATOM     42  C   UNL     1       7.612   0.268  -9.226  1.00  0.00     0.031 A 
ATOM     43  C   UNL     1       7.135   0.416 -10.640  1.00  0.00     0.074 A 
ATOM     44  C   UNL     1       8.364  -0.795  -8.871  1.00  0.00     0.049 A 
ATOM     45  N   UNL     1       7.272  -0.407 -11.647  1.00  0.00    -0.248 NA
ATOM     46  C   UNL     1       6.369   1.632 -10.951  1.00  0.00     0.031 C 
ATOM     47  C   UNL     1       8.842  -1.088  -7.515  1.00  0.00     0.029 A 
ATOM     48  N   UNL     1       8.844  -1.844  -9.616  1.00  0.00    -0.354 N 
ATOM     49  C   UNL     1       6.585   0.176 -12.703  1.00  0.00     0.074 A 
ATOM     50  C   UNL     1       6.000   1.402 -12.204  1.00  0.00     0.031 C 
ATOM     51  C   UNL     1       9.566  -2.217  -7.532  1.00  0.00     0.029 A 
ATOM     52  C   UNL     1       9.562  -2.761  -8.884  1.00  0.00     0.049 A 
ATOM     53  H   UNL     1       8.688  -1.932 -10.585  1.00  0.00     0.167 HD
ATOM     54  C   UNL     1       6.469  -0.264 -13.979  1.00  0.00     0.037 A 
ATOM     55  C   UNL     1      10.136  -3.920  -9.255  1.00  0.00     0.037 A 
ATOM     56  C   UNL     1       7.088  -1.461 -14.481  1.00  0.00     0.049 A 
ATOM     57  C   UNL     1      10.003  -4.376 -10.680  1.00  0.00     0.074 A 
ATOM     58  C   UNL     1       7.080  -1.960 -15.772  1.00  0.00     0.029 A 
ATOM     59  N   UNL     1       7.837  -2.341 -13.715  1.00  0.00    -0.354 N 
ATOM     60  N   UNL     1       9.379  -3.796 -11.675  1.00  0.00    -0.248 NA
ATOM     61  C   UNL     1      10.642  -5.653 -11.030  1.00  0.00     0.031 C 
ATOM     62  C   UNL     1       7.810  -3.154 -15.783  1.00  0.00     0.029 A 
ATOM     63  C   UNL     1       8.291  -3.385 -14.504  1.00  0.00     0.049 A 
ATOM     64  H   UNL     1       8.020  -2.239 -12.753  1.00  0.00     0.167 HD
ATOM     65  C   UNL     1       9.562  -4.626 -12.772  1.00  0.00     0.074 A 
ATOM     66  C   UNL     1      10.368  -5.743 -12.324  1.00  0.00     0.031 C 
ATOM     67  C   UNL     1       9.098  -4.480 -14.036  1.00  0.00     0.037 A 
BRANCH  54  68
ATOM     68  C   UNL     1       5.652   0.569 -14.919  1.00  0.00     0.057 A 
ATOM     69  C   UNL     1       6.120   1.797 -15.405  1.00  0.00     0.134 A 
ATOM     70  C   UNL     1       4.396   0.134 -15.359  1.00  0.00     0.134 A 
ATOM     71  F   UNL     1       7.310   2.274 -15.009  1.00  0.00    -0.206 F 
ATOM     72  C   UNL     1       5.357   2.576 -16.275  1.00  0.00     0.040 A 
ATOM     73  C   UNL     1       3.632   0.894 -16.247  1.00  0.00     0.040 A 
ATOM     74  F   UNL     1       3.892  -1.034 -14.934  1.00  0.00    -0.206 F 
ATOM     75  C   UNL     1       4.110   2.122 -16.702  1.00  0.00     0.006 A 
ENDBRANCH  54  68
BRANCH  55  76
ATOM     76  C   UNL     1      10.895  -4.732  -8.271  1.00  0.00     0.057 A 
ATOM     77  C   UNL     1      12.291  -4.819  -8.341  1.00  0.00     0.134 A 
ATOM     78  C   UNL     1      10.254  -5.451  -7.256  1.00  0.00     0.134 A 
ATOM     79  F   UNL     1      12.959  -4.167  -9.305  1.00  0.00    -0.206 F 
ATOM     80  C   UNL     1      13.021  -5.606  -7.450  1.00  0.00     0.040 A 
ATOM     81  C   UNL     1      10.973  -6.227  -6.345  1.00  0.00     0.040 A 
ATOM     82  F   UNL     1       8.920  -5.404  -7.132  1.00  0.00    -0.206 F 
ATOM     83  C   UNL     1      12.361  -6.311  -6.446  1.00  0.00     0.006 A 
ENDBRANCH  55  76
BRANCH  67  84
ATOM     84  C   UNL     1       9.469  -5.543 -15.022  1.00  0.00     0.057 A 
ATOM     85  C   UNL     1       8.821  -6.784 -15.036  1.00  0.00     0.134 A 
ATOM     86  C   UNL     1      10.448  -5.306 -15.994  1.00  0.00     0.134 A 
ATOM     87  F   UNL     1       7.886  -7.073 -14.118  1.00  0.00    -0.206 F 
ATOM     88  C   UNL     1       9.141  -7.758 -15.982  1.00  0.00     0.040 A 
ATOM     89  C   UNL     1      10.763  -6.265 -16.955  1.00  0.00     0.040 A 
ATOM     90  F   UNL     1      11.100  -4.134 -16.031  1.00  0.00    -0.206 F 
ATOM     91  C   UNL     1      10.110  -7.496 -16.950  1.00  0.00     0.006 A 
ENDBRANCH  67  84
ENDBRANCH  41  42
ENDBRANCH  33  36
ENDBRANCH  31  32
ENDBRANCH  30  31
ENDBRANCH   1  30
TORSDOF 14
