REMARK SMILES CCn1cc(C)c(C(=O)NCCCNC(=O)c2ccc(-c3c4nc(c(-c5c(F)cccc5F)c5ccc([nH]5)c(-c5c(F)cccc5F)c5nc(c(-c6c(F)cccc6F)c6ccc3[nH]6)C=C5)C=C4)cc2)c1CC(=O)N1CC[NH+](C)CC1
REMARK SMILES IDX 12 1 11 2 10 3 8 4 9 5 7 7 3 8 4 9 71 10 5 11 6 12 2 13 1 14
REMARK SMILES IDX 72 15 73 16 74 17 75 18 76 19 81 20 77 21 80 22 78 23 79 24
REMARK SMILES IDX 13 26 14 27 15 28 16 30 17 31 18 32 70 33 19 34 69 35 20 36
REMARK SMILES IDX 21 37 22 38 63 39 23 40 68 41 62 42 64 43 24 44 67 45 61 46
REMARK SMILES IDX 60 47 25 49 51 50 34 51 50 52 35 53 38 54 49 55 65 56 36 57
REMARK SMILES IDX 37 58 48 60 66 61 39 62 26 63 27 64 32 65 28 66 29 67 31 68
REMARK SMILES IDX 33 69 30 70 52 71 53 72 58 73 54 74 55 75 57 76 59 77 56 78
REMARK SMILES IDX 40 79 41 80 46 81 42 82 43 83 45 84 47 85 44 86
REMARK H PARENT 10 6 78 25 14 29 64 48 38 59
REMARK Flexibility Score: inf
ROOT
ATOM      1  C   UNL     1       2.852  -2.542   5.837  1.00  0.00     0.042 C 
ENDROOT
BRANCH   1   2
ATOM      2  C   UNL     1       1.573  -1.831   6.280  1.00  0.00     0.118 C 
BRANCH   2   3
ATOM      3  N   UNL     1       1.823  -0.433   6.569  1.00  0.00    -0.352 N 
ATOM      4  C   UNL     1       1.647   0.725   5.861  1.00  0.00     0.253 C 
ATOM      5  O   UNL     1       1.901   1.751   6.501  1.00  0.00    -0.269 OA
ATOM      6  H   UNL     1       2.198  -0.284   7.467  1.00  0.00     0.163 HD
BRANCH   4   7
ATOM      7  C   UNL     1       1.182   0.808   4.458  1.00  0.00     0.064 A 
ATOM      8  N   UNL     1       0.513   0.490   2.345  1.00  0.00    -0.350 N 
ATOM      9  C   UNL     1       0.224   1.790   2.625  1.00  0.00     0.090 A 
ATOM     10  C   UNL     1       1.343  -0.028   3.332  1.00  0.00     0.040 A 
ATOM     11  C   UNL     1       0.670   2.054   3.897  1.00  0.00    -0.020 A 
ATOM     12  C   UNL     1       0.668   3.406   4.526  1.00  0.00     0.047 C 
BRANCH   8  13
ATOM     13  C   UNL     1       0.060  -0.162   1.122  1.00  0.00     0.118 C 
ATOM     14  C   UNL     1       0.916   0.197  -0.080  1.00  0.00     0.027 C 
ENDBRANCH   8  13
BRANCH  10  15
ATOM     15  C   UNL     1       2.147  -1.255   3.018  1.00  0.00     0.155 C 
BRANCH  15  16
ATOM     16  C   UNL     1       3.683  -1.284   3.010  1.00  0.00     0.228 C 
ATOM     17  O   UNL     1       4.177  -2.380   2.685  1.00  0.00    -0.274 OA
ATOM     18  N   UNL     1       4.532  -0.266   3.402  1.00  0.00    -0.331 N 
ATOM     19  C   UNL     1       5.911  -0.635   3.762  1.00  0.00     0.181 C 
ATOM     20  C   UNL     1       4.154   1.095   3.761  1.00  0.00     0.181 C 
ATOM     21  C   UNL     1       6.942   0.482   3.515  1.00  0.00     0.283 C 
ATOM     22  C   UNL     1       5.241   2.161   3.548  1.00  0.00     0.283 C 
ATOM     23  N   UNL     1       6.576   1.804   4.053  1.00  0.00    -0.334 N 
ATOM     24  C   UNL     1       6.637   1.850   5.513  1.00  0.00     0.332 C 
ATOM     25  H   UNL     1       7.257   2.493   3.732  1.00  0.00     0.347 HD
ENDBRANCH  15  16
ENDBRANCH  10  15
ENDBRANCH   4   7
ENDBRANCH   2   3
ENDBRANCH   1   2
BRANCH   1  26
ATOM     26  C   UNL     1       3.752  -2.969   6.964  1.00  0.00     0.118 C 
BRANCH  26  27
ATOM     27  N   UNL     1       3.357  -4.218   7.611  1.00  0.00    -0.352 N 
ATOM     28  C   UNL     1       4.112  -4.999   8.483  1.00  0.00     0.251 C 
ATOM     29  H   UNL     1       2.452  -4.546   7.407  1.00  0.00     0.163 HD
ATOM     30  O   UNL     1       3.815  -6.156   8.708  1.00  0.00    -0.269 OA
BRANCH  28  31
ATOM     31  C   UNL     1       5.296  -4.382   9.123  1.00  0.00     0.039 A 
ATOM     32  C   UNL     1       6.452  -5.090   9.455  1.00  0.00     0.014 A 
ATOM     33  C   UNL     1       5.242  -3.015   9.339  1.00  0.00     0.014 A 
ATOM     34  C   UNL     1       7.529  -4.375   9.982  1.00  0.00     0.010 A 
ATOM     35  C   UNL     1       6.393  -2.309   9.447  1.00  0.00     0.010 A 
ATOM     36  C   UNL     1       7.474  -2.972   9.977  1.00  0.00    -0.014 A 
BRANCH  36  37
ATOM     37  C   UNL     1       8.538  -2.114  10.463  1.00  0.00     0.031 A 
ATOM     38  C   UNL     1       9.825  -2.355   9.786  1.00  0.00     0.074 A 
ATOM     39  C   UNL     1       8.319  -1.037  11.255  1.00  0.00     0.049 A 
ATOM     40  N   UNL     1      10.853  -2.961  10.269  1.00  0.00    -0.248 NA
ATOM     41  C   UNL     1       9.912  -2.072   8.344  1.00  0.00     0.031 C 
ATOM     42  C   UNL     1       7.045  -0.459  11.712  1.00  0.00     0.029 A 
ATOM     43  N   UNL     1       9.226  -0.155  11.751  1.00  0.00    -0.354 N 
ATOM     44  C   UNL     1      11.814  -2.906   9.270  1.00  0.00     0.074 A 
ATOM     45  C   UNL     1      11.112  -2.581   8.057  1.00  0.00     0.031 C 
ATOM     46  C   UNL     1       7.255   0.781  12.211  1.00  0.00     0.029 A 
ATOM     47  C   UNL     1       8.683   1.017  12.273  1.00  0.00     0.049 A 
ATOM     48  H   UNL     1      10.195  -0.331  11.741  1.00  0.00     0.167 HD
ATOM     49  C   UNL     1      13.134  -2.837   9.592  1.00  0.00     0.037 A 
ATOM     50  C   UNL     1       9.383   2.103  12.694  1.00  0.00     0.037 A 
ATOM     51  C   UNL     1      13.344  -3.196  10.978  1.00  0.00     0.049 A 
ATOM     52  C   UNL     1      10.782   1.655  12.927  1.00  0.00     0.074 A 
ATOM     53  C   UNL     1      13.034  -4.304  11.747  1.00  0.00     0.029 A 
ATOM     54  N   UNL     1      13.571  -2.179  11.876  1.00  0.00    -0.354 N 
ATOM     55  N   UNL     1      11.128   0.840  13.886  1.00  0.00    -0.248 NA
ATOM     56  C   UNL     1      11.695   1.712  11.795  1.00  0.00     0.031 C 
ATOM     57  C   UNL     1      12.589  -3.772  12.995  1.00  0.00     0.029 A 
ATOM     58  C   UNL     1      12.743  -2.386  12.951  1.00  0.00     0.049 A 
ATOM     59  H   UNL     1      14.210  -1.438  11.767  1.00  0.00     0.167 HD
ATOM     60  C   UNL     1      12.035  -0.030  13.298  1.00  0.00     0.074 A 
ATOM     61  C   UNL     1      12.396   0.598  12.027  1.00  0.00     0.031 C 
ATOM     62  C   UNL     1      12.174  -1.316  13.740  1.00  0.00     0.037 A 
BRANCH  49  63
ATOM     63  C   UNL     1      14.155  -2.059   8.799  1.00  0.00     0.057 A 
ATOM     64  C   UNL     1      15.509  -2.159   9.165  1.00  0.00     0.134 A 
ATOM     65  C   UNL     1      13.856  -1.014   7.899  1.00  0.00     0.134 A 
ATOM     66  F   UNL     1      15.922  -3.106  10.020  1.00  0.00    -0.206 F 
ATOM     67  C   UNL     1      16.471  -1.236   8.739  1.00  0.00     0.040 A 
ATOM     68  C   UNL     1      14.819  -0.121   7.426  1.00  0.00     0.040 A 
ATOM     69  F   UNL     1      12.611  -0.728   7.505  1.00  0.00    -0.206 F 
ATOM     70  C   UNL     1      16.126  -0.207   7.874  1.00  0.00     0.006 A 
ENDBRANCH  49  63
BRANCH  50  71
ATOM     71  C   UNL     1       9.027   3.539  12.606  1.00  0.00     0.057 A 
ATOM     72  C   UNL     1       9.738   4.509  13.330  1.00  0.00     0.134 A 
ATOM     73  C   UNL     1       8.184   4.026  11.592  1.00  0.00     0.134 A 
ATOM     74  F   UNL     1      10.596   4.145  14.294  1.00  0.00    -0.206 F 
ATOM     75  C   UNL     1       9.645   5.878  13.039  1.00  0.00     0.040 A 
ATOM     76  C   UNL     1       8.078   5.390  11.294  1.00  0.00     0.040 A 
ATOM     77  F   UNL     1       7.507   3.188  10.794  1.00  0.00    -0.206 F 
ATOM     78  C   UNL     1       8.823   6.321  12.007  1.00  0.00     0.006 A 
ENDBRANCH  50  71
BRANCH  62  79
ATOM     79  C   UNL     1      11.501  -1.700  15.033  1.00  0.00     0.057 A 
ATOM     80  C   UNL     1      10.116  -1.641  15.261  1.00  0.00     0.134 A 
ATOM     81  C   UNL     1      12.275  -2.282  16.042  1.00  0.00     0.134 A 
ATOM     82  F   UNL     1       9.273  -1.200  14.319  1.00  0.00    -0.206 F 
ATOM     83  C   UNL     1       9.541  -2.090  16.456  1.00  0.00     0.040 A 
ATOM     84  C   UNL     1      11.710  -2.767  17.224  1.00  0.00     0.040 A 
ATOM     85  F   UNL     1      13.600  -2.428  15.878  1.00  0.00    -0.206 F 
ATOM     86  C   UNL     1      10.340  -2.660  17.441  1.00  0.00     0.006 A 
ENDBRANCH  62  79
ENDBRANCH  36  37
ENDBRANCH  28  31
ENDBRANCH  26  27
ENDBRANCH   1  26
TORSDOF 13
