REMARK SMILES Cc1ccc(F)c(C(=O)N[C@@H]2C=C[C@@H](C(=O)NCCCNC(=O)c3ccc(-c4c5nc(c(-c6c(F)cccc6F)c6ccc([nH]6)c(-c6c(F)cccc6F)c6nc(c(-c7c(F)cccc7F)c7ccc4[nH]7)C=C6)C=C5)cc3)C2)c1
REMARK SMILES IDX 19 1 18 2 17 3 15 4 16 5 14 7 11 8 12 9 78 10 13 11 10 12
REMARK SMILES IDX 8 13 9 14 7 16 1 17 2 18 3 19 79 20 4 21 5 22 6 23 20 24
REMARK SMILES IDX 21 25 22 26 23 28 24 29 25 30 77 31 26 32 76 33 27 34 28 35
REMARK SMILES IDX 29 36 70 37 30 38 75 39 69 40 71 41 31 42 74 43 68 44 67 45
REMARK SMILES IDX 32 47 58 48 41 49 57 50 42 51 45 52 56 53 72 54 43 55 44 56
REMARK SMILES IDX 55 58 73 59 46 60 33 61 34 62 39 63 35 64 36 65 38 66 40 67
REMARK SMILES IDX 37 68 59 69 60 70 65 71 61 72 62 73 64 74 66 75 63 76 47 77
REMARK SMILES IDX 48 78 53 79 49 80 50 81 52 82 54 83 51 84
REMARK H PARENT 17 6 10 15 21 27 71 46 45 57
REMARK Flexibility Score: inf
ROOT
ATOM      1  C   UNL     1      -0.923  -4.949   3.372  1.00  0.00     0.042 C 
ENDROOT
BRANCH   1   2
ATOM      2  C   UNL     1       0.243  -3.995   3.614  1.00  0.00     0.117 C 
BRANCH   2   3
ATOM      3  N   UNL     1       1.486  -4.677   3.922  1.00  0.00    -0.356 N 
ATOM      4  C   UNL     1       2.711  -4.665   3.334  1.00  0.00     0.227 C 
ATOM      5  O   UNL     1       3.614  -5.239   3.954  1.00  0.00    -0.274 OA
ATOM      6  H   UNL     1       1.431  -5.263   4.711  1.00  0.00     0.163 HD
BRANCH   4   7
ATOM      7  C   UNL     1       2.999  -4.088   1.940  1.00  0.00     0.103 C 
ATOM      8  C   UNL     1       1.318  -3.989   0.144  1.00  0.00     0.106 C 
ATOM      9  C   UNL     1       1.711  -2.627   0.627  1.00  0.00    -0.006 C 
ATOM     10  C   UNL     1       2.339  -4.905   0.829  1.00  0.00     0.047 C 
ATOM     11  C   UNL     1       2.583  -2.685   1.642  1.00  0.00    -0.016 C 
BRANCH   8  12
ATOM     12  N   UNL     1       1.311  -4.012  -1.303  1.00  0.00    -0.346 N 
ATOM     13  C   UNL     1       1.082  -5.037  -2.195  1.00  0.00     0.254 C 
ATOM     14  O   UNL     1       0.932  -4.761  -3.382  1.00  0.00    -0.269 OA
ATOM     15  H   UNL     1       1.503  -3.143  -1.724  1.00  0.00     0.164 HD
BRANCH  13  16
ATOM     16  C   UNL     1       1.078  -6.454  -1.761  1.00  0.00     0.075 A 
ATOM     17  C   UNL     1       0.145  -8.550   1.266  1.00  0.00     0.044 C 
ATOM     18  C   UNL     1       0.659  -8.171  -0.091  1.00  0.00    -0.050 A 
ATOM     19  C   UNL     1       1.412  -9.079  -0.844  1.00  0.00     0.006 A 
ATOM     20  C   UNL     1       0.419  -6.888  -0.607  1.00  0.00     0.020 A 
ATOM     21  C   UNL     1       1.968  -8.688  -2.061  1.00  0.00     0.040 A 
ATOM     22  C   UNL     1       1.821  -7.375  -2.502  1.00  0.00     0.135 A 
ATOM     23  F   UNL     1       2.454  -7.016  -3.628  1.00  0.00    -0.206 F 
ENDBRANCH  13  16
ENDBRANCH   8  12
ENDBRANCH   4   7
ENDBRANCH   2   3
ENDBRANCH   1   2
BRANCH   1  24
ATOM     24  C   UNL     1      -1.278  -5.848   4.556  1.00  0.00     0.118 C 
BRANCH  24  25
ATOM     25  N   UNL     1      -1.714  -5.094   5.722  1.00  0.00    -0.352 N 
ATOM     26  C   UNL     1      -2.905  -5.114   6.404  1.00  0.00     0.251 C 
ATOM     27  H   UNL     1      -1.044  -4.467   6.080  1.00  0.00     0.163 HD
ATOM     28  O   UNL     1      -3.132  -4.249   7.245  1.00  0.00    -0.269 OA
BRANCH  26  29
ATOM     29  C   UNL     1      -3.922  -6.155   6.135  1.00  0.00     0.039 A 
ATOM     30  C   UNL     1      -5.271  -5.785   6.105  1.00  0.00     0.014 A 
ATOM     31  C   UNL     1      -3.566  -7.496   5.974  1.00  0.00     0.014 A 
ATOM     32  C   UNL     1      -6.255  -6.747   5.859  1.00  0.00     0.010 A 
ATOM     33  C   UNL     1      -4.540  -8.443   5.663  1.00  0.00     0.010 A 
ATOM     34  C   UNL     1      -5.895  -8.080   5.608  1.00  0.00    -0.014 A 
BRANCH  34  35
ATOM     35  C   UNL     1      -6.919  -9.111   5.297  1.00  0.00     0.031 A 
ATOM     36  C   UNL     1      -7.143 -10.265   6.234  1.00  0.00     0.074 A 
ATOM     37  C   UNL     1      -7.600  -9.047   4.137  1.00  0.00     0.049 A 
ATOM     38  N   UNL     1      -7.931 -11.302   6.097  1.00  0.00    -0.248 NA
ATOM     39  C   UNL     1      -6.357 -10.267   7.476  1.00  0.00     0.031 C 
ATOM     40  C   UNL     1      -7.454  -7.998   3.127  1.00  0.00     0.029 A 
ATOM     41  N   UNL     1      -8.546  -9.889   3.609  1.00  0.00    -0.354 N 
ATOM     42  C   UNL     1      -7.719 -12.089   7.223  1.00  0.00     0.074 A 
ATOM     43  C   UNL     1      -6.695 -11.433   8.007  1.00  0.00     0.031 C 
ATOM     44  C   UNL     1      -8.299  -8.245   2.113  1.00  0.00     0.029 A 
ATOM     45  C   UNL     1      -9.016  -9.488   2.382  1.00  0.00     0.049 A 
ATOM     46  H   UNL     1      -8.857 -10.704   4.065  1.00  0.00     0.167 HD
ATOM     47  C   UNL     1      -8.335 -13.242   7.581  1.00  0.00     0.037 A 
ATOM     48  C   UNL     1      -9.919 -10.059   1.564  1.00  0.00     0.037 A 
ATOM     49  C   UNL     1      -9.372 -13.880   6.812  1.00  0.00     0.049 A 
ATOM     50  C   UNL     1     -10.578 -11.346   1.973  1.00  0.00     0.074 A 
ATOM     51  C   UNL     1     -10.104 -15.012   7.123  1.00  0.00     0.029 A 
ATOM     52  N   UNL     1      -9.820 -13.442   5.575  1.00  0.00    -0.354 N 
ATOM     53  N   UNL     1     -10.413 -12.047   3.068  1.00  0.00    -0.248 NA
ATOM     54  C   UNL     1     -11.550 -11.920   1.031  1.00  0.00     0.031 C 
ATOM     55  C   UNL     1     -10.963 -15.286   6.053  1.00  0.00     0.029 A 
ATOM     56  C   UNL     1     -10.801 -14.296   5.097  1.00  0.00     0.049 A 
ATOM     57  H   UNL     1      -9.491 -12.642   5.106  1.00  0.00     0.167 HD
ATOM     58  C   UNL     1     -11.280 -13.127   2.963  1.00  0.00     0.074 A 
ATOM     59  C   UNL     1     -11.973 -12.985   1.698  1.00  0.00     0.031 C 
ATOM     60  C   UNL     1     -11.486 -14.142   3.838  1.00  0.00     0.037 A 
BRANCH  47  61
ATOM     61  C   UNL     1      -7.887 -13.890   8.860  1.00  0.00     0.057 A 
ATOM     62  C   UNL     1      -8.154 -13.320  10.113  1.00  0.00     0.134 A 
ATOM     63  C   UNL     1      -7.184 -15.101   8.839  1.00  0.00     0.134 A 
ATOM     64  F   UNL     1      -8.813 -12.155  10.204  1.00  0.00    -0.206 F 
ATOM     65  C   UNL     1      -7.702 -13.911  11.295  1.00  0.00     0.040 A 
ATOM     66  C   UNL     1      -6.753 -15.716  10.016  1.00  0.00     0.040 A 
ATOM     67  F   UNL     1      -6.902 -15.706   7.676  1.00  0.00    -0.206 F 
ATOM     68  C   UNL     1      -7.002 -15.114  11.248  1.00  0.00     0.006 A 
ENDBRANCH  47  61
BRANCH  48  69
ATOM     69  C   UNL     1     -10.282  -9.392   0.289  1.00  0.00     0.057 A 
ATOM     70  C   UNL     1     -11.527  -8.772   0.136  1.00  0.00     0.134 A 
ATOM     71  C   UNL     1      -9.396  -9.340  -0.793  1.00  0.00     0.134 A 
ATOM     72  F   UNL     1     -12.424  -8.805   1.133  1.00  0.00    -0.206 F 
ATOM     73  C   UNL     1     -11.883  -8.130  -1.050  1.00  0.00     0.040 A 
ATOM     74  C   UNL     1      -9.730  -8.683  -1.978  1.00  0.00     0.040 A 
ATOM     75  F   UNL     1      -8.185  -9.909  -0.705  1.00  0.00    -0.206 F 
ATOM     76  C   UNL     1     -10.980  -8.079  -2.110  1.00  0.00     0.006 A 
ENDBRANCH  48  69
BRANCH  60  77
ATOM     77  C   UNL     1     -12.527 -15.160   3.476  1.00  0.00     0.057 A 
ATOM     78  C   UNL     1     -12.314 -16.115   2.474  1.00  0.00     0.134 A 
ATOM     79  C   UNL     1     -13.745 -15.209   4.167  1.00  0.00     0.134 A 
ATOM     80  F   UNL     1     -11.175 -16.113   1.765  1.00  0.00    -0.206 F 
ATOM     81  C   UNL     1     -13.282 -17.070   2.159  1.00  0.00     0.040 A 
ATOM     82  C   UNL     1     -14.710 -16.174   3.879  1.00  0.00     0.040 A 
ATOM     83  F   UNL     1     -14.010 -14.328   5.143  1.00  0.00    -0.206 F 
ATOM     84  C   UNL     1     -14.482 -17.106   2.868  1.00  0.00     0.006 A 
ENDBRANCH  60  77
ENDBRANCH  34  35
ENDBRANCH  26  29
ENDBRANCH  24  25
ENDBRANCH   1  24
TORSDOF 12
