REMARK SMILES CCC[C@]1(C(=O)NCCCNC(=O)c2ccc(-c3c4nc(c(-c5c(F)cccc5F)c5ccc([nH]5)c(-c5c(F)cccc5F)c5nc(c(-c6c(F)cccc6F)c6ccc3[nH]6)C=C5)C=C4)cc2)CCN(c2cncc(C(=O)OC)n2)C1
REMARK SMILES IDX 8 1 7 2 5 3 6 4 4 6 68 7 81 8 69 9 70 10 3 11 2 12 1 13
REMARK SMILES IDX 71 14 72 15 80 16 73 17 75 18 74 19 76 20 77 21 78 22 79 23
REMARK SMILES IDX 9 24 10 25 11 26 12 27 13 29 14 30 15 31 67 32 16 33 66 34
REMARK SMILES IDX 17 35 18 36 19 37 60 38 20 39 65 40 59 41 61 42 21 43 64 44
REMARK SMILES IDX 58 45 57 46 22 48 48 49 31 50 47 51 32 52 35 53 46 54 62 55
REMARK SMILES IDX 33 56 34 57 45 59 63 60 36 61 23 62 24 63 29 64 25 65 26 66
REMARK SMILES IDX 28 67 30 68 27 69 49 70 50 71 55 72 51 73 52 74 54 75 56 76
REMARK SMILES IDX 53 77 37 78 38 79 43 80 39 81 40 82 42 83 44 84 41 85
REMARK H PARENT 7 5 11 28 61 47 35 58
REMARK Flexibility Score: inf
ROOT
ATOM      1  C   UNL     1      -1.181   4.052  -2.125  1.00  0.00     0.117 C 
ENDROOT
BRANCH   1   2
ATOM      2  N   UNL     1      -1.517   3.018  -1.163  1.00  0.00    -0.355 N 
ATOM      3  C   UNL     1      -0.876   2.510  -0.078  1.00  0.00     0.228 C 
ATOM      4  O   UNL     1      -1.570   1.758   0.614  1.00  0.00    -0.274 OA
ATOM      5  H   UNL     1      -2.391   2.597  -1.332  1.00  0.00     0.163 HD
BRANCH   3   6
ATOM      6  C   UNL     1       0.576   2.856   0.315  1.00  0.00     0.068 C 
ATOM      7  C   UNL     1       1.596   2.724  -0.844  1.00  0.00     0.040 C 
ATOM      8  C   UNL     1       0.625   4.369   0.714  1.00  0.00     0.135 C 
ATOM      9  C   UNL     1       2.427   3.999  -0.819  1.00  0.00     0.119 C 
ATOM     10  N   UNL     1       1.511   4.969  -0.273  1.00  0.00    -0.354 N 
BRANCH   6  11
ATOM     11  C   UNL     1       1.049   1.993   1.528  1.00  0.00     0.018 C 
BRANCH  11  12
ATOM     12  C   UNL     1       0.858   0.460   1.509  1.00  0.00    -0.002 C 
ATOM     13  C   UNL     1       1.213  -0.280   0.232  1.00  0.00     0.004 C 
ENDBRANCH  11  12
ENDBRANCH   6  11
BRANCH  10  14
ATOM     14  C   UNL     1       1.618   6.319  -0.471  1.00  0.00     0.148 A 
ATOM     15  C   UNL     1       1.865   6.838  -1.754  1.00  0.00     0.157 A 
ATOM     16  N   UNL     1       1.425   7.168   0.562  1.00  0.00    -0.221 NA
ATOM     17  N   UNL     1       1.925   8.157  -2.061  1.00  0.00    -0.258 NA
ATOM     18  C   UNL     1       1.529   8.502   0.278  1.00  0.00     0.169 A 
ATOM     19  C   UNL     1       1.754   8.980  -1.005  1.00  0.00     0.147 A 
BRANCH  18  20
ATOM     20  C   UNL     1       1.472   9.503   1.372  1.00  0.00     0.358 C 
ATOM     21  O   UNL     1       1.461  10.710   1.168  1.00  0.00    -0.244 OA
BRANCH  20  22
ATOM     22  O   UNL     1       1.503   8.912   2.592  1.00  0.00    -0.464 OA
ATOM     23  C   UNL     1       1.581   9.841   3.674  1.00  0.00     0.282 C 
ENDBRANCH  20  22
ENDBRANCH  18  20
ENDBRANCH  10  14
ENDBRANCH   3   6
ENDBRANCH   1   2
BRANCH   1  24
ATOM     24  C   UNL     1      -1.029   3.519  -3.544  1.00  0.00     0.042 C 
BRANCH  24  25
ATOM     25  C   UNL     1      -2.279   2.845  -4.096  1.00  0.00     0.118 C 
BRANCH  25  26
ATOM     26  N   UNL     1      -3.405   3.760  -4.224  1.00  0.00    -0.352 N 
ATOM     27  C   UNL     1      -4.019   4.261  -5.346  1.00  0.00     0.251 C 
ATOM     28  H   UNL     1      -3.787   4.067  -3.371  1.00  0.00     0.163 HD
ATOM     29  O   UNL     1      -4.839   5.168  -5.240  1.00  0.00    -0.269 OA
BRANCH  27  30
ATOM     30  C   UNL     1      -3.675   3.735  -6.683  1.00  0.00     0.039 A 
ATOM     31  C   UNL     1      -3.455   4.637  -7.729  1.00  0.00     0.014 A 
ATOM     32  C   UNL     1      -3.571   2.361  -6.910  1.00  0.00     0.014 A 
ATOM     33  C   UNL     1      -3.038   4.164  -8.975  1.00  0.00     0.010 A 
ATOM     34  C   UNL     1      -3.080   1.897  -8.127  1.00  0.00     0.010 A 
ATOM     35  C   UNL     1      -2.796   2.795  -9.167  1.00  0.00    -0.014 A 
BRANCH  35  36
ATOM     36  C   UNL     1      -2.211   2.278 -10.431  1.00  0.00     0.031 A 
ATOM     37  C   UNL     1      -2.983   1.315 -11.286  1.00  0.00     0.074 A 
ATOM     38  C   UNL     1      -0.944   2.604 -10.755  1.00  0.00     0.049 A 
ATOM     39  N   UNL     1      -2.595   0.662 -12.352  1.00  0.00    -0.248 NA
ATOM     40  C   UNL     1      -4.366   1.026 -10.874  1.00  0.00     0.031 C 
ATOM     41  C   UNL     1      -0.075   3.496  -9.984  1.00  0.00     0.029 A 
ATOM     42  N   UNL     1      -0.158   2.205 -11.807  1.00  0.00    -0.354 N 
ATOM     43  C   UNL     1      -3.676  -0.125 -12.727  1.00  0.00     0.074 A 
ATOM     44  C   UNL     1      -4.720   0.097 -11.750  1.00  0.00     0.031 C 
ATOM     45  C   UNL     1       1.117   3.586 -10.595  1.00  0.00     0.029 A 
ATOM     46  C   UNL     1       1.114   2.724 -11.772  1.00  0.00     0.049 A 
ATOM     47  H   UNL     1      -0.475   1.603 -12.519  1.00  0.00     0.167 HD
ATOM     48  C   UNL     1      -3.794  -0.943 -13.800  1.00  0.00     0.037 A 
ATOM     49  C   UNL     1       2.167   2.513 -12.584  1.00  0.00     0.037 A 
ATOM     50  C   UNL     1      -2.761  -1.143 -14.783  1.00  0.00     0.049 A 
ATOM     51  C   UNL     1       2.020   1.578 -13.752  1.00  0.00     0.074 A 
ATOM     52  C   UNL     1      -2.811  -1.894 -15.944  1.00  0.00     0.029 A 
ATOM     53  N   UNL     1      -1.490  -0.594 -14.716  1.00  0.00    -0.354 N 
ATOM     54  N   UNL     1       0.969   0.895 -14.134  1.00  0.00    -0.248 NA
ATOM     55  C   UNL     1       3.206   1.380 -14.598  1.00  0.00     0.031 C 
ATOM     56  C   UNL     1      -1.554  -1.840 -16.554  1.00  0.00     0.029 A 
ATOM     57  C   UNL     1      -0.735  -1.017 -15.798  1.00  0.00     0.049 A 
ATOM     58  H   UNL     1      -1.170   0.008 -14.005  1.00  0.00     0.167 HD
ATOM     59  C   UNL     1       1.358   0.204 -15.274  1.00  0.00     0.074 A 
ATOM     60  C   UNL     1       2.737   0.562 -15.530  1.00  0.00     0.031 C 
ATOM     61  C   UNL     1       0.637  -0.651 -16.039  1.00  0.00     0.037 A 
BRANCH  48  62
ATOM     62  C   UNL     1      -5.087  -1.687 -13.969  1.00  0.00     0.057 A 
ATOM     63  C   UNL     1      -6.272  -1.034 -14.330  1.00  0.00     0.134 A 
ATOM     64  C   UNL     1      -5.138  -3.077 -13.810  1.00  0.00     0.134 A 
ATOM     65  F   UNL     1      -6.294   0.298 -14.488  1.00  0.00    -0.206 F 
ATOM     66  C   UNL     1      -7.468  -1.734 -14.504  1.00  0.00     0.040 A 
ATOM     67  C   UNL     1      -6.321  -3.792 -14.007  1.00  0.00     0.040 A 
ATOM     68  F   UNL     1      -4.037  -3.766 -13.471  1.00  0.00    -0.206 F 
ATOM     69  C   UNL     1      -7.492  -3.119 -14.349  1.00  0.00     0.006 A 
ENDBRANCH  48  62
BRANCH  49  70
ATOM     70  C   UNL     1       3.457   3.201 -12.322  1.00  0.00     0.057 A 
ATOM     71  C   UNL     1       3.922   4.208 -13.175  1.00  0.00     0.134 A 
ATOM     72  C   UNL     1       4.255   2.869 -11.221  1.00  0.00     0.134 A 
ATOM     73  F   UNL     1       3.212   4.557 -14.258  1.00  0.00    -0.206 F 
ATOM     74  C   UNL     1       5.142   4.849 -12.953  1.00  0.00     0.040 A 
ATOM     75  C   UNL     1       5.465   3.518 -10.973  1.00  0.00     0.040 A 
ATOM     76  F   UNL     1       3.861   1.917 -10.361  1.00  0.00    -0.206 F 
ATOM     77  C   UNL     1       5.915   4.507 -11.845  1.00  0.00     0.006 A 
ENDBRANCH  49  70
BRANCH  61  78
ATOM     78  C   UNL     1       1.319  -1.247 -17.235  1.00  0.00     0.057 A 
ATOM     79  C   UNL     1       2.290  -2.247 -17.106  1.00  0.00     0.134 A 
ATOM     80  C   UNL     1       0.959  -0.856 -18.531  1.00  0.00     0.134 A 
ATOM     81  F   UNL     1       2.689  -2.655 -15.892  1.00  0.00    -0.206 F 
ATOM     82  C   UNL     1       2.890  -2.828 -18.224  1.00  0.00     0.040 A 
ATOM     83  C   UNL     1       1.533  -1.447 -19.657  1.00  0.00     0.040 A 
ATOM     84  F   UNL     1       0.029   0.092 -18.723  1.00  0.00    -0.206 F 
ATOM     85  C   UNL     1       2.504  -2.435 -19.505  1.00  0.00     0.006 A 
ENDBRANCH  61  78
ENDBRANCH  35  36
ENDBRANCH  27  30
ENDBRANCH  25  26
ENDBRANCH  24  25
ENDBRANCH   1  24
TORSDOF 15
