REMARK SMILES COc1cc(CC(=O)NCCCNC(=O)c2ccc(-c3c4nc(c(-c5c(F)cccc5F)c5ccc([nH]5)c(-c5c(F)cccc5F)c5nc(c(-c6c(F)cccc6F)c6ccc3[nH]6)C=C5)C=C4)cc2)cc(Br)c1O
REMARK SMILES IDX 11 1 10 2 9 3 7 4 8 5 6 7 5 8 3 9 4 10 73 11 71 12 70 13
REMARK SMILES IDX 72 14 2 15 1 16 74 17 12 19 13 20 14 21 15 23 16 24 17 25
REMARK SMILES IDX 69 26 18 27 68 28 19 29 20 30 21 31 62 32 22 33 67 34 61 35
REMARK SMILES IDX 63 36 23 37 66 38 60 39 59 40 24 42 50 43 33 44 49 45 34 46
REMARK SMILES IDX 37 47 48 48 64 49 35 50 36 51 47 53 65 54 38 55 25 56 26 57
REMARK SMILES IDX 31 58 27 59 28 60 30 61 32 62 29 63 51 64 52 65 57 66 53 67
REMARK SMILES IDX 54 68 56 69 58 70 55 71 39 72 40 73 45 74 41 75 42 76 44 77
REMARK SMILES IDX 46 78 43 79
REMARK H PARENT 9 6 74 18 13 22 63 41 37 52
REMARK Flexibility Score: inf
ROOT
ATOM      1  C   UNL     1      -1.133  -0.660   4.050  1.00  0.00     0.042 C 
ENDROOT
BRANCH   1   2
ATOM      2  C   UNL     1      -2.170   0.397   4.421  1.00  0.00     0.117 C 
BRANCH   2   3
ATOM      3  N   UNL     1      -1.795   1.145   5.606  1.00  0.00    -0.356 N 
ATOM      4  C   UNL     1      -1.206   2.373   5.698  1.00  0.00     0.224 C 
ATOM      5  O   UNL     1      -0.910   2.799   6.815  1.00  0.00    -0.275 OA
ATOM      6  H   UNL     1      -1.993   0.705   6.464  1.00  0.00     0.163 HD
BRANCH   4   7
ATOM      7  C   UNL     1      -0.948   3.188   4.443  1.00  0.00     0.135 C 
BRANCH   7   8
ATOM      8  C   UNL     1       0.213   2.688   3.615  1.00  0.00    -0.034 A 
ATOM      9  C   UNL     1       1.105   1.875   1.514  1.00  0.00     0.161 A 
ATOM     10  C   UNL     1       0.033   2.358   2.264  1.00  0.00     0.054 A 
ATOM     11  C   UNL     1       2.381   1.785   2.072  1.00  0.00     0.172 A 
ATOM     12  C   UNL     1       2.572   2.112   3.413  1.00  0.00     0.063 A 
ATOM     13  C   UNL     1       1.493   2.562   4.183  1.00  0.00     0.024 A 
ATOM     14  Br  UNL     1       4.275   1.976   4.233  1.00  0.00    -0.047 Br
BRANCH   9  15
ATOM     15  O   UNL     1       0.887   1.538   0.203  1.00  0.00    -0.493 OA
ATOM     16  C   UNL     1       0.771   0.117   0.066  1.00  0.00     0.278 C 
ENDBRANCH   9  15
BRANCH  11  17
ATOM     17  O   UNL     1       3.434   1.400   1.288  1.00  0.00    -0.503 OA
ATOM     18  H   UNL     1       3.293   1.183   0.388  1.00  0.00     0.293 HD
ENDBRANCH  11  17
ENDBRANCH   7   8
ENDBRANCH   4   7
ENDBRANCH   2   3
ENDBRANCH   1   2
BRANCH   1  19
ATOM     19  C   UNL     1      -1.009  -1.798   5.060  1.00  0.00     0.118 C 
BRANCH  19  20
ATOM     20  N   UNL     1      -2.218  -2.605   5.144  1.00  0.00    -0.352 N 
ATOM     21  C   UNL     1      -2.410  -3.948   4.941  1.00  0.00     0.251 C 
ATOM     22  H   UNL     1      -3.030  -2.105   5.387  1.00  0.00     0.163 HD
ATOM     23  O   UNL     1      -3.558  -4.387   4.885  1.00  0.00    -0.269 OA
BRANCH  21  24
ATOM     24  C   UNL     1      -1.267  -4.872   4.771  1.00  0.00     0.039 A 
ATOM     25  C   UNL     1      -1.374  -5.900   3.828  1.00  0.00     0.014 A 
ATOM     26  C   UNL     1      -0.119  -4.773   5.562  1.00  0.00     0.014 A 
ATOM     27  C   UNL     1      -0.312  -6.787   3.636  1.00  0.00     0.010 A 
ATOM     28  C   UNL     1       0.966  -5.616   5.325  1.00  0.00     0.010 A 
ATOM     29  C   UNL     1       0.880  -6.632   4.362  1.00  0.00    -0.014 A 
BRANCH  29  30
ATOM     30  C   UNL     1       2.046  -7.518   4.120  1.00  0.00     0.031 A 
ATOM     31  C   UNL     1       2.533  -8.449   5.193  1.00  0.00     0.074 A 
ATOM     32  C   UNL     1       2.712  -7.432   2.952  1.00  0.00     0.049 A 
ATOM     33  N   UNL     1       3.577  -9.239   5.192  1.00  0.00    -0.248 NA
ATOM     34  C   UNL     1       1.759  -8.478   6.443  1.00  0.00     0.031 C 
ATOM     35  C   UNL     1       2.371  -6.534   1.848  1.00  0.00     0.029 A 
ATOM     36  N   UNL     1       3.826  -8.099   2.507  1.00  0.00    -0.354 N 
ATOM     37  C   UNL     1       3.595  -9.845   6.441  1.00  0.00     0.074 A 
ATOM     38  C   UNL     1       2.483  -9.298   7.190  1.00  0.00     0.031 C 
ATOM     39  C   UNL     1       3.249  -6.714   0.849  1.00  0.00     0.029 A 
ATOM     40  C   UNL     1       4.233  -7.714   1.254  1.00  0.00     0.049 A 
ATOM     41  H   UNL     1       4.289  -8.788   3.037  1.00  0.00     0.167 HD
ATOM     42  C   UNL     1       4.447 -10.785   6.916  1.00  0.00     0.037 A 
ATOM     43  C   UNL     1       5.286  -8.113   0.516  1.00  0.00     0.037 A 
ATOM     44  C   UNL     1       5.541 -11.344   6.165  1.00  0.00     0.049 A 
ATOM     45  C   UNL     1       6.215  -9.160   1.059  1.00  0.00     0.074 A 
ATOM     46  C   UNL     1       6.421 -12.345   6.536  1.00  0.00     0.029 A 
ATOM     47  N   UNL     1       5.905 -10.946   4.887  1.00  0.00    -0.354 N 
ATOM     48  N   UNL     1       6.181  -9.771   2.218  1.00  0.00    -0.248 NA
ATOM     49  C   UNL     1       7.323  -9.577   0.190  1.00  0.00     0.031 C 
ATOM     50  C   UNL     1       7.341 -12.528   5.497  1.00  0.00     0.029 A 
ATOM     51  C   UNL     1       7.009 -11.668   4.463  1.00  0.00     0.049 A 
ATOM     52  H   UNL     1       5.447 -10.252   4.360  1.00  0.00     0.167 HD
ATOM     53  C   UNL     1       7.250 -10.658   2.211  1.00  0.00     0.074 A 
ATOM     54  C   UNL     1       7.904 -10.515   0.927  1.00  0.00     0.031 C 
ATOM     55  C   UNL     1       7.651 -11.513   3.183  1.00  0.00     0.037 A 
BRANCH  42  56
ATOM     56  C   UNL     1       4.225 -11.265   8.321  1.00  0.00     0.057 A 
ATOM     57  C   UNL     1       3.131 -12.073   8.660  1.00  0.00     0.134 A 
ATOM     58  C   UNL     1       5.121 -10.929   9.343  1.00  0.00     0.134 A 
ATOM     59  F   UNL     1       2.230 -12.422   7.729  1.00  0.00    -0.206 F 
ATOM     60  C   UNL     1       2.919 -12.502   9.971  1.00  0.00     0.040 A 
ATOM     61  C   UNL     1       4.933 -11.373  10.653  1.00  0.00     0.040 A 
ATOM     62  F   UNL     1       6.193 -10.165   9.087  1.00  0.00    -0.206 F 
ATOM     63  C   UNL     1       3.824 -12.155  10.972  1.00  0.00     0.006 A 
ENDBRANCH  42  56
BRANCH  43  64
ATOM     64  C   UNL     1       5.499  -7.529  -0.830  1.00  0.00     0.057 A 
ATOM     65  C   UNL     1       5.240  -8.272  -1.987  1.00  0.00     0.134 A 
ATOM     66  C   UNL     1       5.945  -6.212  -0.993  1.00  0.00     0.134 A 
ATOM     67  F   UNL     1       4.826  -9.544  -1.892  1.00  0.00    -0.206 F 
ATOM     68  C   UNL     1       5.425  -7.730  -3.259  1.00  0.00     0.040 A 
ATOM     69  C   UNL     1       6.115  -5.650  -2.259  1.00  0.00     0.040 A 
ATOM     70  F   UNL     1       6.202  -5.447   0.079  1.00  0.00    -0.206 F 
ATOM     71  C   UNL     1       5.858  -6.412  -3.397  1.00  0.00     0.006 A 
ENDBRANCH  43  64
BRANCH  55  72
ATOM     72  C   UNL     1       8.841 -12.376   2.884  1.00  0.00     0.057 A 
ATOM     73  C   UNL     1      10.142 -11.858   2.871  1.00  0.00     0.134 A 
ATOM     74  C   UNL     1       8.687 -13.746   2.642  1.00  0.00     0.134 A 
ATOM     75  F   UNL     1      10.355 -10.550   3.082  1.00  0.00    -0.206 F 
ATOM     76  C   UNL     1      11.247 -12.670   2.609  1.00  0.00     0.040 A 
ATOM     77  C   UNL     1       9.785 -14.572   2.400  1.00  0.00     0.040 A 
ATOM     78  F   UNL     1       7.467 -14.306   2.646  1.00  0.00    -0.206 F 
ATOM     79  C   UNL     1      11.070 -14.033   2.379  1.00  0.00     0.006 A 
ENDBRANCH  55  72
ENDBRANCH  29  30
ENDBRANCH  21  24
ENDBRANCH  19  20
ENDBRANCH   1  19
TORSDOF 13
