REMARK SMILES CCCc1cc(OC(F)(F)F)cc2c1O[C@@H](C(F)(F)F)C(C(=O)NCCCNC(=O)c1ccc(-c3c4nc(c(-c5c(F)cccc5F)c5ccc([nH]5)c(-c5c(F)cccc5F)c5nc(c(-c6c(F)cccc6F)c6ccc3[nH]6)C=C5)C=C4)cc1)=C2
REMARK SMILES IDX 26 1 25 2 24 3 22 4 23 5 21 7 4 8 5 9 14 10 6 11 13 12 15 13
REMARK SMILES IDX 12 14 85 15 16 16 3 17 2 18 1 19 7 20 8 21 9 22 10 23 11 24
REMARK SMILES IDX 17 25 18 26 19 27 20 28 27 29 28 30 29 31 30 33 31 34 32 35
REMARK SMILES IDX 84 36 33 37 83 38 34 39 35 40 36 41 77 42 37 43 82 44 76 45
REMARK SMILES IDX 78 46 38 47 81 48 75 49 74 50 39 52 65 53 48 54 64 55 49 56
REMARK SMILES IDX 52 57 63 58 79 59 50 60 51 61 62 63 80 64 53 65 40 66 41 67
REMARK SMILES IDX 46 68 42 69 43 70 45 71 47 72 44 73 66 74 67 75 72 76 68 77
REMARK SMILES IDX 69 78 71 79 73 80 70 81 54 82 55 83 60 84 56 85 57 86 59 87
REMARK SMILES IDX 61 88 58 89
REMARK H PARENT 24 6 28 32 78 51 52 62
REMARK Flexibility Score: inf
ROOT
ATOM      1  C   UNL     1       0.786  -9.182   2.764  1.00  0.00     0.042 C 
ENDROOT
BRANCH   1   2
ATOM      2  C   UNL     1       2.003  -8.686   1.977  1.00  0.00     0.118 C 
BRANCH   2   3
ATOM      3  N   UNL     1       1.870  -9.006   0.564  1.00  0.00    -0.352 N 
ATOM      4  C   UNL     1       1.397  -8.306  -0.501  1.00  0.00     0.251 C 
ATOM      5  O   UNL     1       1.301  -8.889  -1.578  1.00  0.00    -0.270 OA
ATOM      6  H   UNL     1       2.186  -9.910   0.333  1.00  0.00     0.163 HD
BRANCH   4   7
ATOM      7  C   UNL     1       1.050  -6.865  -0.427  1.00  0.00     0.067 C 
ATOM      8  C   UNL     1       0.336  -2.712  -0.376  1.00  0.00    -0.002 A 
ATOM      9  C   UNL     1      -0.392  -2.177   0.703  1.00  0.00     0.054 A 
ATOM     10  C   UNL     1       0.577  -4.098  -0.394  1.00  0.00     0.131 A 
ATOM     11  C   UNL     1      -0.814  -2.981   1.764  1.00  0.00     0.130 A 
ATOM     12  C   UNL     1       0.118  -4.915   0.639  1.00  0.00     0.021 A 
ATOM     13  O   UNL     1       1.334  -4.598  -1.419  1.00  0.00    -0.475 OA
ATOM     14  C   UNL     1      -0.571  -4.353   1.716  1.00  0.00     0.058 A 
ATOM     15  C   UNL     1       0.428  -6.335   0.634  1.00  0.00     0.025 C 
ATOM     16  C   UNL     1       1.262  -6.031  -1.686  1.00  0.00     0.314 C 
BRANCH   8  17
ATOM     17  C   UNL     1       0.863  -1.858  -1.516  1.00  0.00     0.039 C 
BRANCH  17  18
ATOM     18  C   UNL     1       0.586  -0.348  -1.498  1.00  0.00     0.001 C 
ATOM     19  C   UNL     1       1.445   0.418  -0.499  1.00  0.00     0.004 C 
ENDBRANCH  17  18
ENDBRANCH   8  17
BRANCH  11  20
ATOM     20  O   UNL     1      -1.459  -2.561   2.892  1.00  0.00    -0.406 OA
BRANCH  20  21
ATOM     21  C   UNL     1      -1.514  -1.165   3.137  1.00  0.00     0.573 C 
ATOM     22  F   UNL     1      -0.285  -0.607   3.095  1.00  0.00    -0.132 F 
ATOM     23  F   UNL     1      -2.320  -0.554   2.244  1.00  0.00    -0.132 F 
ATOM     24  F   UNL     1      -2.024  -0.964   4.372  1.00  0.00    -0.132 F 
ENDBRANCH  20  21
ENDBRANCH  11  20
BRANCH  16  25
ATOM     25  C   UNL     1       2.490  -6.390  -2.554  1.00  0.00     0.429 C 
ATOM     26  F   UNL     1       2.256  -7.421  -3.394  1.00  0.00    -0.167 F 
ATOM     27  F   UNL     1       2.840  -5.345  -3.352  1.00  0.00    -0.167 F 
ATOM     28  F   UNL     1       3.578  -6.690  -1.807  1.00  0.00    -0.167 F 
ENDBRANCH  16  25
ENDBRANCH   4   7
ENDBRANCH   2   3
ENDBRANCH   1   2
BRANCH   1  29
ATOM     29  C   UNL     1       0.757 -10.697   2.954  1.00  0.00     0.118 C 
BRANCH  29  30
ATOM     30  N   UNL     1       1.756 -11.141   3.913  1.00  0.00    -0.352 N 
ATOM     31  C   UNL     1       1.604 -11.856   5.074  1.00  0.00     0.251 C 
ATOM     32  H   UNL     1       2.683 -10.890   3.696  1.00  0.00     0.163 HD
ATOM     33  O   UNL     1       2.544 -11.934   5.860  1.00  0.00    -0.269 OA
BRANCH  31  34
ATOM     34  C   UNL     1       0.323 -12.525   5.395  1.00  0.00     0.039 A 
ATOM     35  C   UNL     1      -0.123 -12.515   6.721  1.00  0.00     0.014 A 
ATOM     36  C   UNL     1      -0.404 -13.216   4.421  1.00  0.00     0.014 A 
ATOM     37  C   UNL     1      -1.315 -13.161   7.061  1.00  0.00     0.010 A 
ATOM     38  C   UNL     1      -1.624 -13.805   4.749  1.00  0.00     0.010 A 
ATOM     39  C   UNL     1      -2.086 -13.793   6.074  1.00  0.00    -0.014 A 
BRANCH  39  40
ATOM     40  C   UNL     1      -3.368 -14.463   6.411  1.00  0.00     0.031 A 
ATOM     41  C   UNL     1      -3.504 -15.954   6.264  1.00  0.00     0.074 A 
ATOM     42  C   UNL     1      -4.425 -13.724   6.800  1.00  0.00     0.049 A 
ATOM     43  N   UNL     1      -4.559 -16.710   6.433  1.00  0.00    -0.248 NA
ATOM     44  C   UNL     1      -2.299 -16.689   5.848  1.00  0.00     0.031 C 
ATOM     45  C   UNL     1      -4.430 -12.268   6.951  1.00  0.00     0.029 A 
ATOM     46  N   UNL     1      -5.704 -14.097   7.128  1.00  0.00    -0.354 N 
ATOM     47  C   UNL     1      -4.150 -18.003   6.132  1.00  0.00     0.074 A 
ATOM     48  C   UNL     1      -2.764 -17.923   5.723  1.00  0.00     0.031 C 
ATOM     49  C   UNL     1      -5.647 -11.874   7.361  1.00  0.00     0.029 A 
ATOM     50  C   UNL     1      -6.516 -13.041   7.465  1.00  0.00     0.049 A 
ATOM     51  H   UNL     1      -6.011 -15.033   7.123  1.00  0.00     0.167 HD
ATOM     52  C   UNL     1      -4.858 -19.155   6.209  1.00  0.00     0.037 A 
ATOM     53  C   UNL     1      -7.816 -13.018   7.812  1.00  0.00     0.037 A 
ATOM     54  C   UNL     1      -6.229 -19.236   6.639  1.00  0.00     0.049 A 
ATOM     55  C   UNL     1      -8.583 -14.310   7.880  1.00  0.00     0.074 A 
ATOM     56  C   UNL     1      -7.021 -20.361   6.792  1.00  0.00     0.029 A 
ATOM     57  N   UNL     1      -7.012 -18.146   6.987  1.00  0.00    -0.354 N 
ATOM     58  N   UNL     1      -8.169 -15.530   7.639  1.00  0.00    -0.248 NA
ATOM     59  C   UNL     1      -9.996 -14.221   8.273  1.00  0.00     0.031 C 
ATOM     60  C   UNL     1      -8.294 -19.948   7.200  1.00  0.00     0.029 A 
ATOM     61  C   UNL     1      -8.282 -18.570   7.342  1.00  0.00     0.049 A 
ATOM     62  H   UNL     1      -6.709 -17.209   6.983  1.00  0.00     0.167 HD
ATOM     63  C   UNL     1      -9.260 -16.356   7.880  1.00  0.00     0.074 A 
ATOM     64  C   UNL     1     -10.350 -15.498   8.297  1.00  0.00     0.031 C 
ATOM     65  C   UNL     1      -9.350 -17.703   7.767  1.00  0.00     0.037 A 
BRANCH  52  66
ATOM     66  C   UNL     1      -4.154 -20.425   5.826  1.00  0.00     0.057 A 
ATOM     67  C   UNL     1      -3.151 -20.983   6.630  1.00  0.00     0.134 A 
ATOM     68  C   UNL     1      -4.504 -21.115   4.659  1.00  0.00     0.134 A 
ATOM     69  F   UNL     1      -2.760 -20.365   7.755  1.00  0.00    -0.206 F 
ATOM     70  C   UNL     1      -2.502 -22.166   6.273  1.00  0.00     0.040 A 
ATOM     71  C   UNL     1      -3.880 -22.313   4.304  1.00  0.00     0.040 A 
ATOM     72  F   UNL     1      -5.462 -20.641   3.847  1.00  0.00    -0.206 F 
ATOM     73  C   UNL     1      -2.871 -22.838   5.109  1.00  0.00     0.006 A 
ENDBRANCH  52  66
BRANCH  53  74
ATOM     74  C   UNL     1      -8.474 -11.731   8.148  1.00  0.00     0.057 A 
ATOM     75  C   UNL     1      -8.850 -11.436   9.464  1.00  0.00     0.134 A 
ATOM     76  C   UNL     1      -8.755 -10.773   7.167  1.00  0.00     0.134 A 
ATOM     77  F   UNL     1      -8.624 -12.323  10.444  1.00  0.00    -0.206 F 
ATOM     78  C   UNL     1      -9.499 -10.245   9.790  1.00  0.00     0.040 A 
ATOM     79  C   UNL     1      -9.382  -9.567   7.482  1.00  0.00     0.040 A 
ATOM     80  F   UNL     1      -8.414 -10.992   5.888  1.00  0.00    -0.206 F 
ATOM     81  C   UNL     1      -9.763  -9.304   8.797  1.00  0.00     0.006 A 
ENDBRANCH  53  74
BRANCH  65  82
ATOM     82  C   UNL     1     -10.659 -18.334   8.140  1.00  0.00     0.057 A 
ATOM     83  C   UNL     1     -11.789 -18.231   7.321  1.00  0.00     0.134 A 
ATOM     84  C   UNL     1     -10.777 -19.084   9.317  1.00  0.00     0.134 A 
ATOM     85  F   UNL     1     -11.744 -17.515   6.187  1.00  0.00    -0.206 F 
ATOM     86  C   UNL     1     -12.999 -18.834   7.670  1.00  0.00     0.040 A 
ATOM     87  C   UNL     1     -11.973 -19.711   9.665  1.00  0.00     0.040 A 
ATOM     88  F   UNL     1      -9.728 -19.227  10.142  1.00  0.00    -0.206 F 
ATOM     89  C   UNL     1     -13.091 -19.582   8.843  1.00  0.00     0.006 A 
ENDBRANCH  65  82
ENDBRANCH  39  40
ENDBRANCH  31  34
ENDBRANCH  29  30
ENDBRANCH   1  29
TORSDOF 15
