REMARK SMILES Cc1ccc(S(=O)(=O)N(c2ccccc2)[C@H](C)C(=O)NCCCNC(=O)c2ccc(-c3c4nc(c(-c5c(F)cccc5F)c5ccc([nH]5)c(-c5c(F)cccc5F)c5nc(c(-c6c(F)cccc6F)c6ccc3[nH]6)C=C5)C=C4)cc2)cc1
REMARK SMILES IDX 21 1 20 2 18 3 19 4 16 6 17 7 9 8 6 9 7 10 8 11 5 12 1 13
REMARK SMILES IDX 2 14 3 15 82 16 4 17 81 18 10 19 11 20 15 21 12 22 14 23
REMARK SMILES IDX 13 24 22 25 23 26 24 27 25 28 26 30 27 31 28 32 80 33 29 34
REMARK SMILES IDX 79 35 30 36 31 37 32 38 73 39 33 40 78 41 72 42 74 43 34 44
REMARK SMILES IDX 77 45 71 46 70 47 35 49 61 50 44 51 60 52 45 53 48 54 59 55
REMARK SMILES IDX 75 56 46 57 47 58 58 60 76 61 49 62 36 63 37 64 42 65 38 66
REMARK SMILES IDX 39 67 41 68 43 69 40 70 62 71 63 72 68 73 64 74 65 75 67 76
REMARK SMILES IDX 69 77 66 78 50 79 51 80 56 81 52 82 53 83 55 84 57 85 54 86
REMARK H PARENT 20 5 24 29 74 48 48 59
REMARK Flexibility Score: inf
ROOT
ATOM      1  C   UNL     1      -4.976  -0.773   0.803  1.00  0.00     0.117 C 
ENDROOT
BRANCH   1   2
ATOM      2  N   UNL     1      -5.545   0.358   1.495  1.00  0.00    -0.354 N 
ATOM      3  C   UNL     1      -6.172   1.450   0.952  1.00  0.00     0.243 C 
ATOM      4  O   UNL     1      -6.907   2.089   1.714  1.00  0.00    -0.273 OA
ATOM      5  H   UNL     1      -5.476   0.344   2.477  1.00  0.00     0.163 HD
BRANCH   3   6
ATOM      6  C   UNL     1      -5.930   1.927  -0.488  1.00  0.00     0.185 C 
ATOM      7  C   UNL     1      -4.435   2.134  -0.761  1.00  0.00     0.043 C 
BRANCH   6   8
ATOM      8  N   UNL     1      -6.699   1.226  -1.595  1.00  0.00    -0.254 N 
BRANCH   8   9
ATOM      9  S   UNL     1      -7.261   2.315  -2.801  1.00  0.00     0.265 S 
ATOM     10  O   UNL     1      -6.091   3.033  -3.275  1.00  0.00    -0.201 OA
ATOM     11  O   UNL     1      -8.382   3.041  -2.242  1.00  0.00    -0.201 OA
BRANCH   9  12
ATOM     12  C   UNL     1      -7.878   1.420  -4.215  1.00  0.00     0.088 A 
ATOM     13  C   UNL     1      -8.597  -0.869  -7.785  1.00  0.00     0.044 C 
ATOM     14  C   UNL     1      -8.390  -0.051  -6.544  1.00  0.00    -0.051 A 
ATOM     15  C   UNL     1      -7.926   1.264  -6.633  1.00  0.00     0.005 A 
ATOM     16  C   UNL     1      -8.694  -0.583  -5.285  1.00  0.00     0.005 A 
ATOM     17  C   UNL     1      -7.649   1.988  -5.474  1.00  0.00     0.022 A 
ATOM     18  C   UNL     1      -8.478   0.167  -4.124  1.00  0.00     0.022 A 
ENDBRANCH   9  12
ENDBRANCH   8   9
BRANCH   8  19
ATOM     19  C   UNL     1      -6.322  -0.093  -1.995  1.00  0.00     0.053 A 
ATOM     20  C   UNL     1      -7.059  -1.156  -1.445  1.00  0.00     0.027 A 
ATOM     21  C   UNL     1      -5.233  -0.363  -2.825  1.00  0.00     0.027 A 
ATOM     22  C   UNL     1      -6.707  -2.478  -1.716  1.00  0.00     0.002 A 
ATOM     23  C   UNL     1      -4.877  -1.691  -3.085  1.00  0.00     0.002 A 
ATOM     24  C   UNL     1      -5.609  -2.744  -2.530  1.00  0.00     0.000 A 
ENDBRANCH   8  19
ENDBRANCH   6   8
ENDBRANCH   3   6
ENDBRANCH   1   2
BRANCH   1  25
ATOM     25  C   UNL     1      -3.626  -1.245   1.292  1.00  0.00     0.042 C 
BRANCH  25  26
ATOM     26  C   UNL     1      -3.732  -2.583   1.995  1.00  0.00     0.118 C 
BRANCH  26  27
ATOM     27  N   UNL     1      -4.019  -3.735   1.135  1.00  0.00    -0.352 N 
ATOM     28  C   UNL     1      -4.310  -5.051   1.490  1.00  0.00     0.251 C 
ATOM     29  H   UNL     1      -4.003  -3.553   0.167  1.00  0.00     0.163 HD
ATOM     30  O   UNL     1      -4.550  -5.879   0.631  1.00  0.00    -0.269 OA
BRANCH  28  31
ATOM     31  C   UNL     1      -4.487  -5.392   2.931  1.00  0.00     0.039 A 
ATOM     32  C   UNL     1      -5.614  -6.140   3.291  1.00  0.00     0.014 A 
ATOM     33  C   UNL     1      -3.776  -4.702   3.900  1.00  0.00     0.014 A 
ATOM     34  C   UNL     1      -6.206  -5.908   4.529  1.00  0.00     0.010 A 
ATOM     35  C   UNL     1      -4.451  -4.328   5.038  1.00  0.00     0.010 A 
ATOM     36  C   UNL     1      -5.705  -4.880   5.319  1.00  0.00    -0.014 A 
BRANCH  36  37
ATOM     37  C   UNL     1      -6.452  -4.231   6.389  1.00  0.00     0.031 A 
ATOM     38  C   UNL     1      -5.936  -4.293   7.773  1.00  0.00     0.074 A 
ATOM     39  C   UNL     1      -7.512  -3.445   6.084  1.00  0.00     0.049 A 
ATOM     40  N   UNL     1      -6.608  -3.921   8.805  1.00  0.00    -0.248 NA
ATOM     41  C   UNL     1      -4.627  -4.850   8.123  1.00  0.00     0.031 C 
ATOM     42  C   UNL     1      -8.149  -2.438   6.932  1.00  0.00     0.029 A 
ATOM     43  N   UNL     1      -8.382  -3.563   4.985  1.00  0.00    -0.354 N 
ATOM     44  C   UNL     1      -5.743  -3.879   9.870  1.00  0.00     0.074 A 
ATOM     45  C   UNL     1      -4.572  -4.586   9.431  1.00  0.00     0.031 C 
ATOM     46  C   UNL     1      -9.410  -2.249   6.515  1.00  0.00     0.029 A 
ATOM     47  C   UNL     1      -9.667  -3.239   5.486  1.00  0.00     0.049 A 
ATOM     48  H   UNL     1      -8.147  -3.817   4.063  1.00  0.00     0.167 HD
ATOM     49  C   UNL     1      -6.085  -3.122  10.946  1.00  0.00     0.037 A 
ATOM     50  C   UNL     1     -10.665  -4.168   5.538  1.00  0.00     0.037 A 
ATOM     51  C   UNL     1      -7.514  -2.807  10.917  1.00  0.00     0.049 A 
ATOM     52  C   UNL     1     -11.184  -4.439   6.934  1.00  0.00     0.074 A 
ATOM     53  C   UNL     1      -8.245  -1.658  10.674  1.00  0.00     0.029 A 
ATOM     54  N   UNL     1      -8.424  -3.863  10.896  1.00  0.00    -0.354 N 
ATOM     55  N   UNL     1     -10.553  -4.101   8.026  1.00  0.00    -0.248 NA
ATOM     56  C   UNL     1     -12.440  -5.129   7.212  1.00  0.00     0.031 C 
ATOM     57  C   UNL     1      -9.586  -2.049  10.397  1.00  0.00     0.029 A 
ATOM     58  C   UNL     1      -9.677  -3.426  10.523  1.00  0.00     0.049 A 
ATOM     59  H   UNL     1      -8.201  -4.796  11.117  1.00  0.00     0.167 HD
ATOM     60  C   UNL     1     -11.255  -4.537   9.120  1.00  0.00     0.074 A 
ATOM     61  C   UNL     1     -12.444  -5.148   8.557  1.00  0.00     0.031 C 
ATOM     62  C   UNL     1     -10.780  -4.374  10.393  1.00  0.00     0.037 A 
BRANCH  49  63
ATOM     63  C   UNL     1      -5.104  -2.515  11.928  1.00  0.00     0.057 A 
ATOM     64  C   UNL     1      -5.575  -1.757  13.019  1.00  0.00     0.134 A 
ATOM     65  C   UNL     1      -3.699  -2.511  11.792  1.00  0.00     0.134 A 
ATOM     66  F   UNL     1      -6.886  -1.639  13.273  1.00  0.00    -0.206 F 
ATOM     67  C   UNL     1      -4.724  -1.056  13.889  1.00  0.00     0.040 A 
ATOM     68  C   UNL     1      -2.837  -1.858  12.685  1.00  0.00     0.040 A 
ATOM     69  F   UNL     1      -3.072  -3.079  10.758  1.00  0.00    -0.206 F 
ATOM     70  C   UNL     1      -3.348  -1.114  13.732  1.00  0.00     0.006 A 
ENDBRANCH  49  63
BRANCH  50  71
ATOM     71  C   UNL     1     -10.600  -5.152   4.426  1.00  0.00     0.057 A 
ATOM     72  C   UNL     1     -10.802  -4.684   3.115  1.00  0.00     0.134 A 
ATOM     73  C   UNL     1      -9.959  -6.384   4.570  1.00  0.00     0.134 A 
ATOM     74  F   UNL     1     -11.417  -3.510   2.906  1.00  0.00    -0.206 F 
ATOM     75  C   UNL     1     -10.271  -5.346   2.004  1.00  0.00     0.040 A 
ATOM     76  C   UNL     1      -9.437  -7.064   3.461  1.00  0.00     0.040 A 
ATOM     77  F   UNL     1      -9.706  -6.884   5.788  1.00  0.00    -0.206 F 
ATOM     78  C   UNL     1      -9.552  -6.523   2.181  1.00  0.00     0.006 A 
ENDBRANCH  50  71
BRANCH  62  79
ATOM     79  C   UNL     1     -11.322  -5.035  11.645  1.00  0.00     0.057 A 
ATOM     80  C   UNL     1     -12.043  -6.239  11.668  1.00  0.00     0.134 A 
ATOM     81  C   UNL     1     -10.986  -4.527  12.923  1.00  0.00     0.134 A 
ATOM     82  F   UNL     1     -12.332  -6.910  10.546  1.00  0.00    -0.206 F 
ATOM     83  C   UNL     1     -12.451  -6.855  12.862  1.00  0.00     0.040 A 
ATOM     84  C   UNL     1     -11.335  -5.163  14.118  1.00  0.00     0.040 A 
ATOM     85  F   UNL     1     -10.275  -3.399  13.070  1.00  0.00    -0.206 F 
ATOM     86  C   UNL     1     -12.087  -6.325  14.092  1.00  0.00     0.006 A 
ENDBRANCH  62  79
ENDBRANCH  36  37
ENDBRANCH  28  31
ENDBRANCH  26  27
ENDBRANCH  25  26
ENDBRANCH   1  25
TORSDOF 14
