REMARK SMILES NS(=O)(=O)c1ccc(-n2nc(C(=O)NCCCNC(=O)c3ccc(-c4c5nc(c(-c6c(F)cccc6F)c6ccc([nH]6)c(-c6c(F)cccc6F)c6nc(c(-c7c(F)cccc7F)c7ccc4[nH]7)C=C6)C=C5)cc3)c(Cl)c2-c2ccc(Cl)cc2)cc1
REMARK SMILES IDX 15 1 14 2 12 3 13 4 11 6 9 7 10 8 77 9 75 10 76 11 8 12 5 13
REMARK SMILES IDX 6 14 86 15 7 16 85 17 2 18 3 19 4 20 1 21 78 24 79 25 84 26
REMARK SMILES IDX 80 27 83 28 81 29 82 30 16 31 17 32 18 33 19 34 20 36 21 37
REMARK SMILES IDX 22 38 74 39 23 40 73 41 24 42 25 43 26 44 67 45 27 46 72 47
REMARK SMILES IDX 66 48 68 49 28 50 71 51 65 52 64 53 29 55 55 56 38 57 54 58
REMARK SMILES IDX 39 59 42 60 53 61 69 62 40 63 41 64 52 66 70 67 43 68 30 69
REMARK SMILES IDX 31 70 36 71 32 72 33 73 35 74 37 75 34 76 56 77 57 78 62 79
REMARK SMILES IDX 58 80 59 81 61 82 63 83 60 84 44 85 45 86 50 87 46 88 47 89
REMARK SMILES IDX 49 90 51 91 48 92
REMARK H PARENT 14 5 1 22 1 23 18 35 68 54 42 65
REMARK Flexibility Score: inf
ROOT
ATOM      1  C   UNL     1       2.876  11.467  -0.152  1.00  0.00     0.118 C 
ENDROOT
BRANCH   1   2
ATOM      2  N   UNL     1       4.134  10.729  -0.229  1.00  0.00    -0.351 N 
ATOM      3  C   UNL     1       4.395   9.369  -0.259  1.00  0.00     0.273 C 
ATOM      4  O   UNL     1       5.569   9.035  -0.431  1.00  0.00    -0.267 OA
ATOM      5  H   UNL     1       4.937  11.297  -0.266  1.00  0.00     0.163 HD
BRANCH   3   6
ATOM      6  C   UNL     1       3.299   8.389  -0.174  1.00  0.00     0.169 A 
ATOM      7  N   UNL     1       2.109   6.679  -0.702  1.00  0.00    -0.231 N 
ATOM      8  N   UNL     1       3.319   7.255  -0.911  1.00  0.00    -0.160 NA
ATOM      9  C   UNL     1       1.279   7.488   0.048  1.00  0.00     0.094 A 
ATOM     10  C   UNL     1       2.162   8.355   0.657  1.00  0.00     0.100 A 
ATOM     11  Cl  UNL     1       1.860   9.115   2.142  1.00  0.00    -0.079 Cl
BRANCH   7  12
ATOM     12  C   UNL     1       1.860   5.329  -1.037  1.00  0.00     0.065 A 
ATOM     13  C   UNL     1       1.205   2.648  -1.346  1.00  0.00     0.082 A 
ATOM     14  C   UNL     1       2.405   2.994  -0.716  1.00  0.00     0.024 A 
ATOM     15  C   UNL     1       0.340   3.635  -1.833  1.00  0.00     0.024 A 
ATOM     16  C   UNL     1       2.749   4.343  -0.583  1.00  0.00     0.030 A 
ATOM     17  C   UNL     1       0.661   4.980  -1.666  1.00  0.00     0.030 A 
BRANCH  13  18
ATOM     18  S   UNL     1       0.717   0.957  -1.516  1.00  0.00     0.238 S 
ATOM     19  O   UNL     1       1.437   0.391  -2.642  1.00  0.00    -0.207 OA
ATOM     20  O   UNL     1      -0.710   0.869  -1.380  1.00  0.00    -0.207 OA
BRANCH  18  21
ATOM     21  N   UNL     1       1.334   0.204  -0.146  1.00  0.00    -0.225 NA
ATOM     22  H   UNL     1       1.095  -0.787  -0.166  1.00  0.00     0.137 HD
ATOM     23  H   UNL     1       0.934   0.634   0.688  1.00  0.00     0.137 HD
ENDBRANCH  18  21
ENDBRANCH  13  18
ENDBRANCH   7  12
BRANCH   9  24
ATOM     24  C   UNL     1      -0.102   7.264   0.447  1.00  0.00     0.002 A 
ATOM     25  C   UNL     1      -1.097   8.089  -0.096  1.00  0.00     0.012 A 
ATOM     26  C   UNL     1      -0.393   6.446   1.543  1.00  0.00     0.012 A 
ATOM     27  C   UNL     1      -2.363   8.133   0.489  1.00  0.00     0.021 A 
ATOM     28  C   UNL     1      -1.657   6.497   2.130  1.00  0.00     0.021 A 
ATOM     29  C   UNL     1      -2.629   7.353   1.613  1.00  0.00     0.041 A 
ATOM     30  Cl  UNL     1      -4.151   7.488   2.401  1.00  0.00    -0.084 Cl
ENDBRANCH   9  24
ENDBRANCH   3   6
ENDBRANCH   1   2
BRANCH   1  31
ATOM     31  C   UNL     1       2.570  11.935   1.276  1.00  0.00     0.042 C 
BRANCH  31  32
ATOM     32  C   UNL     1       3.073  13.318   1.595  1.00  0.00     0.118 C 
BRANCH  32  33
ATOM     33  N   UNL     1       2.224  14.415   1.112  1.00  0.00    -0.352 N 
ATOM     34  C   UNL     1       2.328  15.773   1.423  1.00  0.00     0.251 C 
ATOM     35  H   UNL     1       1.497  14.165   0.498  1.00  0.00     0.163 HD
ATOM     36  O   UNL     1       1.401  16.545   1.222  1.00  0.00    -0.269 OA
BRANCH  34  37
ATOM     37  C   UNL     1       3.596  16.257   2.007  1.00  0.00     0.039 A 
ATOM     38  C   UNL     1       3.728  17.253   2.979  1.00  0.00     0.014 A 
ATOM     39  C   UNL     1       4.711  15.559   1.612  1.00  0.00     0.014 A 
ATOM     40  C   UNL     1       5.003  17.479   3.508  1.00  0.00     0.010 A 
ATOM     41  C   UNL     1       5.666  15.389   2.549  1.00  0.00     0.010 A 
ATOM     42  C   UNL     1       5.992  16.531   3.234  1.00  0.00    -0.014 A 
BRANCH  42  43
ATOM     43  C   UNL     1       7.399  16.611   3.581  1.00  0.00     0.031 A 
ATOM     44  C   UNL     1       7.694  16.478   5.022  1.00  0.00     0.074 A 
ATOM     45  C   UNL     1       8.357  16.435   2.635  1.00  0.00     0.049 A 
ATOM     46  N   UNL     1       8.165  17.377   5.817  1.00  0.00    -0.248 NA
ATOM     47  C   UNL     1       7.279  15.238   5.695  1.00  0.00     0.031 C 
ATOM     48  C   UNL     1       8.215  16.137   1.198  1.00  0.00     0.029 A 
ATOM     49  N   UNL     1       9.703  16.363   2.808  1.00  0.00    -0.354 N 
ATOM     50  C   UNL     1       8.291  16.756   7.057  1.00  0.00     0.074 A 
ATOM     51  C   UNL     1       7.536  15.535   6.969  1.00  0.00     0.031 C 
ATOM     52  C   UNL     1       9.392  15.696   0.699  1.00  0.00     0.029 A 
ATOM     53  C   UNL     1      10.404  15.842   1.724  1.00  0.00     0.049 A 
ATOM     54  H   UNL     1      10.148  16.657   3.636  1.00  0.00     0.167 HD
ATOM     55  C   UNL     1       9.197  17.189   7.978  1.00  0.00     0.037 A 
ATOM     56  C   UNL     1      11.719  15.508   1.728  1.00  0.00     0.037 A 
ATOM     57  C   UNL     1       9.739  18.473   7.598  1.00  0.00     0.049 A 
ATOM     58  C   UNL     1      12.338  16.223   2.881  1.00  0.00     0.074 A 
ATOM     59  C   UNL     1       9.192  19.722   7.373  1.00  0.00     0.029 A 
ATOM     60  N   UNL     1      10.969  18.492   6.981  1.00  0.00    -0.354 N 
ATOM     61  N   UNL     1      12.426  17.526   2.958  1.00  0.00    -0.248 NA
ATOM     62  C   UNL     1      12.366  15.523   4.159  1.00  0.00     0.031 C 
ATOM     63  C   UNL     1       9.871  20.212   6.218  1.00  0.00     0.029 A 
ATOM     64  C   UNL     1      10.845  19.277   5.861  1.00  0.00     0.049 A 
ATOM     65  H   UNL     1      11.784  18.030   7.285  1.00  0.00     0.167 HD
ATOM     66  C   UNL     1      12.111  17.835   4.276  1.00  0.00     0.074 A 
ATOM     67  C   UNL     1      12.137  16.552   4.980  1.00  0.00     0.031 C 
ATOM     68  C   UNL     1      11.559  19.038   4.624  1.00  0.00     0.037 A 
BRANCH  55  69
ATOM     69  C   UNL     1       9.853  16.330   9.030  1.00  0.00     0.057 A 
ATOM     70  C   UNL     1      10.657  16.947  10.006  1.00  0.00     0.134 A 
ATOM     71  C   UNL     1       9.951  14.925   8.981  1.00  0.00     0.134 A 
ATOM     72  F   UNL     1      10.654  18.280  10.160  1.00  0.00    -0.206 F 
ATOM     73  C   UNL     1      11.552  16.230  10.809  1.00  0.00     0.040 A 
ATOM     74  C   UNL     1      10.801  14.194   9.816  1.00  0.00     0.040 A 
ATOM     75  F   UNL     1       9.314  14.186   8.066  1.00  0.00    -0.206 F 
ATOM     76  C   UNL     1      11.633  14.848  10.709  1.00  0.00     0.006 A 
ENDBRANCH  55  69
BRANCH  56  77
ATOM     77  C   UNL     1      12.340  14.342   1.053  1.00  0.00     0.057 A 
ATOM     78  C   UNL     1      13.723  14.256   0.849  1.00  0.00     0.134 A 
ATOM     79  C   UNL     1      11.610  13.161   0.811  1.00  0.00     0.134 A 
ATOM     80  F   UNL     1      14.512  15.312   1.096  1.00  0.00    -0.206 F 
ATOM     81  C   UNL     1      14.344  13.067   0.434  1.00  0.00     0.040 A 
ATOM     82  C   UNL     1      12.215  11.971   0.392  1.00  0.00     0.040 A 
ATOM     83  F   UNL     1      10.292  13.099   1.052  1.00  0.00    -0.206 F 
ATOM     84  C   UNL     1      13.590  11.918   0.212  1.00  0.00     0.006 A 
ENDBRANCH  56  77
BRANCH  68  85
ATOM     85  C   UNL     1      11.450  20.116   3.573  1.00  0.00     0.057 A 
ATOM     86  C   UNL     1      10.668  20.005   2.412  1.00  0.00     0.134 A 
ATOM     87  C   UNL     1      11.983  21.381   3.843  1.00  0.00     0.134 A 
ATOM     88  F   UNL     1      10.028  18.871   2.114  1.00  0.00    -0.206 F 
ATOM     89  C   UNL     1      10.454  21.084   1.548  1.00  0.00     0.040 A 
ATOM     90  C   UNL     1      11.752  22.477   3.005  1.00  0.00     0.040 A 
ATOM     91  F   UNL     1      12.689  21.590   4.965  1.00  0.00    -0.206 F 
ATOM     92  C   UNL     1      10.991  22.330   1.849  1.00  0.00     0.006 A 
ENDBRANCH  68  85
ENDBRANCH  42  43
ENDBRANCH  34  37
ENDBRANCH  32  33
ENDBRANCH  31  32
ENDBRANCH   1  31
TORSDOF 14
