REMARK SMILES O=C(NCCCNC(=O)[C@H]1CCC(=O)N(C2CCCCC2)[C@H]1c1ccccc1)c1ccc(-c2c3nc(c(-c4c(F)cccc4F)c4ccc([nH]4)c(-c4c(F)cccc4F)c4nc(c(-c5c(F)cccc5F)c5ccc2[nH]5)C=C4)C=C3)cc1
REMARK SMILES IDX 4 1 3 2 1 3 2 4 29 6 30 7 82 8 31 9 81 10 32 11 33 12 34 13
REMARK SMILES IDX 75 14 35 15 80 16 74 17 76 18 36 19 79 20 73 21 72 22 37 24
REMARK SMILES IDX 63 25 46 26 62 27 47 28 50 29 61 30 77 31 48 32 49 33 60 35
REMARK SMILES IDX 78 36 51 37 38 38 39 39 44 40 40 41 41 42 43 43 45 44 42 45
REMARK SMILES IDX 64 46 65 47 70 48 66 49 67 50 69 51 71 52 68 53 52 54 53 55
REMARK SMILES IDX 58 56 54 57 55 58 57 59 59 60 56 61 5 62 6 63 7 64 8 65 9 67
REMARK SMILES IDX 10 68 11 69 22 70 12 71 15 72 13 73 14 74 23 75 24 76 28 77
REMARK SMILES IDX 25 78 27 79 26 80 16 81 17 82 21 83 18 84 20 85 19 86
REMARK H PARENT 3 5 76 23 50 34 7 66
REMARK Flexibility Score: inf
ROOT
ATOM      1  C   UNL     1       4.222   0.926  -5.648  1.00  0.00     0.118 C 
ENDROOT
BRANCH   1   2
ATOM      2  N   UNL     1       4.407   0.603  -7.059  1.00  0.00    -0.352 N 
ATOM      3  O   UNL     1       4.865  -0.735  -8.815  1.00  0.00    -0.269 OA
ATOM      4  C   UNL     1       4.427  -0.623  -7.677  1.00  0.00     0.251 C 
ATOM      5  H   UNL     1       4.538   1.376  -7.655  1.00  0.00     0.163 HD
BRANCH   4   6
ATOM      6  C   UNL     1       3.910  -1.801  -6.955  1.00  0.00     0.039 A 
ATOM      7  C   UNL     1       2.765  -1.681  -6.167  1.00  0.00     0.014 A 
ATOM      8  C   UNL     1       4.555  -3.034  -7.080  1.00  0.00     0.014 A 
ATOM      9  C   UNL     1       2.358  -2.743  -5.380  1.00  0.00     0.010 A 
ATOM     10  C   UNL     1       4.064  -4.142  -6.385  1.00  0.00     0.010 A 
ATOM     11  C   UNL     1       2.970  -3.998  -5.518  1.00  0.00    -0.014 A 
BRANCH  11  12
ATOM     12  C   UNL     1       2.352  -5.154  -4.828  1.00  0.00     0.031 A 
ATOM     13  C   UNL     1       3.088  -5.926  -3.774  1.00  0.00     0.074 A 
ATOM     14  C   UNL     1       1.077  -5.460  -5.143  1.00  0.00     0.049 A 
ATOM     15  N   UNL     1       2.667  -6.937  -3.058  1.00  0.00    -0.248 NA
ATOM     16  C   UNL     1       4.473  -5.523  -3.489  1.00  0.00     0.031 C 
ATOM     17  C   UNL     1       0.275  -4.777  -6.165  1.00  0.00     0.029 A 
ATOM     18  N   UNL     1       0.219  -6.392  -4.624  1.00  0.00    -0.354 N 
ATOM     19  C   UNL     1       3.733  -7.300  -2.247  1.00  0.00     0.074 A 
ATOM     20  C   UNL     1       4.833  -6.420  -2.579  1.00  0.00     0.031 C 
ATOM     21  C   UNL     1      -0.970  -5.267  -6.152  1.00  0.00     0.029 A 
ATOM     22  C   UNL     1      -1.033  -6.356  -5.189  1.00  0.00     0.049 A 
ATOM     23  H   UNL     1       0.475  -7.027  -3.916  1.00  0.00     0.167 HD
ATOM     24  C   UNL     1       3.780  -8.274  -1.307  1.00  0.00     0.037 A 
ATOM     25  C   UNL     1      -2.108  -7.133  -4.976  1.00  0.00     0.037 A 
ATOM     26  C   UNL     1       2.672  -9.140  -0.987  1.00  0.00     0.049 A 
ATOM     27  C   UNL     1      -2.007  -8.230  -3.958  1.00  0.00     0.074 A 
ATOM     28  C   UNL     1       2.611 -10.147  -0.039  1.00  0.00     0.029 A 
ATOM     29  N   UNL     1       1.432  -9.104  -1.610  1.00  0.00    -0.354 N 
ATOM     30  N   UNL     1      -1.000  -8.542  -3.179  1.00  0.00    -0.248 NA
ATOM     31  C   UNL     1      -3.187  -9.086  -3.795  1.00  0.00     0.031 C 
ATOM     32  C   UNL     1       1.354 -10.755  -0.125  1.00  0.00     0.029 A 
ATOM     33  C   UNL     1       0.609 -10.088  -1.084  1.00  0.00     0.049 A 
ATOM     34  H   UNL     1       1.175  -8.473  -2.321  1.00  0.00     0.167 HD
ATOM     35  C   UNL     1      -1.431  -9.620  -2.420  1.00  0.00     0.074 A 
ATOM     36  C   UNL     1      -2.801  -9.884  -2.812  1.00  0.00     0.031 C 
ATOM     37  C   UNL     1      -0.752 -10.335  -1.489  1.00  0.00     0.037 A 
BRANCH  24  38
ATOM     38  C   UNL     1       5.071  -8.474  -0.566  1.00  0.00     0.057 A 
ATOM     39  C   UNL     1       5.527  -7.555   0.388  1.00  0.00     0.134 A 
ATOM     40  C   UNL     1       5.833  -9.633  -0.760  1.00  0.00     0.134 A 
ATOM     41  F   UNL     1       4.853  -6.418   0.615  1.00  0.00    -0.206 F 
ATOM     42  C   UNL     1       6.701  -7.776   1.112  1.00  0.00     0.040 A 
ATOM     43  C   UNL     1       6.994  -9.878  -0.024  1.00  0.00     0.040 A 
ATOM     44  F   UNL     1       5.451 -10.558  -1.653  1.00  0.00    -0.206 F 
ATOM     45  C   UNL     1       7.433  -8.945   0.914  1.00  0.00     0.006 A 
ENDBRANCH  24  38
BRANCH  25  46
ATOM     46  C   UNL     1      -3.350  -6.923  -5.762  1.00  0.00     0.057 A 
ATOM     47  C   UNL     1      -4.538  -6.509  -5.150  1.00  0.00     0.134 A 
ATOM     48  C   UNL     1      -3.381  -7.146  -7.145  1.00  0.00     0.134 A 
ATOM     49  F   UNL     1      -4.577  -6.291  -3.828  1.00  0.00    -0.206 F 
ATOM     50  C   UNL     1      -5.719  -6.354  -5.879  1.00  0.00     0.040 A 
ATOM     51  C   UNL     1      -4.545  -6.961  -7.891  1.00  0.00     0.040 A 
ATOM     52  F   UNL     1      -2.273  -7.532  -7.795  1.00  0.00    -0.206 F 
ATOM     53  C   UNL     1      -5.722  -6.576  -7.255  1.00  0.00     0.006 A 
ENDBRANCH  25  46
BRANCH  37  54
ATOM     54  C   UNL     1      -1.502 -11.446  -0.816  1.00  0.00     0.057 A 
ATOM     55  C   UNL     1      -1.859 -12.618  -1.497  1.00  0.00     0.134 A 
ATOM     56  C   UNL     1      -1.870 -11.343   0.531  1.00  0.00     0.134 A 
ATOM     57  F   UNL     1      -1.552 -12.771  -2.794  1.00  0.00    -0.206 F 
ATOM     58  C   UNL     1      -2.587 -13.630  -0.872  1.00  0.00     0.040 A 
ATOM     59  C   UNL     1      -2.569 -12.363   1.176  1.00  0.00     0.040 A 
ATOM     60  F   UNL     1      -1.553 -10.251   1.243  1.00  0.00    -0.206 F 
ATOM     61  C   UNL     1      -2.939 -13.507   0.471  1.00  0.00     0.006 A 
ENDBRANCH  37  54
ENDBRANCH  11  12
ENDBRANCH   4   6
ENDBRANCH   1   2
BRANCH   1  62
ATOM     62  C   UNL     1       5.487   1.514  -5.045  1.00  0.00     0.042 C 
BRANCH  62  63
ATOM     63  C   UNL     1       5.742   2.918  -5.576  1.00  0.00     0.117 C 
BRANCH  63  64
ATOM     64  N   UNL     1       4.899   3.870  -4.883  1.00  0.00    -0.356 N 
ATOM     65  C   UNL     1       5.106   4.655  -3.800  1.00  0.00     0.225 C 
ATOM     66  H   UNL     1       4.002   3.966  -5.276  1.00  0.00     0.163 HD
ATOM     67  O   UNL     1       4.121   5.277  -3.383  1.00  0.00    -0.275 OA
BRANCH  65  68
ATOM     68  C   UNL     1       6.461   4.890  -3.145  1.00  0.00     0.106 C 
ATOM     69  C   UNL     1       7.540   3.829  -3.233  1.00  0.00     0.026 C 
ATOM     70  C   UNL     1       7.044   6.267  -3.528  1.00  0.00     0.128 C 
ATOM     71  C   UNL     1       8.609   4.132  -2.213  1.00  0.00     0.101 C 
ATOM     72  N   UNL     1       8.333   6.539  -2.825  1.00  0.00    -0.332 N 
ATOM     73  C   UNL     1       9.154   5.540  -2.304  1.00  0.00     0.223 C 
ATOM     74  O   UNL     1      10.267   5.758  -1.823  1.00  0.00    -0.275 OA
BRANCH  70  75
ATOM     75  C   UNL     1       7.126   6.498  -5.043  1.00  0.00    -0.025 A 
ATOM     76  C   UNL     1       8.307   6.319  -5.777  1.00  0.00     0.006 A 
ATOM     77  C   UNL     1       5.972   6.898  -5.747  1.00  0.00     0.006 A 
ATOM     78  C   UNL     1       8.343   6.566  -7.153  1.00  0.00     0.000 A 
ATOM     79  C   UNL     1       5.996   7.097  -7.130  1.00  0.00     0.000 A 
ATOM     80  C   UNL     1       7.187   6.945  -7.831  1.00  0.00     0.000 A 
ENDBRANCH  70  75
BRANCH  72  81
ATOM     81  C   UNL     1       8.752   7.957  -2.691  1.00  0.00     0.085 C 
ATOM     82  C   UNL     1       8.803   8.377  -1.208  1.00  0.00     0.025 C 
ATOM     83  C   UNL     1      10.061   8.278  -3.442  1.00  0.00     0.025 C 
ATOM     84  C   UNL     1       9.313   9.802  -1.017  1.00  0.00     0.002 C 
ATOM     85  C   UNL     1      10.538   9.707  -3.204  1.00  0.00     0.002 C 
ATOM     86  C   UNL     1      10.649  10.015  -1.718  1.00  0.00     0.000 C 
ENDBRANCH  72  81
ENDBRANCH  65  68
ENDBRANCH  63  64
ENDBRANCH  62  63
ENDBRANCH   1  62
TORSDOF 12
