REMARK SMILES Cc1ccccc1CNc1ccc(C(=O)NCCCNC(=O)c2ccc(-c3c4nc(c(-c5c(F)cccc5F)c5ccc([nH]5)c(-c5c(F)cccc5F)c5nc(c(-c6c(F)cccc6F)c6ccc3[nH]6)C=C5)C=C4)cc2)c(F)c1F
REMARK SMILES IDX 17 1 16 2 14 3 15 4 13 6 10 7 11 8 79 9 12 10 77 11 80 12
REMARK SMILES IDX 78 13 9 14 8 16 7 17 1 18 2 19 3 20 4 21 6 22 5 23 18 24
REMARK SMILES IDX 19 25 20 26 21 27 22 29 23 30 24 31 76 32 25 33 75 34 26 35
REMARK SMILES IDX 27 36 28 37 69 38 29 39 74 40 68 41 70 42 30 43 73 44 67 45
REMARK SMILES IDX 66 46 31 48 57 49 40 50 56 51 41 52 44 53 55 54 71 55 42 56
REMARK SMILES IDX 43 57 54 59 72 60 45 61 32 62 33 63 38 64 34 65 35 66 37 67
REMARK SMILES IDX 39 68 36 69 58 70 59 71 64 72 60 73 61 74 63 75 65 76 62 77
REMARK SMILES IDX 46 78 47 79 52 80 48 81 49 82 51 83 53 84 50 85
REMARK H PARENT 16 5 9 15 20 28 70 47 44 58
REMARK Flexibility Score: inf
ROOT
ATOM      1  C   UNL     1      -0.374   9.112   1.521  1.00  0.00     0.118 C 
ENDROOT
BRANCH   1   2
ATOM      2  N   UNL     1      -1.250   9.208   0.361  1.00  0.00    -0.352 N 
ATOM      3  C   UNL     1      -1.569   8.350  -0.668  1.00  0.00     0.254 C 
ATOM      4  O   UNL     1      -2.397   8.772  -1.474  1.00  0.00    -0.269 OA
ATOM      5  H   UNL     1      -1.714  10.074   0.299  1.00  0.00     0.163 HD
BRANCH   3   6
ATOM      6  C   UNL     1      -0.980   6.988  -0.855  1.00  0.00     0.078 A 
ATOM      7  C   UNL     1       0.053   4.359  -1.267  1.00  0.00     0.074 A 
ATOM      8  C   UNL     1       0.681   5.251  -0.407  1.00  0.00     0.030 A 
ATOM      9  C   UNL     1      -1.071   4.822  -1.962  1.00  0.00     0.182 A 
ATOM     10  C   UNL     1       0.171   6.536  -0.207  1.00  0.00     0.019 A 
ATOM     11  C   UNL     1      -1.584   6.106  -1.760  1.00  0.00     0.173 A 
ATOM     12  F   UNL     1      -1.698   3.990  -2.811  1.00  0.00    -0.201 F 
ATOM     13  F   UNL     1      -2.692   6.445  -2.438  1.00  0.00    -0.203 F 
BRANCH   7  14
ATOM     14  N   UNL     1       0.471   3.045  -1.379  1.00  0.00    -0.379 N 
ATOM     15  H   UNL     1       0.408   2.592  -2.251  1.00  0.00     0.161 HD
BRANCH  14  16
ATOM     16  C   UNL     1       1.002   2.319  -0.234  1.00  0.00     0.149 C 
BRANCH  16  17
ATOM     17  C   UNL     1       0.329   0.968  -0.128  1.00  0.00    -0.026 A 
ATOM     18  C   UNL     1       2.526  -0.373  -0.074  1.00  0.00     0.044 C 
ATOM     19  C   UNL     1       1.027  -0.252  -0.049  1.00  0.00    -0.046 A 
ATOM     20  C   UNL     1       0.291  -1.450   0.024  1.00  0.00     0.004 A 
ATOM     21  C   UNL     1      -1.104  -1.447   0.054  1.00  0.00     0.000 A 
ATOM     22  C   UNL     1      -1.083   0.950  -0.065  1.00  0.00     0.006 A 
ATOM     23  C   UNL     1      -1.793  -0.244   0.018  1.00  0.00     0.000 A 
ENDBRANCH  16  17
ENDBRANCH  14  16
ENDBRANCH   7  14
ENDBRANCH   3   6
ENDBRANCH   1   2
BRANCH   1  24
ATOM     24  C   UNL     1       1.088   9.394   1.158  1.00  0.00     0.042 C 
BRANCH  24  25
ATOM     25  C   UNL     1       1.519  10.826   1.403  1.00  0.00     0.118 C 
BRANCH  25  26
ATOM     26  N   UNL     1       2.318  11.002   2.611  1.00  0.00    -0.352 N 
ATOM     27  C   UNL     1       2.724  12.185   3.215  1.00  0.00     0.251 C 
ATOM     28  H   UNL     1       2.607  10.174   3.056  1.00  0.00     0.163 HD
ATOM     29  O   UNL     1       3.387  12.172   4.226  1.00  0.00    -0.269 OA
BRANCH  27  30
ATOM     30  C   UNL     1       2.199  13.460   2.661  1.00  0.00     0.039 A 
ATOM     31  C   UNL     1       1.509  14.300   3.538  1.00  0.00     0.014 A 
ATOM     32  C   UNL     1       2.146  13.667   1.286  1.00  0.00     0.014 A 
ATOM     33  C   UNL     1       0.551  15.168   3.024  1.00  0.00     0.010 A 
ATOM     34  C   UNL     1       1.135  14.460   0.778  1.00  0.00     0.010 A 
ATOM     35  C   UNL     1       0.289  15.151   1.652  1.00  0.00    -0.014 A 
BRANCH  35  36
ATOM     36  C   UNL     1      -0.910  15.746   1.077  1.00  0.00     0.031 A 
ATOM     37  C   UNL     1      -0.848  17.058   0.411  1.00  0.00     0.074 A 
ATOM     38  C   UNL     1      -2.100  15.109   1.151  1.00  0.00     0.049 A 
ATOM     39  N   UNL     1      -1.825  17.902   0.395  1.00  0.00    -0.248 NA
ATOM     40  C   UNL     1       0.347  17.533  -0.272  1.00  0.00     0.031 C 
ATOM     41  C   UNL     1      -3.346  15.488   0.490  1.00  0.00     0.029 A 
ATOM     42  N   UNL     1      -2.473  14.096   2.042  1.00  0.00    -0.354 N 
ATOM     43  C   UNL     1      -1.503  18.889  -0.503  1.00  0.00     0.074 A 
ATOM     44  C   UNL     1      -0.116  18.649  -0.843  1.00  0.00     0.031 C 
ATOM     45  C   UNL     1      -4.373  14.976   1.184  1.00  0.00     0.029 A 
ATOM     46  C   UNL     1      -3.828  14.341   2.369  1.00  0.00     0.049 A 
ATOM     47  H   UNL     1      -1.907  13.363   2.375  1.00  0.00     0.167 HD
ATOM     48  C   UNL     1      -2.473  19.729  -0.966  1.00  0.00     0.037 A 
ATOM     49  C   UNL     1      -4.204  14.590   3.656  1.00  0.00     0.037 A 
ATOM     50  C   UNL     1      -3.782  19.433  -0.385  1.00  0.00     0.049 A 
ATOM     51  C   UNL     1      -4.799  15.963   3.883  1.00  0.00     0.074 A 
ATOM     52  C   UNL     1      -4.897  18.739  -0.826  1.00  0.00     0.029 A 
ATOM     53  N   UNL     1      -3.979  19.640   0.969  1.00  0.00    -0.354 N 
ATOM     54  N   UNL     1      -4.974  16.856   2.949  1.00  0.00    -0.248 NA
ATOM     55  C   UNL     1      -5.146  16.475   5.211  1.00  0.00     0.031 C 
ATOM     56  C   UNL     1      -5.772  18.544   0.279  1.00  0.00     0.029 A 
ATOM     57  C   UNL     1      -5.185  19.115   1.392  1.00  0.00     0.049 A 
ATOM     58  H   UNL     1      -3.340  20.103   1.557  1.00  0.00     0.167 HD
ATOM     59  C   UNL     1      -5.364  18.039   3.520  1.00  0.00     0.074 A 
ATOM     60  C   UNL     1      -5.470  17.749   4.937  1.00  0.00     0.031 C 
ATOM     61  C   UNL     1      -5.525  19.188   2.802  1.00  0.00     0.037 A 
BRANCH  48  62
ATOM     62  C   UNL     1      -2.265  20.644  -2.146  1.00  0.00     0.057 A 
ATOM     63  C   UNL     1      -3.313  20.931  -3.041  1.00  0.00     0.134 A 
ATOM     64  C   UNL     1      -1.037  21.242  -2.477  1.00  0.00     0.134 A 
ATOM     65  F   UNL     1      -4.572  20.543  -2.802  1.00  0.00    -0.206 F 
ATOM     66  C   UNL     1      -3.120  21.633  -4.237  1.00  0.00     0.040 A 
ATOM     67  C   UNL     1      -0.814  21.895  -3.697  1.00  0.00     0.040 A 
ATOM     68  F   UNL     1      -0.013  21.256  -1.611  1.00  0.00    -0.206 F 
ATOM     69  C   UNL     1      -1.856  22.076  -4.593  1.00  0.00     0.006 A 
ENDBRANCH  48  62
BRANCH  49  70
ATOM     70  C   UNL     1      -3.381  13.834   4.635  1.00  0.00     0.057 A 
ATOM     71  C   UNL     1      -3.434  12.428   4.602  1.00  0.00     0.134 A 
ATOM     72  C   UNL     1      -2.284  14.418   5.273  1.00  0.00     0.134 A 
ATOM     73  F   UNL     1      -4.467  11.806   4.011  1.00  0.00    -0.206 F 
ATOM     74  C   UNL     1      -2.371  11.642   5.047  1.00  0.00     0.040 A 
ATOM     75  C   UNL     1      -1.225  13.637   5.743  1.00  0.00     0.040 A 
ATOM     76  F   UNL     1      -2.160  15.751   5.337  1.00  0.00    -0.206 F 
ATOM     77  C   UNL     1      -1.242  12.252   5.584  1.00  0.00     0.006 A 
ENDBRANCH  49  70
BRANCH  61  78
ATOM     78  C   UNL     1      -6.011  20.480   3.396  1.00  0.00     0.057 A 
ATOM     79  C   UNL     1      -7.088  20.539   4.291  1.00  0.00     0.134 A 
ATOM     80  C   UNL     1      -5.491  21.724   2.987  1.00  0.00     0.134 A 
ATOM     81  F   UNL     1      -7.716  19.423   4.693  1.00  0.00    -0.206 F 
ATOM     82  C   UNL     1      -7.581  21.752   4.789  1.00  0.00     0.040 A 
ATOM     83  C   UNL     1      -6.006  22.942   3.439  1.00  0.00     0.040 A 
ATOM     84  F   UNL     1      -4.451  21.811   2.145  1.00  0.00    -0.206 F 
ATOM     85  C   UNL     1      -7.047  22.959   4.356  1.00  0.00     0.006 A 
ENDBRANCH  61  78
ENDBRANCH  35  36
ENDBRANCH  27  30
ENDBRANCH  25  26
ENDBRANCH  24  25
ENDBRANCH   1  24
TORSDOF 13
