REMARK SMILES CN(C(=O)N[C@](C)(C(=O)NCCCNC(=O)c1ccc(-c2c3nc(c(-c4c(F)cccc4F)c4ccc([nH]4)c(-c4c(F)cccc4F)c4nc(c(-c5c(F)cccc5F)c5ccc2[nH]5)C=C4)C=C3)cc1)C(F)(F)F)[C@@H]1CCC[N@@H+](C)C1
REMARK SMILES IDX 11 1 10 2 8 3 9 4 6 6 7 7 5 8 3 9 4 10 2 12 1 13 75 14 80 15
REMARK SMILES IDX 79 16 78 17 81 18 77 20 76 21 71 22 72 23 73 24 74 25 12 26
REMARK SMILES IDX 13 27 14 28 15 29 16 31 17 32 18 33 70 34 19 35 69 36 20 37
REMARK SMILES IDX 21 38 22 39 63 40 23 41 68 42 62 43 64 44 24 45 67 46 61 47
REMARK SMILES IDX 60 48 25 50 51 51 34 52 50 53 35 54 38 55 49 56 65 57 36 58
REMARK SMILES IDX 37 59 48 61 66 62 39 63 26 64 27 65 32 66 28 67 29 68 31 69
REMARK SMILES IDX 33 70 30 71 52 72 53 73 58 74 54 75 55 76 57 77 59 78 56 79
REMARK SMILES IDX 40 80 41 81 46 82 42 83 43 84 45 85 47 86 44 87
REMARK H PARENT 10 5 5 11 79 19 14 30 64 49 38 60
REMARK Flexibility Score: inf
ROOT
ATOM      1  C   UNL     1       0.397   0.219   6.931  1.00  0.00     0.117 C 
ENDROOT
BRANCH   1   2
ATOM      2  N   UNL     1       0.158  -1.202   6.718  1.00  0.00    -0.354 N 
ATOM      3  C   UNL     1       0.360  -2.067   5.681  1.00  0.00     0.255 C 
ATOM      4  O   UNL     1       0.029  -3.228   5.936  1.00  0.00    -0.272 OA
ATOM      5  H   UNL     1      -0.242  -1.640   7.504  1.00  0.00     0.163 HD
BRANCH   3   6
ATOM      6  C   UNL     1       1.048  -1.658   4.340  1.00  0.00     0.213 C 
ATOM      7  C   UNL     1       0.312  -0.492   3.669  1.00  0.00     0.056 C 
BRANCH   6   8
ATOM      8  N   UNL     1       2.409  -1.250   4.812  1.00  0.00    -0.316 N 
ATOM      9  C   UNL     1       3.659  -0.972   4.452  1.00  0.00     0.318 C 
ATOM     10  O   UNL     1       4.308  -0.592   5.428  1.00  0.00    -0.249 OA
ATOM     11  H   UNL     1       2.357  -1.143   5.790  1.00  0.00     0.166 HD
BRANCH   9  12
ATOM     12  N   UNL     1       4.185  -1.118   3.209  1.00  0.00    -0.319 N 
ATOM     13  C   UNL     1       3.438  -1.442   2.016  1.00  0.00     0.149 C 
BRANCH  12  14
ATOM     14  C   UNL     1       5.650  -0.944   2.973  1.00  0.00     0.141 C 
ATOM     15  C   UNL     1       6.829   2.422   4.331  1.00  0.00     0.332 C 
ATOM     16  N   UNL     1       6.446   1.016   4.350  1.00  0.00    -0.336 N 
ATOM     17  C   UNL     1       7.468   0.188   4.998  1.00  0.00     0.262 C 
ATOM     18  C   UNL     1       6.129   0.527   3.008  1.00  0.00     0.287 C 
ATOM     19  H   UNL     1       5.596   0.940   4.909  1.00  0.00     0.347 HD
ATOM     20  C   UNL     1       7.090  -1.294   5.087  1.00  0.00     0.064 C 
ATOM     21  C   UNL     1       6.574  -1.875   3.774  1.00  0.00     0.037 C 
ENDBRANCH  12  14
ENDBRANCH   9  12
ENDBRANCH   6   8
BRANCH   6  22
ATOM     22  C   UNL     1       0.924  -2.924   3.454  1.00  0.00     0.420 C 
ATOM     23  F   UNL     1      -0.332  -3.437   3.460  1.00  0.00    -0.168 F 
ATOM     24  F   UNL     1       1.153  -2.647   2.145  1.00  0.00    -0.168 F 
ATOM     25  F   UNL     1       1.785  -3.902   3.806  1.00  0.00    -0.168 F 
ENDBRANCH   6  22
ENDBRANCH   3   6
ENDBRANCH   1   2
BRANCH   1  26
ATOM     26  C   UNL     1      -0.891   1.040   6.878  1.00  0.00     0.042 C 
BRANCH  26  27
ATOM     27  C   UNL     1      -1.998   0.568   7.816  1.00  0.00     0.118 C 
BRANCH  27  28
ATOM     28  N   UNL     1      -1.660   0.711   9.222  1.00  0.00    -0.352 N 
ATOM     29  C   UNL     1      -2.263   1.457  10.207  1.00  0.00     0.251 C 
ATOM     30  H   UNL     1      -0.876   0.193   9.516  1.00  0.00     0.163 HD
ATOM     31  O   UNL     1      -1.724   1.564  11.303  1.00  0.00    -0.269 OA
BRANCH  29  32
ATOM     32  C   UNL     1      -3.541   2.159   9.947  1.00  0.00     0.039 A 
ATOM     33  C   UNL     1      -3.693   3.466  10.419  1.00  0.00     0.014 A 
ATOM     34  C   UNL     1      -4.590   1.540   9.265  1.00  0.00     0.014 A 
ATOM     35  C   UNL     1      -4.866   4.173  10.144  1.00  0.00     0.010 A 
ATOM     36  C   UNL     1      -5.723   2.273   8.918  1.00  0.00     0.010 A 
ATOM     37  C   UNL     1      -5.875   3.598   9.354  1.00  0.00    -0.014 A 
BRANCH  37  38
ATOM     38  C   UNL     1      -7.080   4.374   8.963  1.00  0.00     0.031 A 
ATOM     39  C   UNL     1      -8.450   3.931   9.397  1.00  0.00     0.074 A 
ATOM     40  C   UNL     1      -6.947   5.444   8.154  1.00  0.00     0.049 A 
ATOM     41  N   UNL     1      -9.617   4.449   9.108  1.00  0.00    -0.248 NA
ATOM     42  C   UNL     1      -8.520   2.731  10.245  1.00  0.00     0.031 C 
ATOM     43  C   UNL     1      -5.680   5.942   7.615  1.00  0.00     0.029 A 
ATOM     44  N   UNL     1      -7.888   6.296   7.632  1.00  0.00    -0.354 N 
ATOM     45  C   UNL     1     -10.558   3.630   9.720  1.00  0.00     0.074 A 
ATOM     46  C   UNL     1      -9.828   2.552  10.351  1.00  0.00     0.031 C 
ATOM     47  C   UNL     1      -5.921   7.021   6.855  1.00  0.00     0.029 A 
ATOM     48  C   UNL     1      -7.359   7.267   6.817  1.00  0.00     0.049 A 
ATOM     49  H   UNL     1      -8.851   6.219   7.823  1.00  0.00     0.167 HD
ATOM     50  C   UNL     1     -11.904   3.772   9.766  1.00  0.00     0.037 A 
ATOM     51  C   UNL     1      -7.962   8.239   6.105  1.00  0.00     0.037 A 
ATOM     52  C   UNL     1     -12.624   4.857   9.150  1.00  0.00     0.049 A 
ATOM     53  C   UNL     1      -9.456   8.380   6.173  1.00  0.00     0.074 A 
ATOM     54  C   UNL     1     -13.979   5.136   9.210  1.00  0.00     0.029 A 
ATOM     55  N   UNL     1     -12.051   5.833   8.348  1.00  0.00    -0.354 N 
ATOM     56  N   UNL     1     -10.326   7.651   6.830  1.00  0.00    -0.248 NA
ATOM     57  C   UNL     1     -10.054   9.482   5.407  1.00  0.00     0.031 C 
ATOM     58  C   UNL     1     -14.234   6.242   8.392  1.00  0.00     0.029 A 
ATOM     59  C   UNL     1     -13.030   6.693   7.875  1.00  0.00     0.049 A 
ATOM     60  H   UNL     1     -11.090   5.905   8.145  1.00  0.00     0.167 HD
ATOM     61  C   UNL     1     -11.569   8.217   6.575  1.00  0.00     0.074 A 
ATOM     62  C   UNL     1     -11.337   9.361   5.717  1.00  0.00     0.031 C 
ATOM     63  C   UNL     1     -12.790   7.824   7.013  1.00  0.00     0.037 A 
BRANCH  50  64
ATOM     64  C   UNL     1     -12.688   2.717  10.496  1.00  0.00     0.057 A 
ATOM     65  C   UNL     1     -12.608   2.556  11.886  1.00  0.00     0.134 A 
ATOM     66  C   UNL     1     -13.551   1.861   9.799  1.00  0.00     0.134 A 
ATOM     67  F   UNL     1     -11.795   3.335  12.616  1.00  0.00    -0.206 F 
ATOM     68  C   UNL     1     -13.326   1.559  12.550  1.00  0.00     0.040 A 
ATOM     69  C   UNL     1     -14.300   0.882  10.456  1.00  0.00     0.040 A 
ATOM     70  F   UNL     1     -13.686   1.964   8.468  1.00  0.00    -0.206 F 
ATOM     71  C   UNL     1     -14.180   0.722  11.835  1.00  0.00     0.006 A 
ENDBRANCH  50  64
BRANCH  51  72
ATOM     72  C   UNL     1      -7.142   9.158   5.277  1.00  0.00     0.057 A 
ATOM     73  C   UNL     1      -6.975  10.502   5.630  1.00  0.00     0.134 A 
ATOM     74  C   UNL     1      -6.487   8.710   4.122  1.00  0.00     0.134 A 
ATOM     75  F   UNL     1      -7.591  10.995   6.715  1.00  0.00    -0.206 F 
ATOM     76  C   UNL     1      -6.197  11.370   4.862  1.00  0.00     0.040 A 
ATOM     77  C   UNL     1      -5.685   9.559   3.359  1.00  0.00     0.040 A 
ATOM     78  F   UNL     1      -6.598   7.431   3.734  1.00  0.00    -0.206 F 
ATOM     79  C   UNL     1      -5.543  10.896   3.726  1.00  0.00     0.006 A 
ENDBRANCH  51  72
BRANCH  63  80
ATOM     80  C   UNL     1     -13.972   8.649   6.590  1.00  0.00     0.057 A 
ATOM     81  C   UNL     1     -14.441   8.651   5.270  1.00  0.00     0.134 A 
ATOM     82  C   UNL     1     -14.673   9.422   7.525  1.00  0.00     0.134 A 
ATOM     83  F   UNL     1     -13.809   7.943   4.322  1.00  0.00    -0.206 F 
ATOM     84  C   UNL     1     -15.551   9.409   4.891  1.00  0.00     0.040 A 
ATOM     85  C   UNL     1     -15.802  10.160   7.165  1.00  0.00     0.040 A 
ATOM     86  F   UNL     1     -14.283   9.459   8.808  1.00  0.00    -0.206 F 
ATOM     87  C   UNL     1     -16.239  10.160   5.842  1.00  0.00     0.006 A 
ENDBRANCH  63  80
ENDBRANCH  37  38
ENDBRANCH  29  32
ENDBRANCH  27  28
ENDBRANCH  26  27
ENDBRANCH   1  26
TORSDOF 14
