REMARK SMILES O=C(NCCCNC(=O)c1ccc(-c2c3nc(c(-c4c(F)cccc4F)c4ccc([nH]4)c(-c4c(F)cccc4F)c4nc(c(-c5c(F)cccc5F)c5ccc2[nH]5)C=C4)C=C3)cc1)C1=Cc2c(ccc(Cl)c2Cl)O[C@H]1C(F)(F)F
REMARK SMILES IDX 5 1 4 2 3 3 1 4 2 5 64 7 65 8 75 9 66 10 74 11 67 12 72 13
REMARK SMILES IDX 68 14 70 15 73 16 69 17 71 18 76 19 77 20 78 21 79 22 6 23
REMARK SMILES IDX 7 24 8 25 9 27 10 28 11 29 63 30 12 31 62 32 13 33 14 34
REMARK SMILES IDX 15 35 56 36 16 37 61 38 55 39 57 40 17 41 60 42 54 43 53 44
REMARK SMILES IDX 18 46 44 47 27 48 43 49 28 50 31 51 42 52 58 53 29 54 30 55
REMARK SMILES IDX 41 57 59 58 32 59 19 60 20 61 25 62 21 63 22 64 24 65 26 66
REMARK SMILES IDX 23 67 45 68 46 69 51 70 47 71 48 72 50 73 52 74 49 75 33 76
REMARK SMILES IDX 34 77 39 78 35 79 36 80 38 81 40 82 37 83
REMARK H PARENT 3 6 7 26 57 45 31 56
REMARK Flexibility Score: inf
ROOT
ATOM      1  C   UNL     1       4.002   2.931  -0.929  1.00  0.00     0.042 C 
ENDROOT
BRANCH   1   2
ATOM      2  C   UNL     1       3.798   1.623  -0.190  1.00  0.00     0.118 C 
BRANCH   2   3
ATOM      3  N   UNL     1       2.453   1.079  -0.201  1.00  0.00    -0.352 N 
ATOM      4  O   UNL     1       0.887  -0.538  -0.048  1.00  0.00    -0.270 OA
ATOM      5  C   UNL     1       2.067  -0.215   0.038  1.00  0.00     0.251 C 
ATOM      6  H   UNL     1       1.730   1.716  -0.404  1.00  0.00     0.163 HD
BRANCH   5   7
ATOM      7  C   UNL     1       3.088  -1.253   0.353  1.00  0.00     0.067 C 
ATOM      8  C   UNL     1       3.657  -1.204   1.570  1.00  0.00     0.027 C 
ATOM      9  C   UNL     1       3.828  -1.801  -0.840  1.00  0.00     0.314 C 
ATOM     10  C   UNL     1       5.068  -0.747   1.508  1.00  0.00     0.037 A 
ATOM     11  O   UNL     1       5.276  -1.633  -0.761  1.00  0.00    -0.475 OA
ATOM     12  C   UNL     1       5.777  -0.936   0.310  1.00  0.00     0.129 A 
ATOM     13  C   UNL     1       5.617   0.052   2.530  1.00  0.00     0.070 A 
ATOM     14  C   UNL     1       7.000  -0.299   0.109  1.00  0.00     0.049 A 
ATOM     15  C   UNL     1       6.830   0.717   2.304  1.00  0.00     0.060 A 
ATOM     16  Cl  UNL     1       4.732   0.289   4.006  1.00  0.00    -0.082 Cl
ATOM     17  C   UNL     1       7.507   0.552   1.091  1.00  0.00     0.026 A 
ATOM     18  Cl  UNL     1       7.511   1.816   3.451  1.00  0.00    -0.083 Cl
BRANCH   9  19
ATOM     19  C   UNL     1       3.473  -3.278  -1.110  1.00  0.00     0.429 C 
ATOM     20  F   UNL     1       2.507  -3.750  -0.289  1.00  0.00    -0.167 F 
ATOM     21  F   UNL     1       3.032  -3.443  -2.381  1.00  0.00    -0.167 F 
ATOM     22  F   UNL     1       4.545  -4.092  -0.954  1.00  0.00    -0.167 F 
ENDBRANCH   9  19
ENDBRANCH   5   7
ENDBRANCH   2   3
ENDBRANCH   1   2
BRANCH   1  23
ATOM     23  C   UNL     1       3.615   4.159  -0.120  1.00  0.00     0.118 C 
BRANCH  23  24
ATOM     24  N   UNL     1       4.478   4.406   1.036  1.00  0.00    -0.352 N 
ATOM     25  C   UNL     1       5.510   5.294   1.261  1.00  0.00     0.251 C 
ATOM     26  H   UNL     1       4.283   3.824   1.805  1.00  0.00     0.163 HD
ATOM     27  O   UNL     1       6.140   5.231   2.307  1.00  0.00    -0.269 OA
BRANCH  25  28
ATOM     28  C   UNL     1       5.903   6.290   0.237  1.00  0.00     0.039 A 
ATOM     29  C   UNL     1       7.261   6.573   0.042  1.00  0.00     0.014 A 
ATOM     30  C   UNL     1       4.952   6.945  -0.535  1.00  0.00     0.014 A 
ATOM     31  C   UNL     1       7.658   7.401  -1.015  1.00  0.00     0.010 A 
ATOM     32  C   UNL     1       5.348   7.653  -1.661  1.00  0.00     0.010 A 
ATOM     33  C   UNL     1       6.707   7.883  -1.924  1.00  0.00    -0.014 A 
BRANCH  33  34
ATOM     34  C   UNL     1       7.063   8.630  -3.160  1.00  0.00     0.031 A 
ATOM     35  C   UNL     1       6.434   9.974  -3.417  1.00  0.00     0.074 A 
ATOM     36  C   UNL     1       7.817   8.047  -4.114  1.00  0.00     0.049 A 
ATOM     37  N   UNL     1       6.358  10.658  -4.529  1.00  0.00    -0.248 NA
ATOM     38  C   UNL     1       5.746  10.602  -2.277  1.00  0.00     0.031 C 
ATOM     39  C   UNL     1       8.461   6.737  -4.013  1.00  0.00     0.029 A 
ATOM     40  N   UNL     1       8.143   8.477  -5.377  1.00  0.00    -0.354 N 
ATOM     41  C   UNL     1       5.566  11.761  -4.237  1.00  0.00     0.074 A 
ATOM     42  C   UNL     1       5.147  11.629  -2.858  1.00  0.00     0.031 C 
ATOM     43  C   UNL     1       9.122   6.479  -5.153  1.00  0.00     0.029 A 
ATOM     44  C   UNL     1       8.898   7.575  -6.089  1.00  0.00     0.049 A 
ATOM     45  H   UNL     1       7.862   9.349  -5.739  1.00  0.00     0.167 HD
ATOM     46  C   UNL     1       5.232  12.801  -5.038  1.00  0.00     0.037 A 
ATOM     47  C   UNL     1       9.340   7.617  -7.360  1.00  0.00     0.037 A 
ATOM     48  C   UNL     1       5.707  12.960  -6.386  1.00  0.00     0.049 A 
ATOM     49  C   UNL     1       8.980   8.793  -8.224  1.00  0.00     0.074 A 
ATOM     50  C   UNL     1       5.486  14.008  -7.262  1.00  0.00     0.029 A 
ATOM     51  N   UNL     1       6.520  12.050  -7.046  1.00  0.00    -0.354 N 
ATOM     52  N   UNL     1       8.246   9.839  -7.931  1.00  0.00    -0.248 NA
ATOM     53  C   UNL     1       9.505   8.792  -9.597  1.00  0.00     0.031 C 
ATOM     54  C   UNL     1       6.146  13.720  -8.461  1.00  0.00     0.029 A 
ATOM     55  C   UNL     1       6.808  12.511  -8.318  1.00  0.00     0.049 A 
ATOM     56  H   UNL     1       6.844  11.202  -6.665  1.00  0.00     0.167 HD
ATOM     57  C   UNL     1       8.251  10.637  -9.068  1.00  0.00     0.074 A 
ATOM     58  C   UNL     1       9.061   9.954 -10.056  1.00  0.00     0.031 C 
ATOM     59  C   UNL     1       7.640  11.829  -9.275  1.00  0.00     0.037 A 
BRANCH  46  60
ATOM     60  C   UNL     1       4.319  13.847  -4.466  1.00  0.00     0.057 A 
ATOM     61  C   UNL     1       4.734  14.714  -3.446  1.00  0.00     0.134 A 
ATOM     62  C   UNL     1       3.010  13.992  -4.942  1.00  0.00     0.134 A 
ATOM     63  F   UNL     1       5.971  14.620  -2.935  1.00  0.00    -0.206 F 
ATOM     64  C   UNL     1       3.868  15.659  -2.893  1.00  0.00     0.040 A 
ATOM     65  C   UNL     1       2.145  14.955  -4.419  1.00  0.00     0.040 A 
ATOM     66  F   UNL     1       2.549  13.200  -5.923  1.00  0.00    -0.206 F 
ATOM     67  C   UNL     1       2.570  15.784  -3.384  1.00  0.00     0.006 A 
ENDBRANCH  46  60
BRANCH  47  68
ATOM     68  C   UNL     1      10.196   6.524  -7.887  1.00  0.00     0.057 A 
ATOM     69  C   UNL     1      11.558   6.739  -8.127  1.00  0.00     0.134 A 
ATOM     70  C   UNL     1       9.686   5.250  -8.164  1.00  0.00     0.134 A 
ATOM     71  F   UNL     1      12.100   7.945  -7.897  1.00  0.00    -0.206 F 
ATOM     72  C   UNL     1      12.380   5.734  -8.638  1.00  0.00     0.040 A 
ATOM     73  C   UNL     1      10.502   4.228  -8.654  1.00  0.00     0.040 A 
ATOM     74  F   UNL     1       8.391   4.976  -7.947  1.00  0.00    -0.206 F 
ATOM     75  C   UNL     1      11.852   4.472  -8.899  1.00  0.00     0.006 A 
ENDBRANCH  47  68
BRANCH  59  76
ATOM     76  C   UNL     1       7.872  12.501 -10.594  1.00  0.00     0.057 A 
ATOM     77  C   UNL     1       7.242  12.068 -11.766  1.00  0.00     0.134 A 
ATOM     78  C   UNL     1       8.689  13.636 -10.674  1.00  0.00     0.134 A 
ATOM     79  F   UNL     1       6.459  10.979 -11.755  1.00  0.00    -0.206 F 
ATOM     80  C   UNL     1       7.426  12.736 -12.978  1.00  0.00     0.040 A 
ATOM     81  C   UNL     1       8.863  14.324 -11.875  1.00  0.00     0.040 A 
ATOM     82  F   UNL     1       9.315  14.104  -9.583  1.00  0.00    -0.206 F 
ATOM     83  C   UNL     1       8.232  13.873 -13.032  1.00  0.00     0.006 A 
ENDBRANCH  59  76
ENDBRANCH  33  34
ENDBRANCH  25  28
ENDBRANCH  23  24
ENDBRANCH   1  23
TORSDOF 11
